data_PCOD9223602
_publ_section_title
;
Structure prediction by ZEFSAII (Michael W. Deem and Ramdas Pophale) SiO2 
 PCOD9223602
Probable space group: C 2/M
;
_chemical_formula_sum "Si O2"
_cell_formula_units_Z 24
_cell_length_a 30.000000
_cell_length_b 9.000000
_cell_length_c 18.000000
_cell_angle_alpha 90.000000
_cell_angle_beta 150.000000
_cell_angle_gamma 90.000000
_cell_volume 2430.000000
_symmetry_space_group_name_H-M "C 2/M"
_symmetry_group_IT_number 12
_symmetry_cell_setting 'monoclinic'
loop_
_space_group_symop_operation_xyz
x,y,z
-x,y,-z
-x,-y,-z
x,-y,z
1/2+x,1/2+y,z
1/2-x,1/2+y,-z
1/2-x,1/2-y,-z
1/2+x,1/2-y,z
loop_
_atom_site_type_symbol
_atom_site_label
_atom_site_fract_x
_atom_site_fract_y
_atom_site_fract_z
Si Si1 0.396104 0.175423 0.238957
Si Si2 0.235195 0.173960 0.245331
Si Si3 0.074236 0.178069 0.455189
Si Si4 0.881906 0.169912 0.643851
Si Si5 0.828225 0.331583 0.707221
Si Si6 0.213004 0.825137 0.047369
O O1 0.490241 0.258565 0.378658
O O2 0.318196 0.209155 0.186213
O O3 0.412803 0.000000 0.264519
O O4 0.347324 0.226400 0.092790
O O5 0.330063 0.258140 0.383183
O O6 0.173229 0.232158 0.221761
O O7 0.191705 0.195100 0.102413
O O8 0.253883 0.000000 0.283018
O O9 0.066566 0.218907 0.356048
O O10 0.076112 0.000000 0.462016
O O11 0.885964 0.269328 0.722699
O O12 0.776476 0.169275 0.469193
O O13 0.906881 0.000000 0.696817
O O14 0.852223 0.500000 0.759286
O O15 0.201028 0.000000 0.010044
#
# Coordination Sequence:
#
# PCOD9223602 Si02
#       6
#     8   8   8   8   8   8
#     4  10  20  35  55  75  97 129 168 206 247 297
#     4  10  19  32  51  74 102 133 166 204 246 292
#     4  10  20  33  50  75 105 132 164 206 248 291
#     4   8  15  27  43  65  95 131 164 195 237 290
#     4   9  16  26  43  69  99 128 161 201 243 289
#     4   9  20  37  54  73  98 131 168 204 245 297
#
# _framework density 9.8765429999999999
#
# number of rings (size 3 to 8) (size 9 to 14) (size 15 to 20)
#    0.000    2.667    0.000    3.000    0.000    7.333 
#    0.000    3.333    0.000    1.000    0.000    7.000 
#    0.000    0.000    0.000    0.000    0.000    0.000 
#
# Total GULP energy -133875.157840 kJ/mol
# GULP energy per Si atom -5578.131577 kJ/mol
# Density = 0.985406 g / cm^3
# Si number density = 9.876543 Si / 1000 Ang^3
#
#
#
# Elastic Constant Matrix: (Units=GPa)
#
#
# Indices 1 2 3 4 5 6 
#
# 1 41.0971 20.6914 -5.0567 0.0000 -22.2551 0.0000
# 2 20.6914 44.2325 3.1498 0.0000 -18.2352 0.0000
# 3 -5.0567 3.1498 -4.3910 0.0000 -6.7058 0.0000
# 4 0.0000 0.0000 0.0000 17.1683 0.0000 2.7252
# 5 -22.2551 -18.2352 -6.7058 0.0000 17.8461 0.0000
# 6 0.0000 0.0000 0.0000 2.7252 0.0000 27.9942
#
#
#
# Elastic Compliance Matrix: (Units=1/GPa)
#
#
# Indices 1 2 3 4 5 6 
#
# 1 0.026012 -0.004847 -0.047914 0.000000 0.009482 0.000000
# 2 -0.004847 0.037157 -0.010493 0.000000 0.027980 0.000000
# 3 -0.047914 -0.010493 -0.046043 0.000000 -0.087774 0.000000
# 4 0.000000 0.000000 0.000000 0.059161 0.000000 -0.005759
# 5 0.009482 0.027980 -0.087774 0.000000 0.063467 0.000000
# 6 0.000000 0.000000 0.000000 -0.005759 0.000000 0.036282
#
#
# Mechanical properties :
#
#
# Convention : Reuss Voigt Hill
#
# Bulk Modulus (GPa) = -9.14227 13.16752 2.01262
# Shear Modulus (GPa) = 18.79096 16.74533 17.76815
#
# Velocity S-wave (km/s) = 3.08765 2.91474 3.00244
# Velocity P-wave (km/s) = 2.84132 4.24360 3.61118
#
# Compressibility (1/GPa) = -0.10938204
#
# Stress axis : x y z
#
# Youngs Moduli (GPa) = 38.44328 26.91256 -21.71883
#
# Poissons Ratio (x) = 0.13045 -1.04063
# Poissons Ratio (y) = 0.18634 -0.22790
# Poissons Ratio (z) = 1.84197 0.28240
#
# Static dielectric constant tensor:
#      x y z
#    x 1.707500 0.000000 -0.015800 
#    y 0.000000 1.669750 0.000000 
#    z -0.015800 0.000000 1.686530 
# 
# From -- ./inp_files/274615.got.cif
#   From: 2010.05.17/outbox.ucp.g08.bks.cvg/sg12_138_cif.got.tgz:274615.got - 2010.06.11 11:47:21.
