data_PCOD9223103
_publ_section_title
;
Structure prediction by ZEFSAII (Michael W. Deem and Ramdas Pophale) SiO2 
 PCOD9223103
Probable space group: C 2/M
;
_chemical_formula_sum "Si O2"
_cell_formula_units_Z 56
_cell_length_a 16.846663
_cell_length_b 29.715358
_cell_length_c 14.000294
_cell_angle_alpha 90.000000
_cell_angle_beta 146.205975
_cell_angle_gamma 90.000000
_cell_volume 3898.252691
_symmetry_space_group_name_H-M "C 2/M"
_symmetry_group_IT_number 12
_symmetry_cell_setting 'monoclinic'
loop_
_space_group_symop_operation_xyz
x,y,z
-x,y,-z
-x,-y,-z
x,-y,z
1/2+x,1/2+y,z
1/2-x,1/2+y,-z
1/2-x,1/2-y,-z
1/2+x,1/2-y,z
loop_
_atom_site_type_symbol
_atom_site_label
_atom_site_fract_x
_atom_site_fract_y
_atom_site_fract_z
Si Si1 0.164236 0.500000 0.048135
Si Si2 0.170820 0.818380 0.890136
Si Si3 0.670447 0.589870 0.557367
Si Si4 0.170447 0.089870 0.783528
Si Si5 0.671034 0.226359 0.560882
Si Si6 0.828966 0.726360 0.218815
Si Si7 0.835764 0.500000 0.719663
Si Si8 0.670820 0.681620 0.451503
O O1 0.246034 0.545356 0.101019
O O2 0.166134 0.500000 0.166134
O O3 1.000000 0.500000 0.852822
O O4 0.210787 0.865709 0.882611
O O5 0.202783 0.776964 0.850187
O O6 1.000000 0.818443 0.734382
O O7 0.250529 0.807078 0.067952
O O8 0.698306 0.597335 0.698306
O O9 0.500000 0.582763 0.377273
O O10 0.753966 0.545356 0.608951
O O11 0.710787 0.634291 0.538964
O O12 0.500000 0.220404 0.383243
O O13 0.713470 0.221087 0.713470
O O14 0.702784 0.276964 0.555379
O O15 0.749471 0.192922 0.566894
#
# Coordination Sequence:
#
# PCOD9223103 Si02
#       8
#     4   8   8   8   8   8   4   8
#     4   9  17  27  39  59  86 111 136 169 207 246
#     4   9  17  28  43  63  84 109 143 176 204 239
#     4   9  16  27  43  61  83 112 142 170 203 245
#     4   9  16  27  43  61  83 112 142 170 203 245
#     4   9  17  29  43  60  85 114 141 171 207 245
#     4   9  17  29  43  60  85 114 141 171 207 245
#     4   9  17  27  39  59  86 111 136 169 207 246
#     4   9  17  28  43  63  84 109 143 176 204 239
#
# _framework density 14.365410000000001
#
# number of rings (size 3 to 8) (size 9 to 14) (size 15 to 20)
#    0.000    3.000    0.000    1.286    0.000    6.857 
#    0.000    0.000    0.000    5.143    0.000    1.000 
#    0.000    8.000    0.000    0.000    0.000    0.000 
#
# Total GULP energy -155963.233430 kJ/mol
# GULP energy per Si atom -5570.115480 kJ/mol
# Density = 1.433271 g / cm^3
# Si number density = 14.365410 Si / 1000 Ang^3
#
#
#
# Elastic Constant Matrix: (Units=GPa)
#
#
# Indices 1 2 3 4 5 6 
#
# 1 88.1238 66.1322 35.9523 0.0000 -13.7789 0.0000
# 2 66.1322 145.2080 64.0918 0.0000 -4.3153 0.0000
# 3 35.9523 64.0918 72.9408 0.0000 -18.3311 0.0000
# 4 0.0000 0.0000 0.0000 23.8965 0.0000 -0.2292
# 5 -13.7789 -4.3153 -18.3311 0.0000 13.2005 0.0000
# 6 0.0000 0.0000 0.0000 -0.2292 0.0000 24.0049
#
#
#
# Elastic Compliance Matrix: (Units=1/GPa)
#
#
# Indices 1 2 3 4 5 6 
#
# 1 0.022417 -0.012656 0.007545 0.000000 0.029740 0.000000
# 2 -0.012656 0.020898 -0.021087 0.000000 -0.035662 0.000000
# 3 0.007545 -0.021087 0.044188 0.000000 0.062345 0.000000
# 4 0.000000 0.000000 0.000000 0.041851 0.000000 0.000400
# 5 0.029740 -0.035662 0.062345 0.000000 0.181717 0.000000
# 6 0.000000 0.000000 0.000000 0.000400 0.000000 0.041662
#
#
# Mechanical properties :
#
#
# Convention : Reuss Voigt Hill
#
# Bulk Modulus (GPa) = 28.48387 70.95837 49.72112
# Shear Modulus (GPa) = 11.99527 21.56012 16.77770
#
# Velocity S-wave (km/s) = 2.89279 3.87826 3.42120
# Velocity P-wave (km/s) = 5.57035 8.34009 7.09175
#
# Compressibility (1/GPa) = 0.03510759
#
# Stress axis : x y z
#
# Youngs Moduli (GPa) = 44.60864 47.85084 22.63073
#
# Poissons Ratio (x) = 0.60560 -0.17076
# Poissons Ratio (y) = 0.56457 0.47722
# Poissons Ratio (z) = -0.33659 1.00904
#
# Static dielectric constant tensor:
#      x y z
#    x 1.460500 0.000000 0.014340 
#    y 0.000000 1.460740 0.000000 
#    z 0.014340 0.000000 1.467280 
# 
# From -- ./inp_files/149535.got.cif
#   From: 2010.05.17/outbox.cif.g08.bks.cpg/sg12_75_cif.got.tgz:149535.got - 2010.06.03 13:09:07.
