data_PCOD9223022
_publ_section_title
;
Structure prediction by ZEFSAII (Michael W. Deem and Ramdas Pophale) SiO2 
 PCOD9223022
Probable space group: C 2/M
;
_chemical_formula_sum "Si O2"
_cell_formula_units_Z 40
_cell_length_a 15.053752
_cell_length_b 15.011670
_cell_length_c 14.338092
_cell_angle_alpha 90.000000
_cell_angle_beta 148.157513
_cell_angle_gamma 90.000000
_cell_volume 1709.457433
_symmetry_space_group_name_H-M "C 2/M"
_symmetry_group_IT_number 12
_symmetry_cell_setting 'monoclinic'
loop_
_space_group_symop_operation_xyz
x,y,z
-x,y,-z
-x,-y,-z
x,-y,z
1/2+x,1/2+y,z
1/2-x,1/2+y,-z
1/2-x,1/2-y,-z
1/2+x,1/2-y,z
loop_
_atom_site_type_symbol
_atom_site_label
_atom_site_fract_x
_atom_site_fract_y
_atom_site_fract_z
Si Si1 0.321502 0.351084 0.423544
Si Si2 0.933016 0.647938 0.538488
Si Si3 0.933008 0.096107 0.716492
Si Si4 0.954418 0.298496 0.169202
Si Si5 0.818114 0.598720 0.889235
O O1 0.384808 0.250544 0.477502
O O2 0.982802 0.191950 0.186419
O O3 0.130682 0.341540 0.291981
O O4 0.311101 0.387994 0.310379
O O5 0.758084 0.602817 0.413889
O O6 0.059783 0.658986 0.739856
O O7 0.000000 0.611215 0.500000
O O8 0.917273 0.097557 0.590176
O O9 0.005136 0.000000 0.810954
O O10 0.818332 0.330519 0.972494
O O11 0.805334 0.500000 0.917877
O O12 0.000000 0.605455 0.000000
#
# Coordination Sequence:
#
# PCOD9223022 Si02
#       5
#     8   8   8   8   8
#     4   8  15  28  46  67  89 112 147 192 232 264
#     4   9  17  29  44  65  92 124 155 182 221 267
#     4   9  16  28  47  69  92 119 152 186 220 264
#     4   8  16  28  43  67  92 116 148 185 228 269
#     4   9  15  25  46  71  89 109 145 195 237 264
#
# _framework density 23.399236999999999
#
# number of rings (size 3 to 8) (size 9 to 14) (size 15 to 20)
#    0.000    3.400    0.000    3.000    0.000    5.200 
#    0.000    1.000    0.000   30.000    0.000    0.000 
#    0.000    0.000    0.000    0.000    0.000    0.000 
#
# Total GULP energy -111617.607351 kJ/mol
# GULP energy per Si atom -5580.880368 kJ/mol
# Density = 2.334598 g / cm^3
# Si number density = 23.399237 Si / 1000 Ang^3
#
#
#
# Elastic Constant Matrix: (Units=GPa)
#
#
# Indices 1 2 3 4 5 6 
#
# 1 125.2766 4.1718 25.5423 0.0020 -27.8053 0.0025
# 2 4.1718 147.1747 59.2251 0.0007 -22.3013 0.0009
# 3 25.5423 59.2251 127.1753 0.0010 -34.4112 0.0017
# 4 0.0020 0.0007 0.0010 10.9288 0.0011 -3.8618
# 5 -27.8053 -22.3013 -34.4112 0.0011 32.0158 0.0016
# 6 0.0025 0.0009 0.0017 -3.8618 0.0016 -0.2849
#
#
#
# Elastic Compliance Matrix: (Units=1/GPa)
#
#
# Indices 1 2 3 4 5 6 
#
# 1 0.010063 0.001153 0.000034 0.000008 0.009579 0.000032
# 2 0.001153 0.008617 -0.003313 0.000002 0.003442 0.000008
# 3 0.000034 -0.003313 0.012384 0.000007 0.011033 0.000026
# 4 0.000008 0.000002 0.000007 0.015803 0.000027 -0.214227
# 5 0.009579 0.003442 0.011033 0.000027 0.053810 0.000099
# 6 0.000032 0.000008 0.000026 -0.214227 0.000099 -0.606261
#
#
# Mechanical properties :
#
#
# Convention : Reuss Voigt Hill
#
# Bulk Modulus (GPa) = 37.29684 64.16722 50.73203
# Shear Modulus (GPa) = -10.15447 29.24443 9.54498
#
# Velocity S-wave (km/s) = -2.08545 3.53909 2.02189
# Velocity P-wave (km/s) = 3.18985 6.64699 5.21333
#
# Compressibility (1/GPa) = 0.02681193
#
# Stress axis : x y z
#
# Youngs Moduli (GPa) = 99.37282 116.05336 80.74681
#
# Poissons Ratio (x) = -0.13376 -0.00275
# Poissons Ratio (y) = -0.11453 0.26750
# Poissons Ratio (z) = -0.00339 0.38446
#
# Static dielectric constant tensor:
#      x y z
#    x 1.966240 0.000000 0.026720 
#    y 0.000000 1.854010 0.000000 
#    z 0.026720 0.000000 1.905120 
# 
# From -- ./inp_files/155618.got.cif
#   From: 2010.05.17/outbox.cif.g08.bks.cpg/sg12_78_cif.got.tgz:155618.got - 2010.06.03 13:09:07.
