data_PCOD9223368
_publ_section_title
;
Structure prediction by ZEFSAII (Michael W. Deem and Ramdas Pophale) SiO2 
 PCOD9223368
Probable space group: C 2/M
;
_chemical_formula_sum "Si O2"
_cell_formula_units_Z 28
_cell_length_a 18.000000
_cell_length_b 12.000000
_cell_length_c 15.000000
_cell_angle_alpha 90.000000
_cell_angle_beta 70.000000
_cell_angle_gamma 90.000000
_cell_volume 3044.604091
_symmetry_space_group_name_H-M "C 2/M"
_symmetry_group_IT_number 12
_symmetry_cell_setting 'monoclinic'
loop_
_space_group_symop_operation_xyz
x,y,z
-x,y,-z
-x,-y,-z
x,-y,z
1/2+x,1/2+y,z
1/2-x,1/2+y,-z
1/2-x,1/2-y,-z
1/2+x,1/2-y,z
loop_
_atom_site_type_symbol
_atom_site_label
_atom_site_fract_x
_atom_site_fract_y
_atom_site_fract_z
Si Si1 0.725219 0.620363 0.758788
Si Si2 0.110279 0.314781 0.383318
Si Si3 0.257477 0.802865 0.093734
Si Si4 0.437040 0.126206 0.406958
Si Si5 0.403203 0.625728 0.753854
Si Si6 0.570009 0.715159 0.753725
Si Si7 0.578833 0.881175 0.909568
O O1 0.719857 0.500000 0.804268
O O2 0.805955 0.629054 0.669939
O O3 0.732555 0.710224 0.833619
O O4 0.647353 0.638751 0.731081
O O5 0.095311 0.308152 0.494186
O O6 0.109436 0.201411 0.327773
O O7 0.032495 0.377036 0.377696
O O8 0.174664 0.861883 0.152461
O O9 0.339801 0.869835 0.068519
O O10 0.250000 0.750000 0.000000
O O11 0.415985 0.193495 0.328155
O O12 0.407301 0.000000 0.420656
O O13 0.411179 0.500000 0.721852
O O14 0.485042 0.660780 0.768258
O O15 0.568002 0.780410 0.847080
O O16 0.583440 0.000000 0.858141
O O17 0.500000 0.882774 0.000000
#
# Coordination Sequence:
#
# PCOD9223368 Si02
#       7
#     8   8   8   8   8   8   8
#     4  10  20  35  53  74 105 137 167 210 261 308
#     4   9  19  34  53  78 102 132 177 217 254 306
#     4  10  21  36  55  79 103 131 175 217 253 309
#     4  10  18  33  56  78 104 136 174 219 262 301
#     4  10  20  36  55  75 106 141 173 212 259 309
#     4  10  21  34  51  78 107 137 176 211 253 313
#     4  10  20  35  54  76 105 136 168 213 263 305
#
# _framework density 9.1965979999999998
#
# number of rings (size 3 to 8) (size 9 to 14) (size 15 to 20)
#    0.000    2.143    0.000    3.857    0.000    1.714 
#    0.000   10.714    0.000    4.714    0.000    0.000 
#    0.000    0.000    0.000    0.000    0.000    0.000 
#
# Total GULP energy -155911.593281 kJ/mol
# GULP energy per Si atom -5568.271189 kJ/mol
# Density = 0.917567 g / cm^3
# Si number density = 9.196598 Si / 1000 Ang^3
#
#
#
# Elastic Constant Matrix: (Units=GPa)
#
#
# Indices 1 2 3 4 5 6 
#
# 1 110.8792 43.4565 32.7765 0.0000 -15.5634 0.0000
# 2 43.4565 88.0456 29.1703 0.0000 -7.4410 0.0000
# 3 32.7765 29.1703 67.7421 0.0000 -9.1015 0.0000
# 4 0.0000 0.0000 0.0000 -20.4483 0.0000 -3.8773
# 5 -15.5634 -7.4410 -9.1015 0.0000 23.6281 0.0000
# 6 0.0000 0.0000 0.0000 -3.8773 0.0000 -29.0981
#
#
#
# Elastic Compliance Matrix: (Units=1/GPa)
#
#
# Indices 1 2 3 4 5 6 
#
# 1 0.012610 -0.004643 -0.003356 0.000000 0.005551 0.000000
# 2 -0.004643 0.015055 -0.004229 0.000000 0.000054 0.000000
# 3 -0.003356 -0.004229 0.018699 0.000000 0.003660 0.000000
# 4 0.000000 0.000000 0.000000 -0.050172 0.000000 0.006685
# 5 0.005551 0.000054 0.003660 0.000000 0.047406 0.000000
# 6 0.000000 0.000000 0.000000 0.006685 0.000000 -0.035257
#
#
# Mechanical properties :
#
#
# Convention : Reuss Voigt Hill
#
# Bulk Modulus (GPa) = 45.64706 53.05259 49.34983
# Shear Modulus (GPa) = 124.69347 5.56726 65.13037
#
# Velocity S-wave (km/s) = 8.24260 1.74166 5.95709
# Velocity P-wave (km/s) = 10.74516 5.74027 8.61421
#
# Compressibility (1/GPa) = 0.02190721
#
# Stress axis : x y z
#
# Youngs Moduli (GPa) = 79.30436 66.42323 53.47996
#
# Poissons Ratio (x) = 0.30838 0.17948
# Poissons Ratio (y) = 0.36819 0.22618
# Poissons Ratio (z) = 0.26615 0.28092
#
# Static dielectric constant tensor:
#      x y z
#    x 1.636430 0.000000 -0.029720 
#    y 0.000000 1.661690 0.000000 
#    z -0.029720 0.000000 1.603500 
# 
# From -- ./inp_files/223144.got.cif
#   From: 2010.05.17/outbox.ucp.g08.bks.cvg/sg12_112_cif.got.tgz:223144.got - 2010.06.11 11:47:21.
