data_PCOD9223129
_publ_section_title
;
Structure prediction by ZEFSAII (Michael W. Deem and Ramdas Pophale) SiO2 
 PCOD9223129
Probable space group: C 2/M
;
_chemical_formula_sum "Si O2"
_cell_formula_units_Z 56
_cell_length_a 22.356130
_cell_length_b 20.163225
_cell_length_c 8.747214
_cell_angle_alpha 90.000000
_cell_angle_beta 138.526106
_cell_angle_gamma 90.000000
_cell_volume 2611.362605
_symmetry_space_group_name_H-M "C 2/M"
_symmetry_group_IT_number 12
_symmetry_cell_setting 'monoclinic'
loop_
_space_group_symop_operation_xyz
x,y,z
-x,y,-z
-x,-y,-z
x,-y,z
1/2+x,1/2+y,z
1/2-x,1/2+y,-z
1/2-x,1/2-y,-z
1/2+x,1/2-y,z
loop_
_atom_site_type_symbol
_atom_site_label
_atom_site_fract_x
_atom_site_fract_y
_atom_site_fract_z
Si Si1 0.897579 0.162488 0.732301
Si Si2 0.531398 0.575194 0.389348
Si Si3 0.666236 0.574933 0.129990
Si Si4 0.542626 0.118165 0.432144
Si Si5 0.717226 0.074493 0.918447
Si Si6 0.896856 0.687894 0.742127
Si Si7 0.139319 0.577984 0.083455
O O1 0.908809 0.128240 0.587881
O O2 0.835802 0.116905 0.720960
O O3 0.861446 0.237269 0.673491
O O4 0.000000 0.163403 0.000000
O O5 0.500000 0.593450 0.500000
O O6 0.570462 0.500000 0.466820
O O7 0.437858 0.570142 0.118111
O O8 0.701361 0.500000 0.223912
O O9 0.718273 0.606319 0.084851
O O10 0.500000 0.153178 0.500000
O O11 0.618410 0.072087 0.651975
O O12 0.594785 0.164790 0.415732
O O13 0.462848 0.083738 0.182697
O O14 0.702185 0.100028 0.060929
O O15 0.752591 0.000000 0.004798
O O16 0.854975 0.630217 0.767809
O O17 0.000000 0.692407 0.000000
O O18 0.154936 0.500000 0.150919
#
# Coordination Sequence:
#
# PCOD9223129 Si02
#       7
#     8   8   8   8   8   8   8
#     4   9  17  31  49  69  95 125 155 188 230 281
#     4   9  17  30  51  77  98 118 151 193 234 279
#     4   9  17  31  51  72  95 123 153 188 233 283
#     4   9  17  29  46  68  93 123 160 197 231 272
#     4   9  17  30  48  70  94 122 157 195 235 278
#     4   9  18  30  46  69  94 122 159 198 233 273
#     4   9  17  30  48  68  93 125 160 199 237 271
#
# _framework density 21.444744
#
# number of rings (size 3 to 8) (size 9 to 14) (size 15 to 20)
#    0.000    3.000    0.000    0.857    0.000    7.143 
#    0.000    4.286    0.000    3.429    0.000    0.000 
#    0.000    0.000    0.000    0.000    0.000    0.000 
#
# Total GULP energy -156004.156786 kJ/mol
# GULP energy per Si atom -5571.577028 kJ/mol
# Density = 2.139593 g / cm^3
# Si number density = 21.444744 Si / 1000 Ang^3
#
#
#
# Elastic Constant Matrix: (Units=GPa)
#
#
# Indices 1 2 3 4 5 6 
#
# 1 169.1781 99.0609 22.5731 0.0000 -45.4499 0.0000
# 2 99.0609 132.6779 28.0950 0.0000 -38.3111 0.0000
# 3 22.5731 28.0950 66.7467 0.0000 -2.6891 0.0000
# 4 0.0000 0.0000 0.0000 -70.1852 0.0000 -186.2347
# 5 -45.4499 -38.3111 -2.6891 0.0000 42.5107 0.0000
# 6 0.0000 0.0000 0.0000 -186.2347 0.0000 -434.6015
#
#
#
# Elastic Compliance Matrix: (Units=1/GPa)
#
#
# Indices 1 2 3 4 5 6 
#
# 1 0.011648 -0.006666 -0.000876 0.000000 0.006390 0.000000
# 2 -0.006666 0.015146 -0.003868 0.000000 0.006278 0.000000
# 3 -0.000876 -0.003868 0.016771 0.000000 -0.003361 0.000000
# 4 0.000000 0.000000 0.000000 0.103953 0.000000 -0.044546
# 5 0.006390 0.006278 -0.003361 0.000000 0.035801 0.000000
# 6 0.000000 0.000000 0.000000 -0.044546 0.000000 0.016788
#
#
# Mechanical properties :
#
#
# Convention : Reuss Voigt Hill
#
# Bulk Modulus (GPa) = 48.20408 74.22898 61.21653
# Shear Modulus (GPa) = 21.75427 -77.86362 -28.05467
#
# Velocity S-wave (km/s) = 3.18847 -6.03223 -3.62087
# Velocity P-wave (km/s) = 6.00685 3.71858 3.33575
#
# Compressibility (1/GPa) = 0.02074513
#
# Stress axis : x y z
#
# Youngs Moduli (GPa) = 85.85427 66.02501 59.62707
#
# Poissons Ratio (x) = 0.44011 0.05223
# Poissons Ratio (y) = 0.57228 0.23063
# Poissons Ratio (z) = 0.07520 0.25538
#
# Static dielectric constant tensor:
#      x y z
#    x 1.815770 0.000000 0.009840 
#    y 0.000000 1.758770 0.000000 
#    z 0.009840 0.000000 1.817830 
# 
# From -- ./inp_files/89668.got.cif
#   From: 2010.05.17/outbox.cif.g08.bks.cpg/sg12_45_cif.got.tgz:89668.got - 2010.06.03 13:09:07.
