data_PCOD9223998
_publ_section_title
;
Structure prediction by ZEFSAII (Michael W. Deem and Ramdas Pophale) SiO2 
 PCOD9223998
Probable space group: C 2/M
;
_chemical_formula_sum "Si O2"
_cell_formula_units_Z 32
_cell_length_a 30.000000
_cell_length_b 9.000000
_cell_length_c 15.000000
_cell_angle_alpha 90.000000
_cell_angle_beta 50.000000
_cell_angle_gamma 90.000000
_cell_volume 3102.479995
_symmetry_space_group_name_H-M "C 2/M"
_symmetry_group_IT_number 12
_symmetry_cell_setting 'monoclinic'
loop_
_space_group_symop_operation_xyz
x,y,z
-x,y,-z
-x,-y,-z
x,-y,z
1/2+x,1/2+y,z
1/2-x,1/2+y,-z
1/2-x,1/2-y,-z
1/2+x,1/2-y,z
loop_
_atom_site_type_symbol
_atom_site_label
_atom_site_fract_x
_atom_site_fract_y
_atom_site_fract_z
Si Si1 0.505434 0.324372 0.770631
Si Si2 0.613962 0.677641 0.144293
Si Si3 0.556961 0.821421 0.872444
Si Si4 0.350273 0.680789 0.718892
Si Si5 0.280620 0.831735 0.073662
Si Si6 0.219338 0.324415 0.455907
Si Si7 0.816815 0.330471 0.226089
Si Si8 0.889662 0.175943 0.476840
O O1 0.504387 0.500000 0.795613
O O2 0.439896 0.266356 0.844760
O O3 0.542762 0.235263 0.793276
O O4 0.542737 0.309996 0.632684
O O5 0.611069 0.500000 0.142914
O O6 0.607943 0.724053 0.254415
O O7 0.678159 0.728421 0.036360
O O8 0.620591 0.770691 0.823098
O O9 0.558447 0.000000 0.875849
O O10 0.500000 0.769208 0.000000
O O11 0.348396 0.500000 0.717927
O O12 0.283951 0.725840 0.823664
O O13 0.373597 0.732123 0.595001
O O14 0.314564 0.840846 0.123293
O O15 0.276490 0.000000 0.042163
O O16 0.218564 0.500000 0.462432
O O17 0.250000 0.250000 0.500000
O O18 0.261721 0.268091 0.323211
O O19 0.154641 0.261519 0.529925
O O20 0.808764 0.500000 0.271972
O O21 0.875553 0.000000 0.487883
#
# Coordination Sequence:
#
# PCOD9223998 Si02
#       8
#     8   8   8   8   8   8   8   8
#     4  10  22  37  56  83 115 150 189 235 285 337
#     4  10  21  36  55  85 117 148 190 238 287 337
#     4  10  21  37  58  82 110 150 194 232 274 333
#     4   9  18  35  60  84 112 149 190 237 285 337
#     4  10  19  35  59  85 113 150 189 231 289 344
#     4  12  24  37  56  83 113 146 185 229 280 336
#     4  10  20  36  58  83 112 145 187 233 280 335
#     4  10  20  39  61  81 112 152 191 235 284 336
#
# _framework density 10.314329000000001
#
# number of rings (size 3 to 8) (size 9 to 14) (size 15 to 20)
#    0.000    1.875    1.250    3.000    0.000    5.750 
#    0.000    3.125    0.000    0.000    0.000    2.625 
#    0.000    0.000    0.000    0.000    0.000    0.000 
#
# Total GULP energy -178378.196904 kJ/mol
# GULP energy per Si atom -5574.318653 kJ/mol
# Density = 1.029085 g / cm^3
# Si number density = 10.314329 Si / 1000 Ang^3
#
#
#
# Elastic Constant Matrix: (Units=GPa)
#
#
# Indices 1 2 3 4 5 6 
#
# 1 27.6895 -9.3335 7.1286 0.0000 10.3593 0.0000
# 2 -9.3335 17.0083 7.1033 0.0000 -0.1563 0.0000
# 3 7.1286 7.1033 56.5565 0.0000 -1.3484 0.0000
# 4 0.0000 0.0000 0.0000 6.9430 0.0000 -4.1914
# 5 10.3593 -0.1563 -1.3484 0.0000 23.5923 0.0000
# 6 0.0000 0.0000 0.0000 -4.1914 0.0000 15.1823
#
#
#
# Elastic Compliance Matrix: (Units=1/GPa)
#
#
# Indices 1 2 3 4 5 6 
#
# 1 0.064161 0.040746 -0.013889 0.000000 -0.028697 0.000000
# 2 0.040746 0.087925 -0.016614 0.000000 -0.018259 0.000000
# 3 -0.013889 -0.016614 0.021691 0.000000 0.007228 0.000000
# 4 0.000000 0.000000 0.000000 0.172835 0.000000 0.047715
# 5 -0.028697 -0.018259 0.007228 0.000000 0.055280 0.000000
# 6 0.000000 0.000000 0.000000 0.047715 0.000000 0.079039
#
#
# Mechanical properties :
#
#
# Convention : Reuss Voigt Hill
#
# Bulk Modulus (GPa) = 5.14767 12.33900 8.74333
# Shear Modulus (GPa) = 9.52018 15.56724 12.54371
#
# Velocity S-wave (km/s) = 2.15059 2.75005 2.46859
# Velocity P-wave (km/s) = 2.94407 4.00976 3.51751
#
# Compressibility (1/GPa) = 0.19426283
#
# Stress axis : x y z
#
# Youngs Moduli (GPa) = 15.58581 11.37331 46.10206
#
# Poissons Ratio (x) = -0.46341 0.64030
# Poissons Ratio (y) = -0.63505 0.76594
# Poissons Ratio (z) = 0.21647 0.18896
#
# Static dielectric constant tensor:
#      x y z
#    x 1.745770 0.000000 0.087920 
#    y 0.000000 1.742620 0.000000 
#    z 0.087920 0.000000 1.960190 
# 
# From -- ./inp_files/249736.got.cif
#   From: 2010.05.17/outbox.ucp.g08.bks.cvg/sg12_125_cif.got.tgz:249736.got - 2010.06.11 11:47:21.
