data_PCOD9223506
_publ_section_title
;
Structure prediction by ZEFSAII (Michael W. Deem and Ramdas Pophale) SiO2 
 PCOD9223506
Probable space group: C 2/M
;
_chemical_formula_sum "Si O2"
_cell_formula_units_Z 28
_cell_length_a 30.000000
_cell_length_b 9.000000
_cell_length_c 18.000000
_cell_angle_alpha 90.000000
_cell_angle_beta 140.000000
_cell_angle_gamma 90.000000
_cell_volume 3123.947783
_symmetry_space_group_name_H-M "C 2/M"
_symmetry_group_IT_number 12
_symmetry_cell_setting 'monoclinic'
loop_
_space_group_symop_operation_xyz
x,y,z
-x,y,-z
-x,-y,-z
x,-y,z
1/2+x,1/2+y,z
1/2-x,1/2+y,-z
1/2-x,1/2-y,-z
1/2+x,1/2-y,z
loop_
_atom_site_type_symbol
_atom_site_label
_atom_site_fract_x
_atom_site_fract_y
_atom_site_fract_z
Si Si1 0.085462 0.179293 0.316943
Si Si2 0.444167 0.680730 0.194055
Si Si3 0.037641 0.828120 0.619656
Si Si4 0.206858 0.822392 0.378159
Si Si5 0.285969 0.320979 0.973584
Si Si6 0.315702 0.329149 0.266811
Si Si7 0.670703 0.178201 0.561883
O O1 0.127980 0.218167 0.296643
O O2 0.123246 0.256153 0.435385
O O3 0.004905 0.220121 0.214772
O O4 0.090207 0.000000 0.333605
O O5 0.441566 0.500000 0.196161
O O6 0.468701 0.737601 0.306520
O O7 0.366497 0.726635 0.075935
O O8 0.119072 0.830622 0.705784
O O9 0.000000 0.758915 0.500000
O O10 0.011697 0.000000 0.590935
O O11 0.250000 0.750000 0.500000
O O12 0.249259 0.784286 0.358594
O O13 0.212144 0.000000 0.391343
O O14 0.282053 0.500000 0.972913
O O15 0.245207 0.262751 0.849602
O O16 0.250000 0.250000 0.000000
O O17 0.295423 0.500000 0.253920
O O18 0.342231 0.255493 0.376474
O O19 0.662624 0.000000 0.555755
#
# Coordination Sequence:
#
# PCOD9223506 Si02
#       7
#     8   8   8   8   8   8   8
#     4   9  16  30  53  77  99 130 169 201 238 294
#     4   9  17  30  50  74  97 126 165 206 243 286
#     4   9  16  27  46  71  96 122 154 195 240 285
#     4   8  15  27  46  72 101 130 161 198 239 291
#     4  11  21  36  54  72  97 130 169 210 250 289
#     4  11  21  34  52  72  96 130 173 209 243 291
#     4  10  19  31  47  74 109 135 158 198 253 298
#
# _framework density 8.9630179999999999
#
# number of rings (size 3 to 8) (size 9 to 14) (size 15 to 20)
#    0.000    2.429    1.429    2.143    0.000    2.857 
#    0.000    1.429    0.000    2.571    0.000    6.000 
#    0.000    0.000    0.000    0.000    0.000    0.000 
#
# Total GULP energy -155914.650667 kJ/mol
# GULP energy per Si atom -5568.380381 kJ/mol
# Density = 0.894262 g / cm^3
# Si number density = 8.963018 Si / 1000 Ang^3
#
#
#
# Elastic Constant Matrix: (Units=GPa)
#
#
# Indices 1 2 3 4 5 6 
#
# 1 73.5380 11.5757 -3.8738 0.0000 27.7186 0.0000
# 2 11.5757 36.9434 5.7767 0.0000 4.8000 0.0000
# 3 -3.8738 5.7767 49.1960 0.0000 22.1133 0.0000
# 4 0.0000 0.0000 0.0000 20.7753 0.0000 -0.7804
# 5 27.7186 4.8000 22.1133 0.0000 28.8875 0.0000
# 6 0.0000 0.0000 0.0000 -0.7804 0.0000 15.3992
#
#
#
# Elastic Compliance Matrix: (Units=1/GPa)
#
#
# Indices 1 2 3 4 5 6 
#
# 1 0.039413 -0.009418 0.031261 0.000000 -0.060184 0.000000
# 2 -0.009418 0.030021 -0.009279 0.000000 0.011152 0.000000
# 3 0.031261 -0.009279 0.055904 0.000000 -0.071249 0.000000
# 4 0.000000 0.000000 0.000000 0.048226 0.000000 0.002444
# 5 -0.060184 0.011152 -0.071249 0.000000 0.145054 0.000000
# 6 0.000000 0.000000 0.000000 0.002444 0.000000 0.065062
#
#
# Mechanical properties :
#
#
# Convention : Reuss Voigt Hill
#
# Bulk Modulus (GPa) = 6.64601 20.73717 13.69159
# Shear Modulus (GPa) = 12.23369 22.75897 17.49633
#
# Velocity S-wave (km/s) = 2.61522 3.56702 3.12754
# Velocity P-wave (km/s) = 3.58255 5.34398 4.54933
#
# Compressibility (1/GPa) = 0.15046623
#
# Stress axis : x y z
#
# Youngs Moduli (GPa) = 25.37254 33.30951 17.88779
#
# Poissons Ratio (x) = 0.31371 -0.55920
# Poissons Ratio (y) = 0.23896 0.16599
# Poissons Ratio (z) = -0.79318 0.30909
#
# Static dielectric constant tensor:
#      x y z
#    x 1.659550 0.000000 0.034590 
#    y 0.000000 1.601310 0.000000 
#    z 0.034590 0.000000 1.599590 
# 
# From -- ./inp_files/295162.got.cif
#   From: 2010.05.17/outbox.ucp.g08.bks.cvg/sg12_148_cif.got.tgz:295162.got - 2010.06.11 11:47:21.
