data_PCOD9223514
_publ_section_title
;
Structure prediction by ZEFSAII (Michael W. Deem and Ramdas Pophale) SiO2 
 PCOD9223514
Probable space group: C 2/M
;
_chemical_formula_sum "Si O2"
_cell_formula_units_Z 24
_cell_length_a 30.000000
_cell_length_b 9.000000
_cell_length_c 9.000000
_cell_angle_alpha 90.000000
_cell_angle_beta 90.000000
_cell_angle_gamma 90.000000
_cell_volume 2430.000000
_symmetry_space_group_name_H-M "C 2/M"
_symmetry_group_IT_number 12
_symmetry_cell_setting 'monoclinic'
loop_
_space_group_symop_operation_xyz
x,y,z
-x,y,-z
-x,-y,-z
x,-y,z
1/2+x,1/2+y,z
1/2-x,1/2+y,-z
1/2-x,1/2-y,-z
1/2+x,1/2-y,z
loop_
_atom_site_type_symbol
_atom_site_label
_atom_site_fract_x
_atom_site_fract_y
_atom_site_fract_z
Si Si1 0.858696 0.679396 0.512778
Si Si2 0.438968 0.821986 0.712256
Si Si3 0.268931 0.178124 0.650343
Si Si4 0.023069 0.170970 0.836071
Si Si5 0.819729 0.178376 0.211230
Si Si6 0.606528 0.176691 0.969297
O O1 0.858130 0.500000 0.488993
O O2 0.907140 0.721209 0.575486
O O3 0.821462 0.713175 0.641078
O O4 0.843122 0.759680 0.362320
O O5 0.486422 0.741944 0.727279
O O6 0.445988 0.000000 0.707463
O O7 0.411357 0.790708 0.864689
O O8 0.250000 0.250000 0.500000
O O9 0.232843 0.221436 0.775805
O O10 0.265919 0.000000 0.639770
O O11 0.068388 0.262740 0.857289
O O12 0.032605 0.000000 0.798645
O O13 0.000000 0.174001 0.000000
O O14 0.847082 0.247886 0.075477
O O15 0.823234 0.000000 0.207392
O O16 0.610469 0.000000 0.954713
#
# Coordination Sequence:
#
# PCOD9223514 Si02
#       6
#     8   8   8   8   8   8
#     4   9  17  32  52  72  95 125 160 196 236 282
#     4   9  18  32  51  73  96 124 159 196 234 281
#     4   8  15  28  47  68  92 124 159 193 230 277
#     4   9  17  30  49  71  95 124 157 193 235 283
#     4  10  19  31  48  72  99 126 159 198 238 278
#     4  10  19  32  50  71  96 127 161 195 233 280
#
# _framework density 9.8765429999999999
#
# number of rings (size 3 to 8) (size 9 to 14) (size 15 to 20)
#    0.000    2.833    0.000    1.500    0.000    4.000 
#    0.000    1.667    0.000    5.000    0.000    0.000 
#    0.000    0.000    0.000    0.000    0.000    0.000 
#
# Total GULP energy -133821.272295 kJ/mol
# GULP energy per Si atom -5575.886346 kJ/mol
# Density = 0.985406 g / cm^3
# Si number density = 9.876543 Si / 1000 Ang^3
#
#
#
# Elastic Constant Matrix: (Units=GPa)
#
#
# Indices 1 2 3 4 5 6 
#
# 1 20.3749 -3.6533 -21.3576 0.0000 -0.7605 0.0000
# 2 -3.6533 31.5833 -0.5904 0.0000 -5.4152 0.0000
# 3 -21.3576 -0.5904 4.1467 0.0000 0.9777 0.0000
# 4 0.0000 0.0000 0.0000 19.1050 0.0000 -6.2378
# 5 -0.7605 -5.4152 0.9777 0.0000 32.1353 0.0000
# 6 0.0000 0.0000 0.0000 -6.2378 0.0000 30.2497
#
#
#
# Elastic Compliance Matrix: (Units=1/GPa)
#
#
# Indices 1 2 3 4 5 6 
#
# 1 -0.010944 -0.002139 -0.056936 0.000000 0.001113 0.000000
# 2 -0.002139 0.032233 -0.007755 0.000000 0.005617 0.000000
# 3 -0.056936 -0.007755 -0.052953 0.000000 -0.001043 0.000000
# 4 0.000000 0.000000 0.000000 0.056121 0.000000 0.011573
# 5 0.001113 0.005617 -0.001043 0.000000 0.032123 0.000000
# 6 0.000000 0.000000 0.000000 0.011573 0.000000 0.035445
#
#
# Mechanical properties :
#
#
# Convention : Reuss Voigt Hill
#
# Bulk Modulus (GPa) = -6.04872 0.54470 -2.75201
# Shear Modulus (GPa) = 29.31241 21.74510 25.52875
#
# Velocity S-wave (km/s) = 3.85637 3.32150 3.59889
# Velocity P-wave (km/s) = 4.09390 3.87120 3.98410
#
# Compressibility (1/GPa) = -0.16532413
#
# Stress axis : x y z
#
# Youngs Moduli (GPa) = -91.37186 31.02421 -18.88480
#
# Poissons Ratio (x) = 0.06638 -1.07522
# Poissons Ratio (y) = -0.19549 -0.14644
# Poissons Ratio (z) = -5.20235 0.24058
#
# Static dielectric constant tensor:
#      x y z
#    x 1.724750 0.000000 -0.031350 
#    y 0.000000 1.660170 0.000000 
#    z -0.031350 0.000000 1.700430 
# 
# From -- ./inp_files/108592.got.cif
#   From: 2010.05.17/outbox.ucp.g08.bks.cvg/sg12_55_cif.got.tgz:108592.got - 2010.06.11 11:47:21.
