data_PCOD9223560
_publ_section_title
;
Structure prediction by ZEFSAII (Michael W. Deem and Ramdas Pophale) SiO2 
 PCOD9223560
Probable space group: C 2/M
;
_chemical_formula_sum "Si O2"
_cell_formula_units_Z 28
_cell_length_a 18.000000
_cell_length_b 9.000000
_cell_length_c 18.000000
_cell_angle_alpha 90.000000
_cell_angle_beta 70.000000
_cell_angle_gamma 90.000000
_cell_volume 2740.143682
_symmetry_space_group_name_H-M "C 2/M"
_symmetry_group_IT_number 12
_symmetry_cell_setting 'monoclinic'
loop_
_space_group_symop_operation_xyz
x,y,z
-x,y,-z
-x,-y,-z
x,-y,z
1/2+x,1/2+y,z
1/2-x,1/2+y,-z
1/2-x,1/2-y,-z
1/2+x,1/2-y,z
loop_
_atom_site_type_symbol
_atom_site_label
_atom_site_fract_x
_atom_site_fract_y
_atom_site_fract_z
Si Si1 0.347680 0.324142 0.552897
Si Si2 0.770796 0.840501 0.211090
Si Si3 0.325061 0.675248 0.395665
Si Si4 0.049059 0.175473 0.193962
Si Si5 0.699724 0.167557 0.077449
Si Si6 0.091566 0.670383 0.330937
Si Si7 0.099393 0.329058 0.765909
O O1 0.345742 0.500000 0.568429
O O2 0.365965 0.295960 0.460581
O O3 0.257965 0.260523 0.587039
O O4 0.407002 0.246775 0.589519
O O5 0.754598 0.845780 0.130489
O O6 0.685278 0.831611 0.278400
O O7 0.824186 0.701285 0.211131
O O8 0.807281 0.000000 0.222273
O O9 0.308571 0.500000 0.397666
O O10 0.381199 0.734535 0.313473
O O11 0.127533 0.231031 0.127313
O O12 0.052854 0.240499 0.276663
O O13 0.977796 0.253795 0.175237
O O14 0.042015 0.000000 0.198336
O O15 0.673911 0.000000 0.066034
O O16 0.750000 0.250000 0.000000
O O17 0.063800 0.500000 0.341808
O O18 0.087140 0.500000 0.753754
#
# Coordination Sequence:
#
# PCOD9223560 Si02
#       7
#     8   8   8   8   8   8   8
#     4  10  19  31  51  79 108 145 193 239 285 335
#     4   9  19  35  57  84 114 149 185 226 276 330
#     4  10  20  33  50  76 112 149 188 238 289 334
#     4  11  23  39  60  83 115 152 188 230 283 339
#     4  10  21  40  65  92 120 148 184 226 273 330
#     4  10  19  34  56  81 112 146 189 240 285 334
#     4  12  23  36  56  83 115 149 192 237 283 339
#
# _framework density 10.218442
#
# number of rings (size 3 to 8) (size 9 to 14) (size 15 to 20)
#    0.000    1.714    1.429    5.143    0.000    4.571 
#    0.000    1.429    0.000    8.571    0.000    0.000 
#    0.000    0.000    0.000    0.000    0.000    0.000 
#
# Total GULP energy -156156.652158 kJ/mol
# GULP energy per Si atom -5577.023291 kJ/mol
# Density = 1.019518 g / cm^3
# Si number density = 10.218442 Si / 1000 Ang^3
#
#
#
# Elastic Constant Matrix: (Units=GPa)
#
#
# Indices 1 2 3 4 5 6 
#
# 1 28.6610 -12.7594 -5.7156 0.0000 -8.7268 -0.0001
# 2 -12.7594 -26.0691 -15.8775 0.0000 23.7809 -0.0001
# 3 -5.7156 -15.8775 43.6351 0.0000 -0.4269 0.0000
# 4 0.0000 0.0000 0.0000 -28.3900 0.0000 -7.5704
# 5 -8.7268 23.7809 -0.4269 0.0000 -11.7664 0.0000
# 6 -0.0001 -0.0001 0.0000 -7.5704 0.0000 23.2432
#
#
#
# Elastic Compliance Matrix: (Units=1/GPa)
#
#
# Indices 1 2 3 4 5 6 
#
# 1 -0.030103 -0.062756 -0.027790 0.000000 -0.103500 0.000000
# 2 -0.062756 -0.066618 -0.033310 0.000000 -0.086888 0.000000
# 3 -0.027790 -0.033310 0.006697 0.000000 -0.046955 0.000000
# 4 0.000000 0.000000 0.000000 -0.032409 0.000000 -0.010556
# 5 -0.103500 -0.086888 -0.046955 0.000000 -0.182129 -0.000001
# 6 0.000000 0.000000 0.000000 -0.010556 -0.000001 0.039585
#
#
# Mechanical properties :
#
#
# Convention : Reuss Voigt Hill
#
# Bulk Modulus (GPa) = -2.96089 -2.49755 -2.72922
# Shear Modulus (GPa) = -38.50817 1.98934 -18.25941
#
# Velocity S-wave (km/s) = -4.34550 0.98769 -2.99231
# Velocity P-wave (km/s) = 5.16041 0.27562 3.64375
#
# Compressibility (1/GPa) = -0.33773650
#
# Stress axis : x y z
#
# Youngs Moduli (GPa) = -33.21913 -15.01103 149.31588
#
# Poissons Ratio (x) = -0.94203 4.14956
# Poissons Ratio (y) = -2.08469 4.97375
# Poissons Ratio (z) = -0.92318 -0.50002
#
# Static dielectric constant tensor:
#      x y z
#    x 1.773780 0.000000 0.029190 
#    y 0.000000 1.724630 0.000000 
#    z 0.029190 0.000000 1.727050 
# 
# From -- ./inp_files/275021.got.cif
#   From: 2010.05.17/outbox.ucp.g08.bks.cvg/sg12_138_cif.got.tgz:275021.got - 2010.06.11 11:47:21.
