data_PCOD9223313
_publ_section_title
;
Structure prediction by ZEFSAII (Michael W. Deem and Ramdas Pophale) SiO2 
 PCOD9223313
Probable space group: C 2/M
;
_chemical_formula_sum "Si O2"
_cell_formula_units_Z 22
_cell_length_a 21.000000
_cell_length_b 9.000000
_cell_length_c 12.000000
_cell_angle_alpha 90.000000
_cell_angle_beta 80.000000
_cell_angle_gamma 90.000000
_cell_volume 2233.543984
_symmetry_space_group_name_H-M "C 2/M"
_symmetry_group_IT_number 12
_symmetry_cell_setting 'monoclinic'
loop_
_space_group_symop_operation_xyz
x,y,z
-x,y,-z
-x,-y,-z
x,-y,z
1/2+x,1/2+y,z
1/2-x,1/2+y,-z
1/2-x,1/2-y,-z
1/2+x,1/2-y,z
loop_
_atom_site_type_symbol
_atom_site_label
_atom_site_fract_x
_atom_site_fract_y
_atom_site_fract_z
Si Si1 0.822894 0.679218 0.733858
Si Si2 0.061557 0.164513 0.753331
Si Si3 0.139809 0.328680 0.031548
Si Si4 0.311454 0.178353 0.219895
Si Si5 0.000000 0.242596 0.000000
Si Si6 0.962898 0.329657 0.627625
O O1 0.814395 0.500000 0.735525
O O2 0.840680 0.733595 0.854390
O O3 0.756158 0.754937 0.719240
O O4 0.887549 0.713492 0.643815
O O5 0.124944 0.267500 0.734081
O O6 0.032869 0.160038 0.887021
O O7 0.004128 0.228850 0.696922
O O8 0.079981 0.000000 0.711751
O O9 0.159265 0.500000 0.029880
O O10 0.175481 0.265207 0.911673
O O11 0.062527 0.324749 0.033312
O O12 0.309564 0.000000 0.221106
O O13 0.963440 0.500000 0.671020
O O14 0.000000 0.327277 0.500000
#
# Coordination Sequence:
#
# PCOD9223313 Si02
#       6
#     8   8   8   8   4   8
#     4  10  19  35  56  82 114 150 189 234 287 340
#     4  11  22  37  58  86 119 153 191 238 288 340
#     4   9  17  29  51  81 115 153 190 228 279 343
#     4  10  21  35  54  83 117 153 190 232 283 346
#     4  10  18  32  52  86 119 154 187 230 285 344
#     4  10  22  41  64  87 113 150 196 242 286 338
#
# _framework density 9.8498169999999998
#
# number of rings (size 3 to 8) (size 9 to 14) (size 15 to 20)
#    0.000    2.000    1.818    2.182    0.000    2.545 
#    0.000    1.818    0.000    0.000    0.000    0.000 
#    0.000    0.000    0.000    0.000    0.000    0.000 
#
# Total GULP energy -122621.743582 kJ/mol
# GULP energy per Si atom -5573.715617 kJ/mol
# Density = 0.982740 g / cm^3
# Si number density = 9.849817 Si / 1000 Ang^3
#
#
#
# Elastic Constant Matrix: (Units=GPa)
#
#
# Indices 1 2 3 4 5 6 
#
# 1 151.2840 47.4350 23.9618 0.0000 -31.9689 0.0000
# 2 47.4350 68.0948 25.0831 0.0000 -7.8644 0.0000
# 3 23.9618 25.0831 25.9065 0.0000 -14.5651 0.0000
# 4 0.0000 0.0000 0.0000 -42.3271 0.0000 -40.6587
# 5 -31.9689 -7.8644 -14.5651 0.0000 26.6089 0.0000
# 6 0.0000 0.0000 0.0000 -40.6587 0.0000 0.4535
#
#
#
# Elastic Compliance Matrix: (Units=1/GPa)
#
#
# Indices 1 2 3 4 5 6 
#
# 1 0.011333 -0.008289 0.005520 0.000000 0.014187 0.000000
# 2 -0.008289 0.030046 -0.031824 0.000000 -0.018499 0.000000
# 3 0.005520 -0.031824 0.090643 0.000000 0.046842 0.000000
# 4 0.000000 0.000000 0.000000 -0.000271 0.000000 -0.024313
# 5 0.014187 -0.018499 0.046842 0.000000 0.074799 0.000000
# 6 0.000000 0.000000 0.000000 -0.024313 0.000000 0.025310
#
#
# Mechanical properties :
#
#
# Convention : Reuss Voigt Hill
#
# Bulk Modulus (GPa) = 15.91473 48.69390 32.30432
# Shear Modulus (GPa) = 15.52829 6.86741 11.19785
#
# Velocity S-wave (km/s) = 2.81063 1.86912 2.38676
# Velocity P-wave (km/s) = 4.31614 5.42494 4.90199
#
# Compressibility (1/GPa) = 0.06283488
#
# Stress axis : x y z
#
# Youngs Moduli (GPa) = 88.23848 33.28228 11.03228
#
# Poissons Ratio (x) = 0.27589 -0.06090
# Poissons Ratio (y) = 0.73144 0.35109
# Poissons Ratio (z) = -0.48709 1.05919
#
# Static dielectric constant tensor:
#      x y z
#    x 1.668230 0.000000 -0.001470 
#    y 0.000000 1.697040 0.000000 
#    z -0.001470 0.000000 1.727150 
# 
# From -- ./inp_files/163141.got.cif
#   From: 2010.05.17/outbox.ucp.g08.bks.cvg/sg12_82_cif.got.tgz:163141.got - 2010.06.11 11:47:21.
