data_PCOD9223910
_publ_section_title
;
Structure prediction by ZEFSAII (Michael W. Deem and Ramdas Pophale) SiO2 
 PCOD9223910
Probable space group: C 2/M
;
_chemical_formula_sum "Si O2"
_cell_formula_units_Z 32
_cell_length_a 21.000000
_cell_length_b 18.000000
_cell_length_c 27.000000
_cell_angle_alpha 90.000000
_cell_angle_beta 20.000000
_cell_angle_gamma 90.000000
_cell_volume 3490.657583
_symmetry_space_group_name_H-M "C 2/M"
_symmetry_group_IT_number 12
_symmetry_cell_setting 'monoclinic'
loop_
_space_group_symop_operation_xyz
x,y,z
-x,y,-z
-x,-y,-z
x,-y,z
1/2+x,1/2+y,z
1/2-x,1/2+y,-z
1/2-x,1/2-y,-z
1/2+x,1/2-y,z
loop_
_atom_site_type_symbol
_atom_site_label
_atom_site_fract_x
_atom_site_fract_y
_atom_site_fract_z
Si Si1 0.107927 0.412266 0.372083
Si Si2 0.732213 0.837883 0.021154
Si Si3 0.609469 0.088814 0.675714
Si Si4 0.553858 0.410202 0.340664
Si Si5 0.509926 0.653044 0.072647
Si Si6 0.358804 0.089498 0.762026
Si Si7 0.901269 0.320187 0.125424
Si Si8 0.243242 0.587987 0.911917
O O1 0.068347 0.500000 0.400583
O O2 0.329871 0.398660 0.210695
O O3 0.062557 0.385273 0.349071
O O4 0.000000 0.381799 0.500000
O O5 0.523508 0.866016 0.188850
O O6 0.750000 0.750000 0.000000
O O7 0.865328 0.855238 0.969747
O O8 0.805842 0.878277 0.918178
O O9 0.510528 0.102219 0.694501
O O10 0.832627 0.105660 0.510759
O O11 0.592582 0.000000 0.698423
O O12 0.581656 0.500000 0.329582
O O13 0.697487 0.358313 0.267396
O O14 0.621959 0.396638 0.233829
O O15 0.426092 0.736685 0.128354
O O16 0.663084 0.630522 0.918508
O O17 0.322835 0.000000 0.786856
O O18 0.000000 0.315600 0.000000
O O19 0.040266 0.375583 0.052224
O O20 0.225648 0.500000 0.928090
#
# Coordination Sequence:
#
# PCOD9223910 Si02
#       8
#     8   8   8   8   8   8   8   8
#     4  10  21  36  54  82 116 147 186 239 290 336
#     4  11  22  39  57  82 117 151 189 241 285 338
#     4   9  19  37  61  87 116 151 191 237 287 343
#     4   9  19  37  61  90 117 146 192 242 288 347
#     4  11  21  36  58  79 113 153 194 234 281 342
#     4   9  18  34  59  84 109 149 197 236 278 340
#     4  10  19  34  58  85 116 152 192 235 286 343
#     4  10  20  36  60  86 115 152 193 238 290 344
#
# _framework density 9.1673270000000002
#
# number of rings (size 3 to 8) (size 9 to 14) (size 15 to 20)
#    0.000    2.125    1.250    2.250    0.000    5.000 
#    2.250    3.750    0.000    2.250    0.000    0.000 
#    0.000    0.000    0.000    0.000    0.000    0.000 
#
# Total GULP energy -178306.873200 kJ/mol
# GULP energy per Si atom -5572.089787 kJ/mol
# Density = 0.914646 g / cm^3
# Si number density = 9.167327 Si / 1000 Ang^3
#
#
#
# Elastic Constant Matrix: (Units=GPa)
#
#
# Indices 1 2 3 4 5 6 
#
# 1 71.6664 20.4021 26.4074 -0.0021 4.5735 -0.0070
# 2 20.4021 54.5157 25.4646 -0.0018 3.6586 0.0051
# 3 26.4074 25.4646 116.4981 0.0052 -4.3236 -0.0092
# 4 -0.0021 -0.0018 0.0052 27.9705 0.0027 -3.1730
# 5 4.5735 3.6586 -4.3236 0.0027 34.1209 0.0087
# 6 -0.0070 0.0051 -0.0092 -3.1730 0.0087 32.8044
#
#
#
# Elastic Compliance Matrix: (Units=1/GPa)
#
#
# Indices 1 2 3 4 5 6 
#
# 1 0.016451 -0.004724 -0.002772 0.000002 -0.002050 0.000004
# 2 -0.004724 0.022050 -0.003831 0.000001 -0.002217 -0.000005
# 3 -0.002772 -0.003831 0.010126 -0.000002 0.002066 0.000002
# 4 0.000002 0.000001 -0.000002 0.036149 -0.000005 0.003496
# 5 -0.002050 -0.002217 0.002066 -0.000005 0.030082 -0.000008
# 6 0.000004 -0.000005 0.000002 0.003496 -0.000008 0.030822
#
#
# Mechanical properties :
#
#
# Convention : Reuss Voigt Hill
#
# Bulk Modulus (GPa) = 38.50373 43.02540 40.76456
# Shear Modulus (GPa) = 28.24997 30.33956 29.29476
#
# Velocity S-wave (km/s) = 3.92956 4.07229 4.00156
# Velocity P-wave (km/s) = 6.45249 6.75493 6.60544
#
# Compressibility (1/GPa) = 0.02597151
#
# Stress axis : x y z
#
# Youngs Moduli (GPa) = 60.78740 45.35234 98.75202
#
# Poissons Ratio (x) = 0.21424 0.27379
# Poissons Ratio (y) = 0.28716 0.37833
# Poissons Ratio (z) = 0.16853 0.17375
#
# Static dielectric constant tensor:
#      x y z
#    x 1.707030 0.000000 0.015040 
#    y 0.000000 1.639080 0.000030 
#    z 0.015040 0.000030 1.602840 
# 
# From -- ./inp_files/366774.got.cif
#   From: 2010.05.17/outbox.ucp.g08.bks.cvg/sg12_184_cif.got.tgz:366774.got - 2010.06.11 11:47:21.
