data_PCOD9223810
_publ_section_title
;
Structure prediction by ZEFSAII (Michael W. Deem and Ramdas Pophale) SiO2 
 PCOD9223810
Probable space group: C 2/M
;
_chemical_formula_sum "Si O2"
_cell_formula_units_Z 32
_cell_length_a 21.000000
_cell_length_b 9.000000
_cell_length_c 21.000000
_cell_angle_alpha 90.000000
_cell_angle_beta 60.000000
_cell_angle_gamma 90.000000
_cell_volume 3437.254828
_symmetry_space_group_name_H-M "C 2/M"
_symmetry_group_IT_number 12
_symmetry_cell_setting 'monoclinic'
loop_
_space_group_symop_operation_xyz
x,y,z
-x,y,-z
-x,-y,-z
x,-y,z
1/2+x,1/2+y,z
1/2-x,1/2+y,-z
1/2-x,1/2-y,-z
1/2+x,1/2-y,z
loop_
_atom_site_type_symbol
_atom_site_label
_atom_site_fract_x
_atom_site_fract_y
_atom_site_fract_z
Si Si1 0.033704 0.822645 0.547383
Si Si2 0.905495 0.673236 0.292594
Si Si3 0.327096 0.322662 0.447526
Si Si4 0.844988 0.324950 0.075723
Si Si5 0.389213 0.675519 0.928570
Si Si6 0.451203 0.169691 0.698336
Si Si7 0.322260 0.673400 0.824347
Si Si8 0.951701 0.678979 0.134195
O O1 0.113442 0.768813 0.529858
O O2 0.000000 0.759567 0.500000
O O3 0.979609 0.780455 0.630901
O O4 0.039108 0.000000 0.538753
O O5 0.884205 0.500000 0.310356
O O6 0.858382 0.771155 0.363898
O O7 0.902896 0.716334 0.220407
O O8 0.990611 0.684364 0.272749
O O9 0.322558 0.500000 0.452037
O O10 0.250000 0.250000 0.500000
O O11 0.856943 0.500000 0.055542
O O12 0.763893 0.311496 0.145170
O O13 0.909277 0.275985 0.091490
O O14 0.845436 0.233765 0.011023
O O15 0.399925 0.500000 0.926153
O O16 0.345163 0.707089 0.885813
O O17 0.468656 0.752019 0.895087
O O18 0.370942 0.216942 0.758885
O O19 0.455441 0.000000 0.674179
O O20 0.342574 0.500000 0.802680
O O21 0.959218 0.500000 0.129142
#
# Coordination Sequence:
#
# PCOD9223810 Si02
#       8
#     8   8   8   8   8   8   8   8
#     4   9  19  37  59  82 109 144 183 220 260 313
#     4   9  18  34  56  80 106 139 181 222 261 312
#     4  10  20  35  57  83 111 143 179 219 265 315
#     4  10  22  38  55  77 107 143 181 223 269 319
#     4  11  22  35  56  81 107 140 178 224 273 322
#     4  10  19  33  57  84 109 140 178 224 269 314
#     4  10  21  37  55  78 108 143 182 221 266 322
#     4  10  20  37  58  79 105 141 183 223 265 320
#
# _framework density 9.3097549999999991
#
# number of rings (size 3 to 8) (size 9 to 14) (size 15 to 20)
#    0.000    2.125    1.250    1.875    0.000    4.750 
#    2.250    0.000    0.000    0.000    0.000    0.000 
#    0.000    0.000    0.000    0.000    0.000    0.000 
#
# Total GULP energy -178437.052496 kJ/mol
# GULP energy per Si atom -5576.157890 kJ/mol
# Density = 0.928857 g / cm^3
# Si number density = 9.309755 Si / 1000 Ang^3
#
#
#
# Elastic Constant Matrix: (Units=GPa)
#
#
# Indices 1 2 3 4 5 6 
#
# 1 38.4455 13.2233 17.1841 0.0000 -4.3868 0.0000
# 2 13.2233 -9.3608 4.2680 0.0000 -10.6028 -0.0002
# 3 17.1841 4.2680 26.8848 0.0000 -10.3884 0.0000
# 4 0.0000 0.0000 0.0000 18.3438 0.0000 2.0460
# 5 -4.3868 -10.6028 -10.3884 0.0000 21.8441 0.0000
# 6 0.0000 -0.0002 0.0000 2.0460 0.0000 17.0859
#
#
#
# Elastic Compliance Matrix: (Units=1/GPa)
#
#
# Indices 1 2 3 4 5 6 
#
# 1 0.027414 0.021929 -0.018087 0.000000 0.007548 0.000000
# 2 0.021929 -0.051259 -0.016896 0.000000 -0.028512 -0.000001
# 3 -0.018087 -0.016896 0.057417 0.000000 0.015472 0.000000
# 4 0.000000 0.000000 0.000000 0.055252 0.000000 -0.006616
# 5 0.007548 -0.028512 0.015472 0.000000 0.040814 0.000000
# 6 0.000000 -0.000001 0.000000 -0.006616 0.000000 0.059320
#
#
# Mechanical properties :
#
#
# Convention : Reuss Voigt Hill
#
# Bulk Modulus (GPa) = 133.97605 13.92448 73.95027
# Shear Modulus (GPa) = 22.98283 12.87438 17.92860
#
# Velocity S-wave (km/s) = 3.51713 2.63239 3.10642
# Velocity P-wave (km/s) = 9.41300 4.09072 7.25736
#
# Compressibility (1/GPa) = 0.00746402
#
# Stress axis : x y z
#
# Youngs Moduli (GPa) = 36.47783 -19.50858 17.41631
#
# Poissons Ratio (x) = 0.42781 0.31501
# Poissons Ratio (y) = -0.79994 0.29427
# Poissons Ratio (z) = 0.65978 -0.32962
#
# Static dielectric constant tensor:
#      x y z
#    x 1.647930 0.000000 0.006010 
#    y 0.000000 1.631390 0.000000 
#    z 0.006010 0.000000 1.655720 
# 
# From -- ./inp_files/319828.got.cif
#   From: 2010.05.17/outbox.ucp.g08.bks.cvg/sg12_160_cif.got.tgz:319828.got - 2010.06.11 11:47:21.
