data_PCOD9223288
_publ_section_title
;
Structure prediction by ZEFSAII (Michael W. Deem and Ramdas Pophale) SiO2 
 PCOD9223288
Probable space group: C 2/M
;
_chemical_formula_sum "Si O2"
_cell_formula_units_Z 32
_cell_length_a 27.000000
_cell_length_b 9.000000
_cell_length_c 15.000000
_cell_angle_alpha 90.000000
_cell_angle_beta 80.000000
_cell_angle_gamma 90.000000
_cell_volume 3589.624260
_symmetry_space_group_name_H-M "C 2/M"
_symmetry_group_IT_number 12
_symmetry_cell_setting 'monoclinic'
loop_
_space_group_symop_operation_xyz
x,y,z
-x,y,-z
-x,-y,-z
x,-y,z
1/2+x,1/2+y,z
1/2-x,1/2+y,-z
1/2-x,1/2-y,-z
1/2+x,1/2-y,z
loop_
_atom_site_type_symbol
_atom_site_label
_atom_site_fract_x
_atom_site_fract_y
_atom_site_fract_z
Si Si1 0.025748 0.819778 0.901776
Si Si2 0.641010 0.326179 0.836213
Si Si3 0.102634 0.820751 0.572028
Si Si4 0.001733 0.181377 0.711346
Si Si5 0.240955 0.826011 0.908400
Si Si6 0.189902 0.676470 0.651694
Si Si7 0.289705 0.319951 0.718547
Si Si8 0.596789 0.319500 0.368200
O O1 0.085002 0.786558 0.882244
O O2 0.002725 0.770298 0.814354
O O3 0.021284 0.000000 0.903820
O O4 0.000000 0.763396 0.000000
O O5 0.640546 0.500000 0.805421
O O6 0.682019 0.315536 0.901104
O O7 0.660409 0.223195 0.750779
O O8 0.054670 0.775084 0.647907
O O9 0.156089 0.754656 0.586894
O O10 0.091163 0.778789 0.473645
O O11 0.106298 0.000000 0.576071
O O12 0.951408 0.230764 0.674741
O O13 0.001540 0.000000 0.709883
O O14 0.270713 0.748664 0.817683
O O15 0.254283 0.000000 0.907514
O O16 0.250000 0.750000 0.000000
O O17 0.189256 0.500000 0.638137
O O18 0.247949 0.721691 0.655649
O O19 0.288317 0.500000 0.725077
O O20 0.347136 0.273732 0.680554
O O21 0.596437 0.500000 0.364137
#
# Coordination Sequence:
#
# PCOD9223288 Si02
#       8
#     8   8   8   8   8   8   8   8
#     4   9  16  26  45  77 105 122 153 206 262 303
#     4   9  17  32  51  73  99 129 167 212 255 299
#     4  10  18  31  53  78 100 129 173 219 261 312
#     4   9  16  28  49  76 104 130 165 216 264 306
#     4  10  20  33  53  77 102 136 176 214 256 307
#     4  10  19  31  50  73 100 136 171 207 253 308
#     4   9  19  35  51  73 106 137 171 214 258 307
#     4   9  18  31  50  76 104 134 170 216 268 310
#
# _framework density 8.9145819999999993
#
# number of rings (size 3 to 8) (size 9 to 14) (size 15 to 20)
#    0.000    2.625    1.250    1.125    0.000    4.000 
#    0.000    4.375    0.000    2.625    0.000    0.000 
#    0.000    0.000    0.000    0.000    0.000    0.000 
#
# Total GULP energy -178338.231382 kJ/mol
# GULP energy per Si atom -5573.069731 kJ/mol
# Density = 0.889429 g / cm^3
# Si number density = 8.914582 Si / 1000 Ang^3
#
#
#
# Elastic Constant Matrix: (Units=GPa)
#
#
# Indices 1 2 3 4 5 6 
#
# 1 126.6318 19.7807 64.9132 0.0000 10.0625 0.0000
# 2 19.7807 16.9245 12.6834 0.0000 6.1906 0.0000
# 3 64.9132 12.6834 112.7234 0.0000 15.7086 0.0000
# 4 0.0000 0.0000 0.0000 16.5336 0.0000 4.3270
# 5 10.0625 6.1906 15.7086 0.0000 27.3519 0.0000
# 6 0.0000 0.0000 0.0000 4.3270 0.0000 23.5233
#
#
#
# Elastic Compliance Matrix: (Units=1/GPa)
#
#
# Indices 1 2 3 4 5 6 
#
# 1 0.012669 -0.010584 -0.006292 0.000000 0.001349 0.000000
# 2 -0.010584 0.076778 -0.000723 0.000000 -0.013068 0.000000
# 3 -0.006292 -0.000723 0.013295 0.000000 -0.005157 0.000000
# 4 0.000000 0.000000 0.000000 0.063542 0.000000 -0.011688
# 5 0.001349 -0.013068 -0.005157 0.000000 0.041984 0.000000
# 6 0.000000 0.000000 0.000000 -0.011688 0.000000 0.044661
#
#
# Mechanical properties :
#
#
# Convention : Reuss Voigt Hill
#
# Bulk Modulus (GPa) = 14.80537 50.11489 32.46013
# Shear Modulus (GPa) = 16.09570 24.07525 20.08548
#
# Velocity S-wave (km/s) = 3.00788 3.67867 3.36006
# Velocity P-wave (km/s) = 4.51499 6.79801 5.77053
#
# Compressibility (1/GPa) = 0.06754305
#
# Stress axis : x y z
#
# Youngs Moduli (GPa) = 78.93480 13.02449 75.21732
#
# Poissons Ratio (x) = 0.13786 0.47330
# Poissons Ratio (y) = 0.83548 0.05435
# Poissons Ratio (z) = 0.49669 0.00941
#
# Static dielectric constant tensor:
#      x y z
#    x 1.617010 0.000000 0.012400 
#    y 0.000000 1.599680 0.000000 
#    z 0.012400 0.000000 1.607440 
# 
# From -- ./inp_files/243920.got.cif
#   From: 2010.05.17/outbox.ucp.g08.bks.cvg/sg12_122_cif.got.tgz:243920.got - 2010.06.11 11:47:21.
