data_PCOD9223892
_publ_section_title
;
Structure prediction by ZEFSAII (Michael W. Deem and Ramdas Pophale) SiO2 
 PCOD9223892
Probable space group: C 2/M
;
_chemical_formula_sum "Si O2"
_cell_formula_units_Z 32
_cell_length_a 24.000000
_cell_length_b 9.000000
_cell_length_c 30.000000
_cell_angle_alpha 90.000000
_cell_angle_beta 30.000000
_cell_angle_gamma 90.000000
_cell_volume 3240.000000
_symmetry_space_group_name_H-M "C 2/M"
_symmetry_group_IT_number 12
_symmetry_cell_setting 'monoclinic'
loop_
_space_group_symop_operation_xyz
x,y,z
-x,y,-z
-x,-y,-z
x,-y,z
1/2+x,1/2+y,z
1/2-x,1/2+y,-z
1/2-x,1/2-y,-z
1/2+x,1/2-y,z
loop_
_atom_site_type_symbol
_atom_site_label
_atom_site_fract_x
_atom_site_fract_y
_atom_site_fract_z
Si Si1 0.056931 0.831646 0.334227
Si Si2 0.548331 0.828480 0.218350
Si Si3 0.975437 0.669612 0.869843
Si Si4 0.870047 0.322669 0.416557
Si Si5 0.217749 0.326500 0.931407
Si Si6 0.109621 0.168124 0.401914
Si Si7 0.281886 0.323227 0.155855
Si Si8 0.174936 0.174325 0.774523
O O1 0.082916 0.840128 0.368173
O O2 0.154211 0.733484 0.245198
O O3 0.941569 0.749609 0.406375
O O4 0.056101 0.000000 0.316737
O O5 0.519196 0.822124 0.186712
O O6 0.444214 0.785881 0.321398
O O7 0.657938 0.731578 0.148390
O O8 0.576746 0.000000 0.210001
O O9 0.006638 0.500000 0.861485
O O10 0.059624 0.784634 0.832536
O O11 0.854134 0.698374 0.974457
O O12 0.862504 0.500000 0.425401
O O13 0.750000 0.250000 0.500000
O O14 0.219254 0.500000 0.920576
O O15 0.164978 0.244922 0.925145
O O16 0.226026 0.252100 0.322541
O O17 0.000000 0.237500 0.500000
O O18 0.122397 0.000000 0.411131
O O19 0.287238 0.500000 0.149802
O O20 0.326749 0.271787 0.172824
O O21 0.196119 0.000000 0.761483
#
# Coordination Sequence:
#
# PCOD9223892 Si02
#       8
#     8   8   8   8   8   8   8   8
#     4  10  19  34  57  83 111 144 188 238 286 340
#     4  10  22  41  62  83 115 157 196 238 292 351
#     4  10  23  41  59  84 119 157 195 239 293 353
#     4  11  23  38  58  84 115 152 192 237 292 346
#     4  11  22  36  61  91 115 148 196 245 292 344
#     4   9  19  36  59  84 112 151 192 233 289 354
#     4  10  20  36  58  83 115 152 190 234 287 348
#     4  10  22  38  57  84 117 154 195 242 293 340
#
# _framework density 9.8765429999999999
#
# number of rings (size 3 to 8) (size 9 to 14) (size 15 to 20)
#    0.000    1.875    1.250    2.250    0.000    5.750 
#    0.000    7.500    0.000    0.000    0.000    0.000 
#    0.000    0.000    0.000    0.000    0.000    0.000 
#
# Total GULP energy -178500.801413 kJ/mol
# GULP energy per Si atom -5578.150044 kJ/mol
# Density = 0.985406 g / cm^3
# Si number density = 9.876543 Si / 1000 Ang^3
#
#
#
# Elastic Constant Matrix: (Units=GPa)
#
#
# Indices 1 2 3 4 5 6 
#
# 1 24.0895 23.2572 8.9998 0.0018 -6.1143 0.0036
# 2 23.2572 53.2914 38.4545 0.0095 -4.7000 0.0008
# 3 8.9998 38.4545 78.1521 -0.0009 -3.3516 0.0010
# 4 0.0018 0.0095 -0.0009 -6.5542 -0.0012 -13.7852
# 5 -6.1143 -4.7000 -3.3516 -0.0012 -1.4016 0.0013
# 6 0.0036 0.0008 0.0010 -13.7852 0.0013 22.1099
#
#
#
# Elastic Compliance Matrix: (Units=1/GPa)
#
#
# Indices 1 2 3 4 5 6 
#
# 1 0.045870 -0.034224 0.007163 -0.000008 -0.102467 -0.000005
# 2 -0.034224 0.050292 -0.019622 0.000024 0.027576 0.000018
# 3 0.007163 -0.019622 0.020958 -0.000011 -0.015566 -0.000007
# 4 -0.000008 0.000024 -0.000011 -0.066011 -0.000002 -0.041157
# 5 -0.102467 0.027576 -0.015566 -0.000002 -0.321726 0.000034
# 6 -0.000005 0.000018 -0.000007 -0.041157 0.000034 0.019568
#
#
# Mechanical properties :
#
#
# Convention : Reuss Voigt Hill
#
# Bulk Modulus (GPa) = 42.09889 32.99511 37.54700
# Shear Modulus (GPa) = -33.38557 8.48560 -12.44998
#
# Velocity S-wave (km/s) = -4.11560 2.07489 -2.51326
# Velocity P-wave (km/s) = 1.10695 4.74133 3.25998
#
# Compressibility (1/GPa) = 0.02375359
#
# Stress axis : x y z
#
# Youngs Moduli (GPa) = 21.80087 19.88388 47.71420
#
# Poissons Ratio (x) = 0.68051 -0.34179
# Poissons Ratio (y) = 0.74612 0.93626
# Poissons Ratio (z) = -0.15617 0.39017
#
# Static dielectric constant tensor:
#      x y z
#    x 1.726120 0.000000 0.018720 
#    y 0.000000 1.694580 0.000000 
#    z 0.018720 0.000000 1.692260 
# 
# From -- ./inp_files/382279.got.cif
#   From: 2010.05.17/outbox.ucp.g08.bks.cvg/sg12_192_cif.got.tgz:382279.got - 2010.06.11 11:47:21.
