data_PCOD9223475
_publ_section_title
;
Structure prediction by ZEFSAII (Michael W. Deem and Ramdas Pophale) SiO2 
 PCOD9223475
Probable space group: C 2/M
;
_chemical_formula_sum "Si O2"
_cell_formula_units_Z 32
_cell_length_a 24.000000
_cell_length_b 9.000000
_cell_length_c 21.000000
_cell_angle_alpha 90.000000
_cell_angle_beta 130.000000
_cell_angle_gamma 90.000000
_cell_volume 3474.777594
_symmetry_space_group_name_H-M "C 2/M"
_symmetry_group_IT_number 12
_symmetry_cell_setting 'monoclinic'
loop_
_space_group_symop_operation_xyz
x,y,z
-x,y,-z
-x,-y,-z
x,-y,z
1/2+x,1/2+y,z
1/2-x,1/2+y,-z
1/2-x,1/2-y,-z
1/2+x,1/2-y,z
loop_
_atom_site_type_symbol
_atom_site_label
_atom_site_fract_x
_atom_site_fract_y
_atom_site_fract_z
Si Si1 0.046882 0.821297 0.277946
Si Si2 0.663039 0.834094 0.580608
Si Si3 0.537258 0.678064 0.414813
Si Si4 0.885828 0.828706 0.340517
Si Si5 0.206622 0.168442 0.413356
Si Si6 0.655790 0.163088 0.806519
Si Si7 0.703264 0.330795 0.020139
Si Si8 0.426335 0.831265 0.117366
O O1 0.022726 0.775292 0.331470
O O2 0.129508 0.767404 0.338013
O O3 0.999403 0.753165 0.187645
O O4 0.042786 0.000000 0.270824
O O5 0.611145 0.739581 0.496801
O O6 0.663270 0.766373 0.650024
O O7 0.742274 0.835129 0.609643
O O8 0.633494 0.000000 0.559494
O O9 0.539777 0.500000 0.416921
O O10 0.469033 0.723054 0.407290
O O11 0.865719 0.798370 0.253312
O O12 0.881405 0.000000 0.354463
O O13 0.250000 0.250000 0.500000
O O14 0.193110 0.000000 0.426219
O O15 0.742200 0.168318 0.880849
O O16 0.616920 0.170183 0.846484
O O17 0.636552 0.000000 0.764707
O O18 0.690196 0.500000 0.990251
O O19 0.750000 0.250000 0.000000
O O20 0.627296 0.248788 0.970734
O O21 0.439005 0.000000 0.108623
#
# Coordination Sequence:
#
# PCOD9223475 Si02
#       8
#     8   8   8   8   8   8   8   8
#     4  10  19  33  52  73  99 132 166 207 252 297
#     4  11  23  36  51  72  97 130 169 211 252 294
#     4  10  20  34  51  72  98 131 168 205 248 298
#     4  11  22  34  50  72  99 134 170 203 244 297
#     4  10  21  36  54  73  95 127 168 210 256 299
#     4   9  18  31  47  70 101 133 164 200 241 289
#     4   9  17  29  46  70 101 136 167 200 244 295
#     4  10  19  30  47  74 104 133 166 204 246 297
#
# _framework density 9.2092220000000005
#
# number of rings (size 3 to 8) (size 9 to 14) (size 15 to 20)
#    0.000    2.000    2.500    2.625    0.000    6.500 
#    0.000    0.000    0.000    0.000    0.000    0.875 
#    0.000    7.000    0.000    0.000    0.000    0.000 
#
# Total GULP energy -178136.190152 kJ/mol
# GULP energy per Si atom -5566.755942 kJ/mol
# Density = 0.918826 g / cm^3
# Si number density = 9.209222 Si / 1000 Ang^3
#
#
#
# Elastic Constant Matrix: (Units=GPa)
#
#
# Indices 1 2 3 4 5 6 
#
# 1 34.6237 32.4910 15.7562 0.0000 3.4119 0.0000
# 2 32.4910 21.1843 11.9800 0.0000 14.7478 0.0000
# 3 15.7562 11.9800 41.7801 0.0000 27.2595 0.0000
# 4 0.0000 0.0000 0.0000 26.4000 0.0000 1.3059
# 5 3.4119 14.7478 27.2595 0.0000 16.1283 0.0000
# 6 0.0000 0.0000 0.0000 1.3059 0.0000 9.9854
#
#
#
# Elastic Compliance Matrix: (Units=1/GPa)
#
#
# Indices 1 2 3 4 5 6 
#
# 1 0.017503 0.000282 0.039876 0.000000 -0.071358 0.000000
# 2 0.000282 0.021400 -0.063877 0.000000 0.088335 0.000000
# 3 0.039876 -0.063877 0.052481 0.000000 -0.038728 0.000000
# 4 0.000000 0.000000 0.000000 0.038125 0.000000 -0.004986
# 5 -0.071358 0.088335 -0.038728 0.000000 0.061781 0.000000
# 6 0.000000 0.000000 0.000000 -0.004986 0.000000 0.100798
#
#
# Mechanical properties :
#
#
# Convention : Reuss Voigt Hill
#
# Bulk Modulus (GPa) = 22.75528 24.22695 23.49111
# Shear Modulus (GPa) = 14.11735 12.99345 13.55540
#
# Velocity S-wave (km/s) = 2.77154 2.65893 2.71582
# Velocity P-wave (km/s) = 4.75640 4.75486 4.75563
#
# Compressibility (1/GPa) = 0.04394585
#
# Stress axis : x y z
#
# Youngs Moduli (GPa) = 57.13406 46.72970 19.05465
#
# Poissons Ratio (x) = -0.01318 -0.75982
# Poissons Ratio (y) = -0.01611 1.21714
# Poissons Ratio (z) = -2.27827 2.98493
#
# Static dielectric constant tensor:
#      x y z
#    x 1.687640 0.000000 0.012930 
#    y 0.000000 1.798120 0.000000 
#    z 0.012930 0.000000 1.662880 
# 
# From -- ./inp_files/324233.got.cif
#   From: 2010.05.17/outbox.ucp.g08.bks.cvg/sg12_163_cif.got.tgz:324233.got - 2010.06.11 11:47:21.
