data_PCOD9223914
_publ_section_title
;
Structure prediction by ZEFSAII (Michael W. Deem and Ramdas Pophale) SiO2 
 PCOD9223914
Probable space group: C 2/M
;
_chemical_formula_sum "Si O2"
_cell_formula_units_Z 32
_cell_length_a 15.000000
_cell_length_b 9.000000
_cell_length_c 30.000000
_cell_angle_alpha 90.000000
_cell_angle_beta 130.000000
_cell_angle_gamma 90.000000
_cell_volume 3102.479995
_symmetry_space_group_name_H-M "C 2/M"
_symmetry_group_IT_number 12
_symmetry_cell_setting 'monoclinic'
loop_
_space_group_symop_operation_xyz
x,y,z
-x,y,-z
-x,-y,-z
x,-y,z
1/2+x,1/2+y,z
1/2-x,1/2+y,-z
1/2-x,1/2-y,-z
1/2+x,1/2-y,z
loop_
_atom_site_type_symbol
_atom_site_label
_atom_site_fract_x
_atom_site_fract_y
_atom_site_fract_z
Si Si1 0.869192 0.177027 0.053588
Si Si2 0.587597 0.676661 0.645967
Si Si3 0.158867 0.675180 0.864456
Si Si4 0.883171 0.819291 0.888167
Si Si5 0.623764 0.319476 0.557233
Si Si6 0.628271 0.821968 0.388073
Si Si7 0.287002 0.677307 0.761012
Si Si8 0.556849 0.173475 0.263381
O O1 0.889600 0.227869 0.110954
O O2 0.983588 0.226609 0.063229
O O3 0.860015 0.000000 0.047636
O O4 0.750000 0.250000 0.000000
O O5 0.592159 0.500000 0.651876
O O6 0.637734 0.718807 0.613689
O O7 0.456545 0.734549 0.606875
O O8 0.663534 0.752691 0.708621
O O9 0.159662 0.500000 0.877494
O O10 0.288882 0.725371 0.894294
O O11 0.077388 0.686731 0.794729
O O12 0.836924 0.771775 0.824642
O O13 0.881962 0.000000 0.887627
O O14 0.500000 0.264469 0.500000
O O15 0.621644 0.500000 0.554709
O O16 0.737669 0.273265 0.566944
O O17 0.584410 0.791912 0.323302
O O18 0.619726 0.000000 0.392344
O O19 0.277090 0.500000 0.758950
O O20 0.371609 0.728930 0.748526
O O21 0.590837 0.000000 0.267554
#
# Coordination Sequence:
#
# PCOD9223914 Si02
#       8
#     8   8   8   8   8   8   8   8
#     4  11  23  41  60  83 114 149 194 238 283 330
#     4  11  22  37  57  86 117 148 191 239 288 341
#     4  10  20  37  61  85 112 148 188 229 280 337
#     4   9  20  38  60  84 114 151 187 225 277 346
#     4   9  19  37  59  80 110 154 197 238 289 345
#     4  10  20  37  59  84 116 154 192 232 288 348
#     4  11  20  35  60  87 117 153 190 229 284 345
#     4  10  19  34  58  87 118 150 186 230 286 347
#
# _framework density 10.314329000000001
#
# number of rings (size 3 to 8) (size 9 to 14) (size 15 to 20)
#    0.000    1.875    2.500    1.875    0.000    3.500 
#    0.000    6.250    0.000    2.625    0.000    0.000 
#    0.000    0.000    0.000    0.000    0.000    0.000 
#
# Total GULP energy -178707.946862 kJ/mol
# GULP energy per Si atom -5584.623339 kJ/mol
# Density = 1.029085 g / cm^3
# Si number density = 10.314329 Si / 1000 Ang^3
#
#
#
# Elastic Constant Matrix: (Units=GPa)
#
#
# Indices 1 2 3 4 5 6 
#
# 1 99.9250 14.6389 -0.7492 0.0000 34.7965 0.0000
# 2 14.6389 26.1994 6.1867 0.0000 8.0215 0.0000
# 3 -0.7492 6.1867 46.3987 0.0000 28.4738 0.0000
# 4 0.0000 0.0000 0.0000 17.5740 0.0000 4.4366
# 5 34.7965 8.0215 28.4738 0.0000 32.2070 0.0000
# 6 0.0000 0.0000 0.0000 4.4366 0.0000 26.9919
#
#
#
# Elastic Compliance Matrix: (Units=1/GPa)
#
#
# Indices 1 2 3 4 5 6 
#
# 1 0.068220 -0.013069 0.100726 0.000000 -0.159500 0.000000
# 2 -0.013069 0.043889 -0.017532 0.000000 0.018688 0.000000
# 3 0.100726 -0.017532 0.195910 0.000000 -0.277660 0.000000
# 4 0.000000 0.000000 0.000000 0.059365 0.000000 -0.009758
# 5 -0.159500 0.018688 -0.277660 0.000000 0.444195 0.000000
# 6 0.000000 0.000000 0.000000 -0.009758 0.000000 0.038652
#
#
# Mechanical properties :
#
#
# Convention : Reuss Voigt Hill
#
# Bulk Modulus (GPa) = 2.23080 23.63065 12.93073
# Shear Modulus (GPa) = 5.81798 25.51768 15.66783
#
# Velocity S-wave (km/s) = 1.68121 3.52092 2.75892
# Velocity P-wave (km/s) = 2.20281 5.29238 4.05350
#
# Compressibility (1/GPa) = 0.44826957
#
# Stress axis : x y z
#
# Youngs Moduli (GPa) = 14.65856 22.78465 5.10438
#
# Poissons Ratio (x) = 0.29777 -0.51414
# Poissons Ratio (y) = 0.19157 0.08949
# Poissons Ratio (z) = -1.47650 0.39945
#
# Static dielectric constant tensor:
#      x y z
#    x 1.767460 0.000000 0.035920 
#    y 0.000000 1.681700 0.000000 
#    z 0.035920 0.000000 1.763970 
# 
# From -- ./inp_files/375657.got.cif
#   From: 2010.05.17/outbox.ucp.g08.bks.cvg/sg12_188_cif.got.tgz:375657.got - 2010.06.11 11:47:21.
