data_PCOD9223656
_publ_section_title
;
Structure prediction by ZEFSAII (Michael W. Deem and Ramdas Pophale) SiO2 
 PCOD9223656
Probable space group: C 2/M
;
_chemical_formula_sum "Si O2"
_cell_formula_units_Z 28
_cell_length_a 30.000000
_cell_length_b 9.000000
_cell_length_c 15.000000
_cell_angle_alpha 90.000000
_cell_angle_beta 50.000000
_cell_angle_gamma 90.000000
_cell_volume 3102.479995
_symmetry_space_group_name_H-M "C 2/M"
_symmetry_group_IT_number 12
_symmetry_cell_setting 'monoclinic'
loop_
_space_group_symop_operation_xyz
x,y,z
-x,y,-z
-x,-y,-z
x,-y,z
1/2+x,1/2+y,z
1/2-x,1/2+y,-z
1/2-x,1/2-y,-z
1/2+x,1/2-y,z
loop_
_atom_site_type_symbol
_atom_site_label
_atom_site_fract_x
_atom_site_fract_y
_atom_site_fract_z
Si Si1 0.385655 0.674781 0.035468
Si Si2 0.179848 0.663732 0.025437
Si Si3 0.122512 0.321377 0.639899
Si Si4 0.511672 0.322892 0.878566
Si Si5 0.682196 0.666669 0.192362
Si Si6 0.818092 0.178486 0.597584
Si Si7 0.804635 0.819427 0.302722
O O1 0.393814 0.500000 0.038071
O O2 0.354256 0.726243 0.166403
O O3 0.342813 0.711546 0.011349
O O4 0.448864 0.731758 0.925556
O O5 0.156954 0.500000 0.031837
O O6 0.162166 0.710666 0.147636
O O7 0.248924 0.658317 0.918963
O O8 0.124514 0.500000 0.634783
O O9 0.064159 0.264146 0.764773
O O10 0.133012 0.251151 0.528649
O O11 0.175214 0.254353 0.631379
O O12 0.521988 0.500000 0.850119
O O13 0.500000 0.305833 0.000000
O O14 0.658434 0.500000 0.205632
O O15 0.673016 0.701983 0.307915
O O16 0.756842 0.255364 0.650448
O O17 0.814839 0.000000 0.587183
O O18 0.802840 0.000000 0.311017
#
# Coordination Sequence:
#
# PCOD9223656 Si02
#       7
#     8   8   8   8   8   8   8
#     4  10  20  34  57  82 111 145 180 224 274 326
#     4  10  19  32  53  82 113 142 178 223 272 325
#     4  12  25  38  54  80 112 149 188 228 274 327
#     4  10  20  39  60  80 106 144 189 229 273 322
#     4   9  19  34  53  79 110 144 181 220 270 327
#     4  11  22  38  57  80 112 149 186 228 272 327
#     4  11  21  36  56  81 112 149 185 224 272 326
#
# _framework density 9.0250380000000003
#
# number of rings (size 3 to 8) (size 9 to 14) (size 15 to 20)
#    0.000    1.571    2.857    3.000    0.000    3.143 
#    0.000    0.000    0.000    0.857    0.000    6.000 
#    0.000    0.000    0.000    0.000    0.000    0.000 
#
# Total GULP energy -156080.617862 kJ/mol
# GULP energy per Si atom -5574.307781 kJ/mol
# Density = 0.900450 g / cm^3
# Si number density = 9.025038 Si / 1000 Ang^3
#
#
#
# Elastic Constant Matrix: (Units=GPa)
#
#
# Indices 1 2 3 4 5 6 
#
# 1 5.3550 8.2402 13.3802 0.0000 6.5737 0.0000
# 2 8.2402 65.1698 46.6229 0.0000 4.8645 0.0001
# 3 13.3802 46.6229 122.4462 0.0000 15.5255 0.0000
# 4 0.0000 0.0000 0.0000 26.1124 0.0000 -3.8627
# 5 6.5737 4.8645 15.5255 0.0000 29.8583 0.0000
# 6 0.0000 0.0001 0.0000 -3.8627 0.0000 17.6980
#
#
#
# Elastic Compliance Matrix: (Units=1/GPa)
#
#
# Indices 1 2 3 4 5 6 
#
# 1 0.356361 -0.025037 -0.021387 0.000000 -0.063257 -0.000001
# 2 -0.025037 0.022866 -0.006635 0.000000 0.005237 0.000000
# 3 -0.021387 -0.006635 0.013164 0.000000 -0.001055 0.000000
# 4 0.000000 0.000000 0.000000 0.039574 0.000000 0.008637
# 5 -0.063257 0.005237 -0.001055 0.000000 0.047114 0.000000
# 6 -0.000001 0.000000 0.000000 0.008637 0.000000 0.058389
#
#
# Mechanical properties :
#
#
# Convention : Reuss Voigt Hill
#
# Bulk Modulus (GPa) = 3.49316 36.60640 20.04978
# Shear Modulus (GPa) = 6.76582 23.04892 14.90737
#
# Velocity S-wave (km/s) = 1.93817 3.57731 2.87695
# Velocity P-wave (km/s) = 2.63593 6.11452 4.70826
#
# Compressibility (1/GPa) = 0.28627380
#
# Stress axis : x y z
#
# Youngs Moduli (GPa) = 2.80614 43.73365 75.96523
#
# Poissons Ratio (x) = 1.09494 1.62471
# Poissons Ratio (y) = 0.07026 0.50399
# Poissons Ratio (z) = 0.06002 0.29015
#
# Static dielectric constant tensor:
#      x y z
#    x 1.687240 0.000000 -0.006830 
#    y 0.000000 1.614360 0.000000 
#    z -0.006830 0.000000 1.618430 
# 
# From -- ./inp_files/237436.got.cif
#   From: 2010.05.17/outbox.ucp.g08.bks.cvg/sg12_119_cif.got.tgz:237436.got - 2010.06.11 11:47:21.
