data_PCOD9223046
_publ_section_title
;
Structure prediction by ZEFSAII (Michael W. Deem and Ramdas Pophale) SiO2 
 PCOD9223046
Probable space group: C 2/M
;
_chemical_formula_sum "Si O2"
_cell_formula_units_Z 24
_cell_length_a 13.114489
_cell_length_b 12.120054
_cell_length_c 7.085895
_cell_angle_alpha 90.000000
_cell_angle_beta 120.480393
_cell_angle_gamma 90.000000
_cell_volume 970.640789
_symmetry_space_group_name_H-M "C 2/M"
_symmetry_group_IT_number 12
_symmetry_cell_setting 'monoclinic'
loop_
_space_group_symop_operation_xyz
x,y,z
-x,y,-z
-x,-y,-z
x,-y,z
1/2+x,1/2+y,z
1/2-x,1/2+y,-z
1/2-x,1/2-y,-z
1/2+x,1/2-y,z
loop_
_atom_site_type_symbol
_atom_site_label
_atom_site_fract_x
_atom_site_fract_y
_atom_site_fract_z
Si Si1 0.524548 0.668072 0.236702
Si Si2 0.389736 0.124568 0.168961
Si Si3 0.191159 0.830443 0.705608
O O1 0.415097 0.625137 0.259870
O O2 0.647591 0.643160 0.455122
O O3 0.500000 0.636559 0.000000
O O4 0.504666 0.800479 0.241719
O O5 0.312513 0.127826 0.904750
O O6 0.410297 0.000000 0.244569
O O7 0.316051 0.199234 0.249917
#
# Coordination Sequence:
#
# PCOD9223046 Si02
#       3
#     8   8   8
#     4   9  17  31  53  70  96 127 160 195 239 279
#     4   9  17  33  52  71  97 127 159 197 239 281
#     4   8  18  33  49  72  97 128 157 194 242 280
#
# _framework density 24.725933000000001
#
# number of rings (size 3 to 8) (size 9 to 14) (size 15 to 20)
#    2.000    1.333    0.000    0.000    0.000    4.667 
#    0.000    3.333    0.000    2.000    0.000    0.000 
#    0.000    0.000    0.000    0.000    0.000    0.000 
#
# Total GULP energy -66870.883913 kJ/mol
# GULP energy per Si atom -5572.573659 kJ/mol
# Density = 2.466966 g / cm^3
# Si number density = 24.725933 Si / 1000 Ang^3
#
#
#
# Elastic Constant Matrix: (Units=GPa)
#
#
# Indices 1 2 3 4 5 6 
#
# 1 35.8763 -1.6478 12.3406 0.0000 -12.6046 0.0000
# 2 -1.6478 145.7952 9.2537 0.0000 -3.7651 0.0000
# 3 12.3406 9.2537 218.2614 0.0000 6.0938 0.0000
# 4 0.0000 0.0000 0.0000 -13.8517 0.0000 3.8011
# 5 -12.6046 -3.7651 6.0938 0.0000 41.4571 0.0000
# 6 0.0000 0.0000 0.0000 3.8011 0.0000 -5.8212
#
#
#
# Elastic Compliance Matrix: (Units=1/GPa)
#
#
# Indices 1 2 3 4 5 6 
#
# 1 0.032221 0.000763 -0.002138 0.000000 0.010180 0.000000
# 2 0.000763 0.006914 -0.000362 0.000000 0.000913 0.000000
# 3 -0.002138 -0.000362 0.004756 0.000000 -0.001382 0.000000
# 4 0.000000 0.000000 0.000000 -0.087953 0.000000 -0.057431
# 5 0.010180 0.000913 -0.001382 0.000000 0.027503 0.000000
# 6 0.000000 0.000000 0.000000 -0.057431 0.000000 -0.209287
#
#
# Mechanical properties :
#
#
# Convention : Reuss Voigt Hill
#
# Bulk Modulus (GPa) = 24.74229 48.86954 36.80592
# Shear Modulus (GPa) = -23.93494 29.68926 2.87716
#
# Velocity S-wave (km/s) = -3.11466 3.46892 1.07988
# Velocity P-wave (km/s) = 1.70484 5.98765 4.05866
#
# Compressibility (1/GPa) = 0.04041663
#
# Stress axis : x y z
#
# Youngs Moduli (GPa) = 31.03598 144.63202 210.23902
#
# Poissons Ratio (x) = -0.11032 0.44956
# Poissons Ratio (y) = -0.02367 0.07606
# Poissons Ratio (z) = 0.06637 0.05232
#
# Static dielectric constant tensor:
#      x y z
#    x 1.988160 0.000000 -0.034350 
#    y 0.000000 2.007750 0.000000 
#    z -0.034350 0.000000 1.956610 
# 
# From -- ./inp_files/9410.got.cif
#   From: 2010.05.17/outbox.cif.g08.bks.cpg/sg12_5_cif.got.tgz:9410.got - 2010.06.03 13:09:07.
