data_PCOD9223943
_publ_section_title
;
Structure prediction by ZEFSAII (Michael W. Deem and Ramdas Pophale) SiO2 
 PCOD9223943
Probable space group: C 2/M
;
_chemical_formula_sum "Si O2"
_cell_formula_units_Z 28
_cell_length_a 18.000000
_cell_length_b 18.000000
_cell_length_c 12.000000
_cell_angle_alpha 90.000000
_cell_angle_beta 130.000000
_cell_angle_gamma 90.000000
_cell_volume 2978.380795
_symmetry_space_group_name_H-M "C 2/M"
_symmetry_group_IT_number 12
_symmetry_cell_setting 'monoclinic'
loop_
_space_group_symop_operation_xyz
x,y,z
-x,y,-z
-x,-y,-z
x,-y,z
1/2+x,1/2+y,z
1/2-x,1/2+y,-z
1/2-x,1/2-y,-z
1/2+x,1/2-y,z
loop_
_atom_site_type_symbol
_atom_site_label
_atom_site_fract_x
_atom_site_fract_y
_atom_site_fract_z
Si Si1 0.048275 0.816597 0.211731
Si Si2 0.270592 0.411371 0.686640
Si Si3 0.565363 0.089498 0.371732
Si Si4 0.254437 0.822686 0.889741
Si Si5 0.415072 0.220538 0.224935
Si Si6 0.647987 0.410701 0.989618
Si Si7 0.903312 0.343756 0.842134
O O1 0.146137 0.866136 0.301149
O O2 0.076704 0.743797 0.165811
O O3 0.003052 0.777362 0.279444
O O4 0.955800 0.869106 0.090768
O O5 0.285370 0.500000 0.683622
O O6 0.160248 0.395000 0.540526
O O7 0.289842 0.396948 0.837320
O O8 0.471717 0.143278 0.308430
O O9 0.597501 0.113151 0.276805
O O10 0.543852 0.000000 0.356949
O O11 0.168448 0.762088 0.782042
O O12 0.307359 0.851402 0.827821
O O13 0.348488 0.791498 0.049011
O O14 0.202459 0.877852 0.931191
O O15 0.634919 0.500000 0.965376
O O16 0.000000 0.370329 0.000000
#
# Coordination Sequence:
#
# PCOD9223943 Si02
#       7
#     8   8   8   8   8   8   8
#     4  10  19  34  62  86 110 143 190 242 284 326
#     4  10  21  36  57  85 118 153 188 231 282 340
#     4  10  22  39  58  83 117 156 191 229 282 339
#     4  10  20  36  58  87 114 142 187 236 288 331
#     4   9  20  35  57  81 112 150 183 233 279 333
#     4  10  21  35  58  88 115 147 186 233 286 340
#     4  11  20  36  61  87 109 145 189 242 284 331
#
# _framework density 9.4010809999999996
#
# number of rings (size 3 to 8) (size 9 to 14) (size 15 to 20)
#    0.000    2.000    2.857    1.714    4.000    4.857 
#    0.000    0.714    3.143    5.143    0.000    9.000 
#    0.000    0.000    0.000    0.000    0.000    0.000 
#
# Total GULP energy -156066.824226 kJ/mol
# GULP energy per Si atom -5573.815151 kJ/mol
# Density = 0.937968 g / cm^3
# Si number density = 9.401081 Si / 1000 Ang^3
#
#
#
# Elastic Constant Matrix: (Units=GPa)
#
#
# Indices 1 2 3 4 5 6 
#
# 1 124.5618 38.1069 27.7306 0.0000 18.7641 0.0000
# 2 38.1069 117.5059 41.9197 0.0000 17.0887 0.0000
# 3 27.7306 41.9197 83.0430 0.0000 22.1986 0.0000
# 4 0.0000 0.0000 0.0000 30.5829 0.0000 11.7545
# 5 18.7641 17.0887 22.1986 0.0000 31.7294 0.0000
# 6 0.0000 0.0000 0.0000 11.7545 0.0000 35.1563
#
#
#
# Elastic Compliance Matrix: (Units=1/GPa)
#
#
# Indices 1 2 3 4 5 6 
#
# 1 0.009485 -0.002148 -0.001098 0.000000 -0.003684 0.000000
# 2 -0.002148 0.011013 -0.004423 0.000000 -0.001566 0.000000
# 3 -0.001098 -0.004423 0.017013 0.000000 -0.008871 0.000000
# 4 0.000000 0.000000 0.000000 0.037520 0.000000 -0.012545
# 5 -0.003684 -0.001566 -0.008871 0.000000 0.040745 0.000000
# 6 0.000000 0.000000 0.000000 -0.012545 0.000000 0.032639
#
#
# Mechanical properties :
#
#
# Convention : Reuss Voigt Hill
#
# Bulk Modulus (GPa) = 45.10373 60.06946 52.58659
# Shear Modulus (GPa) = 29.21542 33.98397 31.59970
#
# Velocity S-wave (km/s) = 3.94615 4.25602 4.10401
# Velocity P-wave (km/s) = 6.69354 7.49461 7.10537
#
# Compressibility (1/GPa) = 0.02217112
#
# Stress axis : x y z
#
# Youngs Moduli (GPa) = 105.43199 90.80504 58.77972
#
# Poissons Ratio (x) = 0.19509 0.06454
# Poissons Ratio (y) = 0.22652 0.25998
# Poissons Ratio (z) = 0.11576 0.40163
#
# Static dielectric constant tensor:
#      x y z
#    x 1.671070 0.000000 -0.020410 
#    y 0.000000 1.692500 0.000000 
#    z -0.020410 0.000000 1.663450 
# 
# From -- ./inp_files/158313.got.cif
#   From: 2010.05.17/outbox.ucp.g08.bks.cvg/sg12_80_cif.got.tgz:158313.got - 2010.06.11 11:47:21.
