data_PCOD9223957
_publ_section_title
;
Structure prediction by ZEFSAII (Michael W. Deem and Ramdas Pophale) SiO2 
 PCOD9223957
Probable space group: C 2/M
;
_chemical_formula_sum "Si O2"
_cell_formula_units_Z 24
_cell_length_a 24.000000
_cell_length_b 9.000000
_cell_length_c 12.000000
_cell_angle_alpha 90.000000
_cell_angle_beta 90.000000
_cell_angle_gamma 90.000000
_cell_volume 2592.000000
_symmetry_space_group_name_H-M "C 2/M"
_symmetry_group_IT_number 12
_symmetry_cell_setting 'monoclinic'
loop_
_space_group_symop_operation_xyz
x,y,z
-x,y,-z
-x,-y,-z
x,-y,z
1/2+x,1/2+y,z
1/2-x,1/2+y,-z
1/2-x,1/2-y,-z
1/2+x,1/2-y,z
loop_
_atom_site_type_symbol
_atom_site_label
_atom_site_fract_x
_atom_site_fract_y
_atom_site_fract_z
Si Si1 0.480905 0.677361 0.123999
Si Si2 0.579315 0.177831 0.257227
Si Si3 0.564443 0.819763 0.502830
Si Si4 0.174280 0.669922 0.079177
Si Si5 0.612628 0.175802 0.736117
Si Si6 0.198689 0.832069 0.855727
O O1 0.476136 0.500000 0.124464
O O2 0.526809 0.733840 0.211020
O O3 0.424552 0.751021 0.167301
O O4 0.500000 0.724639 0.000000
O O5 0.591396 0.220568 0.384681
O O6 0.628984 0.205414 0.171763
O O7 0.566839 0.000000 0.255776
O O8 0.500000 0.772686 0.500000
O O9 0.593285 0.767151 0.615535
O O10 0.564724 0.000000 0.508249
O O11 0.164598 0.500000 0.038590
O O12 0.235068 0.673617 0.133971
O O13 0.175902 0.780391 0.975822
O O14 0.675062 0.222431 0.763563
O O15 0.605012 0.000000 0.740309
O O16 0.181044 0.000000 0.831643
#
# Coordination Sequence:
#
# PCOD9223957 Si02
#       6
#     8   8   8   8   8   8
#     4  11  23  35  49  76 111 139 166 213 273 318
#     4  10  19  35  57  78 102 135 180 220 255 311
#     4   9  17  33  55  78 102 135 177 221 262 302
#     4   9  19  35  57  81 105 141 180 214 260 316
#     4  11  21  35  56  78 103 139 182 217 257 316
#     4  10  20  35  54  79 112 141 172 219 268 311
#
# _framework density 9.2592590000000001
#
# number of rings (size 3 to 8) (size 9 to 14) (size 15 to 20)
#    0.000    2.000    1.667    2.500    0.000    5.333 
#    0.000    3.333    0.000    0.000    0.000    0.000 
#    0.000    0.000    0.000    0.000    0.000    0.000 
#
# Total GULP energy -133876.957765 kJ/mol
# GULP energy per Si atom -5578.206574 kJ/mol
# Density = 0.923818 g / cm^3
# Si number density = 9.259259 Si / 1000 Ang^3
#
#
#
# Elastic Constant Matrix: (Units=GPa)
#
#
# Indices 1 2 3 4 5 6 
#
# 1 48.2839 20.2410 15.6247 0.0000 6.8247 0.0000
# 2 20.2410 9.4801 -18.8113 0.0000 5.3412 0.0000
# 3 15.6247 -18.8113 -25.0592 0.0000 34.9207 0.0000
# 4 0.0000 0.0000 0.0000 7.1904 0.0000 11.7871
# 5 6.8247 5.3412 34.9207 0.0000 18.2334 0.0000
# 6 0.0000 0.0000 0.0000 11.7871 0.0000 19.2754
#
#
#
# Elastic Compliance Matrix: (Units=1/GPa)
#
#
# Indices 1 2 3 4 5 6 
#
# 1 0.035699 -0.036423 0.012497 0.000000 -0.026626 0.000000
# 2 -0.036423 0.095680 -0.031234 0.000000 0.045425 0.000000
# 3 0.012497 -0.031234 -0.000664 0.000000 0.005743 0.000000
# 4 0.000000 0.000000 0.000000-57.061978 0.000000 34.894045
# 5 -0.026626 0.045425 0.005743 0.000000 0.040504 0.000000
# 6 0.000000 0.000000 0.000000 34.894045 0.000000-21.286224
#
#
# Mechanical properties :
#
#
# Convention : Reuss Voigt Hill
#
# Bulk Modulus (GPa) = 49.03274 7.42373 28.22823
# Shear Modulus (GPa) = -0.06405 9.98320 4.95957
#
# Velocity S-wave (km/s) = -0.18618 2.32436 1.63829
# Velocity P-wave (km/s) = 5.14674 3.34978 4.34223
#
# Compressibility (1/GPa) = 0.02039454
#
# Stress axis : x y z
#
# Youngs Moduli (GPa) = 28.01183 10.45148 -1506.81699
#
# Poissons Ratio (x) = 0.38067 18.83012
# Poissons Ratio (y) = 1.02028 -47.06424
# Poissons Ratio (z) = -0.35005 0.32644
#
# Static dielectric constant tensor:
#      x y z
#    x 1.668180 0.000000 0.019890 
#    y 0.000000 1.635120 0.000000 
#    z 0.019890 0.000000 1.632650 
# 
# From -- ./inp_files/172272.got.cif
#   From: 2010.05.17/outbox.ucp.g08.bks.cvg/sg12_87_cif.got.tgz:172272.got - 2010.06.11 11:47:21.
