data_PCOD9223845
_publ_section_title
;
Structure prediction by ZEFSAII (Michael W. Deem and Ramdas Pophale) SiO2 
 PCOD9223845
Probable space group: C 2/M
;
_chemical_formula_sum "Si O2"
_cell_formula_units_Z 28
_cell_length_a 24.000000
_cell_length_b 9.000000
_cell_length_c 15.000000
_cell_angle_alpha 90.000000
_cell_angle_beta 120.000000
_cell_angle_gamma 90.000000
_cell_volume 2805.922308
_symmetry_space_group_name_H-M "C 2/M"
_symmetry_group_IT_number 12
_symmetry_cell_setting 'monoclinic'
loop_
_space_group_symop_operation_xyz
x,y,z
-x,y,-z
-x,-y,-z
x,-y,z
1/2+x,1/2+y,z
1/2-x,1/2+y,-z
1/2-x,1/2-y,-z
1/2+x,1/2-y,z
loop_
_atom_site_type_symbol
_atom_site_label
_atom_site_fract_x
_atom_site_fract_y
_atom_site_fract_z
Si Si1 0.525465 0.675344 0.920381
Si Si2 0.367006 0.837118 0.921368
Si Si3 0.575601 0.321713 0.313905
Si Si4 0.727722 0.663734 0.895573
Si Si5 0.184169 0.678856 0.693498
Si Si6 0.816947 0.822766 0.718110
Si Si7 0.442004 0.821667 0.514201
O O1 0.539328 0.500000 0.926071
O O2 0.474514 0.713422 0.804408
O O3 0.500000 0.706132 0.000000
O O4 0.589501 0.771824 0.965865
O O5 0.294652 0.850751 0.896419
O O6 0.362368 0.722309 0.836782
O O7 0.390226 0.000000 0.911261
O O8 0.577195 0.500000 0.324214
O O9 0.646503 0.268111 0.340025
O O10 0.554817 0.247406 0.387081
O O11 0.702035 0.500000 0.896284
O O12 0.683407 0.752093 0.791241
O O13 0.750000 0.750000 0.000000
O O14 0.188005 0.500000 0.705694
O O15 0.246438 0.731014 0.687053
O O16 0.122878 0.720274 0.587808
O O17 0.814263 0.000000 0.711069
O O18 0.500000 0.770157 0.500000
O O19 0.443956 0.000000 0.522779
#
# Coordination Sequence:
#
# PCOD9223845 Si02
#       7
#     8   8   8   8   8   8   8
#     4  10  19  34  54  79 115 153 184 218 272 336
#     4  10  20  32  50  80 114 145 180 226 278 328
#     4  10  21  36  57  84 111 146 191 234 276 331
#     4  10  21  36  55  82 113 145 185 233 280 331
#     4   9  19  37  61  82 107 148 187 227 284 339
#     4   9  17  34  57  81 110 142 180 225 279 339
#     4  10  23  42  59  79 112 150 188 234 286 335
#
# _framework density 9.9788940000000004
#
# number of rings (size 3 to 8) (size 9 to 14) (size 15 to 20)
#    0.000    2.286    1.429    0.857    0.000    5.714 
#    0.000    4.286    0.000    0.000    0.000    0.000 
#    0.000    0.000    0.000    0.000    0.000    0.000 
#
# Total GULP energy -155954.398432 kJ/mol
# GULP energy per Si atom -5569.799944 kJ/mol
# Density = 0.995618 g / cm^3
# Si number density = 9.978894 Si / 1000 Ang^3
#
#
#
# Elastic Constant Matrix: (Units=GPa)
#
#
# Indices 1 2 3 4 5 6 
#
# 1 80.6281 24.9296 67.0740 0.0000 -2.0744 0.0000
# 2 24.9296 -26.2011 38.0143 0.0000 6.7089 0.0000
# 3 67.0740 38.0143 110.1577 0.0000 -7.0106 0.0000
# 4 0.0000 0.0000 0.0000 13.4195 0.0000 -6.2046
# 5 -2.0744 6.7089 -7.0106 0.0000 27.8384 0.0000
# 6 0.0000 0.0000 0.0000 -6.2046 0.0000 42.3288
#
#
#
# Elastic Compliance Matrix: (Units=1/GPa)
#
#
# Indices 1 2 3 4 5 6 
#
# 1 0.025229 0.000626 -0.015720 0.000000 -0.002230 0.000000
# 2 0.000626 -0.023591 0.008257 0.000000 0.007811 0.000000
# 3 -0.015720 0.008257 0.015853 0.000000 0.000831 0.000000
# 4 0.000000 0.000000 0.000000 0.079936 0.000000 0.011717
# 5 -0.002230 0.007811 0.000831 0.000000 0.034082 0.000000
# 6 0.000000 0.000000 0.000000 0.011717 0.000000 0.025342
#
#
# Mechanical properties :
#
#
# Convention : Reuss Voigt Hill
#
# Bulk Modulus (GPa) = 261.93200 47.18005 154.55603
# Shear Modulus (GPa) = 29.10426 19.02179 24.06302
#
# Velocity S-wave (km/s) = 3.82290 3.09058 3.47608
# Velocity P-wave (km/s) = 12.28878 6.03547 9.68093
#
# Compressibility (1/GPa) = 0.00381778
#
# Stress axis : x y z
#
# Youngs Moduli (GPa) = 39.63769 -42.38921 63.07965
#
# Poissons Ratio (x) = 0.02655 0.99158
# Poissons Ratio (y) = -0.02483 -0.52083
# Poissons Ratio (z) = 0.62308 0.34999
#
# Static dielectric constant tensor:
#      x y z
#    x 1.775700 0.000000 0.021940 
#    y 0.000000 1.739760 0.000000 
#    z 0.021940 0.000000 1.681390 
# 
# From -- ./inp_files/238867.got.cif
#   From: 2010.05.17/outbox.ucp.g08.bks.cvg/sg12_120_cif.got.tgz:238867.got - 2010.06.11 11:47:21.
