data_PCOD9223693
_publ_section_title
;
Structure prediction by ZEFSAII (Michael W. Deem and Ramdas Pophale) SiO2 
 PCOD9223693
Probable space group: C 2/M
;
_chemical_formula_sum "Si O2"
_cell_formula_units_Z 30
_cell_length_a 12.000000
_cell_length_b 24.000000
_cell_length_c 21.000000
_cell_angle_alpha 90.000000
_cell_angle_beta 150.000000
_cell_angle_gamma 90.000000
_cell_volume 3024.000000
_symmetry_space_group_name_H-M "C 2/M"
_symmetry_group_IT_number 12
_symmetry_cell_setting 'monoclinic'
loop_
_space_group_symop_operation_xyz
x,y,z
-x,y,-z
-x,-y,-z
x,-y,z
1/2+x,1/2+y,z
1/2-x,1/2+y,-z
1/2-x,1/2-y,-z
1/2+x,1/2-y,z
loop_
_atom_site_type_symbol
_atom_site_label
_atom_site_fract_x
_atom_site_fract_y
_atom_site_fract_z
Si Si1 0.755183 0.146238 0.637092
Si Si2 0.703029 0.063065 0.886836
Si Si3 0.169669 0.937633 0.643567
Si Si4 0.000000 0.607558 0.000000
Si Si5 0.184295 0.811083 0.045945
Si Si6 0.355109 0.661526 0.268496
Si Si7 0.596303 0.739911 0.203488
Si Si8 0.414403 0.438644 0.131294
O O1 0.500000 0.128373 0.500000
O O2 0.758779 0.203311 0.677729
O O3 0.911070 0.158564 0.652975
O O4 0.898822 0.102912 0.750491
O O5 0.434111 0.064227 0.758486
O O6 0.765551 0.127391 0.898965
O O7 0.748853 0.000000 0.880476
O O8 0.840989 0.062942 0.021365
O O9 0.130659 0.886256 0.670979
O O10 0.000000 0.933262 0.500000
O O11 0.131855 0.000000 0.653326
O O12 0.152429 0.643618 0.121945
O O13 0.179921 0.572306 0.050407
O O14 0.416255 0.778890 0.150926
O O15 0.000000 0.783303 0.000000
O O16 0.057886 0.802365 0.915363
O O17 0.268477 0.720379 0.251705
O O18 0.496357 0.500000 0.187123
#
# Coordination Sequence:
#
# PCOD9223693 Si02
#       8
#     8   8   8   4   8   8   8   8
#     4  11  26  44  60  90 130 167 214 269 320 385
#     4  10  19  38  62  91 124 159 208 258 309 373
#     4  10  21  40  64  95 132 167 210 263 317 381
#     4  10  19  32  62 104 126 148 211 274 314 370
#     4  11  22  37  63  94 124 163 203 261 322 377
#     4  11  23  40  68  95 124 170 216 264 323 382
#     4  11  23  41  62  90 126 167 212 262 314 384
#     4  10  19  35  62  90 123 161 200 260 320 371
#
# _framework density 9.9206350000000008
#
# number of rings (size 3 to 8) (size 9 to 14) (size 15 to 20)
#    0.000    1.467    4.000    1.000    6.533    3.733 
#    2.400    0.000    0.000    0.000    0.000    0.000 
#    0.000    0.000    0.000    0.000    0.000    0.000 
#
# Total GULP energy -167113.587456 kJ/mol
# GULP energy per Si atom -5570.452915 kJ/mol
# Density = 0.989806 g / cm^3
# Si number density = 9.920635 Si / 1000 Ang^3
#
#
#
# Elastic Constant Matrix: (Units=GPa)
#
#
# Indices 1 2 3 4 5 6 
#
# 1 39.0419 20.8362 38.7568 0.0101 13.9929 -0.0003
# 2 20.8362 82.8447 19.9666 0.0069 10.8403 0.0060
# 3 38.7568 19.9666 104.7590 0.0430 34.2241 0.0154
# 4 0.0101 0.0069 0.0430 5.9049 0.0165 0.9811
# 5 13.9929 10.8403 34.2241 0.0165 18.5260 0.0002
# 6 -0.0003 0.0060 0.0154 0.9811 0.0002 -5.3048
#
#
#
# Elastic Compliance Matrix: (Units=1/GPa)
#
#
# Indices 1 2 3 4 5 6 
#
# 1 0.044713 -0.007403 -0.013905 0.000051 -0.003753 -0.000042
# 2 -0.007403 0.014297 0.002321 -0.000005 -0.007062 0.000022
# 3 -0.013905 0.002321 0.028400 -0.000077 -0.043321 0.000070
# 4 0.000051 -0.000005 -0.000077 0.164302 -0.000040 0.030387
# 5 -0.003753 -0.007062 -0.043321 -0.000040 0.140974 -0.000136
# 6 -0.000042 0.000022 0.000070 0.030387 -0.000136 -0.182890
#
#
# Mechanical properties :
#
#
# Convention : Reuss Voigt Hill
#
# Bulk Modulus (GPa) = 20.22815 42.86276 31.54546
# Shear Modulus (GPa) = 18.92137 13.63096 16.27617
#
# Velocity S-wave (km/s) = 3.09145 2.62391 2.86723
# Velocity P-wave (km/s) = 4.79165 5.55244 5.18602
#
# Compressibility (1/GPa) = 0.04943605
#
# Stress axis : x y z
#
# Youngs Moduli (GPa) = 22.36474 69.94247 35.21073
#
# Poissons Ratio (x) = 0.51781 0.48961
# Poissons Ratio (y) = 0.16558 -0.08172
# Poissons Ratio (z) = 0.31098 -0.16233
#
# Static dielectric constant tensor:
#      x y z
#    x 1.775250 0.000000 -0.039950 
#    y 0.000000 1.756310 -0.000010 
#    z -0.039950 -0.000010 1.658960 
# 
# From -- ./inp_files/307321.got.cif
#   From: 2010.05.17/outbox.ucp.g08.bks.cvg/sg12_154_cif.got.tgz:307321.got - 2010.06.11 11:47:21.
