data_PCOD9223838
_publ_section_title
;
Structure prediction by ZEFSAII (Michael W. Deem and Ramdas Pophale) SiO2 
 PCOD9223838
Probable space group: C 2/M
;
_chemical_formula_sum "Si O2"
_cell_formula_units_Z 32
_cell_length_a 15.000000
_cell_length_b 9.000000
_cell_length_c 30.000000
_cell_angle_alpha 90.000000
_cell_angle_beta 50.000000
_cell_angle_gamma 90.000000
_cell_volume 3102.479995
_symmetry_space_group_name_H-M "C 2/M"
_symmetry_group_IT_number 12
_symmetry_cell_setting 'monoclinic'
loop_
_space_group_symop_operation_xyz
x,y,z
-x,y,-z
-x,-y,-z
x,-y,z
1/2+x,1/2+y,z
1/2-x,1/2+y,-z
1/2-x,1/2-y,-z
1/2+x,1/2-y,z
loop_
_atom_site_type_symbol
_atom_site_label
_atom_site_fract_x
_atom_site_fract_y
_atom_site_fract_z
Si Si1 0.348495 0.323474 0.870145
Si Si2 0.302070 0.823000 0.712432
Si Si3 0.918846 0.180358 0.155315
Si Si4 0.068542 0.670322 0.242855
Si Si5 0.197150 0.328878 0.664563
Si Si6 0.346763 0.170500 0.417566
Si Si7 0.068142 0.830462 0.524600
Si Si8 0.385495 0.321454 0.064045
O O1 0.341371 0.500000 0.876030
O O2 0.458603 0.269621 0.863592
O O3 0.370897 0.276239 0.811769
O O4 0.227878 0.248568 0.921604
O O5 0.406242 0.788843 0.713632
O O6 0.286514 0.745927 0.669659
O O7 0.188171 0.779721 0.778184
O O8 0.301262 0.000000 0.705214
O O9 0.898606 0.228979 0.111181
O O10 0.921509 0.000000 0.154084
O O11 0.113484 0.500000 0.223515
O O12 0.932990 0.669434 0.274171
O O13 0.234257 0.500000 0.645037
O O14 0.170022 0.254118 0.625472
O O15 0.208861 0.163980 0.473826
O O16 0.429932 0.238156 0.429346
O O17 0.387634 0.000000 0.397752
O O18 0.000000 0.780766 0.500000
O O19 0.027352 0.000000 0.544999
O O20 0.373706 0.500000 0.068017
O O21 0.500000 0.282102 0.000000
#
# Coordination Sequence:
#
# PCOD9223838 Si02
#       8
#     8   8   8   8   8   8   8   8
#     4  11  21  34  55  79 106 135 169 217 266 307
#     4  10  19  34  54  74 103 140 174 212 258 314
#     4   9  18  34  54  77 105 136 170 212 262 312
#     4  10  20  35  54  75 103 140 179 211 254 320
#     4  10  21  35  52  79 112 139 174 224 268 310
#     4   9  19  35  52  76 111 142 173 224 273 310
#     4   9  18  34  56  78 103 142 186 221 265 322
#     4  10  21  39  60  79 104 141 179 215 262 321
#
# _framework density 10.314329000000001
#
# number of rings (size 3 to 8) (size 9 to 14) (size 15 to 20)
#    0.000    2.250    2.500    0.375    0.000    3.000 
#    0.000    1.250    0.000    0.000    0.000    0.000 
#    0.000    0.000    0.000    0.000    0.000    0.000 
#
# Total GULP energy -178323.653057 kJ/mol
# GULP energy per Si atom -5572.614158 kJ/mol
# Density = 1.029085 g / cm^3
# Si number density = 10.314329 Si / 1000 Ang^3
#
#
#
# Elastic Constant Matrix: (Units=GPa)
#
#
# Indices 1 2 3 4 5 6 
#
# 1 151.4404 22.4620 11.1596 0.0000 4.7706 0.0000
# 2 22.4620 16.5465 6.7822 0.0000 2.8985 -0.0001
# 3 11.1596 6.7822 37.6187 0.0000 -2.5517 0.0000
# 4 0.0000 0.0000 0.0000 17.9857 0.0000 6.5302
# 5 4.7706 2.8985 -2.5517 0.0000 34.1665 0.0000
# 6 0.0000 -0.0001 0.0000 6.5302 0.0000 24.6484
#
#
#
# Elastic Compliance Matrix: (Units=1/GPa)
#
#
# Indices 1 2 3 4 5 6 
#
# 1 0.008278 -0.010990 -0.000492 0.000000 -0.000260 0.000000
# 2 -0.010990 0.081293 -0.011820 0.000000 -0.006245 0.000000
# 3 -0.000492 -0.011820 0.029079 0.000000 0.003243 0.000000
# 4 0.000000 0.000000 0.000000 0.061517 0.000000 -0.016298
# 5 -0.000260 -0.006245 0.003243 0.000000 0.030077 0.000000
# 6 0.000000 0.000000 0.000000 -0.016298 0.000000 0.044888
#
#
# Mechanical properties :
#
#
# Convention : Reuss Voigt Hill
#
# Bulk Modulus (GPa) = 13.87972 31.82369 22.85170
# Shear Modulus (GPa) = 15.34914 26.37359 20.86136
#
# Velocity S-wave (km/s) = 2.73072 3.57948 3.18351
# Velocity P-wave (km/s) = 4.08478 5.70473 4.96132
#
# Compressibility (1/GPa) = 0.07204756
#
# Stress axis : x y z
#
# Youngs Moduli (GPa) = 120.80583 12.30115 34.38867
#
# Poissons Ratio (x) = 0.13519 0.01692
# Poissons Ratio (y) = 1.32764 0.40646
# Poissons Ratio (z) = 0.05943 0.14539
#
# Static dielectric constant tensor:
#      x y z
#    x 1.735420 0.000000 -0.009780 
#    y 0.000000 1.718420 0.000000 
#    z -0.009780 0.000000 1.830680 
# 
# From -- ./inp_files/359886.got.cif
#   From: 2010.05.17/outbox.ucp.g08.bks.cvg/sg12_180_cif.got.tgz:359886.got - 2010.06.11 11:47:21.
