data_PCOD9223407
_publ_section_title
;
Structure prediction by ZEFSAII (Michael W. Deem and Ramdas Pophale) SiO2 
 PCOD9223407
Probable space group: C 2/M
;
_chemical_formula_sum "Si O2"
_cell_formula_units_Z 32
_cell_length_a 21.000000
_cell_length_b 30.000000
_cell_length_c 15.000000
_cell_angle_alpha 90.000000
_cell_angle_beta 20.000000
_cell_angle_gamma 90.000000
_cell_volume 3232.090354
_symmetry_space_group_name_H-M "C 2/M"
_symmetry_group_IT_number 12
_symmetry_cell_setting 'monoclinic'
loop_
_space_group_symop_operation_xyz
x,y,z
-x,y,-z
-x,-y,-z
x,-y,z
1/2+x,1/2+y,z
1/2-x,1/2+y,-z
1/2-x,1/2-y,-z
1/2+x,1/2-y,z
loop_
_atom_site_type_symbol
_atom_site_label
_atom_site_fract_x
_atom_site_fract_y
_atom_site_fract_z
Si Si1 0.229617 0.854170 0.537256
Si Si2 0.212992 0.134816 0.865505
Si Si3 0.680913 0.308576 0.420888
Si Si4 0.244245 0.671039 0.005758
Si Si5 0.277903 0.616035 0.784653
Si Si6 0.220214 0.950259 0.739480
Si Si7 0.641648 0.794307 0.462718
Si Si8 0.560949 0.946867 0.734255
O O1 0.262230 0.823249 0.408681
O O2 0.297220 0.826089 0.534538
O O3 0.313515 0.903241 0.403407
O O4 0.010337 0.861272 0.841221
O O5 0.264993 0.089646 0.747039
O O6 0.296299 0.177374 0.704675
O O7 0.273499 0.137269 0.888046
O O8 0.455566 0.311698 0.724913
O O9 0.738182 0.347453 0.274779
O O10 0.721095 0.256066 0.352021
O O11 0.216668 0.644237 0.951370
O O12 0.082331 0.706852 0.233676
O O13 0.500000 0.605004 0.500000
O O14 0.143337 0.572366 0.967531
O O15 0.365275 0.948429 0.465873
O O16 0.231726 0.000000 0.763676
O O17 0.000000 0.944825 0.000000
O O18 0.581988 0.000000 0.735765
#
# Coordination Sequence:
#
# PCOD9223407 Si02
#       8
#     8   8   8   8   8   8   8   8
#     4  11  22  41  60  93 129 158 206 273 315 383
#     4  11  21  36  59  94 130 161 203 258 324 382
#     4  10  25  40  62  89 122 174 222 261 316 367
#     4  10  22  39  63  87 129 169 216 265 313 370
#     4  10  22  45  63  87 128 170 218 270 308 373
#     4  10  18  34  63  94 126 163 202 257 331 396
#     4  12  21  39  62  91 128 170 207 263 323 389
#     4  11  22  40  69  95 123 167 209 261 329 380
#
# _framework density 9.9007129999999997
#
# number of rings (size 3 to 8) (size 9 to 14) (size 15 to 20)
#    0.000    1.375    3.750    1.500    0.000    5.750 
#    4.500    1.875    0.000    6.750    0.000    0.000 
#    0.000    0.000    0.000    0.000    0.000    0.000 
#
# Total GULP energy -178369.410571 kJ/mol
# GULP energy per Si atom -5574.044080 kJ/mol
# Density = 0.987818 g / cm^3
# Si number density = 9.900713 Si / 1000 Ang^3
#
#
#
# Elastic Constant Matrix: (Units=GPa)
#
#
# Indices 1 2 3 4 5 6 
#
# 1 62.0332 13.0124 12.4305 -0.0231 23.4254 0.0166
# 2 13.0124 133.3755 24.4031 0.0999 20.5286 0.0293
# 3 12.4305 24.4031 101.3248 0.2167 10.9563 0.0985
# 4 -0.0231 0.0999 0.2167 33.6237 -0.0229 0.7606
# 5 23.4254 20.5286 10.9563 -0.0229 25.2305 -0.0214
# 6 0.0166 0.0293 0.0985 0.7606 -0.0214 13.6951
#
#
#
# Elastic Compliance Matrix: (Units=1/GPa)
#
#
# Indices 1 2 3 4 5 6 
#
# 1 0.025081 0.001408 -0.000812 0.000003 -0.024079 -0.000065
# 2 0.001408 0.008837 -0.001450 -0.000021 -0.007867 -0.000021
# 3 -0.000812 -0.001450 0.010607 -0.000065 -0.002672 -0.000073
# 4 0.000003 -0.000021 -0.000065 0.029779 0.000068 -0.001653
# 5 -0.024079 -0.007867 -0.002672 0.000068 0.069553 0.000170
# 6 -0.000065 -0.000021 -0.000073 -0.001653 0.000170 0.073112
#
#
# Mechanical properties :
#
#
# Convention : Reuss Voigt Hill
#
# Bulk Modulus (GPa) = 23.35598 44.04728 33.70163
# Shear Modulus (GPa) = 21.46394 30.96903 26.21649
#
# Velocity S-wave (km/s) = 3.29593 3.95901 3.64259
# Velocity P-wave (km/s) = 5.12883 6.57200 5.89474
#
# Compressibility (1/GPa) = 0.04281560
#
# Stress axis : x y z
#
# Youngs Moduli (GPa) = 39.87112 113.16697 94.27449
#
# Poissons Ratio (x) = -0.15932 0.07657
# Poissons Ratio (y) = -0.05613 0.13671
# Poissons Ratio (z) = 0.03238 0.16411
#
# Static dielectric constant tensor:
#      x y z
#    x 1.719960 -0.000050 -0.032170 
#    y -0.000050 1.689020 0.000100 
#    z -0.032170 0.000100 1.737360 
# 
# From -- ./inp_files/235984.got.cif
#   From: 2010.05.17/outbox.ucp.g08.bks.cvg/sg12_118_cif.got.tgz:235984.got - 2010.06.11 11:47:21.
