data_PCOD9223757
_publ_section_title
;
Structure prediction by ZEFSAII (Michael W. Deem and Ramdas Pophale) SiO2 
 PCOD9223757
Probable space group: C 2/M
;
_chemical_formula_sum "Si O2"
_cell_formula_units_Z 24
_cell_length_a 21.000000
_cell_length_b 9.000000
_cell_length_c 15.000000
_cell_angle_alpha 90.000000
_cell_angle_beta 70.000000
_cell_angle_gamma 90.000000
_cell_volume 2664.028580
_symmetry_space_group_name_H-M "C 2/M"
_symmetry_group_IT_number 12
_symmetry_cell_setting 'monoclinic'
loop_
_space_group_symop_operation_xyz
x,y,z
-x,y,-z
-x,-y,-z
x,-y,z
1/2+x,1/2+y,z
1/2-x,1/2+y,-z
1/2-x,1/2-y,-z
1/2+x,1/2-y,z
loop_
_atom_site_type_symbol
_atom_site_label
_atom_site_fract_x
_atom_site_fract_y
_atom_site_fract_z
Si Si1 0.431587 0.820628 0.794352
Si Si2 0.316907 0.820793 0.509902
Si Si3 0.181137 0.319024 0.287928
Si Si4 0.583427 0.178522 0.690590
Si Si5 0.166940 0.175374 0.808808
Si Si6 0.568338 0.675155 0.017735
O O1 0.376075 0.765363 0.751428
O O2 0.506553 0.769407 0.732016
O O3 0.418770 0.764067 0.899330
O O4 0.430843 0.000000 0.794000
O O5 0.250000 0.750000 0.500000
O O6 0.327976 0.772803 0.605773
O O7 0.379653 0.779290 0.417947
O O8 0.309352 0.000000 0.512516
O O9 0.178920 0.500000 0.287418
O O10 0.256053 0.272921 0.223290
O O11 0.626028 0.241720 0.751957
O O12 0.583612 0.000000 0.696431
O O13 0.166906 0.000000 0.786171
O O14 0.129062 0.193044 0.919763
O O15 0.559568 0.500000 0.042544
O O16 0.500000 0.725238 0.000000
#
# Coordination Sequence:
#
# PCOD9223757 Si02
#       6
#     8   8   8   8   8   8
#     4  10  21  36  53  77 110 140 171 215 266 312
#     4  10  19  33  55  80 105 136 175 214 256 308
#     4   9  19  35  54  77 106 141 173 211 264 315
#     4  10  20  32  52  82 107 132 173 220 258 302
#     4  10  19  34  56  77 102 139 179 214 256 313
#     4  10  20  34  54  79 104 137 180 218 257 310
#
# _framework density 9.0089120000000005
#
# number of rings (size 3 to 8) (size 9 to 14) (size 15 to 20)
#    0.000    2.167    3.333    0.000    0.000    2.333 
#    0.000    5.000    0.000    0.000    0.000    3.500 
#    0.000    0.000    0.000    0.000    0.000    0.000 
#
# Total GULP energy -133846.372058 kJ/mol
# GULP energy per Si atom -5576.932169 kJ/mol
# Density = 0.898841 g / cm^3
# Si number density = 9.008912 Si / 1000 Ang^3
#
#
#
# Elastic Constant Matrix: (Units=GPa)
#
#
# Indices 1 2 3 4 5 6 
#
# 1 156.6706 21.2161 49.8545 0.0000 19.7331 0.0000
# 2 21.2161 -5.5610 19.9859 0.0000 -1.1202 0.0000
# 3 49.8545 19.9859 23.0670 0.0000 22.8097 0.0000
# 4 0.0000 0.0000 0.0000 591.7641 0.0000 -106.7586
# 5 19.7331 -1.1202 22.8097 0.0000 25.0462 0.0000
# 6 0.0000 0.0000 0.0000 -106.7586 0.0000 40.5686
#
#
#
# Elastic Compliance Matrix: (Units=1/GPa)
#
#
# Indices 1 2 3 4 5 6 
#
# 1 0.015187 -0.020702 -0.021506 0.000000 0.006695 0.000000
# 2 -0.020702 0.023169 0.075573 0.000000 -0.051478 0.000000
# 3 -0.021506 0.075573 0.042812 0.000000 -0.018665 0.000000
# 4 0.000000 0.000000 0.000000 0.003217 0.000000 0.008466
# 5 0.006695 -0.051478 -0.018665 0.000000 0.049347 0.000000
# 6 0.000000 0.000000 0.000000 0.008466 0.000000 0.046929
#
#
# Mechanical properties :
#
#
# Convention : Reuss Voigt Hill
#
# Bulk Modulus (GPa) = 6.76152 39.58774 23.17463
# Shear Modulus (GPa) = 30.63156 137.01711 83.82434
#
# Velocity S-wave (km/s) = 4.12766 8.72986 6.82818
# Velocity P-wave (km/s) = 5.14564 11.11904 8.66345
#
# Compressibility (1/GPa) = 0.14789578
#
# Stress axis : x y z
#
# Youngs Moduli (GPa) = 65.84785 43.16205 23.35807
#
# Poissons Ratio (x) = 0.89353 0.50234
# Poissons Ratio (y) = 1.36317 -1.76523
# Poissons Ratio (z) = 1.41614 -3.26187
#
# Static dielectric constant tensor:
#      x y z
#    x 1.605850 0.000000 -0.029880 
#    y 0.000000 1.609000 0.000000 
#    z -0.029880 0.000000 1.601480 
# 
# From -- ./inp_files/229832.got.cif
#   From: 2010.05.17/outbox.ucp.g08.bks.cvg/sg12_115_cif.got.tgz:229832.got - 2010.06.11 11:47:21.
