data_PCOD9223934
_publ_section_title
;
Structure prediction by ZEFSAII (Michael W. Deem and Ramdas Pophale) SiO2 
 PCOD9223934
Probable space group: C 2/M
;
_chemical_formula_sum "Si O2"
_cell_formula_units_Z 24
_cell_length_a 27.000000
_cell_length_b 9.000000
_cell_length_c 15.000000
_cell_angle_alpha 90.000000
_cell_angle_beta 140.000000
_cell_angle_gamma 90.000000
_cell_volume 2342.960837
_symmetry_space_group_name_H-M "C 2/M"
_symmetry_group_IT_number 12
_symmetry_cell_setting 'monoclinic'
loop_
_space_group_symop_operation_xyz
x,y,z
-x,y,-z
-x,-y,-z
x,-y,z
1/2+x,1/2+y,z
1/2-x,1/2+y,-z
1/2-x,1/2-y,-z
1/2+x,1/2-y,z
loop_
_atom_site_type_symbol
_atom_site_label
_atom_site_fract_x
_atom_site_fract_y
_atom_site_fract_z
Si Si1 0.688338 0.176289 0.791913
Si Si2 0.650106 0.669537 0.436341
Si Si3 0.346481 0.821710 0.942959
Si Si4 0.909003 0.176140 0.196096
Si Si5 0.665576 0.828712 0.278483
Si Si6 0.440081 0.828102 0.537287
O O1 0.763935 0.252026 0.855526
O O2 0.661573 0.254918 0.845445
O O3 0.617865 0.194414 0.624795
O O4 0.700964 0.000000 0.822454
O O5 0.623479 0.500000 0.415147
O O6 0.638502 0.718734 0.318442
O O7 0.740985 0.674406 0.585829
O O8 0.608031 0.785790 0.441535
O O9 0.359558 0.789999 0.856368
O O10 0.344640 0.000000 0.951076
O O11 0.406583 0.749959 0.094872
O O12 0.985461 0.224728 0.354337
O O13 0.902659 0.000000 0.181061
O O14 0.642369 0.000000 0.265065
O O15 0.465196 0.000000 0.571310
#
# Coordination Sequence:
#
# PCOD9223934 Si02
#       6
#     8   8   8   8   8   8
#     4  11  23  40  63  89 117 154 201 246 292 347
#     4  10  19  34  59  90 120 151 193 241 291 347
#     4  11  22  40  63  88 121 157 198 243 292 349
#     4  12  26  41  59  85 121 159 198 244 297 352
#     4   9  19  35  58  88 119 153 192 238 292 346
#     4  11  23  40  62  88 120 156 197 244 295 350
#
# _framework density 10.243449
#
# number of rings (size 3 to 8) (size 9 to 14) (size 15 to 20)
#    0.000    1.333    1.667    4.500    0.000    6.000 
#    0.000    0.833    0.000    5.000    0.000    0.000 
#    0.000    0.000    0.000    0.000    0.000    0.000 
#
# Total GULP energy -134221.913071 kJ/mol
# GULP energy per Si atom -5592.579711 kJ/mol
# Density = 1.022013 g / cm^3
# Si number density = 10.243449 Si / 1000 Ang^3
#
#
#
# Elastic Constant Matrix: (Units=GPa)
#
#
# Indices 1 2 3 4 5 6 
#
# 1 43.9466 21.2659 2.0350 0.0000 -23.0064 0.0000
# 2 21.2659 101.1833 36.8076 0.0000 -16.8070 0.0000
# 3 2.0350 36.8076 53.9765 0.0000 -11.6581 0.0000
# 4 0.0000 0.0000 0.0000 32.4396 0.0000 0.4576
# 5 -23.0064 -16.8070 -11.6581 0.0000 26.9084 0.0000
# 6 0.0000 0.0000 0.0000 0.4576 0.0000 29.1624
#
#
#
# Elastic Compliance Matrix: (Units=1/GPa)
#
#
# Indices 1 2 3 4 5 6 
#
# 1 0.047355 -0.007593 0.012260 0.000000 0.041058 0.000000
# 2 -0.007593 0.014941 -0.010248 0.000000 -0.001600 0.000000
# 3 0.012260 -0.010248 0.028611 0.000000 0.016478 0.000000
# 4 0.000000 0.000000 0.000000 0.030833 0.000000 -0.000484
# 5 0.041058 -0.001600 0.016478 0.000000 0.078407 0.000000
# 6 0.000000 0.000000 0.000000 -0.000484 0.000000 0.034298
#
#
# Mechanical properties :
#
#
# Convention : Reuss Voigt Hill
#
# Bulk Modulus (GPa) = 12.53966 35.48037 24.01002
# Shear Modulus (GPa) = 18.36956 26.96862 22.66909
#
# Velocity S-wave (km/s) = 2.99766 3.63214 3.33004
# Velocity P-wave (km/s) = 4.25622 5.91152 5.15080
#
# Compressibility (1/GPa) = 0.07974699
#
# Stress axis : x y z
#
# Youngs Moduli (GPa) = 21.11693 66.92987 34.95108
#
# Poissons Ratio (x) = 0.50819 -0.42851
# Poissons Ratio (y) = 0.16034 0.35817
# Poissons Ratio (z) = -0.25890 0.68588
#
# Static dielectric constant tensor:
#      x y z
#    x 1.741080 0.000000 0.011230 
#    y 0.000000 1.676690 0.000000 
#    z 0.011230 0.000000 1.733680 
# 
# From -- ./inp_files/244743.got.cif
#   From: 2010.05.17/outbox.ucp.g08.bks.cvg/sg12_123_cif.got.tgz:244743.got - 2010.06.11 11:47:21.
