data_PCOD9223555
_publ_section_title
;
Structure prediction by ZEFSAII (Michael W. Deem and Ramdas Pophale) SiO2 
 PCOD9223555
Probable space group: C 2/M
;
_chemical_formula_sum "Si O2"
_cell_formula_units_Z 32
_cell_length_a 30.000000
_cell_length_b 9.000000
_cell_length_c 24.000000
_cell_angle_alpha 90.000000
_cell_angle_beta 30.000000
_cell_angle_gamma 90.000000
_cell_volume 3240.000000
_symmetry_space_group_name_H-M "C 2/M"
_symmetry_group_IT_number 12
_symmetry_cell_setting 'monoclinic'
loop_
_space_group_symop_operation_xyz
x,y,z
-x,y,-z
-x,-y,-z
x,-y,z
1/2+x,1/2+y,z
1/2-x,1/2+y,-z
1/2-x,1/2-y,-z
1/2+x,1/2-y,z
loop_
_atom_site_type_symbol
_atom_site_label
_atom_site_fract_x
_atom_site_fract_y
_atom_site_fract_z
Si Si1 0.100679 0.321013 0.904032
Si Si2 0.853195 0.328462 0.448717
Si Si3 0.435452 0.327390 0.259143
Si Si4 0.724530 0.819422 0.868896
Si Si5 0.378884 0.820371 0.912516
Si Si6 0.304968 0.674282 0.299195
Si Si7 0.424232 0.679018 0.627478
Si Si8 0.945097 0.671711 0.723257
O O1 0.098080 0.500000 0.906301
O O2 0.142656 0.274271 0.917644
O O3 0.169046 0.265698 0.783062
O O4 0.000000 0.267305 0.000000
O O5 0.829581 0.500000 0.460181
O O6 0.863866 0.231120 0.381920
O O7 0.782018 0.276345 0.571682
O O8 0.953133 0.328728 0.365152
O O9 0.455133 0.500000 0.249069
O O10 0.526316 0.234868 0.165712
O O11 0.388553 0.313362 0.250530
O O12 0.819147 0.772281 0.738797
O O13 0.727468 0.000000 0.867128
O O14 0.698801 0.771672 0.960138
O O15 0.383936 0.773699 0.841663
O O16 0.379275 0.000000 0.911062
O O17 0.292163 0.500000 0.299080
O O18 0.500000 0.730448 0.500000
O O19 0.424910 0.500000 0.623528
O O20 0.445727 0.732050 0.666820
O O21 0.920597 0.500000 0.736978
#
# Coordination Sequence:
#
# PCOD9223555 Si02
#       8
#     8   8   8   8   8   8   8   8
#     4  10  21  36  56  81 106 140 189 233 270 323
#     4   9  19  35  53  75 108 147 185 223 271 331
#     4  10  19  31  50  80 113 142 179 228 276 324
#     4   9  19  37  58  81 109 144 188 230 272 328
#     4   9  18  36  60  79 106 146 183 225 276 329
#     4  10  21  34  50  75 109 146 183 228 278 329
#     4  10  22  38  57  81 112 147 180 223 278 329
#     4   9  19  35  56  82 107 138 181 226 273 326
#
# _framework density 9.8765429999999999
#
# number of rings (size 3 to 8) (size 9 to 14) (size 15 to 20)
#    0.000    2.500    0.000    2.250    1.750    5.500 
#    0.000    1.875    0.000    0.000    0.000    0.000 
#    0.000    0.000    0.000    0.000    0.000    0.000 
#
# Total GULP energy -178387.587993 kJ/mol
# GULP energy per Si atom -5574.612125 kJ/mol
# Density = 0.985406 g / cm^3
# Si number density = 9.876543 Si / 1000 Ang^3
#
#
#
# Elastic Constant Matrix: (Units=GPa)
#
#
# Indices 1 2 3 4 5 6 
#
# 1 72.5336 12.5487 45.7691 -0.0099 15.8776 0.0007
# 2 12.5487 2.0427 3.4093 -0.0298 5.3475 0.0069
# 3 45.7691 3.4093 152.1314 -0.0265 24.4657 0.0073
# 4 -0.0099 -0.0298 -0.0265 25.4447 0.0047 7.6482
# 5 15.8776 5.3475 24.4657 0.0047 33.0637 -0.0007
# 6 0.0007 0.0069 0.0073 7.6482 -0.0007 21.1743
#
#
#
# Elastic Compliance Matrix: (Units=1/GPa)
#
#
# Indices 1 2 3 4 5 6 
#
# 1 -0.032425 0.279126 0.009371 0.000403 -0.036507 -0.000240
# 2 0.279126 -1.552152 -0.077193 -0.002223 0.174115 0.001334
# 3 0.009371 -0.077193 0.004767 -0.000101 0.004457 0.000060
# 4 0.000403 -0.002223 -0.000101 0.044084 0.000234 -0.015923
# 5 -0.036507 0.174115 0.004457 0.000234 0.016317 -0.000141
# 6 -0.000240 0.001334 0.000060 -0.015923 -0.000141 0.052978
#
#
# Mechanical properties :
#
#
# Convention : Reuss Voigt Hill
#
# Bulk Modulus (GPa) = -0.86415 38.90689 19.02137
# Shear Modulus (GPa) = -2.19802 26.93526 12.36862
#
# Velocity S-wave (km/s) = -1.05601 3.69670 2.50504
# Velocity P-wave (km/s) = 1.38756 6.16118 4.24469
#
# Compressibility (1/GPa) = -1.15720345
#
# Stress axis : x y z
#
# Youngs Moduli (GPa) = -30.84022 -0.64427 209.77567
#
# Poissons Ratio (x) = 0.17983 -1.96584
# Poissons Ratio (y) = 8.60829 16.19332
# Poissons Ratio (z) = 0.28901 -0.04973
#
# Static dielectric constant tensor:
#      x y z
#    x 1.727710 0.000000 -0.012780 
#    y 0.000000 1.672390 0.000010 
#    z -0.012780 0.000010 1.706630 
# 
# From -- ./inp_files/353253.got.cif
#   From: 2010.05.17/outbox.ucp.g08.bks.cvg/sg12_177_cif.got.tgz:353253.got - 2010.06.11 11:47:21.
