data_PCOD9223032
_publ_section_title
;
Structure prediction by ZEFSAII (Michael W. Deem and Ramdas Pophale) SiO2 
 PCOD9223032
Probable space group: C 2/M
;
_chemical_formula_sum "Si O2"
_cell_formula_units_Z 56
_cell_length_a 15.655588
_cell_length_b 7.818880
_cell_length_c 16.933555
_cell_angle_alpha 90.000000
_cell_angle_beta 94.760760
_cell_angle_gamma 90.000000
_cell_volume 2065.670935
_symmetry_space_group_name_H-M "C 2/M"
_symmetry_group_IT_number 12
_symmetry_cell_setting 'monoclinic'
loop_
_space_group_symop_operation_xyz
x,y,z
-x,y,-z
-x,-y,-z
x,-y,z
1/2+x,1/2+y,z
1/2-x,1/2+y,-z
1/2-x,1/2-y,-z
1/2+x,1/2-y,z
loop_
_atom_site_type_symbol
_atom_site_label
_atom_site_fract_x
_atom_site_fract_y
_atom_site_fract_z
Si Si1 0.359321 0.803070 0.012971
Si Si2 0.470149 0.300147 0.885325
Si Si3 0.561324 0.706041 0.737691
Si Si4 0.230969 0.300018 0.843425
Si Si5 0.793674 0.210745 0.690463
Si Si6 0.451887 0.704549 0.591061
Si Si7 0.829475 0.297022 0.448410
O O1 0.450831 0.792214 0.065718
O O2 0.293653 0.723584 0.072638
O O3 0.339026 0.000000 0.002717
O O4 0.383555 0.732350 0.928394
O O5 0.487987 0.500000 0.897412
O O6 0.482130 0.267533 0.793501
O O7 0.575977 0.500000 0.736534
O O8 0.640966 0.792352 0.787230
O O9 0.531777 0.772140 0.649357
O O10 0.251371 0.500000 0.856581
O O11 0.291829 0.225064 0.779932
O O12 0.872143 0.260319 0.640880
O O13 0.707741 0.269664 0.637508
O O14 0.794328 0.000000 0.693414
O O15 0.459419 0.500000 0.596010
O O16 0.415246 0.738512 0.500291
O O17 0.834532 0.500000 0.443903
O O18 0.750000 0.250000 0.500000
#
# Coordination Sequence:
#
# PCOD9223032 Si02
#       7
#     8   8   8   8   8   8   8
#     4   9  15  23  38  60  83 107 139 177 212 246
#     4   9  15  24  39  58  82 111 142 173 208 253
#     4   9  18  30  44  65  90 116 144 177 219 259
#     4   9  17  29  45  65  88 114 144 178 216 257
#     4   8  15  29  48  66  84 111 146 179 211 253
#     4   9  17  31  49  66  87 114 147 183 214 253
#     4   9  16  28  47  68  88 112 146 183 215 252
#
# _framework density 27.109838
#
# number of rings (size 3 to 8) (size 9 to 14) (size 15 to 20)
#    0.000    3.143    0.000    3.000    0.000    1.714 
#    0.000    4.286    0.000    5.143    0.000    0.000 
#    0.000    0.000    0.000    0.000    0.000    7.714 
#
# Total GULP energy -156435.708587 kJ/mol
# GULP energy per Si atom -5586.989592 kJ/mol
# Density = 2.704813 g / cm^3
# Si number density = 27.109838 Si / 1000 Ang^3
#
#
#
# Elastic Constant Matrix: (Units=GPa)
#
#
# Indices 1 2 3 4 5 6 
#
# 1 52.0851 3.7203 -19.0541 0.0000 9.3642 0.0000
# 2 3.7203 70.5122 12.5143 0.0000 5.5553 0.0000
# 3 -19.0541 12.5143 210.5830 0.0000 12.3176 0.0000
# 4 0.0000 0.0000 0.0000 33.0449 0.0000 3.4511
# 5 9.3642 5.5553 12.3176 0.0000 47.4369 0.0000
# 6 0.0000 0.0000 0.0000 3.4511 0.0000 33.3143
#
#
#
# Elastic Compliance Matrix: (Units=1/GPa)
#
#
# Indices 1 2 3 4 5 6 
#
# 1 0.020918 -0.001139 0.002228 0.000000 -0.004574 0.000000
# 2 -0.001139 0.014498 -0.000892 0.000000 -0.001241 0.000000
# 3 0.002228 -0.000892 0.005100 0.000000 -0.001660 0.000000
# 4 0.000000 0.000000 0.000000 0.030593 0.000000 -0.003169
# 5 -0.004574 -0.001241 -0.001660 0.000000 0.022560 0.000000
# 6 0.000000 0.000000 0.000000 -0.003169 0.000000 0.030345
#
#
# Mechanical properties :
#
#
# Convention : Reuss Voigt Hill
#
# Bulk Modulus (GPa) = 24.44312 36.39348 30.41830
# Shear Modulus (GPa) = 36.42788 45.15920 40.79354
#
# Velocity S-wave (km/s) = 3.66965 4.08583 3.88332
# Velocity P-wave (km/s) = 5.19529 5.97598 5.59925
#
# Compressibility (1/GPa) = 0.04091131
#
# Stress axis : x y z
#
# Youngs Moduli (GPa) = 47.80536 68.97440 196.06284
#
# Poissons Ratio (x) = 0.07854 -0.43682
# Poissons Ratio (y) = 0.05443 0.17489
# Poissons Ratio (z) = -0.10651 0.06152
#
# Static dielectric constant tensor:
#      x y z
#    x 2.256190 0.000000 0.002210 
#    y 0.000000 1.974110 0.000000 
#    z 0.002210 0.000000 2.158870 
# 
# From -- ./inp_files/280323.got.cif
#   From: 2010.05.17/outbox.cif.g08.bks.cpg/sg12_141_cif.got.tgz:280323.got - 2010.06.03 13:09:07.
