data_PCOD9223984
_publ_section_title
;
Structure prediction by ZEFSAII (Michael W. Deem and Ramdas Pophale) SiO2 
 PCOD9223984
Probable space group: C 2/M
;
_chemical_formula_sum "Si O2"
_cell_formula_units_Z 28
_cell_length_a 27.000000
_cell_length_b 9.000000
_cell_length_c 18.000000
_cell_angle_alpha 90.000000
_cell_angle_beta 40.000000
_cell_angle_gamma 90.000000
_cell_volume 2811.553005
_symmetry_space_group_name_H-M "C 2/M"
_symmetry_group_IT_number 12
_symmetry_cell_setting 'monoclinic'
loop_
_space_group_symop_operation_xyz
x,y,z
-x,y,-z
-x,-y,-z
x,-y,z
1/2+x,1/2+y,z
1/2-x,1/2+y,-z
1/2-x,1/2-y,-z
1/2+x,1/2-y,z
loop_
_atom_site_type_symbol
_atom_site_label
_atom_site_fract_x
_atom_site_fract_y
_atom_site_fract_z
Si Si1 0.258075 0.678363 0.635383
Si Si2 0.075071 0.319771 0.038809
Si Si3 0.229077 0.171549 0.808146
Si Si4 0.308395 0.170924 0.876546
Si Si5 0.549671 0.323025 0.229499
Si Si6 0.410025 0.831668 0.202995
Si Si7 0.392982 0.831049 0.400554
O O1 0.258536 0.500000 0.628796
O O2 0.280158 0.738107 0.690802
O O3 0.170510 0.737498 0.727718
O O4 0.314415 0.749892 0.511235
O O5 0.075632 0.500000 0.042263
O O6 0.073291 0.250901 0.123387
O O7 0.994951 0.269733 0.092580
O O8 0.148716 0.257307 0.912455
O O9 0.269930 0.170309 0.840630
O O10 0.217658 0.000000 0.798340
O O11 0.387025 0.262461 0.786897
O O12 0.322080 0.000000 0.884274
O O13 0.250000 0.250000 0.000000
O O14 0.550781 0.500000 0.221495
O O15 0.465339 0.262823 0.346071
O O16 0.403292 0.839235 0.300084
O O17 0.410527 0.000000 0.171388
O O18 0.393515 0.000000 0.428398
#
# Coordination Sequence:
#
# PCOD9223984 Si02
#       7
#     8   8   8   8   8   8   8
#     4  11  22  38  58  82 115 154 194 236 284 337
#     4  10  19  35  58  84 115 150 190 235 285 336
#     4  11  24  39  55  82 118 153 190 233 285 344
#     4  11  22  37  60  86 115 148 189 235 285 340
#     4  11  21  35  58  89 118 145 186 236 286 339
#     4   8  18  35  58  86 113 148 192 236 282 334
#     4  10  20  38  61  85 115 150 192 237 283 334
#
# _framework density 9.9589090000000002
#
# number of rings (size 3 to 8) (size 9 to 14) (size 15 to 20)
#    0.000    1.714    1.429    4.714    0.000    2.286 
#    0.000   11.429    0.000    4.286    0.000    0.000 
#    0.000    0.000    0.000    0.000    0.000    0.000 
#
# Total GULP energy -156266.738705 kJ/mol
# GULP energy per Si atom -5580.954954 kJ/mol
# Density = 0.993624 g / cm^3
# Si number density = 9.958909 Si / 1000 Ang^3
#
#
#
# Elastic Constant Matrix: (Units=GPa)
#
#
# Indices 1 2 3 4 5 6 
#
# 1 61.7760 35.2429 41.0038 -0.0017 -20.7872 0.0009
# 2 35.2429 127.9080 27.5377 0.0024 -10.5297 -0.0032
# 3 41.0038 27.5377 30.5050 0.0001 -5.5827 -0.0013
# 4 -0.0017 0.0024 0.0001 29.1228 0.0005 -4.6324
# 5 -20.7872 -10.5297 -5.5827 0.0005 22.4082 0.0002
# 6 0.0009 -0.0032 -0.0013 -4.6324 0.0002 17.5068
#
#
#
# Elastic Compliance Matrix: (Units=1/GPa)
#
#
# Indices 1 2 3 4 5 6 
#
# 1 -0.539298 -0.027497 0.687136 -0.000013 -0.342016 0.000074
# 2 -0.027497 0.008437 0.026615 -0.000001 -0.014912 0.000005
# 3 0.687136 0.026615 -0.833948 0.000017 0.442169 -0.000092
# 4 -0.000013 -0.000001 0.000017 0.035846 -0.000009 0.009485
# 5 -0.342016 -0.014912 0.442169 -0.000009 -0.169496 0.000047
# 6 0.000074 0.000005 -0.000092 0.009485 0.000047 0.059631
#
#
# Mechanical properties :
#
#
# Convention : Reuss Voigt Hill
#
# Bulk Modulus (GPa) = 129.88840 47.52865 88.70852
# Shear Modulus (GPa) = -1.78014 21.56785 9.89385
#
# Velocity S-wave (km/s) = -0.94640 3.29423 2.23117
# Velocity P-wave (km/s) = 8.00996 6.19543 7.16041
#
# Compressibility (1/GPa) = 0.00769892
#
# Stress axis : x y z
#
# Youngs Moduli (GPa) = -1.85426 118.52912 -1.19912
#
# Poissons Ratio (x) = 3.25915 0.82396
# Poissons Ratio (y) = -0.05099 0.03191
# Poissons Ratio (z) = 1.27413 -3.15464
#
# Static dielectric constant tensor:
#      x y z
#    x 1.772770 0.000000 0.002120 
#    y 0.000000 1.679830 0.000000 
#    z 0.002120 0.000000 1.693370 
# 
# From -- ./inp_files/292412.got.cif
#   From: 2010.05.17/outbox.ucp.g08.bks.cvg/sg12_147_cif.got.tgz:292412.got - 2010.06.11 11:47:21.
