data_PCOD9223433
_publ_section_title
;
Structure prediction by ZEFSAII (Michael W. Deem and Ramdas Pophale) SiO2 
 PCOD9223433
Probable space group: C 2/M
;
_chemical_formula_sum "Si O2"
_cell_formula_units_Z 32
_cell_length_a 18.000000
_cell_length_b 30.000000
_cell_length_c 9.000000
_cell_angle_alpha 90.000000
_cell_angle_beta 140.000000
_cell_angle_gamma 90.000000
_cell_volume 3123.947783
_symmetry_space_group_name_H-M "C 2/M"
_symmetry_group_IT_number 12
_symmetry_cell_setting 'monoclinic'
loop_
_space_group_symop_operation_xyz
x,y,z
-x,y,-z
-x,-y,-z
x,-y,z
1/2+x,1/2+y,z
1/2-x,1/2+y,-z
1/2-x,1/2-y,-z
1/2+x,1/2-y,z
loop_
_atom_site_type_symbol
_atom_site_label
_atom_site_fract_x
_atom_site_fract_y
_atom_site_fract_z
Si Si1 0.688478 0.632512 0.006407
Si Si2 0.433867 0.951706 0.667885
Si Si3 0.268480 0.836312 0.802545
Si Si4 0.522720 0.220219 0.864642
Si Si5 0.829142 0.430286 0.810813
Si Si6 0.129155 0.948099 0.740546
Si Si7 0.918193 0.355556 0.513694
Si Si8 0.524348 0.688161 0.361079
O O1 0.732775 0.648709 0.912604
O O2 0.673370 0.580242 0.948817
O O3 0.567706 0.655619 0.854655
O O4 0.784739 0.647747 0.267805
O O5 0.340852 0.945154 0.658573
O O6 0.435065 0.907825 0.570842
O O7 0.416145 0.000000 0.568484
O O8 0.560191 0.950830 0.937709
O O9 0.338694 0.876737 0.836842
O O10 0.153849 0.827853 0.534536
O O11 0.343311 0.792599 0.937839
O O12 0.454146 0.176830 0.701539
O O13 0.492178 0.261936 0.718045
O O14 0.500000 0.230325 0.000000
O O15 0.714873 0.442025 0.730523
O O16 0.000000 0.931677 0.500000
O O17 0.122592 0.000000 0.765701
O O18 0.000000 0.343042 0.500000
O O19 0.500000 0.686379 0.500000
#
# Coordination Sequence:
#
# PCOD9223433 Si02
#       8
#     8   8   8   8   8   8   8   8
#     4  10  21  39  61  90 125 158 209 255 311 369
#     4  11  22  35  58  92 126 165 206 253 316 373
#     4  10  20  39  65  87 122 159 201 255 303 373
#     4  12  25  42  61  91 124 158 210 253 317 380
#     4  10  18  37  58  89 126 164 207 252 313 369
#     4  10  19  34  63  95 125 167 218 265 309 369
#     4  12  23  40  62  91 126 172 204 256 319 375
#     4  10  24  41  66  91 118 161 205 259 312 371
#
# _framework density 10.243449
#
# number of rings (size 3 to 8) (size 9 to 14) (size 15 to 20)
#    0.000    1.375    2.500    5.250    1.750    2.250 
#    2.250    0.000    0.000    0.000    0.000    3.500 
#    0.000    0.000    0.000    0.000    0.000    0.000 
#
# Total GULP energy -178628.073507 kJ/mol
# GULP energy per Si atom -5582.127297 kJ/mol
# Density = 1.022013 g / cm^3
# Si number density = 10.243449 Si / 1000 Ang^3
#
#
#
# Elastic Constant Matrix: (Units=GPa)
#
#
# Indices 1 2 3 4 5 6 
#
# 1 33.3073 15.9538 25.5921 0.0000 17.4316 0.0000
# 2 15.9538 69.0894 3.8996 0.0000 12.6866 0.0000
# 3 25.5921 3.8996 77.5369 0.0000 28.4818 0.0000
# 4 0.0000 0.0000 0.0000 31.7679 0.0000 -2.0248
# 5 17.4316 12.6866 28.4818 0.0000 18.6264 0.0000
# 6 0.0000 0.0000 0.0000 -2.0248 0.0000 23.8900
#
#
#
# Elastic Compliance Matrix: (Units=1/GPa)
#
#
# Indices 1 2 3 4 5 6 
#
# 1 0.059814 -0.004030 0.000032 0.000000 -0.053282 0.000000
# 2 -0.004030 0.019005 0.008542 0.000000 -0.022234 0.000000
# 3 0.000032 0.008542 0.033321 0.000000 -0.056800 0.000000
# 4 0.000000 0.000000 0.000000 0.031649 0.000000 0.002682
# 5 -0.053282 -0.022234 -0.056800 0.000000 0.205548 0.000000
# 6 0.000000 0.000000 0.000000 0.002682 0.000000 0.042086
#
#
# Mechanical properties :
#
#
# Convention : Reuss Voigt Hill
#
# Bulk Modulus (GPa) = 8.24887 30.09163 19.17025
# Shear Modulus (GPa) = 11.82746 23.82273 17.82509
#
# Velocity S-wave (km/s) = 2.40535 3.41373 2.95290
# Velocity P-wave (km/s) = 3.42775 5.50074 4.58299
#
# Compressibility (1/GPa) = 0.12122869
#
# Stress axis : x y z
#
# Youngs Moduli (GPa) = 16.71840 52.61698 30.01101
#
# Poissons Ratio (x) = 0.21204 -0.00097
# Poissons Ratio (y) = 0.06737 -0.25634
# Poissons Ratio (z) = -0.00054 -0.44944
#
# Static dielectric constant tensor:
#      x y z
#    x 1.736480 0.000000 0.026320 
#    y 0.000000 1.755530 0.000000 
#    z 0.026320 0.000000 1.753940 
# 
# From -- ./inp_files/80790.got.cif
#   From: 2010.05.17/outbox.ucp.g08.bks.cvg/sg12_41_cif.got.tgz:80790.got - 2010.06.11 11:47:21.
