data_PCOD9223230
_publ_section_title
;
Structure prediction by ZEFSAII (Michael W. Deem and Ramdas Pophale) SiO2 
 PCOD9223230
Probable space group: C 2/M
;
_chemical_formula_sum "Si O2"
_cell_formula_units_Z 24
_cell_length_a 21.000000
_cell_length_b 9.000000
_cell_length_c 15.000000
_cell_angle_alpha 90.000000
_cell_angle_beta 70.000000
_cell_angle_gamma 90.000000
_cell_volume 2664.028580
_symmetry_space_group_name_H-M "C 2/M"
_symmetry_group_IT_number 12
_symmetry_cell_setting 'monoclinic'
loop_
_space_group_symop_operation_xyz
x,y,z
-x,y,-z
-x,-y,-z
x,-y,z
1/2+x,1/2+y,z
1/2-x,1/2+y,-z
1/2-x,1/2-y,-z
1/2+x,1/2-y,z
loop_
_atom_site_type_symbol
_atom_site_label
_atom_site_fract_x
_atom_site_fract_y
_atom_site_fract_z
Si Si1 0.281526 0.820216 0.777000
Si Si2 0.040111 0.680761 0.615933
Si Si3 0.898692 0.680612 0.593474
Si Si4 0.474010 0.181087 0.181483
Si Si5 0.145283 0.320516 0.886837
Si Si6 0.869970 0.319295 0.904749
O O1 0.330134 0.773116 0.673137
O O2 0.208518 0.747918 0.805770
O O3 0.320648 0.772240 0.848916
O O4 0.276384 0.000000 0.780716
O O5 0.041194 0.500000 0.615840
O O6 0.088933 0.731439 0.513250
O O7 0.055195 0.728787 0.708735
O O8 0.964064 0.723006 0.621559
O O9 0.899161 0.500000 0.592796
O O10 0.425675 0.226700 0.123774
O O11 0.552023 0.229648 0.142068
O O12 0.475562 0.000000 0.178442
O O13 0.147577 0.500000 0.883002
O O14 0.152217 0.273250 0.986220
O O15 0.870779 0.500000 0.901192
#
# Coordination Sequence:
#
# PCOD9223230 Si02
#       6
#     8   8   8   8   8   8
#     4  10  18  30  47  66  90 118 147 180 218 260
#     4   8  12  21  40  66  89 106 138 187 226 250
#     4   8  13  22  40  66  89 108 138 185 225 250
#     4   9  15  26  44  66  89 113 145 186 224 255
#     4  10  20  30  43  66  95 120 143 177 221 265
#     4   9  16  28  46  66  86 114 153 188 215 248
#
# _framework density 9.0089120000000005
#
# number of rings (size 3 to 8) (size 9 to 14) (size 15 to 20)
#    0.000    3.000    1.667    2.000    0.000    2.000 
#    0.000    0.833    0.000    3.000    0.000    2.333 
#    0.000    0.000    0.000    0.000    0.000    0.000 
#
# Total GULP energy -133618.177622 kJ/mol
# GULP energy per Si atom -5567.424068 kJ/mol
# Density = 0.898841 g / cm^3
# Si number density = 9.008912 Si / 1000 Ang^3
#
#
#
# Elastic Constant Matrix: (Units=GPa)
#
#
# Indices 1 2 3 4 5 6 
#
# 1 45.8398 0.4872 -3.3191 0.0000 -13.0838 0.0000
# 2 0.4872 -7.1716 1.8599 0.0000 0.1101 0.0000
# 3 -3.3191 1.8599 55.2221 0.0000 -21.0579 0.0000
# 4 0.0000 0.0000 0.0000 9.8623 0.0000 -8.0820
# 5 -13.0838 0.1101 -21.0579 0.0000 11.0317 0.0000
# 6 0.0000 0.0000 0.0000 -8.0820 0.0000 11.9021
#
#
#
# Elastic Compliance Matrix: (Units=1/GPa)
#
#
# Indices 1 2 3 4 5 6 
#
# 1 -0.049449 -0.029941 -0.088990 0.000000 -0.228217 0.000000
# 2 -0.029941 -0.152216 -0.035411 0.000000 -0.101587 0.000000
# 3 -0.088990 -0.035411 -0.096142 0.000000 -0.288711 0.000000
# 4 0.000000 0.000000 0.000000 0.228605 0.000000 0.155231
# 5 -0.228217 -0.101587 -0.288711 0.000000 -0.730116 0.000000
# 6 0.000000 0.000000 0.000000 0.155231 0.000000 0.189427
#
#
# Mechanical properties :
#
#
# Convention : Reuss Voigt Hill
#
# Bulk Modulus (GPa) = -1.64883 10.21625 4.28371
# Shear Modulus (GPa) = -9.93307 12.88338 1.47515
#
# Velocity S-wave (km/s) = -2.35051 2.67691 0.90581
# Velocity P-wave (km/s) = 2.87812 3.90345 1.86458
#
# Compressibility (1/GPa) = -0.60649167
#
# Stress axis : x y z
#
# Youngs Moduli (GPa) = -20.22302 -6.56962 -10.40128
#
# Poissons Ratio (x) = -0.19670 -0.92561
# Poissons Ratio (y) = -0.60551 -0.36832
# Poissons Ratio (z) = -1.79965 -0.23264
#
# Static dielectric constant tensor:
#      x y z
#    x 1.591100 0.000000 -0.010330 
#    y 0.000000 1.601210 0.000000 
#    z -0.010330 0.000000 1.668980 
# 
# From -- ./inp_files/212637.got.cif
#   From: 2010.05.17/outbox.ucp.g08.bks.cvg/sg12_107_cif.got.tgz:212637.got - 2010.06.11 11:47:21.
