data_PCOD9223491
_publ_section_title
;
Structure prediction by ZEFSAII (Michael W. Deem and Ramdas Pophale) SiO2 
 PCOD9223491
Probable space group: C 2/M
;
_chemical_formula_sum "Si O2"
_cell_formula_units_Z 32
_cell_length_a 30.000000
_cell_length_b 9.000000
_cell_length_c 18.000000
_cell_angle_alpha 90.000000
_cell_angle_beta 40.000000
_cell_angle_gamma 90.000000
_cell_volume 3123.947783
_symmetry_space_group_name_H-M "C 2/M"
_symmetry_group_IT_number 12
_symmetry_cell_setting 'monoclinic'
loop_
_space_group_symop_operation_xyz
x,y,z
-x,y,-z
-x,-y,-z
x,-y,z
1/2+x,1/2+y,z
1/2-x,1/2+y,-z
1/2-x,1/2-y,-z
1/2+x,1/2-y,z
loop_
_atom_site_type_symbol
_atom_site_label
_atom_site_fract_x
_atom_site_fract_y
_atom_site_fract_z
Si Si1 0.012893 0.327559 0.314981
Si Si2 0.129513 0.328320 0.417726
Si Si3 0.645477 0.677317 0.970162
Si Si4 0.790396 0.172671 0.557262
Si Si5 0.781386 0.176046 0.806992
Si Si6 0.148102 0.324907 0.665700
Si Si7 0.349134 0.676818 0.865331
Si Si8 0.495487 0.825013 0.850601
O O1 0.035711 0.500000 0.290600
O O2 0.946453 0.308553 0.451223
O O3 0.074695 0.221274 0.259338
O O4 0.995288 0.299721 0.250420
O O5 0.138131 0.500000 0.384370
O O6 0.180934 0.283299 0.418275
O O7 0.150147 0.220690 0.325051
O O8 0.647644 0.500000 0.963605
O O9 0.649706 0.730443 0.051305
O O10 0.571714 0.736457 0.036537
O O11 0.716125 0.747661 0.850140
O O12 0.826920 0.221334 0.433649
O O13 0.708027 0.186170 0.650277
O O14 0.806498 0.000000 0.554077
O O15 0.795052 0.234190 0.873449
O O16 0.770858 0.000000 0.821682
O O17 0.146548 0.500000 0.643136
O O18 0.070203 0.286798 0.789360
O O19 0.340851 0.500000 0.878772
O O20 0.482239 0.000000 0.878210
#
# Coordination Sequence:
#
# PCOD9223491 Si02
#       8
#     8   8   8   8   8   8   8   8
#     4   9  18  32  52  75 103 139 175 208 257 311
#     4  11  22  37  53  73 107 145 178 216 257 312
#     4  10  20  35  55  80 104 132 172 219 265 308
#     4  10  19  30  50  79 109 142 175 213 256 306
#     4  11  23  38  54  75 101 138 179 216 263 315
#     4   9  17  31  51  78 111 141 174 211 256 308
#     4   9  20  36  55  78 105 131 168 221 267 307
#     4   9  16  31  53  77 106 139 171 211 257 305
#
# _framework density 10.243449
#
# number of rings (size 3 to 8) (size 9 to 14) (size 15 to 20)
#    0.000    2.250    1.250    1.875    0.000    4.000 
#    0.000    2.500    0.000    0.750    0.000    5.250 
#    0.000    0.000    0.000    0.000    0.000    0.000 
#
# Total GULP energy -178456.343352 kJ/mol
# GULP energy per Si atom -5576.760730 kJ/mol
# Density = 1.022013 g / cm^3
# Si number density = 10.243449 Si / 1000 Ang^3
#
#
#
# Elastic Constant Matrix: (Units=GPa)
#
#
# Indices 1 2 3 4 5 6 
#
# 1 30.9605 -1.3834 -5.8024 -0.0043 -21.8857 0.0031
# 2 -1.3834 12.6215 5.6752 0.0074 -15.7753 0.0010
# 3 -5.8024 5.6752 22.0509 -0.0021 -11.3774 0.0023
# 4 -0.0043 0.0074 -0.0021 27.5632 0.0013 -4.8797
# 5 -21.8857 -15.7753 -11.3774 0.0013 27.2679 -0.0018
# 6 0.0031 0.0010 0.0023 -4.8797 -0.0018 20.2152
#
#
#
# Elastic Compliance Matrix: (Units=1/GPa)
#
#
# Indices 1 2 3 4 5 6 
#
# 1 -0.015806 -0.067980 -0.017205 0.000019 -0.059193 0.000007
# 2 -0.067980 -0.002318 -0.058793 -0.000009 -0.080434 0.000008
# 3 -0.017205 -0.058793 0.039861 0.000018 -0.031190 0.000003
# 4 0.000019 -0.000009 0.000018 0.037900 0.000016 0.009149
# 5 -0.059193 -0.080434 -0.031190 0.000016 -0.070384 0.000014
# 6 0.000007 0.000008 0.000003 0.009149 0.000014 0.051676
#
#
# Mechanical properties :
#
#
# Convention : Reuss Voigt Hill
#
# Bulk Modulus (GPa) = -3.75632 6.95687 1.60027
# Shear Modulus (GPa) = 20.82082 19.48550 20.15316
#
# Velocity S-wave (km/s) = 3.19140 3.08737 3.13982
# Velocity P-wave (km/s) = 3.42674 4.01401 3.73195
#
# Compressibility (1/GPa) = -0.26621771
#
# Stress axis : x y z
#
# Youngs Moduli (GPa) = -63.26831 -431.37699 25.08729
#
# Poissons Ratio (x) = -29.32514 0.43162
# Poissons Ratio (y) = -4.30100 1.47494
# Poissons Ratio (z) = -1.08850 -25.36173
#
# Static dielectric constant tensor:
#      x y z
#    x 1.774970 0.000000 0.011200 
#    y 0.000000 1.689890 0.000000 
#    z 0.011200 0.000000 1.794490 
# 
# From -- ./inp_files/295618.got.cif
#   From: 2010.05.17/outbox.ucp.g08.bks.cvg/sg12_148_cif.got.tgz:295618.got - 2010.06.11 11:47:21.
