data_PCOD9223431
_publ_section_title
;
Structure prediction by ZEFSAII (Michael W. Deem and Ramdas Pophale) SiO2 
 PCOD9223431
Probable space group: C 2/M
;
_chemical_formula_sum "Si O2"
_cell_formula_units_Z 28
_cell_length_a 18.000000
_cell_length_b 18.000000
_cell_length_c 27.000000
_cell_angle_alpha 90.000000
_cell_angle_beta 20.000000
_cell_angle_gamma 90.000000
_cell_volume 2991.992214
_symmetry_space_group_name_H-M "C 2/M"
_symmetry_group_IT_number 12
_symmetry_cell_setting 'monoclinic'
loop_
_space_group_symop_operation_xyz
x,y,z
-x,y,-z
-x,-y,-z
x,-y,z
1/2+x,1/2+y,z
1/2-x,1/2+y,-z
1/2-x,1/2-y,-z
1/2+x,1/2-y,z
loop_
_atom_site_type_symbol
_atom_site_label
_atom_site_fract_x
_atom_site_fract_y
_atom_site_fract_z
Si Si1 0.213690 0.146938 0.330570
Si Si2 0.021561 0.839751 0.341910
Si Si3 0.577194 0.084153 0.168653
Si Si4 0.749234 0.294777 0.645875
Si Si5 0.074036 0.293115 0.661802
Si Si6 0.305630 0.087246 0.089421
Si Si7 0.894562 0.087825 0.883978
O O1 0.142062 0.142055 0.318358
O O2 0.382244 0.090748 0.250047
O O3 0.315770 0.228063 0.276313
O O4 0.000000 0.143810 0.500000
O O5 0.094734 0.898505 0.254997
O O6 0.060285 0.758899 0.291712
O O7 0.766095 0.836195 0.513271
O O8 0.548473 0.146441 0.228277
O O9 0.577367 0.000000 0.188118
O O10 0.789899 0.098410 0.002905
O O11 0.696399 0.261703 0.624490
O O12 0.612334 0.367299 0.740866
O O13 0.000000 0.308264 0.500000
O O14 0.265700 0.116570 0.059419
O O15 0.350911 0.000000 0.055606
O O16 0.500000 0.121378 0.000000
O O17 0.924421 0.000000 0.857600
#
# Coordination Sequence:
#
# PCOD9223431 Si02
#       7
#     8   8   8   8   8   8   8
#     4  10  19  34  54  86 112 146 185 225 281 336
#     4  11  19  36  55  81 118 147 185 229 277 335
#     4  10  21  38  57  82 117 150 188 233 282 342
#     4  10  18  37  56  80 109 141 187 242 275 328
#     4  10  21  35  57  82 112 151 187 233 283 334
#     4  10  21  36  54  83 119 150 179 222 282 344
#     4  10  21  37  57  80 109 150 191 230 278 332
#
# _framework density 9.3583130000000008
#
# number of rings (size 3 to 8) (size 9 to 14) (size 15 to 20)
#    0.000    1.857    5.714    0.857    0.000    5.143 
#    2.571    0.000    0.000    0.857    0.000    2.000 
#    0.000    0.000    0.000    0.000    0.000    0.000 
#
# Total GULP energy -155980.809479 kJ/mol
# GULP energy per Si atom -5570.743196 kJ/mol
# Density = 0.933701 g / cm^3
# Si number density = 9.358313 Si / 1000 Ang^3
#
#
#
# Elastic Constant Matrix: (Units=GPa)
#
#
# Indices 1 2 3 4 5 6 
#
# 1 47.6649 15.3057 5.0431 0.0325 15.8550 -0.0104
# 2 15.3057 36.5306 33.4539 0.0135 4.5281 -0.0072
# 3 5.0431 33.4539 53.0983 0.0099 3.5432 -0.0775
# 4 0.0325 0.0135 0.0099 28.3396 0.0343 1.6140
# 5 15.8550 4.5281 3.5432 0.0343 21.5540 -0.0155
# 6 -0.0104 -0.0072 -0.0775 1.6140 -0.0155 31.5224
#
#
#
# Elastic Compliance Matrix: (Units=1/GPa)
#
#
# Indices 1 2 3 4 5 6 
#
# 1 0.034846 -0.023964 0.013309 -0.000007 -0.022786 0.000028
# 2 -0.023964 0.082243 -0.050113 0.000002 0.008588 -0.000108
# 3 0.013309 -0.050113 0.049638 -0.000006 -0.007422 0.000112
# 4 -0.000007 0.000002 -0.000006 0.035390 -0.000052 -0.001812
# 5 -0.022786 0.008588 -0.007422 -0.000052 0.062573 0.000010
# 6 0.000028 -0.000108 0.000112 -0.001812 0.000010 0.031816
#
#
# Mechanical properties :
#
#
# Convention : Reuss Voigt Hill
#
# Bulk Modulus (GPa) = 22.12843 27.21102 24.66973
# Shear Modulus (GPa) = 11.54453 21.84927 16.69690
#
# Velocity S-wave (km/s) = 2.48625 3.42039 2.99003
# Velocity P-wave (km/s) = 4.48224 5.49261 5.01294
#
# Compressibility (1/GPa) = 0.04519073
#
# Stress axis : x y z
#
# Youngs Moduli (GPa) = 28.69759 12.15909 20.14593
#
# Poissons Ratio (x) = 0.29138 -0.26812
# Poissons Ratio (y) = 0.68770 1.00958
# Poissons Ratio (z) = -0.38193 0.60933
#
# Static dielectric constant tensor:
#      x y z
#    x 1.674840 0.000010 -0.015430 
#    y 0.000010 1.655520 0.000030 
#    z -0.015430 0.000030 1.699620 
# 
# From -- ./inp_files/156503.got.cif
#   From: 2010.05.17/outbox.ucp.g08.bks.cvg/sg12_79_cif.got.tgz:156503.got - 2010.06.11 11:47:21.
