data_PCOD9223668
_publ_section_title
;
Structure prediction by ZEFSAII (Michael W. Deem and Ramdas Pophale) SiO2 
 PCOD9223668
Probable space group: C 2/M
;
_chemical_formula_sum "Si O2"
_cell_formula_units_Z 32
_cell_length_a 15.000000
_cell_length_b 9.000000
_cell_length_c 30.000000
_cell_angle_alpha 90.000000
_cell_angle_beta 130.000000
_cell_angle_gamma 90.000000
_cell_volume 3102.479995
_symmetry_space_group_name_H-M "C 2/M"
_symmetry_group_IT_number 12
_symmetry_cell_setting 'monoclinic'
loop_
_space_group_symop_operation_xyz
x,y,z
-x,y,-z
-x,-y,-z
x,-y,z
1/2+x,1/2+y,z
1/2-x,1/2+y,-z
1/2-x,1/2-y,-z
1/2+x,1/2-y,z
loop_
_atom_site_type_symbol
_atom_site_label
_atom_site_fract_x
_atom_site_fract_y
_atom_site_fract_z
Si Si1 0.788900 0.674210 0.637060
Si Si2 0.649088 0.177497 0.438255
Si Si3 0.385858 0.677290 0.834984
Si Si4 0.426899 0.825006 0.758609
Si Si5 0.435915 0.164652 0.432518
Si Si6 0.172092 0.676045 0.812056
Si Si7 0.078161 0.173074 0.959317
Si Si8 0.245510 0.828381 0.926374
O O1 0.817872 0.500000 0.648734
O O2 0.847296 0.735195 0.611134
O O3 0.822851 0.737398 0.696003
O O4 0.654471 0.705295 0.589856
O O5 0.750000 0.250000 0.500000
O O6 0.527053 0.198635 0.423207
O O7 0.670893 0.000000 0.444055
O O8 0.395245 0.500000 0.833667
O O9 0.441536 0.746540 0.809834
O O10 0.254601 0.730512 0.799379
O O11 0.452055 0.718026 0.901650
O O12 0.537133 0.799071 0.762441
O O13 0.417511 0.000000 0.765073
O O14 0.500000 0.152513 0.500000
O O15 0.382597 0.000000 0.406836
O O16 0.191420 0.500000 0.820969
O O17 0.205636 0.740264 0.870577
O O18 0.157007 0.188119 0.939829
O O19 0.079633 0.000000 0.972748
O O20 0.133512 0.268761 0.015624
O O21 0.250972 0.000000 0.916715
#
# Coordination Sequence:
#
# PCOD9223668 Si02
#       8
#     8   8   8   8   8   8   8   8
#     4  10  22  38  57  83 114 151 187 226 279 333
#     4  10  20  35  57  84 117 150 183 224 272 328
#     4  10  21  38  60  84 108 146 192 232 280 337
#     4  10  22  40  58  80 112 146 187 234 279 330
#     4  10  20  35  57  87 117 146 186 229 271 322
#     4  10  21  37  59  82 109 147 187 230 283 338
#     4   9  18  33  53  79 111 144 184 230 280 339
#     4  10  19  32  54  82 112 145 185 230 281 338
#
# _framework density 10.314329000000001
#
# number of rings (size 3 to 8) (size 9 to 14) (size 15 to 20)
#    0.000    2.125    2.500    0.375    0.000    4.250 
#    0.000    5.000    0.000    0.000    0.000    0.000 
#    0.000    0.000    0.000    0.000    0.000    0.000 
#
# Total GULP energy -178215.936368 kJ/mol
# GULP energy per Si atom -5569.248012 kJ/mol
# Density = 1.029085 g / cm^3
# Si number density = 10.314329 Si / 1000 Ang^3
#
#
#
# Elastic Constant Matrix: (Units=GPa)
#
#
# Indices 1 2 3 4 5 6 
#
# 1 47.5343 20.2129 7.7029 0.0000 -6.0032 0.0000
# 2 20.2129 -60.9302 -6.4561 0.0000 27.1816 0.0000
# 3 7.7029 -6.4561 40.2498 0.0000 8.0722 0.0000
# 4 0.0000 0.0000 0.0000 19.6638 0.0000 1.8429
# 5 -6.0032 27.1816 8.0722 0.0000 -5.4690 0.0000
# 6 0.0000 0.0000 0.0000 1.8429 0.0000 5.4841
#
#
#
# Elastic Compliance Matrix: (Units=1/GPa)
#
#
# Indices 1 2 3 4 5 6 
#
# 1 0.019013 0.003218 -0.001655 0.000000 -0.007318 0.000000
# 2 0.003218 0.019613 -0.012586 0.000000 0.075372 0.000000
# 3 -0.001655 -0.012586 0.027256 0.000000 -0.020508 0.000000
# 4 0.000000 0.000000 0.000000 0.052509 0.000000 -0.017646
# 5 -0.007318 0.075372 -0.020508 0.000000 0.169525 0.000000
# 6 0.000000 0.000000 0.000000 -0.017646 0.000000 0.188276
#
#
# Mechanical properties :
#
#
# Convention : Reuss Voigt Hill
#
# Bulk Modulus (GPa) = 22.81181 7.75259 15.28220
# Shear Modulus (GPa) = 9.74946 4.29540 7.02243
#
# Velocity S-wave (km/s) = 2.17633 1.44457 1.84705
# Velocity P-wave (km/s) = 4.17104 2.55904 3.46022
#
# Compressibility (1/GPa) = 0.04383695
#
# Stress axis : x y z
#
# Youngs Moduli (GPa) = 52.59565 50.98540 36.68958
#
# Poissons Ratio (x) = -0.16408 0.06072
# Poissons Ratio (y) = -0.16927 0.46177
# Poissons Ratio (z) = 0.08704 0.64170
#
# Static dielectric constant tensor:
#      x y z
#    x 1.785920 0.000000 0.056640 
#    y 0.000000 1.708360 0.000000 
#    z 0.056640 0.000000 1.765350 
# 
# From -- ./inp_files/375666.got.cif
#   From: 2010.05.17/outbox.ucp.g08.bks.cvg/sg12_188_cif.got.tgz:375666.got - 2010.06.11 11:47:21.
