data_PCOD9223628
_publ_section_title
;
Structure prediction by ZEFSAII (Michael W. Deem and Ramdas Pophale) SiO2 
 PCOD9223628
Probable space group: C 2/M
;
_chemical_formula_sum "Si O2"
_cell_formula_units_Z 32
_cell_length_a 24.000000
_cell_length_b 9.000000
_cell_length_c 30.000000
_cell_angle_alpha 90.000000
_cell_angle_beta 150.000000
_cell_angle_gamma 90.000000
_cell_volume 3240.000000
_symmetry_space_group_name_H-M "C 2/M"
_symmetry_group_IT_number 12
_symmetry_cell_setting 'monoclinic'
loop_
_space_group_symop_operation_xyz
x,y,z
-x,y,-z
-x,-y,-z
x,-y,z
1/2+x,1/2+y,z
1/2-x,1/2+y,-z
1/2-x,1/2-y,-z
1/2+x,1/2-y,z
loop_
_atom_site_type_symbol
_atom_site_label
_atom_site_fract_x
_atom_site_fract_y
_atom_site_fract_z
Si Si1 0.362199 0.680128 0.021490
Si Si2 0.953792 0.321685 0.341140
Si Si3 0.725404 0.819780 0.713300
Si Si4 0.445765 0.320182 0.916001
Si Si5 0.692403 0.676428 0.502861
Si Si6 0.224482 0.827257 0.349674
Si Si7 0.034792 0.828327 0.818113
Si Si8 0.144941 0.677495 0.819642
O O1 0.354374 0.500000 0.019662
O O2 0.467314 0.710287 0.063066
O O3 0.386651 0.734957 0.088247
O O4 0.254379 0.736395 0.920586
O O5 0.976358 0.500000 0.354387
O O6 0.890014 0.289333 0.342472
O O7 0.872204 0.283638 0.243421
O O8 0.065054 0.229468 0.413801
O O9 0.826417 0.766560 0.815181
O O10 0.729664 0.767296 0.665434
O O11 0.738489 0.000000 0.719873
O O12 0.435609 0.500000 0.914192
O O13 0.500000 0.265505 0.000000
O O14 0.702913 0.500000 0.507575
O O15 0.750000 0.750000 0.500000
O O16 0.742920 0.737051 0.584086
O O17 0.091058 0.827383 0.251984
O O18 0.260010 0.000000 0.380576
O O19 0.044209 0.736440 0.779593
O O20 0.064865 0.000000 0.829884
O O21 0.150147 0.500000 0.825065
#
# Coordination Sequence:
#
# PCOD9223628 Si02
#       8
#     8   8   8   8   8   8   8   8
#     4   9  16  28  45  74 112 146 184 231 279 327
#     4  10  21  38  59  86 118 150 188 235 284 338
#     4   9  17  32  55  84 117 154 194 233 280 336
#     4   9  14  23  45  77 113 151 192 236 276 319
#     4  12  26  44  65  88 113 145 187 236 293 351
#     4  10  20  37  61  87 116 152 193 238 287 341
#     4  10  19  32  52  77 110 149 188 230 279 336
#     4  10  20  32  50  78 113 149 187 234 284 331
#
# _framework density 9.8765429999999999
#
# number of rings (size 3 to 8) (size 9 to 14) (size 15 to 20)
#    0.000    2.125    1.250    3.000    0.000    6.500 
#    0.000    3.125    0.000    0.000    0.000    0.000 
#    0.000    4.000    0.000    0.000    0.000    0.000 
#
# Total GULP energy -178497.591841 kJ/mol
# GULP energy per Si atom -5578.049745 kJ/mol
# Density = 0.985406 g / cm^3
# Si number density = 9.876543 Si / 1000 Ang^3
#
#
#
# Elastic Constant Matrix: (Units=GPa)
#
#
# Indices 1 2 3 4 5 6 
#
# 1 126.1514 34.9025 60.0222 0.0000 -23.2052 0.0000
# 2 34.9025 30.3082 43.8293 0.0000 -5.9642 0.0000
# 3 60.0222 43.8293 83.2301 0.0002 -15.8311 0.0000
# 4 0.0000 0.0000 0.0002 11.3064 0.0001 -1.8139
# 5 -23.2052 -5.9642 -15.8311 0.0001 26.2659 0.0000
# 6 0.0000 0.0000 0.0000 -1.8139 0.0000 16.6182
#
#
#
# Elastic Compliance Matrix: (Units=1/GPa)
#
#
# Indices 1 2 3 4 5 6 
#
# 1 0.013515 -0.008701 -0.003692 0.000000 0.007739 0.000000
# 2 -0.008701 0.148756 -0.075787 0.000001 -0.019587 0.000000
# 3 -0.003692 -0.075787 0.057258 -0.000001 0.014040 0.000000
# 4 0.000000 0.000001 -0.000001 0.090022 -0.000001 0.009826
# 5 0.007739 -0.019587 0.014040 -0.000001 0.048923 0.000000
# 6 0.000000 0.000000 0.000000 0.009826 0.000000 0.061248
#
#
# Mechanical properties :
#
#
# Convention : Reuss Voigt Hill
#
# Bulk Modulus (GPa) = 23.16487 57.46642 40.31565
# Shear Modulus (GPa) = 8.19041 17.56715 12.87878
#
# Velocity S-wave (km/s) = 2.03848 2.98541 2.55618
# Velocity P-wave (km/s) = 4.15851 6.40618 5.40057
#
# Compressibility (1/GPa) = 0.04316882
#
# Stress axis : x y z
#
# Youngs Moduli (GPa) = 73.99460 6.72241 17.46489
#
# Poissons Ratio (x) = 0.05849 0.06449
# Poissons Ratio (y) = 0.64381 1.32361
# Poissons Ratio (z) = 0.27321 0.50947
#
# Static dielectric constant tensor:
#      x y z
#    x 1.713580 0.000000 0.004130 
#    y 0.000000 1.671870 0.000000 
#    z 0.004130 0.000000 1.734800 
# 
# From -- ./inp_files/382432.got.cif
#   From: 2010.05.17/outbox.ucp.g08.bks.cvg/sg12_192_cif.got.tgz:382432.got - 2010.06.11 11:47:21.
