data_PCOD9223324
_publ_section_title
;
Structure prediction by ZEFSAII (Michael W. Deem and Ramdas Pophale) SiO2 
 PCOD9223324
Probable space group: C 2/M
;
_chemical_formula_sum "Si O2"
_cell_formula_units_Z 32
_cell_length_a 30.000000
_cell_length_b 9.000000
_cell_length_c 24.000000
_cell_angle_alpha 90.000000
_cell_angle_beta 30.000000
_cell_angle_gamma 90.000000
_cell_volume 3240.000000
_symmetry_space_group_name_H-M "C 2/M"
_symmetry_group_IT_number 12
_symmetry_cell_setting 'monoclinic'
loop_
_space_group_symop_operation_xyz
x,y,z
-x,y,-z
-x,-y,-z
x,-y,z
1/2+x,1/2+y,z
1/2-x,1/2+y,-z
1/2-x,1/2-y,-z
1/2+x,1/2-y,z
loop_
_atom_site_type_symbol
_atom_site_label
_atom_site_fract_x
_atom_site_fract_y
_atom_site_fract_z
Si Si1 0.344182 0.678583 0.794852
Si Si2 0.662945 0.677639 0.018529
Si Si3 0.652865 0.677752 0.607819
Si Si4 0.897784 0.322962 0.224522
Si Si5 0.517567 0.680025 0.267732
Si Si6 0.897668 0.818952 0.613408
Si Si7 0.272041 0.180322 0.265010
Si Si8 0.596182 0.176883 0.978021
O O1 0.333546 0.500000 0.809918
O O2 0.261041 0.751657 0.916195
O O3 0.437294 0.720222 0.723012
O O4 0.351710 0.719407 0.722054
O O5 0.669750 0.500000 0.014545
O O6 0.589647 0.728116 0.143074
O O7 0.627882 0.731190 0.996760
O O8 0.662182 0.500000 0.595550
O O9 0.750000 0.750000 0.500000
O O10 0.604558 0.728702 0.716948
O O11 0.582744 0.728811 0.636277
O O12 0.891153 0.500000 0.244587
O O13 0.813672 0.275394 0.278532
O O14 0.989408 0.304215 0.090633
O O15 0.515011 0.500000 0.267836
O O16 0.827241 0.768611 0.642905
O O17 0.000000 0.766812 0.500000
O O18 0.901334 0.000000 0.607106
O O19 0.270169 0.000000 0.267468
O O20 0.344163 0.220639 0.139349
O O21 0.612240 0.000000 0.970276
#
# Coordination Sequence:
#
# PCOD9223324 Si02
#       8
#     8   8   8   8   8   8   8   8
#     4  10  19  35  57  81 107 141 183 225 275 329
#     4  11  20  33  53  81 114 145 176 220 279 334
#     4  11  23  41  59  80 112 148 190 234 276 325
#     4  10  20  34  57  84 110 142 182 228 282 329
#     4   9  20  36  56  80 109 142 179 228 277 326
#     4   9  17  29  50  79 105 133 175 225 267 313
#     4   9  17  31  52  82 113 139 177 230 274 317
#     4  10  18  32  55  82 109 143 183 225 274 330
#
# _framework density 9.8765429999999999
#
# number of rings (size 3 to 8) (size 9 to 14) (size 15 to 20)
#    0.000    2.125    2.500    1.500    0.000    2.500 
#    0.000    6.250    0.000    1.875    0.000    0.000 
#    0.000    0.000    0.000    0.000    0.000    0.000 
#
# Total GULP energy -178490.937459 kJ/mol
# GULP energy per Si atom -5577.841796 kJ/mol
# Density = 0.985406 g / cm^3
# Si number density = 9.876543 Si / 1000 Ang^3
#
#
#
# Elastic Constant Matrix: (Units=GPa)
#
#
# Indices 1 2 3 4 5 6 
#
# 1 94.0531 9.1945 6.5050 0.0004 -37.9265 -0.0020
# 2 9.1945 21.3266 12.0714 -0.0022 -8.6579 0.0008
# 3 6.5050 12.0714 61.5797 -0.0011 -36.7687 -0.0019
# 4 0.0004 -0.0022 -0.0011 20.2434 0.0004 -1.8134
# 5 -37.9265 -8.6579 -36.7687 0.0004 36.2559 0.0004
# 6 -0.0020 0.0008 -0.0019 -1.8134 0.0004 17.3897
#
#
#
# Elastic Compliance Matrix: (Units=1/GPa)
#
#
# Indices 1 2 3 4 5 6 
#
# 1 0.088709 -0.021066 0.119564 0.000001 0.209022 0.000020
# 2 -0.021066 0.058156 -0.035594 0.000005 -0.044246 -0.000008
# 3 0.119564 -0.035594 0.203294 0.000002 0.322744 0.000031
# 4 0.000001 0.000005 0.000002 0.049865 0.000004 0.005200
# 5 0.209022 -0.044246 0.322744 0.000004 0.562978 0.000050
# 6 0.000020 -0.000008 0.000031 0.005200 0.000050 0.058048
#
#
# Mechanical properties :
#
#
# Convention : Reuss Voigt Hill
#
# Bulk Modulus (GPa) = 2.10098 25.83346 13.96722
# Shear Modulus (GPa) = 4.74429 24.72369 14.73399
#
# Velocity S-wave (km/s) = 1.55145 3.54169 2.73410
# Velocity P-wave (km/s) = 2.06767 5.46180 4.12956
#
# Compressibility (1/GPa) = 0.47596863
#
# Stress axis : x y z
#
# Youngs Moduli (GPa) = 11.27276 17.19501 4.91898
#
# Poissons Ratio (x) = 0.36222 -0.58813
# Poissons Ratio (y) = 0.23747 0.17509
# Poissons Ratio (z) = -1.34782 0.61204
#
# Static dielectric constant tensor:
#      x y z
#    x 1.745580 0.000000 -0.023900 
#    y 0.000000 1.657620 0.000000 
#    z -0.023900 0.000000 1.688500 
# 
# From -- ./inp_files/353392.got.cif
#   From: 2010.05.17/outbox.ucp.g08.bks.cvg/sg12_177_cif.got.tgz:353392.got - 2010.06.11 11:47:21.
