data_PCOD9223937
_publ_section_title
;
Structure prediction by ZEFSAII (Michael W. Deem and Ramdas Pophale) SiO2 
 PCOD9223937
Probable space group: C 2/M
;
_chemical_formula_sum "Si O2"
_cell_formula_units_Z 28
_cell_length_a 24.000000
_cell_length_b 15.000000
_cell_length_c 9.000000
_cell_angle_alpha 90.000000
_cell_angle_beta 120.000000
_cell_angle_gamma 90.000000
_cell_volume 2805.922308
_symmetry_space_group_name_H-M "C 2/M"
_symmetry_group_IT_number 12
_symmetry_cell_setting 'monoclinic'
loop_
_space_group_symop_operation_xyz
x,y,z
-x,y,-z
-x,-y,-z
x,-y,z
1/2+x,1/2+y,z
1/2-x,1/2+y,-z
1/2-x,1/2-y,-z
1/2+x,1/2-y,z
loop_
_atom_site_type_symbol
_atom_site_label
_atom_site_fract_x
_atom_site_fract_y
_atom_site_fract_z
Si Si1 0.101714 0.895359 0.457347
Si Si2 0.200385 0.743767 0.120604
Si Si3 0.454881 0.232980 0.798634
Si Si4 0.789108 0.900900 0.640822
Si Si5 0.335702 0.896073 0.714926
Si Si6 0.056831 0.399136 0.462541
Si Si7 0.147404 0.252394 0.737791
O O1 0.057537 0.827553 0.300073
O O2 0.166924 0.899070 0.447288
O O3 0.117512 0.837559 0.625850
O O4 0.081242 0.000000 0.450868
O O5 0.188064 0.822511 0.222205
O O6 0.196419 0.644438 0.181261
O O7 0.275959 0.758252 0.187956
O O8 0.149149 0.749845 0.918734
O O9 0.390937 0.176755 0.758997
O O10 0.478022 0.160060 0.710417
O O11 0.500000 0.244297 0.000000
O O12 0.716367 0.888580 0.486626
O O13 0.795000 0.000000 0.716240
O O14 0.353805 0.000000 0.756871
O O15 0.079682 0.500000 0.449244
O O16 0.111205 0.335764 0.610699
O O17 0.000000 0.411707 0.500000
#
# Coordination Sequence:
#
# PCOD9223937 Si02
#       7
#     8   8   8   8   8   8   8
#     4  10  20  39  63  86 116 155 194 242 302 357
#     4  11  21  36  57  89 122 158 195 247 301 352
#     4  11  24  40  62  90 118 157 203 251 294 353
#     4  10  19  34  60  87 115 151 192 238 298 356
#     4  11  22  36  60  91 125 157 195 246 303 360
#     4  10  23  42  61  85 122 165 203 243 296 355
#     4  10  23  37  58  86 122 159 201 243 298 361
#
# _framework density 9.9788940000000004
#
# number of rings (size 3 to 8) (size 9 to 14) (size 15 to 20)
#    0.000    1.571    2.857    2.571    2.000    4.286 
#    0.000    2.857    0.000    6.857    0.000    0.000 
#    0.000    0.000    0.000    0.000    0.000    0.000 
#
# Total GULP energy -155966.265548 kJ/mol
# GULP energy per Si atom -5570.223770 kJ/mol
# Density = 0.995618 g / cm^3
# Si number density = 9.978894 Si / 1000 Ang^3
#
#
#
# Elastic Constant Matrix: (Units=GPa)
#
#
# Indices 1 2 3 4 5 6 
#
# 1 30.8203 19.1838 5.1513 0.0000 -7.9130 0.0000
# 2 19.1838 203.5380 87.2158 0.0000 -5.6437 0.0000
# 3 5.1513 87.2158 147.3372 0.0000 -9.8475 0.0000
# 4 0.0000 0.0000 0.0000 16.2540 0.0000 -1.7876
# 5 -7.9130 -5.6437 -9.8475 0.0000 3.4222 0.0000
# 6 0.0000 0.0000 0.0000 -1.7876 0.0000 20.4656
#
#
#
# Elastic Compliance Matrix: (Units=1/GPa)
#
#
# Indices 1 2 3 4 5 6 
#
# 1 0.123586 -0.013540 0.026373 0.000000 0.339319 0.000000
# 2 -0.013540 0.008067 -0.006816 0.000000 -0.037619 0.000000
# 3 0.026373 -0.006816 0.016373 0.000000 0.096855 0.000000
# 4 0.000000 0.000000 0.000000 0.062120 0.000000 0.005426
# 5 0.339319 -0.037619 0.096855 0.000000 1.293458 0.000000
# 6 0.000000 0.000000 0.000000 0.005426 0.000000 0.049336
#
#
# Mechanical properties :
#
#
# Convention : Reuss Voigt Hill
#
# Bulk Modulus (GPa) = 6.24769 67.19968 36.72368
# Shear Modulus (GPa) = 3.13625 26.03800 14.58712
#
# Velocity S-wave (km/s) = 1.25493 3.61592 2.70645
# Velocity P-wave (km/s) = 2.28846 7.15382 5.31104
#
# Compressibility (1/GPa) = 0.16005926
#
# Stress axis : x y z
#
# Youngs Moduli (GPa) = 8.09155 123.96386 61.07544
#
# Poissons Ratio (x) = 1.67852 -1.61075
# Poissons Ratio (y) = 0.10956 0.41629
# Poissons Ratio (z) = -0.21340 0.84494
#
# Static dielectric constant tensor:
#      x y z
#    x 1.909540 0.000000 -0.107980 
#    y 0.000000 1.726720 0.000000 
#    z -0.107980 0.000000 1.718170 
# 
# From -- ./inp_files/96952.got.cif
#   From: 2010.05.17/outbox.ucp.g08.bks.cvg/sg12_49_cif.got.tgz:96952.got - 2010.06.11 11:47:21.
