data_PCOD9223265
_publ_section_title
;
Structure prediction by ZEFSAII (Michael W. Deem and Ramdas Pophale) SiO2 
 PCOD9223265
Probable space group: C 2/M
;
_chemical_formula_sum "Si O2"
_cell_formula_units_Z 28
_cell_length_a 21.000000
_cell_length_b 9.000000
_cell_length_c 30.000000
_cell_angle_alpha 90.000000
_cell_angle_beta 150.000000
_cell_angle_gamma 90.000000
_cell_volume 2835.000000
_symmetry_space_group_name_H-M "C 2/M"
_symmetry_group_IT_number 12
_symmetry_cell_setting 'monoclinic'
loop_
_space_group_symop_operation_xyz
x,y,z
-x,y,-z
-x,-y,-z
x,-y,z
1/2+x,1/2+y,z
1/2-x,1/2+y,-z
1/2-x,1/2-y,-z
1/2+x,1/2-y,z
loop_
_atom_site_type_symbol
_atom_site_label
_atom_site_fract_x
_atom_site_fract_y
_atom_site_fract_z
Si Si1 0.464805 0.180860 0.728336
Si Si2 0.005844 0.323422 0.909733
Si Si3 0.194574 0.175859 0.152332
Si Si4 0.753008 0.324126 0.082962
Si Si5 0.800932 0.678644 0.708023
Si Si6 0.888818 0.321095 0.582710
Si Si7 0.396719 0.678970 0.341132
O O1 0.600561 0.226573 0.831087
O O2 0.348281 0.233988 0.688726
O O3 0.452396 0.220397 0.669000
O O4 0.465177 0.000000 0.729609
O O5 0.003254 0.500000 0.916228
O O6 0.938984 0.236161 0.909956
O O7 0.916521 0.293248 0.812817
O O8 0.149231 0.265849 0.992199
O O9 0.216257 0.193878 0.112990
O O10 0.298744 0.268062 0.243330
O O11 0.207385 0.000000 0.169993
O O12 0.745917 0.500000 0.068098
O O13 0.788682 0.500000 0.697100
O O14 0.671469 0.728556 0.654014
O O15 0.884477 0.500000 0.577200
O O16 0.750000 0.250000 0.500000
O O17 0.971215 0.253939 0.592370
O O18 0.407661 0.500000 0.347701
#
# Coordination Sequence:
#
# PCOD9223265 Si02
#       7
#     8   8   8   8   8   8   8
#     4   9  18  36  58  79 106 144 186 224 268 325
#     4  10  20  31  46  75 109 146 186 230 277 315
#     4  10  18  31  50  75 106 145 190 230 269 319
#     4  10  19  31  49  74 104 143 189 231 270 318
#     4   8  17  34  55  78 109 147 187 224 262 319
#     4  11  22  39  63  89 112 140 176 222 273 325
#     4  10  19  34  58  86 113 143 177 222 275 325
#
# _framework density 9.8765429999999999
#
# number of rings (size 3 to 8) (size 9 to 14) (size 15 to 20)
#    0.000    2.286    1.429    3.000    0.000    3.429 
#    0.000    0.714    0.000   18.857    0.000    0.000 
#    0.000    0.000    0.000    0.000    0.000    0.000 
#
# Total GULP energy -156239.200803 kJ/mol
# GULP energy per Si atom -5579.971457 kJ/mol
# Density = 0.985406 g / cm^3
# Si number density = 9.876543 Si / 1000 Ang^3
#
#
#
# Elastic Constant Matrix: (Units=GPa)
#
#
# Indices 1 2 3 4 5 6 
#
# 1 118.0971 20.2232 15.9511 0.0000 30.1003 0.0000
# 2 20.2232 46.7491 6.5068 0.0000 6.8200 0.0002
# 3 15.9511 6.5068 38.4296 0.0001 34.6582 0.0000
# 4 0.0000 0.0000 0.0001 27.0324 0.0001 9.1013
# 5 30.1003 6.8200 34.6582 0.0001 28.6227 0.0000
# 6 0.0000 0.0002 0.0000 9.1013 0.0000 20.8891
#
#
#
# Elastic Compliance Matrix: (Units=1/GPa)
#
#
# Indices 1 2 3 4 5 6 
#
# 1 0.005167 -0.002607 -0.028656 0.000000 0.029885 0.000000
# 2 -0.002607 0.023058 0.003689 0.000000 -0.007220 0.000000
# 3 -0.028656 0.003689 -0.118507 0.000000 0.172752 0.000000
# 4 0.000000 0.000000 0.000000 0.043352 0.000000 -0.018888
# 5 0.029885 -0.007220 0.172752 0.000000 -0.203949 0.000000
# 6 0.000000 0.000000 0.000000 -0.018888 0.000000 0.056101
#
#
# Mechanical properties :
#
#
# Convention : Reuss Voigt Hill
#
# Bulk Modulus (GPa) = -6.87623 32.07088 12.59732
# Shear Modulus (GPa) = -26.58074 26.01515 -0.28279
#
# Velocity S-wave (km/s) = -3.67229 3.63301 -0.37878
# Velocity P-wave (km/s) = 4.63353 5.81975 2.48997
#
# Compressibility (1/GPa) = -0.14542858
#
# Stress axis : x y z
#
# Youngs Moduli (GPa) = 193.52299 43.36860 -8.43833
#
# Poissons Ratio (x) = 0.11305 -0.24181
# Poissons Ratio (y) = 0.50445 0.03113
# Poissons Ratio (z) = 5.54557 -0.15998
#
# Static dielectric constant tensor:
#      x y z
#    x 1.734210 0.000000 0.025980 
#    y 0.000000 1.653920 0.000000 
#    z 0.025980 0.000000 1.714580 
# 
# From -- ./inp_files/380804.got.cif
#   From: 2010.05.17/outbox.ucp.g08.bks.cvg/sg12_191_cif.got.tgz:380804.got - 2010.06.11 11:47:21.
