data_PCOD9223211
_publ_section_title
;
Structure prediction by ZEFSAII (Michael W. Deem and Ramdas Pophale) SiO2 
 PCOD9223211
Probable space group: C 2/M
;
_chemical_formula_sum "Si O2"
_cell_formula_units_Z 24
_cell_length_a 21.000000
_cell_length_b 9.000000
_cell_length_c 30.000000
_cell_angle_alpha 90.000000
_cell_angle_beta 150.000000
_cell_angle_gamma 90.000000
_cell_volume 2835.000000
_symmetry_space_group_name_H-M "C 2/M"
_symmetry_group_IT_number 12
_symmetry_cell_setting 'monoclinic'
loop_
_space_group_symop_operation_xyz
x,y,z
-x,y,-z
-x,-y,-z
x,-y,z
1/2+x,1/2+y,z
1/2-x,1/2+y,-z
1/2-x,1/2-y,-z
1/2+x,1/2-y,z
loop_
_atom_site_type_symbol
_atom_site_label
_atom_site_fract_x
_atom_site_fract_y
_atom_site_fract_z
Si Si1 0.044854 0.821402 0.739344
Si Si2 0.261997 0.171711 0.935917
Si Si3 0.115511 0.678663 0.434896
Si Si4 0.113154 0.672009 0.278295
Si Si5 0.947402 0.170596 0.110792
Si Si6 0.094717 0.825651 0.518315
O O1 0.183908 0.781923 0.844336
O O2 0.994812 0.740438 0.664812
O O3 0.948438 0.770562 0.719940
O O4 0.040177 0.000000 0.731246
O O5 0.158177 0.175927 0.913329
O O6 0.300860 0.000000 0.954369
O O7 0.378926 0.267605 0.025154
O O8 0.123780 0.500000 0.437009
O O9 0.250000 0.750000 0.500000
O O10 0.090675 0.732768 0.470284
O O11 0.073023 0.500000 0.259813
O O12 0.263490 0.680941 0.375681
O O13 0.061292 0.731307 0.199743
O O14 0.985700 0.000000 0.128494
O O15 0.000000 0.776208 0.500000
O O16 0.067462 0.000000 0.491314
#
# Coordination Sequence:
#
# PCOD9223211 Si02
#       6
#     8   8   8   8   8   8
#     4  10  19  31  49  73 102 133 168 212 257 306
#     4   8  15  26  40  63  95 129 163 202 250 302
#     4  12  23  35  54  78 105 138 176 216 260 312
#     4  10  18  29  48  71  98 134 171 210 256 308
#     4   9  16  25  40  63  95 131 165 205 250 301
#     4  10  22  39  56  76 104 138 177 220 263 308
#
# _framework density 8.4656079999999996
#
# number of rings (size 3 to 8) (size 9 to 14) (size 15 to 20)
#    0.000    2.167    1.667    4.000    0.000    5.667 
#    0.000    0.000    0.000    0.000    0.000    1.167 
#    0.000    9.333    0.000    0.000    0.000    0.000 
#
# Total GULP energy -133783.872727 kJ/mol
# GULP energy per Si atom -5574.328030 kJ/mol
# Density = 0.844634 g / cm^3
# Si number density = 8.465608 Si / 1000 Ang^3
#
#
#
# Elastic Constant Matrix: (Units=GPa)
#
#
# Indices 1 2 3 4 5 6 
#
# 1 65.5022 35.9568 39.8448 0.0000 -15.6177 0.0001
# 2 35.9568 102.3930 60.9291 0.0000 -21.4743 0.0003
# 3 39.8448 60.9291 121.4287 0.0000 -39.0916 0.0000
# 4 0.0000 0.0000 0.0000 31.5264 0.0000 -9.5071
# 5 -15.6177 -21.4743 -39.0916 0.0000 18.8132 0.0000
# 6 0.0001 0.0003 0.0000 -9.5071 0.0000 18.0226
#
#
#
# Elastic Compliance Matrix: (Units=1/GPa)
#
#
# Indices 1 2 3 4 5 6 
#
# 1 0.020849 -0.004426 -0.002038 0.000000 0.008019 0.000000
# 2 -0.004426 0.014972 -0.005259 0.000000 0.002486 0.000000
# 3 -0.002038 -0.005259 0.027383 0.000000 0.049204 0.000000
# 4 0.000000 0.000000 0.000000 0.037720 0.000000 0.019898
# 5 0.008019 0.002486 0.049204 0.000000 0.164889 0.000000
# 6 0.000000 0.000000 0.000000 0.019898 0.000000 0.065982
#
#
# Mechanical properties :
#
#
# Convention : Reuss Voigt Hill
#
# Bulk Modulus (GPa) = 25.15413 62.53172 43.84292
# Shear Modulus (GPa) = 13.56871 23.84531 18.70701
#
# Velocity S-wave (km/s) = 2.83398 3.75689 3.32758
# Velocity P-wave (km/s) = 5.05939 7.47208 6.38081
#
# Compressibility (1/GPa) = 0.03975491
#
# Stress axis : x y z
#
# Youngs Moduli (GPa) = 47.96507 66.79212 36.51846
#
# Poissons Ratio (x) = 0.29565 0.07444
# Poissons Ratio (y) = 0.21232 0.19207
# Poissons Ratio (z) = 0.09777 0.35129
#
# Static dielectric constant tensor:
#      x y z
#    x 1.545740 0.000000 -0.007190 
#    y 0.000000 1.579860 0.000000 
#    z -0.007190 0.000000 1.600780 
# 
# From -- ./inp_files/345691.got.cif
#   From: 2010.05.17/outbox.ucp.g08.bks.cvg/sg12_173_cif.got.tgz:345691.got - 2010.06.11 11:47:21.
