data_PCOD9223272
_publ_section_title
;
Structure prediction by ZEFSAII (Michael W. Deem and Ramdas Pophale) SiO2 
 PCOD9223272
Probable space group: C 2/M
;
_chemical_formula_sum "Si O2"
_cell_formula_units_Z 28
_cell_length_a 30.000000
_cell_length_b 15.000000
_cell_length_c 9.000000
_cell_angle_alpha 90.000000
_cell_angle_beta 50.000000
_cell_angle_gamma 90.000000
_cell_volume 3102.479995
_symmetry_space_group_name_H-M "C 2/M"
_symmetry_group_IT_number 12
_symmetry_cell_setting 'monoclinic'
loop_
_space_group_symop_operation_xyz
x,y,z
-x,y,-z
-x,-y,-z
x,-y,z
1/2+x,1/2+y,z
1/2-x,1/2+y,-z
1/2-x,1/2-y,-z
1/2+x,1/2-y,z
loop_
_atom_site_type_symbol
_atom_site_label
_atom_site_fract_x
_atom_site_fract_y
_atom_site_fract_z
Si Si1 0.967924 0.718502 0.316327
Si Si2 0.158279 0.102574 0.042790
Si Si3 0.716377 0.103759 0.312082
Si Si4 0.146321 0.718701 0.235263
Si Si5 0.977732 0.897676 0.719715
Si Si6 0.419929 0.103593 0.856816
Si Si7 0.104908 0.601733 0.743406
O O1 0.912823 0.724468 0.543038
O O2 0.940769 0.670100 0.230871
O O3 0.993611 0.818063 0.248066
O O4 0.018719 0.656223 0.275190
O O5 0.214147 0.113950 0.814438
O O6 0.161530 0.000000 0.093415
O O7 0.163800 0.182212 0.148846
O O8 0.092450 0.111963 0.122813
O O9 0.694683 0.168822 0.228692
O O10 0.670487 0.119384 0.543897
O O11 0.707655 0.000000 0.286570
O O12 0.127100 0.657072 0.138767
O O13 0.000000 0.886258 0.500000
O O14 0.992518 0.000000 0.730164
O O15 0.426073 0.000000 0.796133
O O16 0.399505 0.104974 0.071194
O O17 0.089417 0.500000 0.728525
#
# Coordination Sequence:
#
# PCOD9223272 Si02
#       7
#     8   8   8   8   8   8   8
#     4  11  19  32  52  77 107 136 171 211 255 304
#     4  10  19  33  54  77 104 138 173 211 259 308
#     4   9  19  35  54  78 105 136 172 213 255 303
#     4  11  20  32  52  81 107 132 169 218 259 299
#     4  10  18  31  51  78 106 133 171 216 259 304
#     4  11  21  33  51  77 107 140 171 207 259 314
#     4   9  20  36  53  75 106 142 173 204 254 317
#
# _framework density 9.0250380000000003
#
# number of rings (size 3 to 8) (size 9 to 14) (size 15 to 20)
#    0.000    1.857    2.857    2.143    0.000    3.429 
#    0.000    0.714    0.000    2.571    0.000    0.000 
#    0.000    0.000    0.000    0.000    0.000    0.000 
#
# Total GULP energy -156123.161324 kJ/mol
# GULP energy per Si atom -5575.827190 kJ/mol
# Density = 0.900450 g / cm^3
# Si number density = 9.025038 Si / 1000 Ang^3
#
#
#
# Elastic Constant Matrix: (Units=GPa)
#
#
# Indices 1 2 3 4 5 6 
#
# 1 55.9394 31.1726 32.1506 0.0000 -20.9257 0.0000
# 2 31.1726 111.5247 34.2215 0.0000 -9.9380 0.0000
# 3 32.1506 34.2215 72.7119 0.0000 -26.9339 0.0000
# 4 0.0000 0.0000 0.0000 22.7953 0.0000 -9.8782
# 5 -20.9257 -9.9380 -26.9339 0.0000 25.1121 0.0000
# 6 0.0000 0.0000 0.0000 -9.8782 0.0000 17.3174
#
#
#
# Elastic Compliance Matrix: (Units=1/GPa)
#
#
# Indices 1 2 3 4 5 6 
#
# 1 0.030246 -0.005631 -0.003672 0.000000 0.019037 0.000000
# 2 -0.005631 0.011583 -0.004981 0.000000 -0.005450 0.000000
# 3 -0.003672 -0.004981 0.026310 0.000000 0.023188 0.000000
# 4 0.000000 0.000000 0.000000 0.058273 0.000000 0.033240
# 5 0.019037 -0.005450 0.023188 0.000000 0.078398 0.000000
# 6 0.000000 0.000000 0.000000 0.033240 0.000000 0.076707
#
#
# Mechanical properties :
#
#
# Convention : Reuss Voigt Hill
#
# Bulk Modulus (GPa) = 25.27026 48.36282 36.81654
# Shear Modulus (GPa) = 15.46673 22.55370 19.01021
#
# Velocity S-wave (km/s) = 2.93042 3.53867 3.24881
# Velocity P-wave (km/s) = 5.04780 6.59910 5.87488
#
# Compressibility (1/GPa) = 0.03957221
#
# Stress axis : x y z
#
# Youngs Moduli (GPa) = 33.06208 86.33178 38.00875
#
# Poissons Ratio (x) = 0.48614 0.13956
# Poissons Ratio (y) = 0.18618 0.18931
# Poissons Ratio (z) = 0.12140 0.42998
#
# Static dielectric constant tensor:
#      x y z
#    x 1.604900 0.000000 -0.006210 
#    y 0.000000 1.631360 0.000000 
#    z -0.006210 0.000000 1.638860 
# 
# From -- ./inp_files/86379.got.cif
#   From: 2010.05.17/outbox.ucp.g08.bks.cvg/sg12_44_cif.got.tgz:86379.got - 2010.06.11 11:47:21.
