data_PCOD9223482
_publ_section_title
;
Structure prediction by ZEFSAII (Michael W. Deem and Ramdas Pophale) SiO2 
 PCOD9223482
Probable space group: C 2/M
;
_chemical_formula_sum "Si O2"
_cell_formula_units_Z 28
_cell_length_a 18.000000
_cell_length_b 9.000000
_cell_length_c 27.000000
_cell_angle_alpha 90.000000
_cell_angle_beta 40.000000
_cell_angle_gamma 90.000000
_cell_volume 2811.553005
_symmetry_space_group_name_H-M "C 2/M"
_symmetry_group_IT_number 12
_symmetry_cell_setting 'monoclinic'
loop_
_space_group_symop_operation_xyz
x,y,z
-x,y,-z
-x,-y,-z
x,-y,z
1/2+x,1/2+y,z
1/2-x,1/2+y,-z
1/2-x,1/2-y,-z
1/2+x,1/2-y,z
loop_
_atom_site_type_symbol
_atom_site_label
_atom_site_fract_x
_atom_site_fract_y
_atom_site_fract_z
Si Si1 0.346961 0.322035 0.675526
Si Si2 0.280113 0.680492 0.354387
Si Si3 0.720873 0.674895 0.916880
Si Si4 0.061289 0.327251 0.523045
Si Si5 0.166585 0.325875 0.849688
Si Si6 0.041173 0.831814 0.208169
Si Si7 0.542848 0.329951 0.088732
O O1 0.345240 0.500000 0.671826
O O2 0.273016 0.251032 0.668276
O O3 0.477975 0.264047 0.601841
O O4 0.280642 0.281655 0.760012
O O5 0.275489 0.500000 0.351740
O O6 0.192907 0.720964 0.443852
O O7 0.414822 0.722114 0.289857
O O8 0.728026 0.500000 0.912803
O O9 0.645647 0.737489 0.910641
O O10 0.846251 0.737386 0.838978
O O11 0.659497 0.716261 0.000135
O O12 0.061260 0.500000 0.538029
O O13 0.000000 0.319245 0.500000
O O14 0.173717 0.500000 0.856476
O O15 0.057086 0.285414 0.872485
O O16 0.046217 0.837173 0.145938
O O17 0.055854 0.000000 0.220015
O O18 0.514493 0.500000 0.086411
#
# Coordination Sequence:
#
# PCOD9223482 Si02
#       7
#     8   8   8   8   8   8   8
#     4  10  19  30  48  77 107 136 173 218 263 307
#     4   9  17  31  52  77 105 139 175 210 257 316
#     4  11  24  38  54  79 109 141 180 223 268 319
#     4   8  15  27  46  74 105 136 170 209 257 313
#     4  11  23  37  55  79 108 143 182 222 266 316
#     4  10  20  36  58  80 108 143 176 216 266 318
#     4  10  21  38  59  81 105 138 179 223 270 318
#
# _framework density 9.9589090000000002
#
# number of rings (size 3 to 8) (size 9 to 14) (size 15 to 20)
#    0.000    2.143    1.429    3.000    0.000    8.286 
#    0.000    0.000    0.000    0.857    0.000    0.000 
#    0.000    0.000    0.000    0.000    0.000    0.000 
#
# Total GULP energy -156077.872739 kJ/mol
# GULP energy per Si atom -5574.209741 kJ/mol
# Density = 0.993624 g / cm^3
# Si number density = 9.958909 Si / 1000 Ang^3
#
#
#
# Elastic Constant Matrix: (Units=GPa)
#
#
# Indices 1 2 3 4 5 6 
#
# 1 20.3790 7.4878 13.5212 0.0000 -3.0243 0.0001
# 2 7.4878 -2.0743 40.2188 0.0000 -14.6235 0.0004
# 3 13.5212 40.2188 135.1022 0.0000 -26.6643 0.0000
# 4 0.0000 0.0000 0.0000 29.3043 0.0000 -5.2172
# 5 -3.0243 -14.6235 -26.6643 0.0000 9.2480 0.0000
# 6 0.0001 0.0004 0.0000 -5.2172 0.0000 21.8925
#
#
#
# Elastic Compliance Matrix: (Units=1/GPa)
#
#
# Indices 1 2 3 4 5 6 
#
# 1 0.051762 0.005872 -0.004073 0.000000 0.014471 0.000000
# 2 0.005872 -0.038918 -0.001784 0.000000 -0.064763 0.000001
# 3 -0.004073 -0.001784 0.017452 0.000000 0.046165 0.000000
# 4 0.000000 0.000000 0.000000 0.035637 0.000000 0.008493
# 5 0.014471 -0.064763 0.046165 0.000000 0.143563 0.000001
# 6 0.000000 0.000001 0.000000 0.008493 0.000001 0.047702
#
#
# Mechanical properties :
#
#
# Convention : Reuss Voigt Hill
#
# Bulk Modulus (GPa) = 32.97346 30.65141 31.81243
# Shear Modulus (GPa) = 18.70728 18.23422 18.47075
#
# Velocity S-wave (km/s) = 3.06800 3.02896 3.04854
# Velocity P-wave (km/s) = 5.39823 5.25882 5.32898
#
# Compressibility (1/GPa) = 0.03032742
#
# Stress axis : x y z
#
# Youngs Moduli (GPa) = 19.31923 -25.69525 57.30056
#
# Poissons Ratio (x) = 0.15089 0.23336
# Poissons Ratio (y) = -0.11345 0.10223
# Poissons Ratio (z) = 0.07868 -0.04584
#
# Static dielectric constant tensor:
#      x y z
#    x 1.740320 0.000000 -0.011240 
#    y 0.000000 1.679280 0.000000 
#    z -0.011240 0.000000 1.711630 
# 
# From -- ./inp_files/280365.got.cif
#   From: 2010.05.17/outbox.ucp.g08.bks.cvg/sg12_141_cif.got.tgz:280365.got - 2010.06.11 11:47:21.
