data_PCOD9223155
_publ_section_title
;
Structure prediction by ZEFSAII (Michael W. Deem and Ramdas Pophale) SiO2 
 PCOD9223155
Probable space group: C 2/M
;
_chemical_formula_sum "Si O2"
_cell_formula_units_Z 24
_cell_length_a 12.190996
_cell_length_b 13.634914
_cell_length_c 12.260859
_cell_angle_alpha 90.000000
_cell_angle_beta 32.500234
_cell_angle_gamma 90.000000
_cell_volume 1095.044575
_symmetry_space_group_name_H-M "C 2/M"
_symmetry_group_IT_number 12
_symmetry_cell_setting 'monoclinic'
loop_
_space_group_symop_operation_xyz
x,y,z
-x,y,-z
-x,-y,-z
x,-y,z
1/2+x,1/2+y,z
1/2-x,1/2+y,-z
1/2-x,1/2-y,-z
1/2+x,1/2-y,z
loop_
_atom_site_type_symbol
_atom_site_label
_atom_site_fract_x
_atom_site_fract_y
_atom_site_fract_z
Si Si1 0.271526 0.500000 0.299122
Si Si2 0.500000 0.667529 0.000000
Si Si3 0.008763 0.000000 0.314560
Si Si4 0.141676 0.644192 0.980888
Si Si5 0.050331 0.500000 0.699093
O O1 0.318421 0.598275 0.193982
O O2 0.462817 0.500000 0.224196
O O3 0.081900 0.500000 0.542058
O O4 0.596127 0.740274 0.010720
O O5 0.781864 0.000000 0.552566
O O6 0.137816 0.902075 0.229148
O O7 0.062911 0.593887 0.157081
O O8 0.000000 0.607587 0.000000
#
# Coordination Sequence:
#
# PCOD9223155 Si02
#       5
#     4   4   4   8   4
#     4   9  20  36  57  72 110 144 169 214 266 311
#     4   9  20  37  52  78 110 141 166 219 274 294
#     4   9  18  33  58  80 101 138 178 213 255 313
#     4   9  19  34  57  76 111 133 173 219 262 298
#     4   9  18  33  58  80 101 138 178 213 255 313
#
# _framework density 21.916914999999999
#
# number of rings (size 3 to 8) (size 9 to 14) (size 15 to 20)
#    2.000    1.000    0.000    2.000    0.000    5.333 
#    0.000    0.000   14.667    8.000    0.000    0.000 
#    0.000    0.000    0.000    0.000    0.000    0.000 
#
# Total GULP energy -66810.397752 kJ/mol
# GULP energy per Si atom -5567.533146 kJ/mol
# Density = 2.186703 g / cm^3
# Si number density = 21.916915 Si / 1000 Ang^3
#
#
#
# Elastic Constant Matrix: (Units=GPa)
#
#
# Indices 1 2 3 4 5 6 
#
# 1 42.3119 22.9713 18.0137 -0.0020 8.0331 0.0017
# 2 22.9713 178.9724 58.1315 -0.0020 18.4274 0.0023
# 3 18.0137 58.1315 98.0680 -0.0044 11.0316 0.0062
# 4 -0.0020 -0.0020 -0.0044 5.4797 0.0020 -0.3085
# 5 8.0331 18.4274 11.0316 0.0020 49.3791 -0.0015
# 6 0.0017 0.0023 0.0062 -0.3085 -0.0015 35.6542
#
#
#
# Elastic Compliance Matrix: (Units=1/GPa)
#
#
# Indices 1 2 3 4 5 6 
#
# 1 0.026718 -0.002040 -0.003380 0.000007 -0.002830 -0.000001
# 2 -0.002040 0.007219 -0.003733 0.000000 -0.001528 0.000000
# 3 -0.003380 -0.003733 0.013142 0.000008 -0.000993 -0.000002
# 4 0.000007 0.000000 0.000008 0.182582 -0.000010 0.001580
# 5 -0.002830 -0.001528 -0.000993 -0.000010 0.021504 0.000001
# 6 -0.000001 0.000000 -0.000002 0.001580 0.000001 0.028061
#
#
# Mechanical properties :
#
#
# Convention : Reuss Voigt Hill
#
# Bulk Modulus (GPa) = 34.75396 57.50950 46.13173
# Shear Modulus (GPa) = 16.28014 32.78499 24.53256
#
# Velocity S-wave (km/s) = 2.72841 3.87185 3.34929
# Velocity P-wave (km/s) = 5.08106 6.80331 6.00426
#
# Compressibility (1/GPa) = 0.02877370
#
# Stress axis : x y z
#
# Youngs Moduli (GPa) = 37.42816 138.52323 76.09103
#
# Poissons Ratio (x) = 0.28259 0.25720
# Poissons Ratio (y) = 0.07635 0.28401
# Poissons Ratio (z) = 0.12651 0.51705
#
# Static dielectric constant tensor:
#      x y z
#    x 1.889580 0.000000 -0.012440 
#    y 0.000000 1.793900 0.000000 
#    z -0.012440 0.000000 1.768120 
# 
# From -- ./inp_files/213677.got.cif
#   From: 2010.05.17/outbox.cif.g08.bks.cpg/sg12_107_cif.got.tgz:213677.got - 2010.06.03 13:09:07.
