data_PCOD9223328
_publ_section_title
;
Structure prediction by ZEFSAII (Michael W. Deem and Ramdas Pophale) SiO2 
 PCOD9223328
Probable space group: C 2/M
;
_chemical_formula_sum "Si O2"
_cell_formula_units_Z 28
_cell_length_a 27.000000
_cell_length_b 9.000000
_cell_length_c 12.000000
_cell_angle_alpha 90.000000
_cell_angle_beta 70.000000
_cell_angle_gamma 90.000000
_cell_volume 2740.143682
_symmetry_space_group_name_H-M "C 2/M"
_symmetry_group_IT_number 12
_symmetry_cell_setting 'monoclinic'
loop_
_space_group_symop_operation_xyz
x,y,z
-x,y,-z
-x,-y,-z
x,-y,z
1/2+x,1/2+y,z
1/2-x,1/2+y,-z
1/2-x,1/2-y,-z
1/2+x,1/2-y,z
loop_
_atom_site_type_symbol
_atom_site_label
_atom_site_fract_x
_atom_site_fract_y
_atom_site_fract_z
Si Si1 0.317413 0.678911 0.149817
Si Si2 0.200787 0.678209 0.293983
Si Si3 0.470936 0.176794 0.845713
Si Si4 0.080895 0.179503 0.782250
Si Si5 0.550495 0.835919 0.388613
Si Si6 0.878464 0.175333 0.494404
Si Si7 0.349557 0.821475 0.908633
O O1 0.319193 0.500000 0.145157
O O2 0.261746 0.725290 0.245075
O O3 0.370108 0.726348 0.176633
O O4 0.314881 0.741480 0.027125
O O5 0.199768 0.500000 0.297948
O O6 0.173862 0.742472 0.425057
O O7 0.168985 0.720782 0.202984
O O8 0.523123 0.253769 0.855393
O O9 0.471865 0.208370 0.712937
O O10 0.409111 0.218848 0.906458
O O11 0.475388 0.000000 0.862961
O O12 0.097321 0.223118 0.642927
O O13 0.076593 0.000000 0.790105
O O14 0.500000 0.858260 0.500000
O O15 0.583660 0.718386 0.431946
O O16 0.577509 0.000000 0.355005
O O17 0.870273 0.000000 0.494480
O O18 0.345485 0.000000 0.918592
#
# Coordination Sequence:
#
# PCOD9223328 Si02
#       7
#     8   8   8   8   8   8   8
#     4  10  23  42  61  80 111 156 197 233 281 339
#     4  10  21  40  63  85 112 148 190 239 290 337
#     4  10  20  35  58  86 115 149 188 231 283 340
#     4  10  23  40  55  82 122 156 188 229 279 339
#     4  10  18  32  55  82 114 150 189 231 281 340
#     4  11  22  34  55  87 120 149 185 234 286 337
#     4  10  21  38  61  88 114 140 186 247 291 330
#
# _framework density 10.218442
#
# number of rings (size 3 to 8) (size 9 to 14) (size 15 to 20)
#    0.000    1.857    2.857    0.857    0.000    4.857 
#    0.000    2.857    0.000    0.000    0.000    0.000 
#    0.000    0.000    0.000    0.000    0.000    0.000 
#
# Total GULP energy -155945.526766 kJ/mol
# GULP energy per Si atom -5569.483099 kJ/mol
# Density = 1.019518 g / cm^3
# Si number density = 10.218442 Si / 1000 Ang^3
#
#
#
# Elastic Constant Matrix: (Units=GPa)
#
#
# Indices 1 2 3 4 5 6 
#
# 1 82.9794 14.7296 7.8625 0.0000 8.3123 0.0000
# 2 14.7296 7.4863 14.9299 0.0000 -1.4592 0.0000
# 3 7.8625 14.9299 61.4648 0.0000 0.8880 0.0000
# 4 0.0000 0.0000 0.0000 20.7079 0.0000 -2.5870
# 5 8.3123 -1.4592 0.8880 0.0000 0.4431 0.0000
# 6 0.0000 0.0000 0.0000 -2.5870 0.0000 25.8151
#
#
#
# Elastic Compliance Matrix: (Units=1/GPa)
#
#
# Indices 1 2 3 4 5 6 
#
# 1 0.001474 0.024803 -0.007202 0.000000 0.068445 0.000000
# 2 0.024803 0.041165 -0.008659 0.000000 -0.312352 0.000000
# 3 -0.007202 -0.008659 0.018284 0.000000 0.069946 0.000000
# 4 0.000000 0.000000 0.000000 0.048903 0.000000 0.004901
# 5 0.068445 -0.312352 0.069946 0.000000 -0.195933 0.000000
# 6 0.000000 0.000000 0.000000 0.004901 0.000000 0.039228
#
#
# Mechanical properties :
#
#
# Convention : Reuss Voigt Hill
#
# Bulk Modulus (GPa) = 12.68943 25.21941 18.95442
# Shear Modulus (GPa) = -129.89246 17.02044 -56.43601
#
# Velocity S-wave (km/s) = -7.98097 2.88901 -5.26068
# Velocity P-wave (km/s) = 8.87160 4.84721 5.25404
#
# Compressibility (1/GPa) = 0.07880573
#
# Stress axis : x y z
#
# Youngs Moduli (GPa) = 678.20058 24.29259 54.69382
#
# Poissons Ratio (x) = -0.60252 0.39391
# Poissons Ratio (y) = -16.82124 0.47361
# Poissons Ratio (z) = 4.88446 0.21036
#
# Static dielectric constant tensor:
#      x y z
#    x 1.928930 0.000000 0.122960 
#    y 0.000000 1.751220 0.000000 
#    z 0.122960 0.000000 2.164390 
# 
# From -- ./inp_files/180723.got.cif
#   From: 2010.05.17/outbox.ucp.g08.bks.cvg/sg12_91_cif.got.tgz:180723.got - 2010.06.11 11:47:21.
