data_PCOD9223201
_publ_section_title
;
Structure prediction by ZEFSAII (Michael W. Deem and Ramdas Pophale) SiO2 
 PCOD9223201
Probable space group: C 2/M
;
_chemical_formula_sum "Si O2"
_cell_formula_units_Z 20
_cell_length_a 18.000000
_cell_length_b 9.000000
_cell_length_c 21.000000
_cell_angle_alpha 90.000000
_cell_angle_beta 140.000000
_cell_angle_gamma 90.000000
_cell_volume 2186.763448
_symmetry_space_group_name_H-M "C 2/M"
_symmetry_group_IT_number 12
_symmetry_cell_setting 'monoclinic'
loop_
_space_group_symop_operation_xyz
x,y,z
-x,y,-z
-x,-y,-z
x,-y,z
1/2+x,1/2+y,z
1/2-x,1/2+y,-z
1/2-x,1/2-y,-z
1/2+x,1/2-y,z
loop_
_atom_site_type_symbol
_atom_site_label
_atom_site_fract_x
_atom_site_fract_y
_atom_site_fract_z
Si Si1 0.478344 0.180298 0.168008
Si Si2 0.368362 0.678785 0.221880
Si Si3 0.213996 0.672237 0.378558
Si Si4 0.392533 0.819420 0.971884
Si Si5 0.576576 0.172122 0.423893
O O1 0.414768 0.259069 0.184853
O O2 0.615458 0.218901 0.263184
O O3 0.471955 0.000000 0.171707
O O4 0.419032 0.221768 0.062488
O O5 0.374727 0.500000 0.226730
O O6 0.233697 0.725431 0.136602
O O7 0.456512 0.742200 0.332833
O O8 0.242964 0.500000 0.386237
O O9 0.332434 0.761767 0.465648
O O10 0.144945 0.680783 0.400805
O O11 0.393009 0.000000 0.970708
O O12 0.500000 0.767185 0.000000
O O13 0.553664 0.000000 0.422026
#
# Coordination Sequence:
#
# PCOD9223201 Si02
#       5
#     8   8   8   8   8
#     4   9  17  30  49  71  95 122 152 190 231 271
#     4  10  18  28  47  72  96 122 153 190 228 272
#     4   8  14  24  40  65  93 118 147 185 228 271
#     4   9  18  32  49  69  93 122 156 193 232 272
#     4   9  16  26  42  65  94 123 150 186 229 271
#
# _framework density 9.145937
#
# number of rings (size 3 to 8) (size 9 to 14) (size 15 to 20)
#    0.000    3.000    0.000    3.000    0.000    4.800 
#    0.000    1.000    0.000    6.600    0.000    8.400 
#    0.000    0.000    0.000    0.000    0.000    0.000 
#
# Total GULP energy -111421.037062 kJ/mol
# GULP energy per Si atom -5571.051853 kJ/mol
# Density = 0.912512 g / cm^3
# Si number density = 9.145937 Si / 1000 Ang^3
#
#
#
# Elastic Constant Matrix: (Units=GPa)
#
#
# Indices 1 2 3 4 5 6 
#
# 1 38.2986 19.9280 36.0196 0.0000 27.8209 0.0000
# 2 19.9280 54.9226 50.6035 0.0000 20.4552 0.0000
# 3 36.0196 50.6035 148.8700 0.0000 53.7019 0.0000
# 4 0.0000 0.0000 0.0000 28.6199 0.0000 4.1237
# 5 27.8209 20.4552 53.7019 0.0000 25.0372 0.0000
# 6 0.0000 0.0000 0.0000 4.1237 0.0000 9.8866
#
#
#
# Elastic Compliance Matrix: (Units=1/GPa)
#
#
# Indices 1 2 3 4 5 6 
#
# 1 -0.107245 0.005596 -0.076422 0.000000 0.278513 0.000000
# 2 0.005596 0.026833 -0.001431 0.000000 -0.025071 0.000000
# 3 -0.076422 -0.001431 -0.023689 0.000000 0.136898 0.000000
# 4 0.000000 0.000000 0.000000 0.037175 0.000000 -0.015505
# 5 0.278513 -0.025071 0.136898 0.000000 -0.542687 0.000000
# 6 0.000000 0.000000 0.000000 -0.015505 0.000000 0.107614
#
#
# Mechanical properties :
#
#
# Convention : Reuss Voigt Hill
#
# Bulk Modulus (GPa) = -4.02227 50.57702 23.27737
# Shear Modulus (GPa) = -11.35445 21.74475 5.19515
#
# Velocity S-wave (km/s) = -2.49416 3.45159 1.68710
# Velocity P-wave (km/s) = 3.24009 6.60262 4.06795
#
# Compressibility (1/GPa) = -0.24861555
#
# Stress axis : x y z
#
# Youngs Moduli (GPa) = -9.32445 37.26759 -42.21369
#
# Poissons Ratio (x) = -0.20854 -3.22605
# Poissons Ratio (y) = 0.05218 -0.06042
# Poissons Ratio (z) = -0.71259 0.05334
#
# Static dielectric constant tensor:
#      x y z
#    x 1.618170 0.000000 0.007560 
#    y 0.000000 1.614610 0.000000 
#    z 0.007560 0.000000 1.656710 
# 
# From -- ./inp_files/151835.got.cif
#   From: 2010.05.17/outbox.ucp.g08.bks.cvg/sg12_76_cif.got.tgz:151835.got - 2010.06.11 11:47:21.
