data_PCOD9223523
_publ_section_title
;
Structure prediction by ZEFSAII (Michael W. Deem and Ramdas Pophale) SiO2 
 PCOD9223523
Probable space group: C 2/M
;
_chemical_formula_sum "Si O2"
_cell_formula_units_Z 28
_cell_length_a 18.000000
_cell_length_b 9.000000
_cell_length_c 24.000000
_cell_angle_alpha 90.000000
_cell_angle_beta 130.000000
_cell_angle_gamma 90.000000
_cell_volume 2978.380795
_symmetry_space_group_name_H-M "C 2/M"
_symmetry_group_IT_number 12
_symmetry_cell_setting 'monoclinic'
loop_
_space_group_symop_operation_xyz
x,y,z
-x,y,-z
-x,-y,-z
x,-y,z
1/2+x,1/2+y,z
1/2-x,1/2+y,-z
1/2-x,1/2-y,-z
1/2+x,1/2-y,z
loop_
_atom_site_type_symbol
_atom_site_label
_atom_site_fract_x
_atom_site_fract_y
_atom_site_fract_z
Si Si1 0.981464 0.171540 0.314028
Si Si2 0.101078 0.828678 0.571283
Si Si3 0.038319 0.830333 0.214256
Si Si4 0.844587 0.167899 0.526891
Si Si5 0.712091 0.175464 0.814271
Si Si6 0.685005 0.320943 0.919525
Si Si7 0.772823 0.322759 0.736124
O O1 0.893263 0.281863 0.261203
O O2 0.031199 0.166799 0.277770
O O3 0.054393 0.222862 0.397594
O O4 0.947974 0.000000 0.308617
O O5 0.157769 0.833852 0.540599
O O6 0.176615 0.772236 0.654282
O O7 0.000000 0.757392 0.500000
O O8 0.075565 0.000000 0.575534
O O9 0.126973 0.723572 0.243885
O O10 0.931931 0.788089 0.137956
O O11 0.059007 0.000000 0.205587
O O12 0.750000 0.250000 0.500000
O O13 0.840438 0.000000 0.546293
O O14 0.721292 0.255780 0.878064
O O15 0.778582 0.246901 0.799156
O O16 0.724251 0.000000 0.825915
O O17 0.693519 0.500000 0.924545
O O18 0.750000 0.250000 0.000000
O O19 0.765892 0.500000 0.736989
#
# Coordination Sequence:
#
# PCOD9223523 Si02
#       7
#     8   8   8   8   8   8   8
#     4   9  18  34  54  75 104 143 186 232 281 333
#     4   9  18  32  50  72 101 141 187 232 278 325
#     4   9  19  35  55  81 113 146 178 220 274 326
#     4  10  19  31  49  73 102 137 179 230 283 333
#     4  11  22  36  57  82 109 143 183 226 271 324
#     4  10  21  40  65  91 118 145 176 216 266 326
#     4  11  21  34  54  79 110 148 190 233 276 329
#
# _framework density 9.4010809999999996
#
# number of rings (size 3 to 8) (size 9 to 14) (size 15 to 20)
#    0.000    2.143    0.000    4.714    0.000    5.714 
#    0.000    1.429    0.000    7.286    0.000    0.000 
#    0.000    0.000    0.000    0.000    0.000    0.000 
#
# Total GULP energy -155978.217729 kJ/mol
# GULP energy per Si atom -5570.650633 kJ/mol
# Density = 0.937968 g / cm^3
# Si number density = 9.401081 Si / 1000 Ang^3
#
#
#
# Elastic Constant Matrix: (Units=GPa)
#
#
# Indices 1 2 3 4 5 6 
#
# 1 83.8912 37.5387 35.3871 0.0000 -11.3741 0.0000
# 2 37.5387 59.3268 32.4694 0.0000 -4.7096 0.0000
# 3 35.3871 32.4694 143.2254 0.0000 -18.3721 0.0000
# 4 0.0000 0.0000 0.0000 29.0739 0.0000 5.7752
# 5 -11.3741 -4.7096 -18.3721 0.0000 19.5017 0.0000
# 6 0.0000 0.0000 0.0000 5.7752 0.0000 24.0357
#
#
#
# Elastic Compliance Matrix: (Units=1/GPa)
#
#
# Indices 1 2 3 4 5 6 
#
# 1 0.017890 -0.010090 -0.001259 0.000000 0.006811 0.000000
# 2 -0.010090 0.024940 -0.003575 0.000000 -0.003230 0.000000
# 3 -0.001259 -0.003575 0.008984 0.000000 0.006866 0.000000
# 4 0.000000 0.000000 0.000000 0.036119 0.000000 -0.008679
# 5 0.006811 -0.003230 0.006866 0.000000 0.060939 0.000000
# 6 0.000000 0.000000 0.000000 -0.008679 0.000000 0.043690
#
#
# Mechanical properties :
#
#
# Convention : Reuss Voigt Hill
#
# Bulk Modulus (GPa) = 45.52489 55.24819 50.38654
# Shear Modulus (GPa) = 21.76442 26.59214 24.17828
#
# Velocity S-wave (km/s) = 3.40597 3.76481 3.58988
# Velocity P-wave (km/s) = 6.30338 6.95314 6.63622
#
# Compressibility (1/GPa) = 0.02196600
#
# Stress axis : x y z
#
# Youngs Moduli (GPa) = 55.89834 40.09545 111.30421
#
# Poissons Ratio (x) = 0.40456 0.14013
# Poissons Ratio (y) = 0.56400 0.39796
# Poissons Ratio (z) = 0.07037 0.14336
#
# Static dielectric constant tensor:
#      x y z
#    x 1.758640 0.000000 0.010760 
#    y 0.000000 1.648090 0.000000 
#    z 0.010760 0.000000 1.648080 
# 
# From -- ./inp_files/342595.got.cif
#   From: 2010.05.17/outbox.ucp.g08.bks.cvg/sg12_172_cif.got.tgz:342595.got - 2010.06.11 11:47:21.
