data_PCOD9223337
_publ_section_title
;
Structure prediction by ZEFSAII (Michael W. Deem and Ramdas Pophale) SiO2 
 PCOD9223337
Probable space group: C 2/M
;
_chemical_formula_sum "Si O2"
_cell_formula_units_Z 32
_cell_length_a 15.000000
_cell_length_b 9.000000
_cell_length_c 24.000000
_cell_angle_alpha 90.000000
_cell_angle_beta 90.000000
_cell_angle_gamma 90.000000
_cell_volume 3240.000000
_symmetry_space_group_name_H-M "C 2/M"
_symmetry_group_IT_number 12
_symmetry_cell_setting 'monoclinic'
loop_
_space_group_symop_operation_xyz
x,y,z
-x,y,-z
-x,-y,-z
x,-y,z
1/2+x,1/2+y,z
1/2-x,1/2+y,-z
1/2-x,1/2-y,-z
1/2+x,1/2-y,z
loop_
_atom_site_type_symbol
_atom_site_label
_atom_site_fract_x
_atom_site_fract_y
_atom_site_fract_z
Si Si1 0.543276 0.680645 0.115848
Si Si2 0.449010 0.177568 0.444531
Si Si3 0.851823 0.176457 0.134161
Si Si4 0.115250 0.822294 0.235700
Si Si5 0.203635 0.177669 0.621263
Si Si6 0.786036 0.177343 0.944267
Si Si7 0.694445 0.323811 0.745026
Si Si8 0.906984 0.322885 0.650547
O O1 0.543391 0.500000 0.118026
O O2 0.442584 0.724836 0.104809
O O3 0.575408 0.730997 0.177035
O O4 0.613514 0.725517 0.069504
O O5 0.500000 0.230972 0.500000
O O6 0.354809 0.247843 0.426819
O O7 0.517868 0.207147 0.394603
O O8 0.436419 0.000000 0.450133
O O9 0.771962 0.268723 0.108310
O O10 0.865797 0.196293 0.200574
O O11 0.835638 0.000000 0.125129
O O12 0.216620 0.766600 0.241075
O O13 0.071916 0.757572 0.291568
O O14 0.110825 0.000000 0.236743
O O15 0.163848 0.216201 0.682832
O O16 0.308365 0.220014 0.627121
O O17 0.199639 0.000000 0.613897
O O18 0.782702 0.000000 0.948669
O O19 0.750000 0.250000 0.000000
O O20 0.716512 0.500000 0.742547
O O21 0.902768 0.500000 0.660593
#
# Coordination Sequence:
#
# PCOD9223337 Si02
#       8
#     8   8   8   8   8   8   8   8
#     4   9  20  36  57  84 115 148 185 228 279 334
#     4  10  22  39  57  79 111 150 191 234 282 335
#     4  10  20  37  60  85 112 151 189 225 279 338
#     4  10  18  32  57  85 114 146 186 230 275 332
#     4   9  19  35  55  81 112 147 185 229 277 333
#     4  11  23  42  61  83 115 152 193 237 279 327
#     4   9  18  33  56  83 117 149 180 223 283 341
#     4   9  20  38  55  78 113 150 183 227 286 338
#
# _framework density 9.8765429999999999
#
# number of rings (size 3 to 8) (size 9 to 14) (size 15 to 20)
#    0.000    2.375    1.250    1.500    1.750    3.750 
#    0.000    5.000    0.000    0.000    0.000    0.000 
#    0.000    0.000    0.000    0.000    0.000    0.000 
#
# Total GULP energy -178462.506638 kJ/mol
# GULP energy per Si atom -5576.953332 kJ/mol
# Density = 0.985406 g / cm^3
# Si number density = 9.876543 Si / 1000 Ang^3
#
#
#
# Elastic Constant Matrix: (Units=GPa)
#
#
# Indices 1 2 3 4 5 6 
#
# 1 30.8048 3.3304 -32.4859 0.0000 -3.8621 0.0000
# 2 3.3304 16.1326 8.5421 0.0000 -9.1571 0.0000
# 3 -32.4859 8.5421 8.9861 0.0000 6.7950 0.0000
# 4 0.0000 0.0000 0.0000 28.8783 0.0000 5.6325
# 5 -3.8621 -9.1571 6.7950 0.0000 12.9148 0.0000
# 6 0.0000 0.0000 0.0000 5.6325 0.0000 19.7015
#
#
#
# Elastic Compliance Matrix: (Units=1/GPa)
#
#
# Indices 1 2 3 4 5 6 
#
# 1 0.009592 0.031137 -0.022892 0.000000 0.036991 0.000000
# 2 0.031137 0.058240 0.031448 0.000000 0.034060 0.000000
# 3 -0.022892 0.031448 -0.021676 0.000000 0.026857 0.000000
# 4 0.000000 0.000000 0.000000 0.036673 0.000000 -0.010485
# 5 0.036991 0.034060 0.026857 0.000000 0.098512 0.000000
# 6 0.000000 0.000000 0.000000 -0.010485 0.000000 0.053755
#
#
# Mechanical properties :
#
#
# Convention : Reuss Voigt Hill
#
# Bulk Modulus (GPa) = 7.96546 1.63298 4.79922
# Shear Modulus (GPa) = 25.30902 17.40137 21.35519
#
# Velocity S-wave (km/s) = 3.58337 2.97129 3.29159
# Velocity P-wave (km/s) = 4.60021 3.54964 4.10864
#
# Compressibility (1/GPa) = 0.12554204
#
# Stress axis : x y z
#
# Youngs Moduli (GPa) = 104.24910 17.17027 -46.13339
#
# Poissons Ratio (x) = -0.53464 -1.05609
# Poissons Ratio (y) = -3.24604 1.45078
# Poissons Ratio (z) = 2.38647 -0.53996
#
# Static dielectric constant tensor:
#      x y z
#    x 1.717480 0.000000 -0.037380 
#    y 0.000000 1.660320 0.000000 
#    z -0.037380 0.000000 1.712820 
# 
# From -- ./inp_files/338780.got.cif
#   From: 2010.05.17/outbox.ucp.g08.bks.cvg/sg12_170_cif.got.tgz:338780.got - 2010.06.11 11:47:21.
