data_PCOD9223658
_publ_section_title
;
Structure prediction by ZEFSAII (Michael W. Deem and Ramdas Pophale) SiO2 
 PCOD9223658
Probable space group: C 2/M
;
_chemical_formula_sum "Si O2"
_cell_formula_units_Z 28
_cell_length_a 27.000000
_cell_length_b 9.000000
_cell_length_c 12.000000
_cell_angle_alpha 90.000000
_cell_angle_beta 110.000000
_cell_angle_gamma 90.000000
_cell_volume 2740.143682
_symmetry_space_group_name_H-M "C 2/M"
_symmetry_group_IT_number 12
_symmetry_cell_setting 'monoclinic'
loop_
_space_group_symop_operation_xyz
x,y,z
-x,y,-z
-x,-y,-z
x,-y,z
1/2+x,1/2+y,z
1/2-x,1/2+y,-z
1/2-x,1/2-y,-z
1/2+x,1/2-y,z
loop_
_atom_site_type_symbol
_atom_site_label
_atom_site_fract_x
_atom_site_fract_y
_atom_site_fract_z
Si Si1 0.532255 0.825103 0.323797
Si Si2 0.674890 0.324115 0.639782
Si Si3 0.629684 0.677519 0.988051
Si Si4 0.914146 0.319932 0.273230
Si Si5 0.205987 0.324028 0.200589
Si Si6 0.846187 0.320251 0.598944
Si Si7 0.451844 0.663909 0.881982
O O1 0.476397 0.772263 0.334047
O O2 0.593094 0.772580 0.384834
O O3 0.529162 0.784560 0.191346
O O4 0.533535 0.000000 0.347453
O O5 0.663779 0.500000 0.624492
O O6 0.626419 0.244197 0.666317
O O7 0.731175 0.304581 0.743038
O O8 0.684461 0.256020 0.524885
O O9 0.629152 0.500000 0.967990
O O10 0.684982 0.736581 0.076710
O O11 0.594155 0.709456 0.070030
O O12 0.606778 0.759175 0.862018
O O13 0.912982 0.500000 0.274678
O O14 0.194611 0.500000 0.178652
O O15 0.177150 0.279617 0.296759
O O16 0.844046 0.500000 0.591331
O O17 0.439801 0.500000 0.820973
O O18 0.500000 0.643226 0.000000
#
# Coordination Sequence:
#
# PCOD9223658 Si02
#       7
#     8   8   8   8   8   8   8
#     4  10  21  36  60  90 119 155 198 241 291 354
#     4  11  25  43  62  86 118 159 205 250 297 352
#     4  11  22  36  60  93 125 157 195 243 299 357
#     4  11  24  41  61  87 122 165 203 239 291 357
#     4  10  22  41  65  91 119 154 199 249 300 353
#     4  10  21  40  65  91 119 151 195 252 302 351
#     4  10  19  32  53  86 125 157 187 237 301 354
#
# _framework density 10.218442
#
# number of rings (size 3 to 8) (size 9 to 14) (size 15 to 20)
#    0.000    1.571    2.857    1.714    0.000    4.857 
#    0.000    2.857    0.000    0.000    0.000    0.000 
#    0.000    0.000    0.000    0.000    0.000    0.000 
#
# Total GULP energy -156032.557395 kJ/mol
# GULP energy per Si atom -5572.591336 kJ/mol
# Density = 1.019518 g / cm^3
# Si number density = 10.218442 Si / 1000 Ang^3
#
#
#
# Elastic Constant Matrix: (Units=GPa)
#
#
# Indices 1 2 3 4 5 6 
#
# 1 59.3431 16.8876 -2.6922 0.0000 -6.4601 0.0000
# 2 16.8876 15.5100 -0.2790 0.0000 -0.1555 0.0000
# 3 -2.6922 -0.2790 17.8527 0.0000 4.1562 0.0000
# 4 0.0000 0.0000 0.0000 25.0853 0.0000 -6.0221
# 5 -6.4601 -0.1555 4.1562 0.0000 25.4148 0.0000
# 6 0.0000 0.0000 0.0000 -6.0221 0.0000 35.1976
#
#
#
# Elastic Compliance Matrix: (Units=1/GPa)
#
#
# Indices 1 2 3 4 5 6 
#
# 1 0.025451 -0.027616 0.002016 0.000000 0.005971 0.000000
# 2 -0.027616 0.094459 -0.001236 0.000000 -0.006239 0.000000
# 3 0.002016 -0.001236 0.058405 0.000000 -0.009046 0.000000
# 4 0.000000 0.000000 0.000000 0.041572 0.000000 0.007113
# 5 0.005971 -0.006239 -0.009046 0.000000 0.042306 0.000000
# 6 0.000000 0.000000 0.000000 0.007113 0.000000 0.029628
#
#
# Mechanical properties :
#
#
# Convention : Reuss Voigt Hill
#
# Bulk Modulus (GPa) = 8.02281 13.39318 10.70800
# Shear Modulus (GPa) = 12.91859 22.39217 17.65538
#
# Velocity S-wave (km/s) = 2.51693 3.31369 2.94240
# Velocity P-wave (km/s) = 3.51863 4.60525 4.09812
#
# Compressibility (1/GPa) = 0.12464463
#
# Stress axis : x y z
#
# Youngs Moduli (GPa) = 39.29050 10.58661 17.12193
#
# Poissons Ratio (x) = 0.29236 -0.03453
# Poissons Ratio (y) = 1.08505 0.02116
# Poissons Ratio (z) = -0.07923 0.01308
#
# Static dielectric constant tensor:
#      x y z
#    x 1.753830 0.000000 0.073210 
#    y 0.000000 1.738430 0.000000 
#    z 0.073210 0.000000 1.756460 
# 
# From -- ./inp_files/181132.got.cif
#   From: 2010.05.17/outbox.ucp.g08.bks.cvg/sg12_91_cif.got.tgz:181132.got - 2010.06.11 11:47:21.
