data_PCOD9223277
_publ_section_title
;
Structure prediction by ZEFSAII (Michael W. Deem and Ramdas Pophale) SiO2 
 PCOD9223277
Probable space group: C 2/M
;
_chemical_formula_sum "Si O2"
_cell_formula_units_Z 32
_cell_length_a 15.000000
_cell_length_b 9.000000
_cell_length_c 30.000000
_cell_angle_alpha 90.000000
_cell_angle_beta 120.000000
_cell_angle_gamma 90.000000
_cell_volume 3507.402885
_symmetry_space_group_name_H-M "C 2/M"
_symmetry_group_IT_number 12
_symmetry_cell_setting 'monoclinic'
loop_
_space_group_symop_operation_xyz
x,y,z
-x,y,-z
-x,-y,-z
x,-y,z
1/2+x,1/2+y,z
1/2-x,1/2+y,-z
1/2-x,1/2-y,-z
1/2+x,1/2-y,z
loop_
_atom_site_type_symbol
_atom_site_label
_atom_site_fract_x
_atom_site_fract_y
_atom_site_fract_z
Si Si1 0.510902 0.179277 0.290568
Si Si2 0.241572 0.321387 0.360962
Si Si3 0.962857 0.821254 0.875716
Si Si4 0.175165 0.320887 0.445070
Si Si5 0.541962 0.679930 0.628825
Si Si6 0.428208 0.177895 0.174310
Si Si7 0.798786 0.819568 0.901161
Si Si8 0.856651 0.820666 0.011343
O O1 0.630907 0.223232 0.312395
O O2 0.466702 0.262638 0.322504
O O3 0.445339 0.210738 0.230248
O O4 0.509893 0.000000 0.298722
O O5 0.245944 0.500000 0.358493
O O6 0.224455 0.285691 0.408824
O O7 0.349544 0.269917 0.366511
O O8 0.856490 0.772918 0.871148
O O9 0.985217 0.750527 0.834194
O O10 0.051725 0.775365 0.933152
O O11 0.965067 0.000000 0.873161
O O12 0.168716 0.500000 0.447359
O O13 0.250000 0.250000 0.500000
O O14 0.060652 0.250740 0.418942
O O15 0.535827 0.500000 0.625441
O O16 0.318248 0.232949 0.128429
O O17 0.431971 0.000000 0.170122
O O18 0.795916 0.000000 0.900317
O O19 0.863584 0.778078 0.961081
O O20 0.850920 0.000000 0.011846
O O21 0.750000 0.750000 0.000000
#
# Coordination Sequence:
#
# PCOD9223277 Si02
#       8
#     8   8   8   8   8   8   8   8
#     4   9  19  36  54  74 102 137 172 211 263 314
#     4   8  17  34  54  74 103 141 176 210 258 313
#     4  10  20  33  51  74  99 130 168 208 252 309
#     4  10  20  36  55  80 115 149 179 215 257 304
#     4  10  19  34  56  79 102 137 181 219 257 303
#     4  10  20  35  54  74 101 134 167 209 260 311
#     4   9  18  33  51  72 100 133 166 202 256 316
#     4  10  18  31  52  72  96 130 166 204 251 308
#
# _framework density 9.1235599999999994
#
# number of rings (size 3 to 8) (size 9 to 14) (size 15 to 20)
#    0.000    2.500    1.250    1.875    0.000    3.500 
#    0.000   10.000    0.000    1.500    0.000    0.000 
#    0.000    0.000    0.000    0.000    0.000    0.000 
#
# Total GULP energy -178310.005572 kJ/mol
# GULP energy per Si atom -5572.187674 kJ/mol
# Density = 0.910279 g / cm^3
# Si number density = 9.123560 Si / 1000 Ang^3
#
#
#
# Elastic Constant Matrix: (Units=GPa)
#
#
# Indices 1 2 3 4 5 6 
#
# 1 105.5045 12.6421 8.6551 0.0000 -2.3714 0.0000
# 2 12.6421 21.3405 19.9078 0.0000 -1.2028 0.0000
# 3 8.6551 19.9078 60.2518 0.0000 -1.4045 0.0000
# 4 0.0000 0.0000 0.0000 22.4658 0.0000 -1.8389
# 5 -2.3714 -1.2028 -1.4045 0.0000 11.9534 0.0000
# 6 0.0000 0.0000 0.0000 -1.8389 0.0000 26.0695
#
#
#
# Elastic Compliance Matrix: (Units=1/GPa)
#
#
# Indices 1 2 3 4 5 6 
#
# 1 0.010252 -0.006721 0.000782 0.000000 0.001449 0.000000
# 2 -0.006721 0.072355 -0.022865 0.000000 0.003261 0.000000
# 3 0.000782 -0.022865 0.024055 0.000000 0.000681 0.000000
# 4 0.000000 0.000000 0.000000 0.044771 0.000000 0.003158
# 5 0.001449 0.003261 0.000681 0.000000 0.084354 0.000000
# 6 0.000000 0.000000 0.000000 0.003158 0.000000 0.038582
#
#
# Mechanical properties :
#
#
# Convention : Reuss Voigt Hill
#
# Bulk Modulus (GPa) = 20.38591 29.94519 25.16555
# Shear Modulus (GPa) = 14.35427 21.82386 18.08907
#
# Velocity S-wave (km/s) = 2.80779 3.46210 3.15197
# Velocity P-wave (km/s) = 4.65918 5.69456 5.20269
#
# Compressibility (1/GPa) = 0.04905348
#
# Stress axis : x y z
#
# Youngs Moduli (GPa) = 97.54147 13.82079 41.57054
#
# Poissons Ratio (x) = 0.09289 -0.03250
# Poissons Ratio (y) = 0.65556 0.95052
# Poissons Ratio (z) = -0.07625 0.31602
#
# Static dielectric constant tensor:
#      x y z
#    x 1.634000 0.000000 -0.003130 
#    y 0.000000 1.613060 0.000000 
#    z -0.003130 0.000000 1.642830 
# 
# From -- ./inp_files/359839.got.cif
#   From: 2010.05.17/outbox.ucp.g08.bks.cvg/sg12_180_cif.got.tgz:359839.got - 2010.06.11 11:47:21.
