data_PCOD9223872
_publ_section_title
;
Structure prediction by ZEFSAII (Michael W. Deem and Ramdas Pophale) SiO2 
 PCOD9223872
Probable space group: C 2/M
;
_chemical_formula_sum "Si O2"
_cell_formula_units_Z 32
_cell_length_a 18.000000
_cell_length_b 9.000000
_cell_length_c 30.000000
_cell_angle_alpha 90.000000
_cell_angle_beta 40.000000
_cell_angle_gamma 90.000000
_cell_volume 3123.947783
_symmetry_space_group_name_H-M "C 2/M"
_symmetry_group_IT_number 12
_symmetry_cell_setting 'monoclinic'
loop_
_space_group_symop_operation_xyz
x,y,z
-x,y,-z
-x,-y,-z
x,-y,z
1/2+x,1/2+y,z
1/2-x,1/2+y,-z
1/2-x,1/2-y,-z
1/2+x,1/2-y,z
loop_
_atom_site_type_symbol
_atom_site_label
_atom_site_fract_x
_atom_site_fract_y
_atom_site_fract_z
Si Si1 0.626677 0.822934 0.930846
Si Si2 0.539910 0.818331 0.703838
Si Si3 0.385430 0.818339 0.159117
Si Si4 0.712097 0.821451 0.702611
Si Si5 0.368956 0.831232 0.938957
Si Si6 0.130111 0.676137 0.567213
Si Si7 0.049409 0.675749 0.429363
Si Si8 0.336025 0.831456 0.855146
O O1 0.671166 0.777221 0.861418
O O2 0.723725 0.761651 0.917757
O O3 0.622331 0.000000 0.934624
O O4 0.500000 0.766333 0.000000
O O5 0.632379 0.771665 0.698341
O O6 0.575379 0.767650 0.638634
O O7 0.417341 0.768219 0.779455
O O8 0.535446 0.000000 0.705869
O O9 0.328388 0.764439 0.230507
O O10 0.516761 0.764530 0.092496
O O11 0.390001 0.000000 0.159055
O O12 0.839316 0.768275 0.633992
O O13 0.706512 0.000000 0.706443
O O14 0.403870 0.837615 0.870538
O O15 0.354799 0.000000 0.961350
O O16 0.250000 0.750000 0.000000
O O17 0.148447 0.500000 0.564301
O O18 0.250000 0.750000 0.500000
O O19 0.044253 0.698840 0.565841
O O20 0.077860 0.500000 0.417957
O O21 0.000000 0.719024 0.500000
O O22 0.302015 0.000000 0.859798
#
# Coordination Sequence:
#
# PCOD9223872 Si02
#       8
#     8   8   8   8   8   8   8   8
#     4  10  21  36  53  75 107 144 179 220 272 326
#     4   9  18  35  57  80 106 140 180 222 267 313
#     4   9  18  34  54  76 105 141 178 221 270 314
#     4  10  19  35  59  81 104 139 185 226 259 311
#     4  10  19  34  56  79 105 139 180 225 272 318
#     4  10  21  37  58  82 111 145 179 216 262 316
#     4  10  22  38  55  81 117 147 171 213 273 321
#     4  10  20  35  56  80 107 140 180 226 272 317
#
# _framework density 10.243449
#
# number of rings (size 3 to 8) (size 9 to 14) (size 15 to 20)
#    0.000    2.250    1.250    1.500    1.750    2.500 
#    0.000    2.500    0.000    0.000    0.000    0.000 
#    0.000    0.000    0.000    0.000    0.000    0.000 
#
# Total GULP energy -178296.095924 kJ/mol
# GULP energy per Si atom -5571.752998 kJ/mol
# Density = 1.022013 g / cm^3
# Si number density = 10.243449 Si / 1000 Ang^3
#
#
#
# Elastic Constant Matrix: (Units=GPa)
#
#
# Indices 1 2 3 4 5 6 
#
# 1 58.1462 32.8328 53.5138 -0.0001 19.0733 -0.0003
# 2 32.8328 -6.6743 27.7591 -0.0002 -1.8211 -0.0013
# 3 53.5138 27.7591 125.2132 0.0000 18.1276 0.0000
# 4 -0.0001 -0.0002 0.0000 21.5412 0.0000 -9.1064
# 5 19.0733 -1.8211 18.1276 0.0000 36.9416 0.0000
# 6 -0.0003 -0.0013 0.0000 -9.1064 0.0000 4.5842
#
#
#
# Elastic Compliance Matrix: (Units=1/GPa)
#
#
# Indices 1 2 3 4 5 6 
#
# 1 0.014396 0.023846 -0.011339 0.000023 -0.000693 0.000053
# 2 0.023846 -0.032846 -0.000961 -0.000022 -0.013460 -0.000051
# 3 -0.011339 -0.000961 0.013138 -0.000004 -0.000640 -0.000008
# 4 0.000023 -0.000022 -0.000004 0.289708 -0.000011 0.575494
# 5 -0.000693 -0.013460 -0.000640 -0.000011 0.027078 -0.000025
# 6 0.000053 -0.000051 -0.000008 0.575494 -0.000025 1.361333
#
#
# Mechanical properties :
#
#
# Convention : Reuss Voigt Hill
#
# Bulk Modulus (GPa) = 56.24010 44.98850 50.61430
# Shear Modulus (GPa) = 3.01998 16.78538 9.90268
#
# Velocity S-wave (km/s) = 1.21544 2.86549 2.20094
# Velocity P-wave (km/s) = 5.42965 5.74067 5.58733
#
# Compressibility (1/GPa) = 0.01778091
#
# Stress axis : x y z
#
# Youngs Moduli (GPa) = 69.46531 -30.44517 76.11464
#
# Poissons Ratio (x) = 0.72601 0.86304
# Poissons Ratio (y) = -1.65650 0.07316
# Poissons Ratio (z) = 0.78765 -0.02926
#
# Static dielectric constant tensor:
#      x y z
#    x 1.465520 0.000000 0.052560 
#    y 0.000000 1.537560 0.000000 
#    z 0.052560 0.000000 1.709570 
# 
# From -- ./inp_files/378240.got.cif
#   From: 2010.05.17/outbox.ucp.g08.bks.cvg/sg12_190_cif.got.tgz:378240.got - 2010.06.11 11:47:21.
