data_PCOD9223305
_publ_section_title
;
Structure prediction by ZEFSAII (Michael W. Deem and Ramdas Pophale) SiO2 
 PCOD9223305
Probable space group: C 2/M
;
_chemical_formula_sum "Si O2"
_cell_formula_units_Z 32
_cell_length_a 24.000000
_cell_length_b 9.000000
_cell_length_c 24.000000
_cell_angle_alpha 90.000000
_cell_angle_beta 50.000000
_cell_angle_gamma 90.000000
_cell_volume 3971.174393
_symmetry_space_group_name_H-M "C 2/M"
_symmetry_group_IT_number 12
_symmetry_cell_setting 'monoclinic'
loop_
_space_group_symop_operation_xyz
x,y,z
-x,y,-z
-x,-y,-z
x,-y,z
1/2+x,1/2+y,z
1/2-x,1/2+y,-z
1/2-x,1/2-y,-z
1/2+x,1/2-y,z
loop_
_atom_site_type_symbol
_atom_site_label
_atom_site_fract_x
_atom_site_fract_y
_atom_site_fract_z
Si Si1 0.142227 0.674894 0.429314
Si Si2 0.277744 0.325849 0.425275
Si Si3 0.691958 0.819642 0.994119
Si Si4 0.929623 0.323507 0.310715
Si Si5 0.079187 0.679325 0.157356
Si Si6 0.515627 0.823831 0.597965
Si Si7 0.210410 0.320137 0.158777
Si Si8 0.359167 0.322837 0.688795
O O1 0.133022 0.500000 0.420762
O O2 0.212463 0.689125 0.423283
O O3 0.071793 0.716997 0.512349
O O4 0.154233 0.767410 0.365608
O O5 0.289569 0.500000 0.428765
O O6 0.250000 0.250000 0.500000
O O7 0.352325 0.256336 0.353882
O O8 0.719102 0.750734 0.917838
O O9 0.697391 0.000000 0.988886
O O10 0.750000 0.750000 0.000000
O O11 0.614498 0.780893 0.074171
O O12 0.920928 0.500000 0.305863
O O13 0.948968 0.306436 0.363828
O O14 0.999002 0.269289 0.229029
O O15 0.075422 0.500000 0.160325
O O16 0.139970 0.718469 0.165058
O O17 0.442114 0.730291 0.645353
O O18 0.498498 0.000000 0.602508
O O19 0.216611 0.500000 0.156165
O O20 0.191657 0.255352 0.231763
O O21 0.352391 0.500000 0.697811
#
# Coordination Sequence:
#
# PCOD9223305 Si02
#       8
#     8   8   8   8   8   8   8   8
#     4  10  22  39  54  69  96 139 178 208 254 312
#     4  11  22  37  55  76  99 130 172 218 261 301
#     4   9  16  27  44  71 102 136 171 206 245 297
#     4  10  18  33  54  77 102 137 174 206 249 304
#     4   8  15  28  48  71 101 135 167 199 243 301
#     4  10  19  35  55  72  99 140 175 202 248 314
#     4  10  18  32  50  69  99 140 172 203 251 310
#     4  12  24  34  49  77 105 131 170 220 258 298
#
# _framework density 8.0580700000000007
#
# number of rings (size 3 to 8) (size 9 to 14) (size 15 to 20)
#    0.000    2.000    2.500    3.375    0.000    3.500 
#    0.000    1.250    0.000    0.000    0.000    0.875 
#    0.000    7.000    0.000    0.000    0.000    0.000 
#
# Total GULP energy -178373.472437 kJ/mol
# GULP energy per Si atom -5574.171014 kJ/mol
# Density = 0.803973 g / cm^3
# Si number density = 8.058070 Si / 1000 Ang^3
#
#
#
# Elastic Constant Matrix: (Units=GPa)
#
#
# Indices 1 2 3 4 5 6 
#
# 1 29.3546 21.7256 27.4639 -0.0001 -2.0586 0.0003
# 2 21.7256 75.8717 54.5460 -0.0003 4.4714 -0.0003
# 3 27.4639 54.5460 180.3128 0.0000 -3.6971 0.0000
# 4 -0.0001 -0.0003 0.0000 33.7863 0.0000 -2.0745
# 5 -2.0586 4.4714 -3.6971 0.0000 23.4970 -0.0001
# 6 0.0003 -0.0003 0.0000 -2.0745 -0.0001 21.7693
#
#
#
# Elastic Compliance Matrix: (Units=1/GPa)
#
#
# Indices 1 2 3 4 5 6 
#
# 1 0.045857 -0.010884 -0.003579 0.000000 0.005526 -0.000001
# 2 -0.010884 0.019813 -0.004447 0.000000 -0.005424 0.000000
# 3 -0.003579 -0.004447 0.007471 0.000000 0.001708 0.000000
# 4 0.000000 0.000000 0.000000 0.029772 0.000000 0.002837
# 5 0.005526 -0.005424 0.001708 0.000000 0.044344 0.000000
# 6 -0.000001 0.000000 0.000000 0.002837 0.000000 0.046207
#
#
# Mechanical properties :
#
#
# Convention : Reuss Voigt Hill
#
# Bulk Modulus (GPa) = 28.31068 54.77890 41.54479
# Shear Modulus (GPa) = 20.57123 27.93077 24.25100
#
# Velocity S-wave (km/s) = 3.57660 4.16756 3.88334
# Velocity P-wave (km/s) = 5.88735 7.56452 6.77801
#
# Compressibility (1/GPa) = 0.03532236
#
# Stress axis : x y z
#
# Youngs Moduli (GPa) = 21.80685 50.47066 133.84418
#
# Poissons Ratio (x) = 0.54931 0.47902
# Poissons Ratio (y) = 0.23734 0.59523
# Poissons Ratio (z) = 0.07805 0.22445
#
# Static dielectric constant tensor:
#      x y z
#    x 1.536090 0.000000 0.001470 
#    y 0.000000 1.543320 0.000000 
#    z 0.001470 0.000000 1.559890 
# 
# From -- ./inp_files/348560.got.cif
#   From: 2010.05.17/outbox.ucp.g08.bks.cvg/sg12_175_cif.got.tgz:348560.got - 2010.06.11 11:47:21.
