data_PCOD9223815
_publ_section_title
;
Structure prediction by ZEFSAII (Michael W. Deem and Ramdas Pophale) SiO2 
 PCOD9223815
Probable space group: C 2/M
;
_chemical_formula_sum "Si O2"
_cell_formula_units_Z 32
_cell_length_a 30.000000
_cell_length_b 9.000000
_cell_length_c 18.000000
_cell_angle_alpha 90.000000
_cell_angle_beta 140.000000
_cell_angle_gamma 90.000000
_cell_volume 3123.947783
_symmetry_space_group_name_H-M "C 2/M"
_symmetry_group_IT_number 12
_symmetry_cell_setting 'monoclinic'
loop_
_space_group_symop_operation_xyz
x,y,z
-x,y,-z
-x,-y,-z
x,-y,z
1/2+x,1/2+y,z
1/2-x,1/2+y,-z
1/2-x,1/2-y,-z
1/2+x,1/2-y,z
loop_
_atom_site_type_symbol
_atom_site_label
_atom_site_fract_x
_atom_site_fract_y
_atom_site_fract_z
Si Si1 0.773902 0.329277 0.629301
Si Si2 0.510888 0.165785 0.234573
Si Si3 0.718610 0.830496 0.196541
Si Si4 0.006006 0.670194 0.401765
Si Si5 0.635873 0.325198 0.795712
Si Si6 0.133150 0.176008 0.959339
Si Si7 0.851297 0.327318 0.335011
Si Si8 0.642684 0.333471 0.380037
O O1 0.786187 0.500000 0.617395
O O2 0.807847 0.320649 0.753362
O O3 0.690650 0.311649 0.513815
O O4 0.805139 0.198969 0.620051
O O5 0.528719 0.165798 0.345122
O O6 0.445832 0.269441 0.135742
O O7 0.580693 0.221531 0.287821
O O8 0.491028 0.000000 0.187382
O O9 0.796663 0.773919 0.306369
O O10 0.718495 0.000000 0.171764
O O11 0.677821 0.739195 0.083214
O O12 0.979643 0.500000 0.384919
O O13 0.070072 0.701718 0.537818
O O14 0.945955 0.792705 0.322202
O O15 0.650840 0.500000 0.803703
O O16 0.655399 0.278070 0.904002
O O17 0.665396 0.217243 0.771098
O O18 0.135915 0.000000 0.963955
O O19 0.838284 0.500000 0.331612
O O20 0.615106 0.500000 0.346401
#
# Coordination Sequence:
#
# PCOD9223815 Si02
#       8
#     8   8   8   8   8   8   8   8
#     4   9  20  37  56  82 115 146 175 214 265 318
#     4  10  19  34  57  82 110 144 181 220 265 318
#     4  11  23  39  58  79 106 141 182 225 269 317
#     4   9  19  34  53  80 112 144 177 217 268 322
#     4  10  21  36  55  79 107 141 180 224 272 319
#     4  10  22  40  58  77 105 141 183 228 271 317
#     4  11  22  35  54  80 110 143 179 221 269 323
#     4  10  19  33  57  87 116 144 175 213 260 317
#
# _framework density 10.243449
#
# number of rings (size 3 to 8) (size 9 to 14) (size 15 to 20)
#    0.000    2.000    0.000    3.375    0.000    6.500 
#    0.000    0.625    0.000    3.750    0.000    0.000 
#    0.000    0.000    0.000    0.000    0.000    0.000 
#
# Total GULP energy -178262.570711 kJ/mol
# GULP energy per Si atom -5570.705335 kJ/mol
# Density = 1.022013 g / cm^3
# Si number density = 10.243449 Si / 1000 Ang^3
#
#
#
# Elastic Constant Matrix: (Units=GPa)
#
#
# Indices 1 2 3 4 5 6 
#
# 1 22.9228 13.9875 24.4830 0.0000 -2.3899 0.0000
# 2 13.9875 16.2335 30.7827 0.0000 -16.6067 0.0000
# 3 24.4830 30.7827 81.7638 0.0000 -28.2585 0.0000
# 4 0.0000 0.0000 0.0000 10.4967 0.0000 10.0637
# 5 -2.3899 -16.6067 -28.2585 0.0000 16.4661 0.0000
# 6 0.0000 0.0000 0.0000 10.0637 0.0000 17.4516
#
#
#
# Elastic Compliance Matrix: (Units=1/GPa)
#
#
# Indices 1 2 3 4 5 6 
#
# 1 0.006085 0.092215 -0.010056 0.000000 0.076627 0.000000
# 2 0.092215 -0.091406 -0.050223 0.000000 -0.164993 0.000000
# 3 -0.010056 -0.050223 0.039667 0.000000 0.015963 0.000000
# 4 0.000000 0.000000 0.000000 0.213065 0.000000 -0.122867
# 5 0.076627 -0.164993 0.015963 0.000000 -0.067153 0.000000
# 6 0.000000 0.000000 0.000000 -0.122867 0.000000 0.128154
#
#
# Mechanical properties :
#
#
# Convention : Reuss Voigt Hill
#
# Bulk Modulus (GPa) = 54.89288 28.82517 41.85903
# Shear Modulus (GPa) = 29.30610 12.32734 20.81672
#
# Velocity S-wave (km/s) = 3.78627 2.45566 3.19109
# Velocity P-wave (km/s) = 6.77988 4.70541 5.83557
#
# Compressibility (1/GPa) = 0.01821730
#
# Stress axis : x y z
#
# Youngs Moduli (GPa) = 164.33902 -10.94024 25.21002
#
# Poissons Ratio (x) = 1.00885 0.25352
# Poissons Ratio (y) = -15.15450 1.26613
# Poissons Ratio (z) = 1.65262 -0.54945
#
# Static dielectric constant tensor:
#      x y z
#    x 1.923620 0.000000 -0.019810 
#    y 0.000000 1.734130 0.000000 
#    z -0.019810 0.000000 1.693400 
# 
# From -- ./inp_files/295697.got.cif
#   From: 2010.05.17/outbox.ucp.g08.bks.cvg/sg12_148_cif.got.tgz:295697.got - 2010.06.11 11:47:21.
