data_PCOD9223112
_publ_section_title
;
Structure prediction by ZEFSAII (Michael W. Deem and Ramdas Pophale) SiO2 
 PCOD9223112
Probable space group: C 2/M
;
_chemical_formula_sum "Si O2"
_cell_formula_units_Z 40
_cell_length_a 13.345945
_cell_length_b 25.557085
_cell_length_c 5.462651
_cell_angle_alpha 90.000000
_cell_angle_beta 64.275805
_cell_angle_gamma 90.000000
_cell_volume 1678.563241
_symmetry_space_group_name_H-M "C 2/M"
_symmetry_group_IT_number 12
_symmetry_cell_setting 'monoclinic'
loop_
_space_group_symop_operation_xyz
x,y,z
-x,y,-z
-x,-y,-z
x,-y,z
1/2+x,1/2+y,z
1/2-x,1/2+y,-z
1/2-x,1/2-y,-z
1/2+x,1/2-y,z
loop_
_atom_site_type_symbol
_atom_site_label
_atom_site_fract_x
_atom_site_fract_y
_atom_site_fract_z
Si Si1 0.613761 0.873121 0.968257
Si Si2 0.317889 0.905232 0.598380
Si Si3 0.895301 0.055899 0.932403
Si Si4 0.142064 0.168999 0.230836
Si Si5 0.319353 0.297969 0.319940
O O1 0.635688 0.913976 0.722320
O O2 0.722232 0.836487 0.878888
O O3 0.500000 0.845809 0.000000
O O4 0.605253 0.900306 0.242607
O O5 0.261857 0.847716 0.630209
O O6 0.215785 0.941323 0.785230
O O7 0.892174 0.108910 0.780350
O O8 0.896764 0.000000 0.797098
O O9 0.000000 0.058746 0.000000
O O10 0.100091 0.187348 0.540056
O O11 0.127330 0.204969 0.006424
O O12 0.250000 0.250000 0.500000
#
# Coordination Sequence:
#
# PCOD9223112 Si02
#       5
#     8   8   8   8   8
#     4   9  16  31  53  73 101 136 167 210 266 312
#     4   9  19  32  51  80 105 134 179 227 262 320
#     4   9  18  36  60  82 110 150 189 230 284 334
#     4   9  19  32  51  79 105 135 180 229 264 322
#     4   9  16  31  53  73 103 144 174 214 282 329
#
# _framework density 23.829903000000002
#
# number of rings (size 3 to 8) (size 9 to 14) (size 15 to 20)
#    0.000    3.400    0.000    1.200    0.000    0.000 
#    0.000   32.000    0.000  120.600    0.000    0.000 
#    0.000    0.000    0.000    0.000    0.000    0.000 
#
# Total GULP energy -111435.183764 kJ/mol
# GULP energy per Si atom -5571.759188 kJ/mol
# Density = 2.377566 g / cm^3
# Si number density = 23.829903 Si / 1000 Ang^3
#
#
#
# Elastic Constant Matrix: (Units=GPa)
#
#
# Indices 1 2 3 4 5 6 
#
# 1 99.6337 19.9451 41.9207 0.0000 21.1403 0.0000
# 2 19.9451 120.8660 23.6120 0.0000 6.2548 0.0000
# 3 41.9207 23.6120 216.1789 0.0000 33.7275 0.0000
# 4 0.0000 0.0000 0.0000 59.4218 0.0000 0.9585
# 5 21.1403 6.2548 33.7275 0.0000 49.2678 0.0000
# 6 0.0000 0.0000 0.0000 0.9585 0.0000 24.1301
#
#
#
# Elastic Compliance Matrix: (Units=1/GPa)
#
#
# Indices 1 2 3 4 5 6 
#
# 1 0.011782 -0.001447 -0.001530 0.000000 -0.003824 0.000000
# 2 -0.001447 0.008643 -0.000659 0.000000 -0.000025 0.000000
# 3 -0.001530 -0.000659 0.005462 0.000000 -0.002999 0.000000
# 4 0.000000 0.000000 0.000000 0.016840 0.000000 -0.000669
# 5 -0.003824 -0.000025 -0.002999 0.000000 0.023995 0.000000
# 6 0.000000 0.000000 0.000000 -0.000669 0.000000 0.041469
#
#
# Mechanical properties :
#
#
# Convention : Reuss Voigt Hill
#
# Bulk Modulus (GPa) = 53.72548 67.51489 60.62018
# Shear Modulus (GPa) = 41.09566 49.97734 45.53650
#
# Velocity S-wave (km/s) = 4.15727 4.58455 4.37612
# Velocity P-wave (km/s) = 6.75560 7.51116 7.14338
#
# Compressibility (1/GPa) = 0.01861314
#
# Stress axis : x y z
#
# Youngs Moduli (GPa) = 84.87767 115.70616 183.06853
#
# Poissons Ratio (x) = 0.16747 0.28008
# Poissons Ratio (y) = 0.12285 0.12072
# Poissons Ratio (z) = 0.12986 0.07630
#
# Static dielectric constant tensor:
#      x y z
#    x 2.005770 0.000000 -0.013720 
#    y 0.000000 1.885950 0.000000 
#    z -0.013720 0.000000 2.130790 
# 
# From -- ./inp_files/11881.got.cif
#   From: 2010.05.17/outbox.cif.g08.bks.cpg/sg12_6_cif.got.tgz:11881.got - 2010.06.03 13:09:07.
