data_PCOD9223348
_publ_section_title
;
Structure prediction by ZEFSAII (Michael W. Deem and Ramdas Pophale) SiO2 
 PCOD9223348
Probable space group: C 2/M
;
_chemical_formula_sum "Si O2"
_cell_formula_units_Z 32
_cell_length_a 30.000000
_cell_length_b 9.000000
_cell_length_c 12.000000
_cell_angle_alpha 90.000000
_cell_angle_beta 90.000000
_cell_angle_gamma 90.000000
_cell_volume 3240.000000
_symmetry_space_group_name_H-M "C 2/M"
_symmetry_group_IT_number 12
_symmetry_cell_setting 'monoclinic'
loop_
_space_group_symop_operation_xyz
x,y,z
-x,y,-z
-x,-y,-z
x,-y,z
1/2+x,1/2+y,z
1/2-x,1/2+y,-z
1/2-x,1/2-y,-z
1/2+x,1/2-y,z
loop_
_atom_site_type_symbol
_atom_site_label
_atom_site_fract_x
_atom_site_fract_y
_atom_site_fract_z
Si Si1 0.553294 0.181019 0.736940
Si Si2 0.198540 0.827043 0.736625
Si Si3 0.457465 0.179026 0.779679
Si Si4 0.427622 0.177913 0.013359
Si Si5 0.284288 0.670443 0.800149
Si Si6 0.125030 0.171350 0.339190
Si Si7 0.368182 0.822952 0.424310
Si Si8 0.164797 0.824622 0.986453
O O1 0.502371 0.223122 0.716394
O O2 0.563948 0.235033 0.862079
O O3 0.588934 0.230743 0.646757
O O4 0.555529 0.000000 0.738754
O O5 0.249667 0.782243 0.747048
O O6 0.174074 0.725972 0.647430
O O7 0.192532 0.000000 0.709566
O O8 0.178055 0.798530 0.859117
O O9 0.414666 0.247905 0.724049
O O10 0.454476 0.000000 0.777158
O O11 0.458645 0.223953 0.910236
O O12 0.430918 0.000000 0.019642
O O13 0.377854 0.227567 0.983564
O O14 0.267207 0.500000 0.795069
O O15 0.330645 0.676572 0.734913
O O16 0.295600 0.707810 0.927881
O O17 0.133026 0.249452 0.456135
O O18 0.113304 0.000000 0.356734
O O19 0.370379 0.000000 0.434751
O O20 0.154047 0.000000 0.000457
#
# Coordination Sequence:
#
# PCOD9223348 Si02
#       8
#     8   8   8   8   8   8   8   8
#     4   9  19  36  59  89 120 153 192 238 288 341
#     4  11  23  38  61  91 120 149 189 240 291 346
#     4  10  20  36  61  90 119 152 194 240 288 342
#     4  10  18  32  59  90 119 152 191 235 284 343
#     4  10  22  40  61  84 117 157 192 233 288 348
#     4  11  24  42  61  83 116 154 197 245 291 340
#     4  11  23  41  63  84 114 155 199 242 288 343
#     4  10  20  36  58  87 122 154 185 231 290 348
#
# _framework density 9.8765429999999999
#
# number of rings (size 3 to 8) (size 9 to 14) (size 15 to 20)
#    0.000    1.750    2.500    1.875    0.000    4.500 
#    0.000    4.375    0.000    1.500    0.000    0.000 
#    0.000    0.000    0.000    0.000    0.000    0.000 
#
# Total GULP energy -178622.459582 kJ/mol
# GULP energy per Si atom -5581.951862 kJ/mol
# Density = 0.985406 g / cm^3
# Si number density = 9.876543 Si / 1000 Ang^3
#
#
#
# Elastic Constant Matrix: (Units=GPa)
#
#
# Indices 1 2 3 4 5 6 
#
# 1 -79.4753 -36.8463 -61.4614 0.0000 46.7353 0.0000
# 2 -36.8463 -13.0193 -2.9416 0.0000 13.1842 0.0000
# 3 -61.4614 -2.9416 48.1449 0.0000 28.7683 0.0000
# 4 0.0000 0.0000 0.0000 18.6712 0.0000 0.6998
# 5 46.7353 13.1842 28.7683 0.0000 -32.3613 0.0000
# 6 0.0000 0.0000 0.0000 0.6998 0.0000 18.1601
#
#
#
# Elastic Compliance Matrix: (Units=1/GPa)
#
#
# Indices 1 2 3 4 5 6 
#
# 1 0.099587 -0.176810 0.047958 0.000000 0.114422 0.000000
# 2 -0.176810 0.198882 -0.071448 0.000000 -0.237834 0.000000
# 3 0.047958 -0.071448 0.035029 0.000000 0.071292 0.000000
# 4 0.000000 0.000000 0.000000 0.053636 0.000000 -0.002067
# 5 0.114422 -0.237834 0.071292 0.000000 0.100826 0.000000
# 6 0.000000 0.000000 0.000000 -0.002067 0.000000 0.055145
#
#
# Mechanical properties :
#
#
# Convention : Reuss Voigt Hill
#
# Bulk Modulus (GPa) = -14.90304 -27.42758 -21.16531
# Shear Modulus (GPa) = 5.42690 4.68731 5.05710
#
# Velocity S-wave (km/s) = 1.65932 1.54211 1.60179
# Velocity P-wave (km/s) = 1.97229 3.27789 2.70504
#
# Compressibility (1/GPa) = -0.06710039
#
# Stress axis : x y z
#
# Youngs Moduli (GPa) = 10.04143 5.02812 28.54766
#
# Poissons Ratio (x) = 0.88902 -1.36910
# Poissons Ratio (y) = 1.77542 2.03968
# Poissons Ratio (z) = -0.48157 0.35925
#
# Static dielectric constant tensor:
#      x y z
#    x 1.713860 0.000000 -0.000180 
#    y 0.000000 1.659810 0.000000 
#    z -0.000180 0.000000 1.687390 
# 
# From -- ./inp_files/187476.got.cif
#   From: 2010.05.17/outbox.ucp.g08.bks.cvg/sg12_94_cif.got.tgz:187476.got - 2010.06.11 11:47:21.
