data_PCOD9223432
_publ_section_title
;
Structure prediction by ZEFSAII (Michael W. Deem and Ramdas Pophale) SiO2 
 PCOD9223432
Probable space group: C 2/M
;
_chemical_formula_sum "Si O2"
_cell_formula_units_Z 24
_cell_length_a 15.000000
_cell_length_b 21.000000
_cell_length_c 24.000000
_cell_angle_alpha 90.000000
_cell_angle_beta 20.000000
_cell_angle_gamma 90.000000
_cell_volume 2585.672284
_symmetry_space_group_name_H-M "C 2/M"
_symmetry_group_IT_number 12
_symmetry_cell_setting 'monoclinic'
loop_
_space_group_symop_operation_xyz
x,y,z
-x,y,-z
-x,-y,-z
x,-y,z
1/2+x,1/2+y,z
1/2-x,1/2+y,-z
1/2-x,1/2-y,-z
1/2+x,1/2-y,z
loop_
_atom_site_type_symbol
_atom_site_label
_atom_site_fract_x
_atom_site_fract_y
_atom_site_fract_z
Si Si1 0.108317 0.200192 0.816396
Si Si2 0.400536 0.894488 0.270914
Si Si3 0.513602 0.290812 0.342955
Si Si4 0.569146 0.246595 0.187767
Si Si5 0.015782 0.072706 0.396114
Si Si6 0.501711 0.572883 0.065628
O O1 0.311084 0.254006 0.715004
O O2 0.059750 0.203586 0.779091
O O3 0.158957 0.129438 0.810261
O O4 0.842800 0.223609 0.001828
O O5 0.402338 0.818875 0.283950
O O6 0.245080 0.926186 0.413028
O O7 0.246385 0.911107 0.304945
O O8 0.696916 0.918173 0.093243
O O9 0.250000 0.250000 0.500000
O O10 0.613256 0.276401 0.222114
O O11 0.499097 0.366093 0.364933
O O12 0.049010 0.000000 0.354682
O O13 0.417489 0.500000 0.125913
O O14 0.500000 0.583565 0.000000
#
# Coordination Sequence:
#
# PCOD9223432 Si02
#       6
#     8   8   8   8   8   8
#     4  10  21  38  57  82 116 150 193 239 286 338
#     4  10  18  37  58  85 115 150 192 244 296 343
#     4  12  23  37  59  86 117 153 194 239 286 354
#     4  10  20  37  61  84 111 155 193 236 288 343
#     4  11  22  35  57  87 121 152 188 245 299 344
#     4  10  20  34  57  86 115 149 194 241 292 345
#
# _framework density 9.2819190000000003
#
# number of rings (size 3 to 8) (size 9 to 14) (size 15 to 20)
#    0.000    1.500    3.333    4.500    0.000    0.667 
#    0.000    0.833    0.000    2.000    0.000    2.333 
#    0.000    0.000    0.000    0.000    0.000    0.000 
#
# Total GULP energy -133911.966019 kJ/mol
# GULP energy per Si atom -5579.665251 kJ/mol
# Density = 0.926079 g / cm^3
# Si number density = 9.281919 Si / 1000 Ang^3
#
#
#
# Elastic Constant Matrix: (Units=GPa)
#
#
# Indices 1 2 3 4 5 6 
#
# 1 35.9191 8.5592 -7.0101 -0.1709 -4.1259 -0.1261
# 2 8.5592 154.1549 -2.0155 0.0723 -7.7256 -0.0406
# 3 -7.0101 -2.0155 23.3249 -0.1016 -11.9065 0.1131
# 4 -0.1709 0.0723 -0.1016 20.3625 0.1234 4.0793
# 5 -4.1259 -7.7256 -11.9065 0.1234 12.0350 -0.0422
# 6 -0.1261 -0.0406 0.1131 4.0793 -0.0422 31.5479
#
#
#
# Elastic Compliance Matrix: (Units=1/GPa)
#
#
# Indices 1 2 3 4 5 6 
#
# 1 0.042074 0.001004 0.041260 0.000203 0.055886 0.000070
# 2 0.001004 0.007110 0.006913 -0.000056 0.011748 0.000011
# 3 0.041260 0.006913 0.132036 0.000099 0.149207 -0.000113
# 4 0.000203 -0.000056 0.000099 0.050421 -0.000408 -0.006520
# 5 0.055886 0.011748 0.149207 -0.000408 0.257410 0.000101
# 6 0.000070 0.000011 -0.000113 -0.006520 0.000101 0.032542
#
#
# Mechanical properties :
#
#
# Convention : Reuss Voigt Hill
#
# Bulk Modulus (GPa) = 3.57685 23.60736 13.59210
# Shear Modulus (GPa) = 9.68185 27.04678 18.36431
#
# Velocity S-wave (km/s) = 2.28621 3.82116 3.14865
# Velocity P-wave (km/s) = 2.98328 5.67563 4.53391
#
# Compressibility (1/GPa) = 0.27957558
#
# Stress axis : x y z
#
# Youngs Moduli (GPa) = 23.76751 140.63861 7.57368
#
# Poissons Ratio (x) = -0.14121 -0.31249
# Poissons Ratio (y) = -0.02386 -0.05236
# Poissons Ratio (z) = -0.98066 -0.97223
#
# Static dielectric constant tensor:
#      x y z
#    x 1.669810 -0.000010 -0.019540 
#    y -0.000010 1.667070 0.000260 
#    z -0.019540 0.000260 1.688380 
# 
# From -- ./inp_files/147253.got.cif
#   From: 2010.05.17/outbox.ucp.g08.bks.cvg/sg12_74_cif.got.tgz:147253.got - 2010.06.11 11:47:21.
