data_PCOD9223935
_publ_section_title
;
Structure prediction by ZEFSAII (Michael W. Deem and Ramdas Pophale) SiO2 
 PCOD9223935
Probable space group: C 2/M
;
_chemical_formula_sum "Si O2"
_cell_formula_units_Z 32
_cell_length_a 30.000000
_cell_length_b 9.000000
_cell_length_c 18.000000
_cell_angle_alpha 90.000000
_cell_angle_beta 140.000000
_cell_angle_gamma 90.000000
_cell_volume 3123.947783
_symmetry_space_group_name_H-M "C 2/M"
_symmetry_group_IT_number 12
_symmetry_cell_setting 'monoclinic'
loop_
_space_group_symop_operation_xyz
x,y,z
-x,y,-z
-x,-y,-z
x,-y,z
1/2+x,1/2+y,z
1/2-x,1/2+y,-z
1/2-x,1/2-y,-z
1/2+x,1/2-y,z
loop_
_atom_site_type_symbol
_atom_site_label
_atom_site_fract_x
_atom_site_fract_y
_atom_site_fract_z
Si Si1 0.943009 0.674732 0.608449
Si Si2 0.299127 0.821013 0.227933
Si Si3 0.052910 0.327984 0.213381
Si Si4 0.078573 0.173899 0.015446
Si Si5 0.835787 0.174214 0.028238
Si Si6 0.331934 0.323988 0.723891
Si Si7 0.586767 0.178575 0.735857
Si Si8 0.799513 0.175789 0.387553
O O1 0.928716 0.500000 0.574834
O O2 0.965417 0.686212 0.723198
O O3 0.874534 0.767054 0.507265
O O4 0.007505 0.727330 0.641508
O O5 0.241862 0.779893 0.093161
O O6 0.373439 0.781492 0.288512
O O7 0.285586 0.741898 0.287880
O O8 0.294150 0.000000 0.232546
O O9 0.067533 0.500000 0.216397
O O10 0.119931 0.230713 0.281052
O O11 0.989895 0.270150 0.082837
O O12 0.058905 0.000000 0.998115
O O13 0.122000 0.189506 0.994945
O O14 0.125371 0.213309 0.145921
O O15 0.835295 0.000000 0.047484
O O16 0.870895 0.262284 0.139395
O O17 0.321573 0.500000 0.709321
O O18 0.259130 0.242053 0.634050
O O19 0.586681 0.000000 0.740289
O O20 0.795961 0.000000 0.381772
#
# Coordination Sequence:
#
# PCOD9223935 Si02
#       8
#     8   8   8   8   8   8   8   8
#     4  10  23  43  62  84 119 161 202 248 301 356
#     4  10  21  40  63  89 124 163 200 241 299 365
#     4  11  23  39  62  93 125 157 200 250 297 350
#     4  10  20  36  60  89 122 164 200 235 297 364
#     4  10  19  34  59  90 125 161 197 241 298 358
#     4  11  23  42  65  89 123 162 199 241 299 366
#     4  10  21  38  63  92 121 160 205 245 295 356
#     4  12  26  42  63  89 116 153 205 257 303 352
#
# _framework density 10.243449
#
# number of rings (size 3 to 8) (size 9 to 14) (size 15 to 20)
#    0.000    1.500    2.500    2.625    0.000    6.000 
#    0.000    2.500    0.000    0.000    0.000    0.000 
#    0.000    0.000    0.000    0.000    0.000    0.000 
#
# Total GULP energy -178903.624021 kJ/mol
# GULP energy per Si atom -5590.738251 kJ/mol
# Density = 1.022013 g / cm^3
# Si number density = 10.243449 Si / 1000 Ang^3
#
#
#
# Elastic Constant Matrix: (Units=GPa)
#
#
# Indices 1 2 3 4 5 6 
#
# 1 70.8263 27.1217 3.2175 0.0000 32.4981 0.0000
# 2 27.1217 40.2994 24.0711 0.0000 21.6306 0.0000
# 3 3.2175 24.0711 42.1601 0.0000 31.2670 0.0000
# 4 0.0000 0.0000 0.0000 10.6925 0.0000 -21.6671
# 5 32.4981 21.6306 31.2670 0.0000 30.7006 0.0000
# 6 0.0000 0.0000 0.0000 -21.6671 0.0000 3.2101
#
#
#
# Elastic Compliance Matrix: (Units=1/GPa)
#
#
# Indices 1 2 3 4 5 6 
#
# 1 -0.018420 0.007574 -0.054852 0.000000 0.070026 0.000000
# 2 0.007574 0.037445 0.014527 0.000000 -0.049195 0.000000
# 3 -0.054852 0.014527 -0.064813 0.000000 0.113836 0.000000
# 4 0.000000 0.000000 0.000000 -0.007377 0.000000 -0.049793
# 5 0.070026 -0.049195 0.113836 0.000000 -0.122829 0.000000
# 6 0.000000 0.000000 0.000000 -0.049793 0.000000 -0.024573
#
#
# Mechanical properties :
#
#
# Convention : Reuss Voigt Hill
#
# Bulk Modulus (GPa) = -8.98558 29.12293 10.06867
# Shear Modulus (GPa) = -29.04249 15.51234 -6.76507
#
# Velocity S-wave (km/s) = -3.76920 2.75468 -1.81915
# Velocity P-wave (km/s) = 4.83095 4.93599 0.71620
#
# Compressibility (1/GPa) = -0.11128944
#
# Stress axis : x y z
#
# Youngs Moduli (GPa) = -54.28792 26.70567 -15.42900
#
# Poissons Ratio (x) = -0.20226 -0.84630
# Poissons Ratio (y) = 0.41116 0.22414
# Poissons Ratio (z) = -2.97778 -0.38796
#
# Static dielectric constant tensor:
#      x y z
#    x 1.752200 0.000000 0.028290 
#    y 0.000000 1.679580 0.000000 
#    z 0.028290 0.000000 1.707650 
# 
# From -- ./inp_files/295640.got.cif
#   From: 2010.05.17/outbox.ucp.g08.bks.cvg/sg12_148_cif.got.tgz:295640.got - 2010.06.11 11:47:21.
