data_PCOD9223252
_publ_section_title
;
Structure prediction by ZEFSAII (Michael W. Deem and Ramdas Pophale) SiO2 
 PCOD9223252
Probable space group: C 2/M
;
_chemical_formula_sum "Si O2"
_cell_formula_units_Z 32
_cell_length_a 27.000000
_cell_length_b 9.000000
_cell_length_c 21.000000
_cell_angle_alpha 90.000000
_cell_angle_beta 130.000000
_cell_angle_gamma 90.000000
_cell_volume 3909.124793
_symmetry_space_group_name_H-M "C 2/M"
_symmetry_group_IT_number 12
_symmetry_cell_setting 'monoclinic'
loop_
_space_group_symop_operation_xyz
x,y,z
-x,y,-z
-x,-y,-z
x,-y,z
1/2+x,1/2+y,z
1/2-x,1/2+y,-z
1/2-x,1/2-y,-z
1/2+x,1/2-y,z
loop_
_atom_site_type_symbol
_atom_site_label
_atom_site_fract_x
_atom_site_fract_y
_atom_site_fract_z
Si Si1 0.801085 0.324885 0.318384
Si Si2 0.653937 0.671949 0.396861
Si Si3 0.024795 0.822784 0.353495
Si Si4 0.256929 0.669639 0.404999
Si Si5 0.433529 0.829930 0.482912
Si Si6 0.309029 0.678860 0.008701
Si Si7 0.742394 0.322348 0.843046
Si Si8 0.388454 0.679827 0.190108
O O1 0.799532 0.500000 0.302662
O O2 0.770973 0.285521 0.361387
O O3 0.875685 0.274081 0.390040
O O4 0.764181 0.235714 0.233569
O O5 0.662945 0.500000 0.383546
O O6 0.578845 0.702955 0.344744
O O7 0.689796 0.683043 0.495022
O O8 0.689418 0.786913 0.380990
O O9 0.052810 0.757553 0.441617
O O10 0.955075 0.762594 0.274591
O O11 0.019661 0.000000 0.357966
O O12 0.258680 0.500000 0.383054
O O13 0.500000 0.829362 0.500000
O O14 0.416081 0.000000 0.485234
O O15 0.302954 0.500000 0.002272
O O16 0.371721 0.718514 0.103023
O O17 0.250000 0.750000 0.000000
O O18 0.299219 0.746426 0.930869
O O19 0.748191 0.500000 0.851307
O O20 0.673836 0.277995 0.819366
O O21 0.391677 0.500000 0.194579
#
# Coordination Sequence:
#
# PCOD9223252 Si02
#       8
#     8   8   8   8   8   8   8   8
#     4  11  21  32  47  67  94 126 159 195 235 278
#     4   9  18  31  48  69  91 118 154 196 238 277
#     4  10  18  31  49  69  92 122 160 194 228 272
#     4  10  19  32  49  68  90 119 156 197 238 278
#     4  10  21  33  43  62  95 130 160 190 227 271
#     4   9  16  29  47  68  94 124 159 196 237 275
#     4  10  19  31  47  69  96 126 162 197 234 277
#     4   8  16  29  47  70  95 124 157 195 230 271
#
# _framework density 8.1859760000000001
#
# number of rings (size 3 to 8) (size 9 to 14) (size 15 to 20)
#    0.000    2.375    1.250    3.000    0.000    1.750 
#    0.000    3.125    0.000    0.000    0.000    0.875 
#    0.000    7.000    0.000    0.000    0.000    0.000 
#
# Total GULP energy -178214.156049 kJ/mol
# GULP energy per Si atom -5569.192377 kJ/mol
# Density = 0.816734 g / cm^3
# Si number density = 8.185976 Si / 1000 Ang^3
#
#
#
# Elastic Constant Matrix: (Units=GPa)
#
#
# Indices 1 2 3 4 5 6 
#
# 1 18.0798 9.0051 -10.8094 0.0000 -1.8951 0.0000
# 2 9.0051 24.8755 -0.5467 0.0000 -0.7415 0.0000
# 3 -10.8094 -0.5467 -6.9722 0.0000 -11.4320 0.0000
# 4 0.0000 0.0000 0.0000 28.1188 0.0000 4.2966
# 5 -1.8951 -0.7415 -11.4320 0.0000 9.4360 0.0000
# 6 0.0000 0.0000 0.0000 4.2966 0.0000 44.4015
#
#
#
# Elastic Compliance Matrix: (Units=1/GPa)
#
#
# Indices 1 2 3 4 5 6 
#
# 1 0.045208 -0.017718 -0.027224 0.000000 -0.025295 0.000000
# 2 -0.017718 0.047076 0.007884 0.000000 0.009693 0.000000
# 3 -0.027224 0.007884 -0.031438 0.000000 -0.042936 0.000000
# 4 0.000000 0.000000 0.000000 0.036097 0.000000 -0.003493
# 5 -0.025295 0.009693 -0.042936 0.000000 0.049640 0.000000
# 6 0.000000 0.000000 0.000000 -0.003493 0.000000 0.022860
#
#
# Mechanical properties :
#
#
# Convention : Reuss Voigt Hill
#
# Bulk Modulus (GPa) = -75.36602 3.47567 -35.94517
# Shear Modulus (GPa) = 20.90880 18.94688 19.92784
#
# Velocity S-wave (km/s) = 3.57755 3.40557 3.49262
# Velocity P-wave (km/s) = 5.39152 4.19421 2.39552
#
# Compressibility (1/GPa) = -0.01326858
#
# Stress axis : x y z
#
# Youngs Moduli (GPa) = 22.12021 21.24212 -31.80825
#
# Poissons Ratio (x) = 0.37636 -0.86594
# Poissons Ratio (y) = 0.39192 0.25079
# Poissons Ratio (z) = 0.60219 -0.16748
#
# Static dielectric constant tensor:
#      x y z
#    x 1.571340 0.000000 0.001390 
#    y 0.000000 1.561310 0.000000 
#    z 0.001390 0.000000 1.569900 
# 
# From -- ./inp_files/326914.got.cif
#   From: 2010.05.17/outbox.ucp.g08.bks.cvg/sg12_164_cif.got.tgz:326914.got - 2010.06.11 11:47:21.
