data_PCOD9223695
_publ_section_title
;
Structure prediction by ZEFSAII (Michael W. Deem and Ramdas Pophale) SiO2 
 PCOD9223695
Probable space group: C 2/M
;
_chemical_formula_sum "Si O2"
_cell_formula_units_Z 28
_cell_length_a 9.000000
_cell_length_b 27.000000
_cell_length_c 15.000000
_cell_angle_alpha 90.000000
_cell_angle_beta 120.000000
_cell_angle_gamma 90.000000
_cell_volume 3156.662597
_symmetry_space_group_name_H-M "C 2/M"
_symmetry_group_IT_number 12
_symmetry_cell_setting 'monoclinic'
loop_
_space_group_symop_operation_xyz
x,y,z
-x,y,-z
-x,-y,-z
x,-y,z
1/2+x,1/2+y,z
1/2-x,1/2+y,-z
1/2-x,1/2-y,-z
1/2+x,1/2-y,z
loop_
_atom_site_type_symbol
_atom_site_label
_atom_site_fract_x
_atom_site_fract_y
_atom_site_fract_z
Si Si1 0.033104 0.304931 0.206101
Si Si2 0.318205 0.262426 0.424429
Si Si3 0.867185 0.779824 0.880922
Si Si4 0.521230 0.893782 0.314282
Si Si5 0.779350 0.000000 0.576646
Si Si6 0.970319 0.500000 0.340381
Si Si7 0.777765 0.164831 0.684409
Si Si8 0.638264 0.606423 0.463264
O O1 0.834177 0.288057 0.157135
O O2 0.167420 0.287636 0.323150
O O3 0.101284 0.277063 0.139357
O O4 0.037335 0.363157 0.227750
O O5 0.500000 0.287354 0.500000
O O6 0.250000 0.250000 0.500000
O O7 0.343367 0.210791 0.380344
O O8 0.894921 0.812969 0.799213
O O9 0.000000 0.792040 0.000000
O O10 0.497395 0.951350 0.291717
O O11 0.350299 0.875310 0.313482
O O12 0.678891 0.886690 0.431061
O O13 0.873173 0.051233 0.582174
O O14 0.618491 0.000000 0.460210
O O15 0.703651 0.000000 0.653746
O O16 0.868871 0.143936 0.623156
O O17 0.500000 0.609747 0.500000
#
# Coordination Sequence:
#
# PCOD9223695 Si02
#       8
#     8   8   8   8   4   4   8   8
#     4  10  21  34  53  79 105 137 183 219 267 322
#     4  11  20  31  46  70 107 142 165 205 252 312
#     4  10  21  38  56  75 103 139 184 241 273 307
#     4  10  19  33  50  74 102 140 181 211 248 324
#     4   9  17  30  46  70 102 142 181 209 249 305
#     4   9  16  30  54  68  95 144 183 207 249 302
#     4  10  20  33  50  72 100 141 186 212 254 319
#     4  11  20  29  46  76 111 142 171 215 259 311
#
# _framework density 8.8701279999999993
#
# number of rings (size 3 to 8) (size 9 to 14) (size 15 to 20)
#    0.000    1.857    1.429    5.357    0.000    4.571 
#    0.000    0.000    0.000    0.000    0.000   13.000 
#    0.000    0.000    0.000    1.000    0.000    0.000 
#
# Total GULP energy -155978.098940 kJ/mol
# GULP energy per Si atom -5570.646391 kJ/mol
# Density = 0.884994 g / cm^3
# Si number density = 8.870128 Si / 1000 Ang^3
#
#
#
# Elastic Constant Matrix: (Units=GPa)
#
#
# Indices 1 2 3 4 5 6 
#
# 1 56.8884 24.0350 32.6740 0.0000 7.8566 0.0000
# 2 24.0350 124.2728 37.7332 0.0000 -2.6171 0.0000
# 3 32.6740 37.7332 108.0816 0.0000 9.6800 0.0000
# 4 0.0000 0.0000 0.0000 17.0402 0.0000 -9.1566
# 5 7.8566 -2.6171 9.6800 0.0000 20.8787 0.0000
# 6 0.0000 0.0000 0.0000 -9.1566 0.0000 11.9173
#
#
#
# Elastic Compliance Matrix: (Units=1/GPa)
#
#
# Indices 1 2 3 4 5 6 
#
# 1 0.022740 -0.002935 -0.005269 0.000000 -0.006482 0.000000
# 2 -0.002935 0.009528 -0.002760 0.000000 0.003578 0.000000
# 3 -0.005269 -0.002760 0.012167 0.000000 -0.004004 0.000000
# 4 0.000000 0.000000 0.000000 0.099953 0.000000 0.076799
# 5 -0.006482 0.003578 -0.004004 0.000000 0.052640 0.000000
# 6 0.000000 0.000000 0.000000 0.076799 0.000000 0.142920
#
#
# Mechanical properties :
#
#
# Convention : Reuss Voigt Hill
#
# Bulk Modulus (GPa) = 44.42938 53.12523 48.77731
# Shear Modulus (GPa) = 13.53632 22.95395 18.24513
#
# Velocity S-wave (km/s) = 2.76529 3.60097 3.21044
# Velocity P-wave (km/s) = 5.94092 6.87753 6.42631
#
# Compressibility (1/GPa) = 0.02250763
#
# Stress axis : x y z
#
# Youngs Moduli (GPa) = 43.97589 104.95811 82.18757
#
# Poissons Ratio (x) = 0.30800 0.43308
# Poissons Ratio (y) = 0.12905 0.22680
# Poissons Ratio (z) = 0.23173 0.28964
#
# Static dielectric constant tensor:
#      x y z
#    x 1.695330 0.000000 0.022240 
#    y 0.000000 1.692030 0.000000 
#    z 0.022240 0.000000 1.591820 
# 
# From -- ./inp_files/199963.got.cif
#   From: 2010.05.17/outbox.ucp.g08.bks.cvg/sg12_100_cif.got.tgz:199963.got - 2010.06.11 11:47:21.
