data_PCOD9223854
_publ_section_title
;
Structure prediction by ZEFSAII (Michael W. Deem and Ramdas Pophale) SiO2 
 PCOD9223854
Probable space group: C 2/M
;
_chemical_formula_sum "Si O2"
_cell_formula_units_Z 28
_cell_length_a 15.000000
_cell_length_b 9.000000
_cell_length_c 27.000000
_cell_angle_alpha 90.000000
_cell_angle_beta 120.000000
_cell_angle_gamma 90.000000
_cell_volume 3156.662597
_symmetry_space_group_name_H-M "C 2/M"
_symmetry_group_IT_number 12
_symmetry_cell_setting 'monoclinic'
loop_
_space_group_symop_operation_xyz
x,y,z
-x,y,-z
-x,-y,-z
x,-y,z
1/2+x,1/2+y,z
1/2-x,1/2+y,-z
1/2-x,1/2-y,-z
1/2+x,1/2-y,z
loop_
_atom_site_type_symbol
_atom_site_label
_atom_site_fract_x
_atom_site_fract_y
_atom_site_fract_z
Si Si1 0.627133 0.323908 0.641136
Si Si2 0.497346 0.320542 0.154565
Si Si3 0.214217 0.820228 0.850322
Si Si4 0.228430 0.178617 0.238527
Si Si5 0.896724 0.824856 0.567122
Si Si6 0.677489 0.175090 0.552449
Si Si7 0.072095 0.821221 0.066715
O O1 0.645365 0.500000 0.650688
O O2 0.705242 0.234849 0.697202
O O3 0.507682 0.294038 0.621343
O O4 0.641815 0.270577 0.588967
O O5 0.492398 0.500000 0.154135
O O6 0.391988 0.270940 0.152000
O O7 0.607249 0.278807 0.209615
O O8 0.513674 0.277384 0.101488
O O9 0.225393 0.753076 0.798256
O O10 0.317869 0.760055 0.905492
O O11 0.215658 0.000000 0.848680
O O12 0.232920 0.000000 0.235075
O O13 0.799115 0.800760 0.575527
O O14 0.879234 0.727898 0.513193
O O15 0.895183 0.000000 0.552509
O O16 0.660104 0.000000 0.556197
O O17 0.090172 0.000000 0.074237
O O18 0.000000 0.790055 0.000000
#
# Coordination Sequence:
#
# PCOD9223854 Si02
#       7
#     8   8   8   8   8   8   8
#     4  11  22  36  54  77 105 136 170 210 261 312
#     4   8  17  34  54  74 102 140 172 207 260 309
#     4  10  19  34  55  77 103 136 174 214 259 305
#     4  10  21  38  55  74 102 135 174 215 257 307
#     4   9  20  37  54  74 105 140 169 206 261 316
#     4  10  20  35  55  78 103 134 173 213 255 308
#     4   9  18  34  54  78 110 144 176 210 251 302
#
# _framework density 8.8701279999999993
#
# number of rings (size 3 to 8) (size 9 to 14) (size 15 to 20)
#    0.000    2.429    0.000    3.000    0.000    5.429 
#    0.000   12.857    0.000    0.000    0.000    0.000 
#    0.000    0.000    0.000    0.000    0.000    0.000 
#
# Total GULP energy -156184.046304 kJ/mol
# GULP energy per Si atom -5578.001654 kJ/mol
# Density = 0.884994 g / cm^3
# Si number density = 8.870128 Si / 1000 Ang^3
#
#
#
# Elastic Constant Matrix: (Units=GPa)
#
#
# Indices 1 2 3 4 5 6 
#
# 1 126.7847 28.9518 24.3080 0.0000 18.6425 0.0000
# 2 28.9518 45.8409 10.8171 0.0000 9.1034 0.0000
# 3 24.3080 10.8171 22.6465 0.0000 17.6204 0.0000
# 4 0.0000 0.0000 0.0000 32.3529 0.0000 1.5053
# 5 18.6425 9.1034 17.6204 0.0000 16.7225 0.0000
# 6 0.0000 0.0000 0.0000 1.5053 0.0000 27.9013
#
#
#
# Elastic Compliance Matrix: (Units=1/GPa)
#
#
# Indices 1 2 3 4 5 6 
#
# 1 0.010730 -0.004609 -0.010884 0.000000 0.002015 0.000000
# 2 -0.004609 0.026660 -0.002734 0.000000 -0.006494 0.000000
# 3 -0.010884 -0.002734 0.258358 0.000000 -0.258608 0.000000
# 4 0.000000 0.000000 0.000000 0.030987 0.000000 -0.001672
# 5 0.002015 -0.006494 -0.258608 0.000000 0.333582 0.000000
# 6 0.000000 0.000000 0.000000 -0.001672 0.000000 0.035931
#
#
# Mechanical properties :
#
#
# Convention : Reuss Voigt Hill
#
# Bulk Modulus (GPa) = 3.85662 35.93621 19.89641
# Shear Modulus (GPa) = 6.10401 24.14168 15.12284
#
# Velocity S-wave (km/s) = 1.85694 3.69296 2.92286
# Velocity P-wave (km/s) = 2.60313 6.20361 4.75716
#
# Compressibility (1/GPa) = 0.25929436
#
# Stress axis : x y z
#
# Youngs Moduli (GPa) = 93.19420 37.50899 3.87060
#
# Poissons Ratio (x) = 0.17287 0.04213
# Poissons Ratio (y) = 0.42952 0.01058
# Poissons Ratio (z) = 1.01432 0.10257
#
# Static dielectric constant tensor:
#      x y z
#    x 1.605850 0.000000 0.010150 
#    y 0.000000 1.593230 0.000000 
#    z 0.010150 0.000000 1.602060 
# 
# From -- ./inp_files/359643.got.cif
#   From: 2010.05.17/outbox.ucp.g08.bks.cvg/sg12_180_cif.got.tgz:359643.got - 2010.06.11 11:47:21.
