data_PCOD9223471
_publ_section_title
;
Structure prediction by ZEFSAII (Michael W. Deem and Ramdas Pophale) SiO2 
 PCOD9223471
Probable space group: C 2/M
;
_chemical_formula_sum "Si O2"
_cell_formula_units_Z 24
_cell_length_a 21.000000
_cell_length_b 9.000000
_cell_length_c 30.000000
_cell_angle_alpha 90.000000
_cell_angle_beta 30.000000
_cell_angle_gamma 90.000000
_cell_volume 2835.000000
_symmetry_space_group_name_H-M "C 2/M"
_symmetry_group_IT_number 12
_symmetry_cell_setting 'monoclinic'
loop_
_space_group_symop_operation_xyz
x,y,z
-x,y,-z
-x,-y,-z
x,-y,z
1/2+x,1/2+y,z
1/2-x,1/2+y,-z
1/2-x,1/2-y,-z
1/2+x,1/2-y,z
loop_
_atom_site_type_symbol
_atom_site_label
_atom_site_fract_x
_atom_site_fract_y
_atom_site_fract_z
Si Si1 0.641442 0.678930 0.429554
Si Si2 0.724953 0.177117 0.562162
Si Si3 0.384821 0.678673 0.237284
Si Si4 0.699805 0.680878 0.898256
Si Si5 0.057737 0.180728 0.897509
Si Si6 0.472385 0.179594 0.769400
O O1 0.500000 0.717737 0.500000
O O2 0.657678 0.500000 0.415506
O O3 0.672364 0.718168 0.462100
O O4 0.749034 0.759145 0.335481
O O5 0.750000 0.250000 0.500000
O O6 0.586823 0.216628 0.666044
O O7 0.728360 0.000000 0.555055
O O8 0.385764 0.500000 0.238971
O O9 0.411791 0.728236 0.170621
O O10 0.489275 0.744991 0.207555
O O11 0.702236 0.500000 0.896626
O O12 0.660361 0.728439 0.872390
O O13 0.836575 0.729290 0.832854
O O14 0.582207 0.726539 0.000947
O O15 0.058081 0.000000 0.897624
O O16 0.472008 0.000000 0.775048
#
# Coordination Sequence:
#
# PCOD9223471 Si02
#       6
#     8   8   8   8   8   8
#     4   9  19  36  53  68  91 125 161 191 225 278
#     4   9  18  31  47  68  92 119 153 191 230 273
#     4  10  19  30  47  73 100 121 149 194 239 275
#     4   8  14  28  48  67  92 126 160 193 229 273
#     4   8  15  27  45  71  97 121 155 197 235 271
#     4   9  18  32  49  68  92 126 162 190 225 280
#
# _framework density 8.4656079999999996
#
# number of rings (size 3 to 8) (size 9 to 14) (size 15 to 20)
#    0.000    3.167    0.000    2.500    0.000    5.000 
#    0.000    1.667    0.000    3.000    0.000    5.833 
#    0.000    0.000    0.000    0.000    0.000    0.000 
#
# Total GULP energy -133678.632444 kJ/mol
# GULP energy per Si atom -5569.943019 kJ/mol
# Density = 0.844634 g / cm^3
# Si number density = 8.465608 Si / 1000 Ang^3
#
#
#
# Elastic Constant Matrix: (Units=GPa)
#
#
# Indices 1 2 3 4 5 6 
#
# 1 200.5778 37.4986 135.1178 0.0001 -2.1584 0.0000
# 2 37.4986 7.7790 26.8294 0.0000 1.0303 0.0001
# 3 135.1178 26.8294 96.6452 0.0000 -0.6049 -0.0001
# 4 0.0001 0.0000 0.0000 14.5452 -0.0001 0.1815
# 5 -2.1584 1.0303 -0.6049 -0.0001 41.7983 0.0001
# 6 0.0000 0.0001 -0.0001 0.1815 0.0001 22.0441
#
#
#
# Elastic Compliance Matrix: (Units=1/GPa)
#
#
# Indices 1 2 3 4 5 6 
#
# 1 0.085995 -0.007690 -0.118075 0.000000 0.002921 -0.000001
# 2 -0.007690 3.372456 -0.926073 0.000002 -0.096925 -0.000019
# 3 -0.118075 -0.926073 0.432653 0.000000 0.022990 0.000006
# 4 0.000000 0.000002 0.000000 0.068758 0.000000 -0.000566
# 5 0.002921 -0.096925 0.022990 0.000000 0.026797 0.000000
# 6 -0.000001 -0.000019 0.000006 -0.000566 0.000000 0.045368
#
#
# Mechanical properties :
#
#
# Convention : Reuss Voigt Hill
#
# Bulk Modulus (GPa) = 0.55946 78.21040 39.38493
# Shear Modulus (GPa) = 0.74278 22.71460 11.72869
#
# Velocity S-wave (km/s) = 0.66306 3.66673 2.63482
# Velocity P-wave (km/s) = 0.95779 8.01373 5.70689
#
# Compressibility (1/GPa) = 1.78742893
#
# Stress axis : x y z
#
# Youngs Moduli (GPa) = 11.62860 0.29652 2.31132
#
# Poissons Ratio (x) = 0.00228 0.27291
# Poissons Ratio (y) = 0.08943 2.14045
# Poissons Ratio (z) = 1.37304 0.27460
#
# Static dielectric constant tensor:
#      x y z
#    x 1.570700 0.000000 -0.001380 
#    y 0.000000 1.565730 0.000000 
#    z -0.001380 0.000000 1.554110 
# 
# From -- ./inp_files/249355.got.cif
#   From: 2010.05.17/outbox.ucp.g08.bks.cvg/sg12_125_cif.got.tgz:249355.got - 2010.06.11 11:47:21.
