data_PCOD9223501
_publ_section_title
;
Structure prediction by ZEFSAII (Michael W. Deem and Ramdas Pophale) SiO2 
 PCOD9223501
Probable space group: C 2/M
;
_chemical_formula_sum "Si O2"
_cell_formula_units_Z 32
_cell_length_a 30.000000
_cell_length_b 9.000000
_cell_length_c 15.000000
_cell_angle_alpha 90.000000
_cell_angle_beta 100.000000
_cell_angle_gamma 90.000000
_cell_volume 3988.471400
_symmetry_space_group_name_H-M "C 2/M"
_symmetry_group_IT_number 12
_symmetry_cell_setting 'monoclinic'
loop_
_space_group_symop_operation_xyz
x,y,z
-x,y,-z
-x,-y,-z
x,-y,z
1/2+x,1/2+y,z
1/2-x,1/2+y,-z
1/2-x,1/2-y,-z
1/2+x,1/2-y,z
loop_
_atom_site_type_symbol
_atom_site_label
_atom_site_fract_x
_atom_site_fract_y
_atom_site_fract_z
Si Si1 0.398120 0.325829 0.448155
Si Si2 0.196343 0.320813 0.084115
Si Si3 0.346374 0.179637 0.741401
Si Si4 0.479506 0.830955 0.392479
Si Si5 0.073796 0.679263 0.356661
Si Si6 0.231812 0.173784 0.402677
Si Si7 0.204055 0.678658 0.887147
Si Si8 0.678818 0.827839 0.682590
O O1 0.401566 0.500000 0.463603
O O2 0.436387 0.271831 0.391417
O O3 0.404778 0.245603 0.545599
O O4 0.351390 0.276989 0.388439
O O5 0.198238 0.500000 0.088684
O O6 0.167310 0.273322 0.161738
O O7 0.247040 0.255578 0.106527
O O8 0.182506 0.281616 0.976423
O O9 0.396040 0.219805 0.718987
O O10 0.310927 0.245989 0.657585
O O11 0.343154 0.000000 0.738177
O O12 0.500000 0.836740 0.500000
O O13 0.520532 0.778826 0.343258
O O14 0.466377 0.000000 0.363860
O O15 0.074530 0.500000 0.365082
O O16 0.250000 0.250000 0.500000
O O17 0.270915 0.179574 0.340834
O O18 0.221849 0.000000 0.417458
O O19 0.210789 0.500000 0.889479
O O20 0.177726 0.713502 0.786634
O O21 0.663578 0.000000 0.668117
#
# Coordination Sequence:
#
# PCOD9223501 Si02
#       8
#     8   8   8   8   8   8   8   8
#     4  11  21  30  45  69  93 116 150 195 232 261
#     4   9  17  29  48  70  91 114 146 192 235 265
#     4  10  19  31  47  69  94 120 150 186 226 267
#     4   8  15  30  49  65  86 119 152 181 221 273
#     4   9  18  32  48  66  92 125 154 178 217 276
#     4  11  22  33  44  61  89 126 161 189 218 260
#     4   9  17  31  48  66  88 118 153 188 228 272
#     4  10  20  33  46  61  88 125 158 184 219 272
#
# _framework density 8.0231239999999993
#
# number of rings (size 3 to 8) (size 9 to 14) (size 15 to 20)
#    0.000    2.375    1.250    3.000    0.000    7.250 
#    0.000    0.000    0.000    0.000    0.000    0.875 
#    0.000    7.000    0.000    0.000    0.000    0.000 
#
# Total GULP energy -178213.347176 kJ/mol
# GULP energy per Si atom -5569.167099 kJ/mol
# Density = 0.800486 g / cm^3
# Si number density = 8.023124 Si / 1000 Ang^3
#
#
#
# Elastic Constant Matrix: (Units=GPa)
#
#
# Indices 1 2 3 4 5 6 
#
# 1 62.9956 10.3928 9.8452 0.0000 -28.6727 0.0000
# 2 10.3928 18.0439 7.1211 0.0000 -5.1376 0.0000
# 3 9.8452 7.1211 72.4472 0.0000 -29.2726 0.0000
# 4 0.0000 0.0000 0.0000 16.6027 0.0000 -0.0836
# 5 -28.6727 -5.1376 -29.2726 0.0000 28.5251 0.0000
# 6 0.0000 0.0000 0.0000 -0.0836 0.0000 17.4654
#
#
#
# Elastic Compliance Matrix: (Units=1/GPa)
#
#
# Indices 1 2 3 4 5 6 
#
# 1 0.043546 -0.015545 0.020782 0.000000 0.062298 0.000000
# 2 -0.015545 0.064242 -0.009978 0.000000 -0.014294 0.000000
# 3 0.020782 -0.009978 0.033611 0.000000 0.053584 0.000000
# 4 0.000000 0.000000 0.000000 0.060232 0.000000 0.000288
# 5 0.062298 -0.014294 0.053584 0.000000 0.150091 0.000000
# 6 0.000000 0.000000 0.000000 0.000288 0.000000 0.057257
#
#
# Mechanical properties :
#
#
# Convention : Reuss Voigt Hill
#
# Bulk Modulus (GPa) = 7.58051 23.13388 15.35719
# Shear Modulus (GPa) = 10.81239 20.92717 15.86978
#
# Velocity S-wave (km/s) = 2.59863 3.61526 3.14825
# Velocity P-wave (km/s) = 3.70652 5.64580 4.77563
#
# Compressibility (1/GPa) = 0.13191729
#
# Stress axis : x y z
#
# Youngs Moduli (GPa) = 22.96422 15.56623 29.75255
#
# Poissons Ratio (x) = 0.24198 -0.61832
# Poissons Ratio (y) = 0.35698 0.29686
# Poissons Ratio (z) = -0.47725 0.15532
#
# Static dielectric constant tensor:
#      x y z
#    x 1.567780 0.000000 -0.019470 
#    y 0.000000 1.544070 0.000000 
#    z -0.019470 0.000000 1.539990 
# 
# From -- ./inp_files/248450.got.cif
#   From: 2010.05.17/outbox.ucp.g08.bks.cvg/sg12_125_cif.got.tgz:248450.got - 2010.06.11 11:47:21.
