data_PCOD9223079
_publ_section_title
;
Structure prediction by ZEFSAII (Michael W. Deem and Ramdas Pophale) SiO2 
 PCOD9223079
Probable space group: C 2/M
;
_chemical_formula_sum "Si O2"
_cell_formula_units_Z 56
_cell_length_a 25.036147
_cell_length_b 9.392467
_cell_length_c 18.150183
_cell_angle_alpha 90.000000
_cell_angle_beta 116.963539
_cell_angle_gamma 90.000000
_cell_volume 3804.081121
_symmetry_space_group_name_H-M "C 2/M"
_symmetry_group_IT_number 12
_symmetry_cell_setting 'monoclinic'
loop_
_space_group_symop_operation_xyz
x,y,z
-x,y,-z
-x,-y,-z
x,-y,z
1/2+x,1/2+y,z
1/2-x,1/2+y,-z
1/2-x,1/2-y,-z
1/2+x,1/2-y,z
loop_
_atom_site_type_symbol
_atom_site_label
_atom_site_fract_x
_atom_site_fract_y
_atom_site_fract_z
Si Si1 0.662054 0.170151 0.982734
Si Si2 0.167144 0.164118 0.394529
Si Si3 0.568611 0.173491 0.047384
Si Si4 0.810366 0.664068 0.449289
Si Si5 0.205132 0.169774 0.871341
Si Si6 0.645343 0.168907 0.236532
Si Si7 0.786360 0.168602 0.290732
O O1 0.666147 0.248345 0.907264
O O2 0.657661 0.000000 0.969129
O O3 0.608423 0.218003 0.002338
O O4 0.725166 0.197207 0.064065
O O5 0.159072 0.249123 0.465453
O O6 0.238886 0.165042 0.422809
O O7 0.137954 0.243761 0.306947
O O8 0.148548 0.000000 0.388950
O O9 0.601543 0.215477 0.143553
O O10 0.569283 0.000000 0.047442
O O11 0.500000 0.220662 0.000000
O O12 0.829582 0.500000 0.459282
O O13 0.816064 0.741642 0.374485
O O14 0.195146 0.210626 0.780232
O O15 0.196097 0.000000 0.872027
O O16 0.714214 0.186331 0.252778
O O17 0.636899 0.000000 0.245074
O O18 0.798075 0.000000 0.308275
#
# Coordination Sequence:
#
# PCOD9223079 Si02
#       7
#     8   8   8   8   8   8   8
#     4   9  16  27  41  59  80 105 139 175 209 243
#     4   9  16  25  36  52  76 106 136 164 198 241
#     4   9  16  27  44  63  82 107 142 180 213 244
#     4   9  16  24  35  54  78 104 134 165 198 237
#     4   9  16  26  40  58  81 109 138 169 206 248
#     4   9  15  25  40  56  76 104 138 172 204 239
#     4   9  15  24  38  55  79 108 136 165 200 243
#
# _framework density 14.721031999999999
#
# number of rings (size 3 to 8) (size 9 to 14) (size 15 to 20)
#    0.000    3.000    1.429    0.857    0.000    4.000 
#    0.000    0.714    0.000    1.714    0.000    0.000 
#    0.000    1.143    0.000   13.143    0.000    3.857 
#
# Total GULP energy -155892.933353 kJ/mol
# GULP energy per Si atom -5567.604763 kJ/mol
# Density = 1.468753 g / cm^3
# Si number density = 14.721032 Si / 1000 Ang^3
#
#
#
# Elastic Constant Matrix: (Units=GPa)
#
#
# Indices 1 2 3 4 5 6 
#
# 1 65.9391 35.7695 60.3246 0.0000 -17.1613 0.0000
# 2 35.7695 62.7298 68.1313 0.0000 -21.2699 0.0000
# 3 60.3246 68.1313 133.6010 0.0000 -40.1459 0.0000
# 4 0.0000 0.0000 0.0000 24.5951 0.0000 -9.2400
# 5 -17.1613 -21.2699 -40.1459 0.0000 25.0627 0.0000
# 6 0.0000 0.0000 0.0000 -9.2400 0.0000 13.3096
#
#
#
# Elastic Compliance Matrix: (Units=1/GPa)
#
#
# Indices 1 2 3 4 5 6 
#
# 1 0.026518 -0.004808 -0.010202 0.000000 -0.002265 0.000000
# 2 -0.004808 0.036667 -0.015745 0.000000 0.002606 0.000000
# 3 -0.010202 -0.015745 0.027005 0.000000 0.022909 0.000000
# 4 0.000000 0.000000 0.000000 0.055004 0.000000 0.038186
# 5 -0.002265 0.002606 0.022909 0.000000 0.077256 0.000000
# 6 0.000000 0.000000 0.000000 0.038186 0.000000 0.101643
#
#
# Mechanical properties :
#
#
# Convention : Reuss Voigt Hill
#
# Bulk Modulus (GPa) = 34.86844 65.63563 50.25204
# Shear Modulus (GPa) = 12.65302 19.12980 15.89141
#
# Velocity S-wave (km/s) = 2.93494 3.60875 3.28914
# Velocity P-wave (km/s) = 5.93487 7.87700 6.97388
#
# Compressibility (1/GPa) = 0.02867923
#
# Stress axis : x y z
#
# Youngs Moduli (GPa) = 37.71064 27.27237 37.03085
#
# Poissons Ratio (x) = 0.13113 0.37779
# Poissons Ratio (y) = 0.18132 0.58304
# Poissons Ratio (z) = 0.38473 0.42940
#
# Static dielectric constant tensor:
#      x y z
#    x 1.462820 0.000000 -0.011340 
#    y 0.000000 1.489830 0.000000 
#    z -0.011340 0.000000 1.481650 
# 
# From -- ./inp_files/287881.got.cif
#   From: 2010.05.17/outbox.cif.g08.bks.cpg/sg12_144_cif.got.tgz:287881.got - 2010.06.03 13:09:07.
