data_PCOD9223925
_publ_section_title
;
Structure prediction by ZEFSAII (Michael W. Deem and Ramdas Pophale) SiO2 
 PCOD9223925
Probable space group: C 2/M
;
_chemical_formula_sum "Si O2"
_cell_formula_units_Z 28
_cell_length_a 18.000000
_cell_length_b 9.000000
_cell_length_c 27.000000
_cell_angle_alpha 90.000000
_cell_angle_beta 40.000000
_cell_angle_gamma 90.000000
_cell_volume 2811.553005
_symmetry_space_group_name_H-M "C 2/M"
_symmetry_group_IT_number 12
_symmetry_cell_setting 'monoclinic'
loop_
_space_group_symop_operation_xyz
x,y,z
-x,y,-z
-x,-y,-z
x,-y,z
1/2+x,1/2+y,z
1/2-x,1/2+y,-z
1/2-x,1/2-y,-z
1/2+x,1/2-y,z
loop_
_atom_site_type_symbol
_atom_site_label
_atom_site_fract_x
_atom_site_fract_y
_atom_site_fract_z
Si Si1 0.298099 0.160768 0.707532
Si Si2 0.965407 0.671331 0.069223
Si Si3 0.208133 0.327360 0.571092
Si Si4 0.635482 0.166831 0.438368
Si Si5 0.187217 0.164643 0.210303
Si Si6 0.974985 0.835077 0.160002
Si Si7 0.000772 0.324555 0.747696
O O1 0.314896 0.181697 0.641504
O O2 0.347023 0.289567 0.716502
O O3 0.160896 0.153014 0.783433
O O4 0.349389 0.000000 0.695970
O O5 0.004583 0.500000 0.049785
O O6 0.825756 0.668333 0.139223
O O7 0.019535 0.748224 0.089464
O O8 0.000000 0.744762 0.000000
O O9 0.189346 0.500000 0.570902
O O10 0.250000 0.250000 0.500000
O O11 0.312589 0.294426 0.555029
O O12 0.094417 0.270281 0.658791
O O13 0.500000 0.174093 0.500000
O O14 0.665100 0.000000 0.442571
O O15 0.125815 0.282394 0.206820
O O16 0.147607 0.000000 0.217279
O O17 0.982641 0.750679 0.207748
O O18 0.024059 0.000000 0.139665
O O19 0.016797 0.500000 0.744615
#
# Coordination Sequence:
#
# PCOD9223925 Si02
#       7
#     8   8   8   8   8   8   8
#     4   9  18  34  54  78 109 144 182 229 280 331
#     4   9  19  38  62  88 119 151 184 226 278 336
#     4  11  25  41  58  80 111 151 194 240 290 338
#     4  10  21  37  57  80 109 144 185 232 284 338
#     4  10  21  35  57  86 114 146 187 231 276 331
#     4  10  19  34  59  86 112 146 188 231 276 331
#     4  11  23  39  58  81 114 153 192 235 284 338
#
# _framework density 9.9589090000000002
#
# number of rings (size 3 to 8) (size 9 to 14) (size 15 to 20)
#    0.000    2.000    1.429    1.714    2.000    4.000 
#    0.000    0.714    0.000    0.000    0.000    0.000 
#    0.000    0.000    0.000    0.000    0.000    0.000 
#
# Total GULP energy -155923.341116 kJ/mol
# GULP energy per Si atom -5568.690754 kJ/mol
# Density = 0.993624 g / cm^3
# Si number density = 9.958909 Si / 1000 Ang^3
#
#
#
# Elastic Constant Matrix: (Units=GPa)
#
#
# Indices 1 2 3 4 5 6 
#
# 1 33.5510 31.1143 10.3543 0.0000 11.1821 0.0002
# 2 31.1143 57.3898 28.6046 0.0000 20.9144 0.0006
# 3 10.3543 28.6046 21.5280 0.0000 27.9279 0.0000
# 4 0.0000 0.0000 0.0000 8.8417 0.0000 11.1176
# 5 11.1821 20.9144 27.9279 0.0000 18.5708 0.0000
# 6 0.0002 0.0006 0.0000 11.1176 0.0000 35.5011
#
#
#
# Elastic Compliance Matrix: (Units=1/GPa)
#
#
# Indices 1 2 3 4 5 6 
#
# 1 0.056051 -0.031798 -0.013270 0.000000 0.022016 0.000000
# 2 -0.031798 0.047251 0.003465 0.000001 -0.039278 -0.000001
# 3 -0.013270 0.003465 -0.045142 0.000000 0.071975 0.000000
# 4 0.000000 0.000001 0.000000 0.186565 -0.000001 -0.058425
# 5 0.022016 -0.039278 0.071975 -0.000001 -0.023415 0.000001
# 6 0.000000 -0.000001 0.000000 -0.058425 0.000001 0.046465
#
#
# Mechanical properties :
#
#
# Convention : Reuss Voigt Hill
#
# Bulk Modulus (GPa) = -39.92701 28.06834 -5.92933
# Shear Modulus (GPa) = 14.59282 15.40909 15.00096
#
# Velocity S-wave (km/s) = 2.70969 2.78444 2.74732
# Velocity P-wave (km/s) = 3.20928 4.94572 2.66089
#
# Compressibility (1/GPa) = -0.02504571
#
# Stress axis : x y z
#
# Youngs Moduli (GPa) = 17.84074 21.16349 -22.15252
#
# Poissons Ratio (x) = 0.67296 -0.29396
# Poissons Ratio (y) = 0.56730 0.07675
# Poissons Ratio (z) = 0.23675 -0.07332
#
# Static dielectric constant tensor:
#      x y z
#    x 1.691200 0.000000 0.032640 
#    y 0.000000 1.743010 0.000000 
#    z 0.032640 0.000000 1.761420 
# 
# From -- ./inp_files/342300.got.cif
#   From: 2010.05.17/outbox.ucp.g08.bks.cvg/sg12_172_cif.got.tgz:342300.got - 2010.06.11 11:47:21.
