data_PCOD9223233
_publ_section_title
;
Structure prediction by ZEFSAII (Michael W. Deem and Ramdas Pophale) SiO2 
 PCOD9223233
Probable space group: C 2/M
;
_chemical_formula_sum "Si O2"
_cell_formula_units_Z 32
_cell_length_a 30.000000
_cell_length_b 9.000000
_cell_length_c 30.000000
_cell_angle_alpha 90.000000
_cell_angle_beta 30.000000
_cell_angle_gamma 90.000000
_cell_volume 4050.000000
_symmetry_space_group_name_H-M "C 2/M"
_symmetry_group_IT_number 12
_symmetry_cell_setting 'monoclinic'
loop_
_space_group_symop_operation_xyz
x,y,z
-x,y,-z
-x,-y,-z
x,-y,z
1/2+x,1/2+y,z
1/2-x,1/2+y,-z
1/2-x,1/2-y,-z
1/2+x,1/2-y,z
loop_
_atom_site_type_symbol
_atom_site_label
_atom_site_fract_x
_atom_site_fract_y
_atom_site_fract_z
Si Si1 0.345204 0.678707 0.106379
Si Si2 0.844415 0.674619 0.871527
Si Si3 0.976181 0.323220 0.926461
Si Si4 0.967428 0.322161 0.588591
Si Si5 0.370038 0.322029 0.587925
Si Si6 0.129162 0.172623 0.062154
Si Si7 0.661604 0.179281 0.219441
Si Si8 0.327812 0.822367 0.218044
O O1 0.349372 0.500000 0.102303
O O2 0.258494 0.728476 0.152807
O O3 0.332489 0.737266 0.167177
O O4 0.431725 0.746208 0.007912
O O5 0.865866 0.500000 0.858265
O O6 0.887020 0.764463 0.874735
O O7 0.868565 0.735245 0.802253
O O8 0.736389 0.686013 0.964482
O O9 0.965392 0.500000 0.939502
O O10 0.923172 0.263191 0.929778
O O11 0.081469 0.289267 0.834075
O O12 0.970382 0.500000 0.578891
O O13 0.911022 0.245373 0.597950
O O14 0.912487 0.289620 0.680193
O O15 0.066066 0.254117 0.503509
O O16 0.380980 0.500000 0.578041
O O17 0.265337 0.286345 0.677194
O O18 0.106531 0.000000 0.077140
O O19 0.669701 0.000000 0.207968
O O20 0.326628 0.000000 0.210020
#
# Coordination Sequence:
#
# PCOD9223233 Si02
#       8
#     8   8   8   8   8   8   8   8
#     4  11  20  33  49  70  98 130 166 203 237 276
#     4   9  17  32  50  68  96 127 155 191 239 290
#     4  11  22  35  49  67  95 133 170 201 238 283
#     4  10  18  30  49  71  95 124 157 197 241 287
#     4  10  19  32  47  67  94 126 161 201 240 280
#     4  10  19  32  49  72  96 122 161 202 238 280
#     4   9  17  30  48  71  98 127 157 190 234 289
#     4  10  22  36  48  66  96 133 170 202 237 285
#
# _framework density 7.9012349999999998
#
# number of rings (size 3 to 8) (size 9 to 14) (size 15 to 20)
#    0.000    2.000    2.500    3.000    0.000    3.500 
#    0.000    1.250    0.000    0.000    0.000    0.875 
#    0.000    0.000    0.000    0.000    0.000    0.000 
#
# Total GULP energy -178386.669489 kJ/mol
# GULP energy per Si atom -5574.583422 kJ/mol
# Density = 0.788325 g / cm^3
# Si number density = 7.901235 Si / 1000 Ang^3
#
#
#
# Elastic Constant Matrix: (Units=GPa)
#
#
# Indices 1 2 3 4 5 6 
#
# 1 31.6672 14.1239 12.7991 -0.0035 -1.8507 0.0013
# 2 14.1239 40.0517 32.4142 -0.0092 -7.7559 0.0086
# 3 12.7991 32.4142 81.0410 -0.0093 -13.7912 0.0060
# 4 -0.0035 -0.0092 -0.0093 14.5286 -0.0007 0.3050
# 5 -1.8507 -7.7559 -13.7912 -0.0007 20.1507 -0.0003
# 6 0.0013 0.0086 0.0060 0.3050 -0.0003 19.7446
#
#
#
# Elastic Compliance Matrix: (Units=1/GPa)
#
#
# Indices 1 2 3 4 5 6 
#
# 1 0.037612 -0.012693 -0.001253 0.000000 -0.002289 0.000003
# 2 -0.012693 0.041590 -0.013700 0.000015 0.005466 -0.000013
# 3 -0.001253 -0.013700 0.019354 0.000004 0.007858 0.000000
# 4 0.000000 0.000015 0.000004 0.068852 0.000011 -0.001063
# 5 -0.002289 0.005466 0.007858 0.000011 0.056898 -0.000004
# 6 0.000003 -0.000013 0.000000 -0.001063 -0.000004 0.050663
#
#
# Mechanical properties :
#
#
# Convention : Reuss Voigt Hill
#
# Bulk Modulus (GPa) = 23.11362 30.15939 26.63650
# Shear Modulus (GPa) = 14.50613 17.11295 15.80954
#
# Velocity S-wave (km/s) = 3.03308 3.29436 3.16642
# Velocity P-wave (km/s) = 5.18888 5.79630 5.50098
#
# Compressibility (1/GPa) = 0.04326454
#
# Stress axis : x y z
#
# Youngs Moduli (GPa) = 26.58714 24.04445 51.66850
#
# Poissons Ratio (x) = 0.30519 0.06474
# Poissons Ratio (y) = 0.33747 0.70786
# Poissons Ratio (z) = 0.03331 0.32941
#
# Static dielectric constant tensor:
#      x y z
#    x 1.523910 0.000000 0.024880 
#    y 0.000000 1.528990 0.000000 
#    z 0.024880 0.000000 1.560050 
# 
# From -- ./inp_files/248501.got.cif
#   From: 2010.05.17/outbox.ucp.g08.bks.cvg/sg12_125_cif.got.tgz:248501.got - 2010.06.11 11:47:21.
