data_PCOD9223994
_publ_section_title
;
Structure prediction by ZEFSAII (Michael W. Deem and Ramdas Pophale) SiO2 
 PCOD9223994
Probable space group: C 2/M
;
_chemical_formula_sum "Si O2"
_cell_formula_units_Z 32
_cell_length_a 24.000000
_cell_length_b 9.000000
_cell_length_c 30.000000
_cell_angle_alpha 90.000000
_cell_angle_beta 30.000000
_cell_angle_gamma 90.000000
_cell_volume 3240.000000
_symmetry_space_group_name_H-M "C 2/M"
_symmetry_group_IT_number 12
_symmetry_cell_setting 'monoclinic'
loop_
_space_group_symop_operation_xyz
x,y,z
-x,y,-z
-x,-y,-z
x,-y,z
1/2+x,1/2+y,z
1/2-x,1/2+y,-z
1/2-x,1/2-y,-z
1/2+x,1/2-y,z
loop_
_atom_site_type_symbol
_atom_site_label
_atom_site_fract_x
_atom_site_fract_y
_atom_site_fract_z
Si Si1 0.242276 0.167802 0.121651
Si Si2 0.690527 0.177781 0.398961
Si Si3 0.427951 0.179579 0.249844
Si Si4 0.104314 0.669018 0.899419
Si Si5 0.491086 0.821996 0.710251
Si Si6 0.519901 0.818852 0.593745
Si Si7 0.353244 0.178280 0.954573
Si Si8 0.713613 0.822994 0.281349
O O1 0.302521 0.163012 0.126935
O O2 0.136991 0.273574 0.197150
O O3 0.203608 0.000000 0.137287
O O4 0.330673 0.211311 0.022086
O O5 0.809609 0.253103 0.321102
O O6 0.601864 0.231628 0.497405
O O7 0.665738 0.203825 0.364133
O O8 0.699793 0.000000 0.398213
O O9 0.453770 0.228586 0.282337
O O10 0.529084 0.228395 0.147460
O O11 0.423240 0.000000 0.251199
O O12 0.071501 0.500000 0.908597
O O13 0.169399 0.747397 0.813626
O O14 0.000000 0.734705 0.000000
O O15 0.547063 0.769861 0.625320
O O16 0.495163 0.000000 0.706764
O O17 0.391293 0.774119 0.675778
O O18 0.521195 0.000000 0.591152
O O19 0.349405 0.000000 0.951368
O O20 0.250000 0.250000 0.000000
O O21 0.729753 0.000000 0.264994
#
# Coordination Sequence:
#
# PCOD9223994 Si02
#       8
#     8   8   8   8   8   8   8   8
#     4  10  20  34  53  80 110 145 186 224 268 325
#     4  10  22  38  57  83 111 145 186 227 278 333
#     4  10  22  37  54  81 115 148 184 226 275 329
#     4  10  22  37  55  81 115 151 181 216 273 335
#     4  10  19  35  59  83 108 145 187 228 276 324
#     4   9  18  36  61  83 107 140 183 234 281 326
#     4  10  20  34  54  78 108 144 182 220 264 319
#     4  10  20  37  61  85 109 142 186 232 274 325
#
# _framework density 9.8765429999999999
#
# number of rings (size 3 to 8) (size 9 to 14) (size 15 to 20)
#    0.000    2.125    2.500    0.375    1.750    3.750 
#    0.000    1.250    0.000    1.500    0.000    0.000 
#    0.000    0.000    0.000    0.000    0.000    0.000 
#
# Total GULP energy -178316.645842 kJ/mol
# GULP energy per Si atom -5572.395183 kJ/mol
# Density = 0.985406 g / cm^3
# Si number density = 9.876543 Si / 1000 Ang^3
#
#
#
# Elastic Constant Matrix: (Units=GPa)
#
#
# Indices 1 2 3 4 5 6 
#
# 1 38.7826 15.1568 20.7372 -0.0011 5.4489 0.0022
# 2 15.1568 -9.2426 15.8694 -0.0020 13.7525 0.0049
# 3 20.7372 15.8694 141.0296 0.0001 31.5114 0.0002
# 4 -0.0011 -0.0020 0.0001 26.3595 0.0000 -3.4918
# 5 5.4489 13.7525 31.5114 0.0000 29.3723 -0.0006
# 6 0.0022 0.0049 0.0002 -3.4918 -0.0006 14.4724
#
#
#
# Elastic Compliance Matrix: (Units=1/GPa)
#
#
# Indices 1 2 3 4 5 6 
#
# 1 0.021939 0.017406 -0.003228 0.000001 -0.008756 -0.000009
# 2 0.017406 -0.049912 -0.001898 -0.000001 0.022177 0.000015
# 3 -0.003228 -0.001898 0.009794 0.000000 -0.009020 0.000001
# 4 0.000001 -0.000001 0.000000 0.039190 0.000001 0.009455
# 5 -0.008756 0.022177 -0.009020 0.000001 0.034963 -0.000004
# 6 -0.000009 0.000015 0.000001 0.009455 -0.000004 0.071378
#
#
# Mechanical properties :
#
#
# Convention : Reuss Voigt Hill
#
# Bulk Modulus (GPa) = 156.75043 30.45513 93.60278
# Shear Modulus (GPa) = 47.65542 21.96124 34.80833
#
# Velocity S-wave (km/s) = 4.91711 3.33797 4.20238
# Velocity P-wave (km/s) = 10.57187 5.50522 8.42828
#
# Compressibility (1/GPa) = 0.00637957
#
# Stress axis : x y z
#
# Youngs Moduli (GPa) = 45.58152 -20.03512 102.09940
#
# Poissons Ratio (x) = 0.34872 0.32957
# Poissons Ratio (y) = -0.79337 0.19380
# Poissons Ratio (z) = 0.14714 -0.03803
#
# Static dielectric constant tensor:
#      x y z
#    x 1.765830 0.000000 0.031790 
#    y 0.000000 1.687940 0.000000 
#    z 0.031790 0.000000 1.679270 
# 
# From -- ./inp_files/382350.got.cif
#   From: 2010.05.17/outbox.ucp.g08.bks.cvg/sg12_192_cif.got.tgz:382350.got - 2010.06.11 11:47:21.
