data_PCOD9223033
_publ_section_title
;
Structure prediction by ZEFSAII (Michael W. Deem and Ramdas Pophale) SiO2 
 PCOD9223033
Probable space group: C 2/M
;
_chemical_formula_sum "Si O2"
_cell_formula_units_Z 40
_cell_length_a 7.934961
_cell_length_b 32.803513
_cell_length_c 12.671884
_cell_angle_alpha 90.000000
_cell_angle_beta 148.951739
_cell_angle_gamma 90.000000
_cell_volume 1701.194266
_symmetry_space_group_name_H-M "C 2/M"
_symmetry_group_IT_number 12
_symmetry_cell_setting 'monoclinic'
loop_
_space_group_symop_operation_xyz
x,y,z
-x,y,-z
-x,-y,-z
x,-y,z
1/2+x,1/2+y,z
1/2-x,1/2+y,-z
1/2-x,1/2-y,-z
1/2+x,1/2-y,z
loop_
_atom_site_type_symbol
_atom_site_label
_atom_site_fract_x
_atom_site_fract_y
_atom_site_fract_z
Si Si1 0.817604 0.433932 0.598313
Si Si2 0.039867 0.799730 0.864200
Si Si3 0.342395 0.147487 0.203529
Si Si4 0.415842 0.724139 0.341455
Si Si5 0.119240 0.500000 0.893247
Si Si6 0.036812 0.000000 0.310710
O O1 0.500000 0.438152 0.500000
O O2 0.731081 0.459313 0.447486
O O3 0.892031 0.386250 0.635761
O O4 0.087946 0.460168 0.804769
O O5 0.725260 0.826642 0.728181
O O6 0.896959 0.754781 0.816826
O O7 0.121368 0.801568 0.785108
O O8 0.312077 0.820011 0.089037
O O9 0.000000 0.123882 0.000000
O O10 0.500000 0.704093 0.500000
O O11 0.750000 0.750000 0.500000
O O12 0.796992 0.500000 0.797315
O O13 0.429823 0.500000 0.133712
#
# Coordination Sequence:
#
# PCOD9223033 Si02
#       6
#     8   8   8   8   4   4
#     4   9  16  32  58  86 118 166 215 254 295 368
#     4   8  18  33  56  83 116 161 197 250 322 356
#     4   8  19  33  54  80 127 168 193 250 320 372
#     4   9  16  32  58  86 113 149 207 263 299 365
#     4   8  15  29  54  86 118 160 207 261 303 347
#     4   8  15  29  54  84 120 158 213 261 299 350
#
# _framework density 23.512893999999999
#
# number of rings (size 3 to 8) (size 9 to 14) (size 15 to 20)
#    1.200    2.200    0.000    1.200    0.000    3.200 
#    0.000   11.000    0.000   15.600    0.000    1.400 
#    0.000    4.800    0.000    9.800    0.000   15.800 
#
# Total GULP energy -111431.704455 kJ/mol
# GULP energy per Si atom -5571.585223 kJ/mol
# Density = 2.345938 g / cm^3
# Si number density = 23.512894 Si / 1000 Ang^3
#
#
#
# Elastic Constant Matrix: (Units=GPa)
#
#
# Indices 1 2 3 4 5 6 
#
# 1 138.2581 55.4938 57.9941 0.0000 -39.0865 0.0000
# 2 55.4938 148.6549 65.3578 0.0000 -22.6024 0.0000
# 3 57.9941 65.3578 141.9578 0.0000 -31.4459 0.0000
# 4 0.0000 0.0000 0.0000 23.8006 0.0000 34.8751
# 5 -39.0865 -22.6024 -31.4459 0.0000 40.7256 0.0000
# 6 0.0000 0.0000 0.0000 34.8751 0.0000 -19.4429
#
#
#
# Elastic Compliance Matrix: (Units=1/GPa)
#
#
# Indices 1 2 3 4 5 6 
#
# 1 0.011131 -0.002146 -0.001757 0.000000 0.008135 0.000000
# 2 -0.002146 0.008989 -0.003152 0.000000 0.000496 0.000000
# 3 -0.001757 -0.003152 0.010197 0.000000 0.004437 0.000000
# 4 0.000000 0.000000 0.000000 0.011580 0.000000 0.020771
# 5 0.008135 0.000496 0.004437 0.000000 0.036063 0.000000
# 6 0.000000 0.000000 0.000000 0.020771 0.000000 -0.014175
#
#
# Mechanical properties :
#
#
# Convention : Reuss Voigt Hill
#
# Bulk Modulus (GPa) = 61.70539 87.39581 74.55060
# Shear Modulus (GPa) = 60.02542 25.68501 42.85522
#
# Velocity S-wave (km/s) = 5.05808 3.30870 4.27385
# Velocity P-wave (km/s) = 7.77254 7.20046 7.49196
#
# Compressibility (1/GPa) = 0.01620604
#
# Stress axis : x y z
#
# Youngs Moduli (GPa) = 89.83764 111.24325 98.07283
#
# Poissons Ratio (x) = 0.23870 0.17236
# Poissons Ratio (y) = 0.19277 0.30916
# Poissons Ratio (z) = 0.15788 0.35068
#
# Static dielectric constant tensor:
#      x y z
#    x 1.947980 0.000000 0.072830 
#    y 0.000000 1.879260 0.000000 
#    z 0.072830 0.000000 1.978780 
# 
# From -- ./inp_files/201440.got.cif
#   From: 2010.05.17/outbox.cif.g08.bks.cpg/sg12_101_cif.got.tgz:201440.got - 2010.06.03 13:09:07.
