data_PCOD9223618
_publ_section_title
;
Structure prediction by ZEFSAII (Michael W. Deem and Ramdas Pophale) SiO2 
 PCOD9223618
Probable space group: C 2/M
;
_chemical_formula_sum "Si O2"
_cell_formula_units_Z 28
_cell_length_a 30.000000
_cell_length_b 9.000000
_cell_length_c 12.000000
_cell_angle_alpha 90.000000
_cell_angle_beta 60.000000
_cell_angle_gamma 90.000000
_cell_volume 2805.922308
_symmetry_space_group_name_H-M "C 2/M"
_symmetry_group_IT_number 12
_symmetry_cell_setting 'monoclinic'
loop_
_space_group_symop_operation_xyz
x,y,z
-x,y,-z
-x,-y,-z
x,-y,z
1/2+x,1/2+y,z
1/2-x,1/2+y,-z
1/2-x,1/2-y,-z
1/2+x,1/2-y,z
loop_
_atom_site_type_symbol
_atom_site_label
_atom_site_fract_x
_atom_site_fract_y
_atom_site_fract_z
Si Si1 0.455555 0.335802 0.467244
Si Si2 0.791825 0.321384 0.704527
Si Si3 0.852636 0.320930 0.401430
Si Si4 0.316674 0.178010 0.204221
Si Si5 0.584920 0.819982 0.072020
Si Si6 0.030451 0.326427 0.764687
Si Si7 0.629357 0.676999 0.242350
O O1 0.500000 0.351851 0.500000
O O2 0.448975 0.500000 0.420168
O O3 0.472980 0.207150 0.362557
O O4 0.406812 0.300858 0.604062
O O5 0.793391 0.500000 0.704909
O O6 0.823195 0.272139 0.551498
O O7 0.733420 0.263473 0.775380
O O8 0.818816 0.255308 0.780980
O O9 0.857984 0.500000 0.406156
O O10 0.820502 0.289519 0.331025
O O11 0.910769 0.265024 0.297166
O O12 0.309750 0.000000 0.198999
O O13 0.370684 0.215410 0.074359
O O14 0.525375 0.772167 0.119139
O O15 0.603638 0.748410 0.165109
O O16 0.583231 0.000000 0.085220
O O17 0.032969 0.500000 0.792094
O O18 0.635198 0.500000 0.218202
#
# Coordination Sequence:
#
# PCOD9223618 Si02
#       7
#     8   8   8   8   8   8   8
#     4  10  19  32  51  81 115 148 183 226 281 338
#     4  11  22  38  61  88 113 143 189 241 288 333
#     4   9  19  36  60  87 114 144 186 238 285 330
#     4  10  22  41  59  80 114 154 194 233 276 333
#     4  10  22  37  57  85 117 154 191 226 274 338
#     4  10  19  33  56  86 116 147 182 228 282 332
#     4  11  22  36  58  85 116 151 186 230 286 340
#
# _framework density 9.9788940000000004
#
# number of rings (size 3 to 8) (size 9 to 14) (size 15 to 20)
#    0.000    1.857    2.857    1.286    0.000    2.571 
#    0.000    4.286    0.000    0.000    0.000    3.000 
#    0.000    0.000    0.000    0.000    0.000    0.000 
#
# Total GULP energy -155930.280800 kJ/mol
# GULP energy per Si atom -5568.938600 kJ/mol
# Density = 0.995618 g / cm^3
# Si number density = 9.978894 Si / 1000 Ang^3
#
#
#
# Elastic Constant Matrix: (Units=GPa)
#
#
# Indices 1 2 3 4 5 6 
#
# 1 61.1236 2.5592 -5.4074 0.0000 -20.1414 0.0000
# 2 2.5592 12.6444 10.4082 0.0000 -5.3768 0.0000
# 3 -5.4074 10.4082 46.2206 0.0000 -15.0379 0.0000
# 4 0.0000 0.0000 0.0000 22.0682 0.0000 -7.3233
# 5 -20.1414 -5.3768 -15.0379 0.0000 21.4883 0.0000
# 6 0.0000 0.0000 0.0000 -7.3233 0.0000 25.2627
#
#
#
# Elastic Compliance Matrix: (Units=1/GPa)
#
#
# Indices 1 2 3 4 5 6 
#
# 1 0.031789 -0.003633 0.018044 0.000000 0.041515 0.000000
# 2 -0.003633 0.099800 -0.020564 0.000000 0.007175 0.000000
# 3 0.018044 -0.020564 0.041700 0.000000 0.040950 0.000000
# 4 0.000000 0.000000 0.000000 0.050137 0.000000 0.014534
# 5 0.041515 0.007175 0.040950 0.000000 0.115903 0.000000
# 6 0.000000 0.000000 0.000000 0.014534 0.000000 0.043797
#
#
# Mechanical properties :
#
#
# Convention : Reuss Voigt Hill
#
# Bulk Modulus (GPa) = 6.21187 15.01207 10.61197
# Shear Modulus (GPa) = 11.13352 21.25906 16.19629
#
# Velocity S-wave (km/s) = 2.36445 3.26728 2.85182
# Velocity P-wave (km/s) = 3.25169 4.66602 4.02152
#
# Compressibility (1/GPa) = 0.16098212
#
# Stress axis : x y z
#
# Youngs Moduli (GPa) = 31.45779 10.02003 23.98063
#
# Poissons Ratio (x) = 0.03641 -0.43271
# Poissons Ratio (y) = 0.11430 0.49314
# Poissons Ratio (z) = -0.56763 0.20605
#
# Static dielectric constant tensor:
#      x y z
#    x 1.780050 0.000000 -0.004370 
#    y 0.000000 1.722980 0.000000 
#    z -0.004370 0.000000 1.657730 
# 
# From -- ./inp_files/187164.got.cif
#   From: 2010.05.17/outbox.ucp.g08.bks.cvg/sg12_94_cif.got.tgz:187164.got - 2010.06.11 11:47:21.
