data_PCOD9223234
_publ_section_title
;
Structure prediction by ZEFSAII (Michael W. Deem and Ramdas Pophale) SiO2 
 PCOD9223234
Probable space group: C 2/M
;
_chemical_formula_sum "Si O2"
_cell_formula_units_Z 28
_cell_length_a 24.000000
_cell_length_b 15.000000
_cell_length_c 9.000000
_cell_angle_alpha 90.000000
_cell_angle_beta 110.000000
_cell_angle_gamma 90.000000
_cell_volume 3044.604091
_symmetry_space_group_name_H-M "C 2/M"
_symmetry_group_IT_number 12
_symmetry_cell_setting 'monoclinic'
loop_
_space_group_symop_operation_xyz
x,y,z
-x,y,-z
-x,-y,-z
x,-y,z
1/2+x,1/2+y,z
1/2-x,1/2+y,-z
1/2-x,1/2-y,-z
1/2+x,1/2-y,z
loop_
_atom_site_type_symbol
_atom_site_label
_atom_site_fract_x
_atom_site_fract_y
_atom_site_fract_z
Si Si1 0.335013 0.901746 0.757593
Si Si2 0.473325 0.903519 0.808923
Si Si3 0.104531 0.899986 0.547429
Si Si4 0.415754 0.398471 0.122077
Si Si5 0.150203 0.212681 0.163097
Si Si6 0.719940 0.603109 0.460280
Si Si7 0.532366 0.711987 0.263103
O O1 0.401757 0.905047 0.754606
O O2 0.334558 0.814748 0.859733
O O3 0.285430 0.885304 0.586433
O O4 0.322649 0.000000 0.811782
O O5 0.489527 0.813338 0.740072
O O6 0.493124 0.000000 0.767542
O O7 0.500000 0.895678 0.000000
O O8 0.099812 0.898023 0.718589
O O9 0.170684 0.884614 0.545186
O O10 0.059777 0.830144 0.435434
O O11 0.086828 0.000000 0.479865
O O12 0.420995 0.500000 0.074058
O O13 0.477933 0.347640 0.159630
O O14 0.364161 0.347771 0.989084
O O15 0.200337 0.169348 0.312693
O O16 0.088144 0.211767 0.200206
O O17 0.714545 0.500000 0.405170
#
# Coordination Sequence:
#
# PCOD9223234 Si02
#       7
#     8   8   8   8   8   8   8
#     4   9  17  30  50  72  95 125 157 190 234 285
#     4   9  17  30  49  75 101 121 150 196 243 280
#     4   9  19  33  48  68  97 131 161 191 231 282
#     4  11  21  32  47  69  98 129 158 193 240 284
#     4  10  19  30  47  73  98 120 157 203 238 271
#     4   9  17  31  50  71  95 125 160 194 230 277
#     4  10  18  30  49  71  95 126 161 193 231 282
#
# _framework density 9.1965979999999998
#
# number of rings (size 3 to 8) (size 9 to 14) (size 15 to 20)
#    0.000    2.429    0.000    3.857    0.000    3.429 
#    0.000    0.714    0.000    2.571    0.000    0.000 
#    0.000    0.000    0.000    0.000    0.000    0.000 
#
# Total GULP energy -156030.717792 kJ/mol
# GULP energy per Si atom -5572.525635 kJ/mol
# Density = 0.917567 g / cm^3
# Si number density = 9.196598 Si / 1000 Ang^3
#
#
#
# Elastic Constant Matrix: (Units=GPa)
#
#
# Indices 1 2 3 4 5 6 
#
# 1 36.8228 19.4331 25.8121 0.0000 24.3421 0.0000
# 2 19.4331 173.1465 65.7194 0.0000 19.5697 0.0000
# 3 25.8121 65.7194 61.9301 0.0000 18.3304 0.0000
# 4 0.0000 0.0000 0.0000 28.4828 0.0000 18.4501
# 5 24.3421 19.5697 18.3304 0.0000 23.9235 0.0000
# 6 0.0000 0.0000 0.0000 18.4501 0.0000 2.0013
#
#
#
# Elastic Compliance Matrix: (Units=1/GPa)
#
#
# Indices 1 2 3 4 5 6 
#
# 1 0.096572 0.007532 -0.022420 0.000000 -0.087245 0.000000
# 2 0.007532 0.010258 -0.011993 0.000000 -0.006866 0.000000
# 3 -0.022420 -0.011993 0.036940 0.000000 0.004319 0.000000
# 4 0.000000 0.000000 0.000000 -0.007062 0.000000 0.065102
# 5 -0.087245 -0.006866 0.004319 0.000000 0.132878 0.000000
# 6 0.000000 0.000000 0.000000 0.065102 0.000000 -0.100502
#
#
# Mechanical properties :
#
#
# Convention : Reuss Voigt Hill
#
# Bulk Modulus (GPa) = 11.11012 54.86984 32.98998
# Shear Modulus (GPa) = 19.77455 21.61052 20.69253
#
# Velocity S-wave (km/s) = 3.28243 3.43143 3.35776
# Velocity P-wave (km/s) = 4.51877 6.75248 5.74522
#
# Compressibility (1/GPa) = 0.09000803
#
# Stress axis : x y z
#
# Youngs Moduli (GPa) = 10.35492 97.48391 27.07087
#
# Poissons Ratio (x) = -0.73423 0.60694
# Poissons Ratio (y) = -0.07799 0.32465
# Poissons Ratio (z) = 0.23216 1.16910
#
# Static dielectric constant tensor:
#      x y z
#    x 1.615070 0.000000 0.007980 
#    y 0.000000 1.701860 0.000000 
#    z 0.007980 0.000000 1.614260 
# 
# From -- ./inp_files/96470.got.cif
#   From: 2010.05.17/outbox.ucp.g08.bks.cvg/sg12_49_cif.got.tgz:96470.got - 2010.06.11 11:47:21.
