data_PCOD9223012
_publ_section_title
;
Structure prediction by ZEFSAII (Michael W. Deem and Ramdas Pophale) SiO2 
 PCOD9223012
Probable space group: C 2/M
;
_chemical_formula_sum "Si O2"
_cell_formula_units_Z 48
_cell_length_a 22.425755
_cell_length_b 7.325492
_cell_length_c 19.107416
_cell_angle_alpha 90.000000
_cell_angle_beta 141.126060
_cell_angle_gamma 90.000000
_cell_volume 1970.039839
_symmetry_space_group_name_H-M "C 2/M"
_symmetry_group_IT_number 12
_symmetry_cell_setting 'monoclinic'
loop_
_space_group_symop_operation_xyz
x,y,z
-x,y,-z
-x,-y,-z
x,-y,z
1/2+x,1/2+y,z
1/2-x,1/2+y,-z
1/2-x,1/2-y,-z
1/2+x,1/2-y,z
loop_
_atom_site_type_symbol
_atom_site_label
_atom_site_fract_x
_atom_site_fract_y
_atom_site_fract_z
Si Si1 0.357891 0.285149 0.072575
Si Si2 0.344268 0.277372 0.664540
Si Si3 0.069494 0.711527 0.712426
Si Si4 0.081916 0.778139 0.126594
Si Si5 0.224579 0.222742 0.144090
Si Si6 0.634389 0.207969 0.477748
O O1 0.378889 0.500000 0.088700
O O2 0.420774 0.214152 0.193918
O O3 0.250000 0.250000 0.000000
O O4 0.348465 0.218264 0.984287
O O5 0.343989 0.500000 0.659326
O O6 0.416313 0.221366 0.791265
O O7 0.364240 0.206189 0.605783
O O8 0.238061 0.216276 0.589863
O O9 0.067686 0.500000 0.689571
O O10 0.168610 0.788638 0.773520
O O11 0.967897 0.791441 0.597174
O O12 0.180162 0.730113 0.177634
O O13 0.075861 0.000000 0.122621
O O14 0.000000 0.714054 0.000000
O O15 0.227117 0.000000 0.141380
O O16 0.634884 0.000000 0.504840
#
# Coordination Sequence:
#
# PCOD9223012 Si02
#       6
#     8   8   8   8   8   8
#     4   9  16  26  43  66  95 124 154 189 230 275
#     4   9  18  32  50  71  92 120 161 198 233 284
#     4   9  17  29  45  65  93 124 154 192 237 278
#     4   9  17  28  45  69  96 121 151 195 238 278
#     4   8  15  27  41  63  93 121 148 186 232 274
#     4   9  18  32  49  69  95 124 154 197 244 278
#
# _framework density 24.364989999999999
#
# number of rings (size 3 to 8) (size 9 to 14) (size 15 to 20)
#    0.000    3.167    0.000    1.500    2.333    0.667 
#    0.000    0.833    0.000   10.500    0.000    0.000 
#    0.000   10.667    0.000    0.000    0.000    0.000 
#
# Total GULP energy -133871.128985 kJ/mol
# GULP energy per Si atom -5577.963708 kJ/mol
# Density = 2.430953 g / cm^3
# Si number density = 24.364990 Si / 1000 Ang^3
#
#
#
# Elastic Constant Matrix: (Units=GPa)
#
#
# Indices 1 2 3 4 5 6 
#
# 1 51.0628 -7.7925 9.8797 0.0000 5.0032 0.0000
# 2 -7.7925 96.8690 -5.7878 0.0000 4.6327 0.0000
# 3 9.8797 -5.7878 90.3091 0.0000 20.2288 0.0000
# 4 0.0000 0.0000 0.0000 3.1444 0.0000 -4.1636
# 5 5.0032 4.6327 20.2288 0.0000 46.5323 0.0000
# 6 0.0000 0.0000 0.0000 -4.1636 0.0000 -1.1892
#
#
#
# Elastic Compliance Matrix: (Units=1/GPa)
#
#
# Indices 1 2 3 4 5 6 
#
# 1 0.020325 0.001605 -0.001768 0.000000 -0.001577 0.000000
# 2 0.001605 0.010580 0.000861 0.000000 -0.001600 0.000000
# 3 -0.001768 0.000861 0.012517 0.000000 -0.005337 0.000000
# 4 0.000000 0.000000 0.000000 0.056427 0.000000 -0.197564
# 5 -0.001577 -0.001600 -0.005337 0.000000 0.024140 0.000000
# 6 0.000000 0.000000 0.000000 -0.197564 0.000000 -0.149205
#
#
# Mechanical properties :
#
#
# Convention : Reuss Voigt Hill
#
# Bulk Modulus (GPa) = 22.31195 25.64887 23.98041
# Shear Modulus (GPa) = -428.33652 25.82694 -201.25479
#
# Velocity S-wave (km/s) = -13.27334 3.25930 -9.09831
# Velocity P-wave (km/s) = 15.02437 4.97130 10.02541
#
# Compressibility (1/GPa) = 0.04481904
#
# Stress axis : x y z
#
# Youngs Moduli (GPa) = 49.20021 94.51543 79.89054
#
# Poissons Ratio (x) = -0.15168 0.14121
# Poissons Ratio (y) = -0.07896 -0.06878
# Poissons Ratio (z) = 0.08696 -0.08137
#
# Static dielectric constant tensor:
#      x y z
#    x 1.947410 0.000000 0.043150 
#    y 0.000000 2.014840 0.000000 
#    z 0.043150 0.000000 1.936290 
# 
# From -- ./inp_files/239395.got.cif
#   From: 2010.05.17/outbox.cif.g08.bks.cpg/sg12_120_cif.got.tgz:239395.got - 2010.06.03 13:09:07.
