data_PCOD9223736
_publ_section_title
;
Structure prediction by ZEFSAII (Michael W. Deem and Ramdas Pophale) SiO2 
 PCOD9223736
Probable space group: C 2/M
;
_chemical_formula_sum "Si O2"
_cell_formula_units_Z 20
_cell_length_a 24.000000
_cell_length_b 9.000000
_cell_length_c 30.000000
_cell_angle_alpha 90.000000
_cell_angle_beta 160.000000
_cell_angle_gamma 90.000000
_cell_volume 2216.290529
_symmetry_space_group_name_H-M "C 2/M"
_symmetry_group_IT_number 12
_symmetry_cell_setting 'monoclinic'
loop_
_space_group_symop_operation_xyz
x,y,z
-x,y,-z
-x,-y,-z
x,-y,z
1/2+x,1/2+y,z
1/2-x,1/2+y,-z
1/2-x,1/2-y,-z
1/2+x,1/2-y,z
loop_
_atom_site_type_symbol
_atom_site_label
_atom_site_fract_x
_atom_site_fract_y
_atom_site_fract_z
Si Si1 0.785346 0.825762 0.956450
Si Si2 0.496489 0.828442 0.805792
Si Si3 0.645304 0.677141 0.664790
Si Si4 0.811218 0.173494 0.871951
Si Si5 0.300501 0.823952 0.383959
O O1 0.607344 0.816708 0.845143
O O2 0.790270 0.785860 0.908155
O O3 0.838659 0.000000 0.000361
O O4 0.895298 0.723138 0.070636
O O5 0.342950 0.720843 0.690802
O O6 0.446329 0.000000 0.773511
O O7 0.649508 0.500000 0.662302
O O8 0.713181 0.726702 0.763445
O O9 0.463713 0.741031 0.522057
O O10 0.741313 0.758085 0.696516
O O11 0.761166 0.000000 0.829407
O O12 0.000000 0.183593 0.000000
O O13 0.324972 0.000000 0.399513
#
# Coordination Sequence:
#
# PCOD9223736 Si02
#       5
#     8   8   8   8   8
#     4   9  19  34  53  79 111 145 178 215 262 316
#     4  10  19  33  54  80 109 140 179 223 263 306
#     4  11  22  36  55  81 109 135 172 220 267 313
#     4  10  20  35  55  79 109 143 176 211 258 317
#     4  11  21  36  57  78 104 140 179 216 263 318
#
# _framework density 9.0240880000000008
#
# number of rings (size 3 to 8) (size 9 to 14) (size 15 to 20)
#    0.000    1.800    0.000    6.600    0.000    3.600 
#    0.000    1.000    0.000    0.000    0.000    0.000 
#    0.000    0.000    0.000    0.000    0.000    0.000 
#
# Total GULP energy -111656.483179 kJ/mol
# GULP energy per Si atom -5582.824159 kJ/mol
# Density = 0.900355 g / cm^3
# Si number density = 9.024088 Si / 1000 Ang^3
#
#
#
# Elastic Constant Matrix: (Units=GPa)
#
#
# Indices 1 2 3 4 5 6 
#
# 1 120.2984 42.5424 33.5454 0.0003 -10.7500 0.0002
# 2 42.5424 109.9859 25.8079 0.0011 -4.1466 0.0002
# 3 33.5454 25.8079 37.0160 0.0009 0.0282 0.0008
# 4 0.0003 0.0011 0.0009 29.3044 0.0000 -1.1819
# 5 -10.7500 -4.1466 0.0282 0.0000 26.0535 0.0000
# 6 0.0002 0.0002 0.0008 -1.1819 0.0000 25.6737
#
#
#
# Elastic Compliance Matrix: (Units=1/GPa)
#
#
# Indices 1 2 3 4 5 6 
#
# 1 0.012178 -0.002324 -0.009419 0.000000 0.004665 0.000000
# 2 -0.002324 0.011393 -0.005838 0.000000 0.000861 0.000000
# 3 -0.009419 -0.005838 0.039625 -0.000001 -0.004858 -0.000001
# 4 0.000000 0.000000 -0.000001 0.034188 0.000000 0.001574
# 5 0.004665 0.000861 -0.004858 0.000000 0.040450 0.000000
# 6 0.000000 0.000000 -0.000001 0.001574 0.000000 0.039023
#
#
# Mechanical properties :
#
#
# Convention : Reuss Voigt Hill
#
# Bulk Modulus (GPa) = 35.67105 52.34354 44.00729
# Shear Modulus (GPa) = 22.58714 27.23329 24.91022
#
# Velocity S-wave (km/s) = 3.54148 3.88870 3.71914
# Velocity P-wave (km/s) = 6.04401 7.01625 6.54820
#
# Compressibility (1/GPa) = 0.02803394
#
# Stress axis : x y z
#
# Youngs Moduli (GPa) = 82.11456 87.76996 25.23638
#
# Poissons Ratio (x) = 0.20401 0.23771
# Poissons Ratio (y) = 0.19087 0.14733
# Poissons Ratio (z) = 0.77346 0.51238
#
# Static dielectric constant tensor:
#      x y z
#    x 1.621710 0.000000 0.033840 
#    y 0.000000 1.610840 0.000000 
#    z 0.033840 0.000000 1.634040 
# 
# From -- ./inp_files/162751.got.cif
#   From: 2010.05.17/outbox.ucp.g08.bks.cvg/sg12_82_cif.got.tgz:162751.got - 2010.06.11 11:47:21.
