data_PCOD9223689
_publ_section_title
;
Structure prediction by ZEFSAII (Michael W. Deem and Ramdas Pophale) SiO2 
 PCOD9223689
Probable space group: C 2/M
;
_chemical_formula_sum "Si O2"
_cell_formula_units_Z 32
_cell_length_a 15.000000
_cell_length_b 9.000000
_cell_length_c 30.000000
_cell_angle_alpha 90.000000
_cell_angle_beta 60.000000
_cell_angle_gamma 90.000000
_cell_volume 3507.402885
_symmetry_space_group_name_H-M "C 2/M"
_symmetry_group_IT_number 12
_symmetry_cell_setting 'monoclinic'
loop_
_space_group_symop_operation_xyz
x,y,z
-x,y,-z
-x,-y,-z
x,-y,z
1/2+x,1/2+y,z
1/2-x,1/2+y,-z
1/2-x,1/2-y,-z
1/2+x,1/2-y,z
loop_
_atom_site_type_symbol
_atom_site_label
_atom_site_fract_x
_atom_site_fract_y
_atom_site_fract_z
Si Si1 0.888994 0.321701 0.361392
Si Si2 0.739917 0.676861 0.165527
Si Si3 0.506571 0.678681 0.246996
Si Si4 0.105658 0.177771 0.056197
Si Si5 0.202869 0.824033 0.942461
Si Si6 0.456887 0.180031 0.445313
Si Si7 0.653217 0.319885 0.444715
Si Si8 0.417021 0.676277 0.171023
O O1 0.895789 0.500000 0.354253
O O2 0.937120 0.285225 0.398164
O O3 0.767168 0.284270 0.397477
O O4 0.947619 0.248959 0.304353
O O5 0.735277 0.500000 0.160808
O O6 0.625402 0.727034 0.208942
O O7 0.784462 0.744781 0.108253
O O8 0.819103 0.726502 0.183406
O O9 0.506497 0.500000 0.253363
O O10 0.454665 0.708770 0.211738
O O11 0.194407 0.275021 0.056844
O O12 0.003656 0.203859 0.111039
O O13 0.128831 0.000000 0.054696
O O14 0.112131 0.210665 0.001366
O O15 0.198748 0.000000 0.935373
O O16 0.564396 0.250115 0.435545
O O17 0.371491 0.250144 0.500252
O O18 0.457146 0.000000 0.450366
O O19 0.643486 0.500000 0.449548
O O20 0.393577 0.500000 0.174479
#
# Coordination Sequence:
#
# PCOD9223689 Si02
#       8
#     8   8   8   8   8   8   8   8
#     4  10  23  39  58  84 116 150 191 237 280 330
#     4  11  23  40  59  83 114 148 188 239 288 340
#     4  10  23  42  61  79 110 152 192 236 288 335
#     4   9  18  35  57  82 117 148 181 231 285 343
#     4  10  19  32  57  87 112 148 186 226 285 346
#     4  10  20  36  58  87 120 154 188 229 276 331
#     4  10  20  36  58  87 120 153 186 230 280 330
#     4  10  21  40  61  82 110 148 190 234 285 344
#
# _framework density 9.1235599999999994
#
# number of rings (size 3 to 8) (size 9 to 14) (size 15 to 20)
#    0.000    2.000    1.250    2.625    0.000    6.000 
#    0.000    7.500    0.000    0.000    0.000    0.000 
#    0.000    0.000    0.000    0.000    0.000    0.000 
#
# Total GULP energy -178496.462537 kJ/mol
# GULP energy per Si atom -5578.014454 kJ/mol
# Density = 0.910279 g / cm^3
# Si number density = 9.123560 Si / 1000 Ang^3
#
#
#
# Elastic Constant Matrix: (Units=GPa)
#
#
# Indices 1 2 3 4 5 6 
#
# 1 84.4299 35.1035 71.2651 0.0000 7.0497 0.0000
# 2 35.1035 58.7638 56.0720 0.0000 3.1470 0.0000
# 3 71.2651 56.0720 190.6100 0.0000 5.7262 0.0000
# 4 0.0000 0.0000 0.0000 43.2000 0.0000 3.1743
# 5 7.0497 3.1470 5.7262 0.0000 11.0486 0.0000
# 6 0.0000 0.0000 0.0000 3.1743 0.0000 26.7302
#
#
#
# Elastic Compliance Matrix: (Units=1/GPa)
#
#
# Indices 1 2 3 4 5 6 
#
# 1 0.019512 -0.006251 -0.005217 0.000000 -0.007965 0.000000
# 2 -0.006251 0.025771 -0.005225 0.000000 -0.000644 0.000000
# 3 -0.005217 -0.005225 0.008725 0.000000 0.000295 0.000000
# 4 0.000000 0.000000 0.000000 0.023352 0.000000 -0.002773
# 5 -0.007965 -0.000644 0.000295 0.000000 0.095622 0.000000
# 6 0.000000 0.000000 0.000000 -0.002773 0.000000 0.037740
#
#
# Mechanical properties :
#
#
# Convention : Reuss Voigt Hill
#
# Bulk Modulus (GPa) = 48.49053 73.18722 60.83888
# Shear Modulus (GPa) = 19.92177 27.61997 23.77087
#
# Velocity S-wave (km/s) = 3.30779 3.89480 3.61324
# Velocity P-wave (km/s) = 6.42033 7.77316 7.12891
#
# Compressibility (1/GPa) = 0.02062258
#
# Stress axis : x y z
#
# Youngs Moduli (GPa) = 51.25140 38.80282 114.61515
#
# Poissons Ratio (x) = 0.24256 0.59792
# Poissons Ratio (y) = 0.32038 0.59882
# Poissons Ratio (z) = 0.26737 0.20273
#
# Static dielectric constant tensor:
#      x y z
#    x 1.650830 0.000000 0.001490 
#    y 0.000000 1.611870 0.000000 
#    z 0.001490 0.000000 1.617200 
# 
# From -- ./inp_files/375026.got.cif
#   From: 2010.05.17/outbox.ucp.g08.bks.cvg/sg12_188_cif.got.tgz:375026.got - 2010.06.11 11:47:21.
