data_PCOD9223437
_publ_section_title
;
Structure prediction by ZEFSAII (Michael W. Deem and Ramdas Pophale) SiO2 
 PCOD9223437
Probable space group: C 2/M
;
_chemical_formula_sum "Si O2"
_cell_formula_units_Z 28
_cell_length_a 21.000000
_cell_length_b 18.000000
_cell_length_c 9.000000
_cell_angle_alpha 90.000000
_cell_angle_beta 120.000000
_cell_angle_gamma 90.000000
_cell_volume 2946.218424
_symmetry_space_group_name_H-M "C 2/M"
_symmetry_group_IT_number 12
_symmetry_cell_setting 'monoclinic'
loop_
_space_group_symop_operation_xyz
x,y,z
-x,y,-z
-x,-y,-z
x,-y,z
1/2+x,1/2+y,z
1/2-x,1/2+y,-z
1/2-x,1/2-y,-z
1/2+x,1/2-y,z
loop_
_atom_site_type_symbol
_atom_site_label
_atom_site_fract_x
_atom_site_fract_y
_atom_site_fract_z
Si Si1 0.680988 0.679195 0.821781
Si Si2 0.816251 0.916206 0.440473
Si Si3 0.492234 0.915363 0.812960
Si Si4 0.826010 0.370781 0.563557
Si Si5 0.728230 0.685491 0.192937
Si Si6 0.889935 0.788618 0.714727
Si Si7 0.469266 0.232879 0.293858
O O1 0.667326 0.607374 0.707771
O O2 0.731080 0.735092 0.781409
O O3 0.607715 0.724416 0.781318
O O4 0.722098 0.657161 0.019190
O O5 0.730538 0.903865 0.382866
O O6 0.863121 0.858725 0.590752
O O7 0.836139 0.000000 0.496635
O O8 0.406010 0.908593 0.664445
O O9 0.535181 0.851574 0.772532
O O10 0.516962 0.000000 0.815032
O O11 0.500000 0.900624 0.000000
O O12 0.778945 0.366068 0.356551
O O13 0.844834 0.284909 0.616902
O O14 0.646057 0.695500 0.165679
O O15 0.973003 0.770556 0.756908
O O16 0.500000 0.232075 0.500000
#
# Coordination Sequence:
#
# PCOD9223437 Si02
#       7
#     8   8   8   8   8   8   8
#     4  11  21  35  55  94 118 154 201 248 294 348
#     4  11  20  35  59  88 118 151 194 250 305 350
#     4  10  23  39  59  91 126 157 195 242 300 369
#     4  10  18  38  62  86 115 157 200 244 292 361
#     4  10  20  35  62  83 117 151 205 249 287 341
#     4  10  19  38  59  84 114 154 204 241 288 364
#     4  11  22  37  61  85 123 159 204 242 296 356
#
# _framework density 9.5037079999999996
#
# number of rings (size 3 to 8) (size 9 to 14) (size 15 to 20)
#    0.000    1.571    4.286    2.143    4.000    0.286 
#    0.000    5.000    0.000    0.857    0.000    5.000 
#    0.000    0.000    0.000    0.000    0.000    0.000 
#
# Total GULP energy -156068.571541 kJ/mol
# GULP energy per Si atom -5573.877555 kJ/mol
# Density = 0.948208 g / cm^3
# Si number density = 9.503708 Si / 1000 Ang^3
#
#
#
# Elastic Constant Matrix: (Units=GPa)
#
#
# Indices 1 2 3 4 5 6 
#
# 1 78.7401 2.9161 -0.7707 0.0000 -0.6120 0.0000
# 2 2.9161 86.0501 1.0721 0.0000 4.2969 0.0000
# 3 -0.7707 1.0721 68.3935 0.0000 -7.3751 0.0000
# 4 0.0000 0.0000 0.0000 13.6095 0.0000 -4.4077
# 5 -0.6120 4.2969 -7.3751 0.0000 17.0131 0.0000
# 6 0.0000 0.0000 0.0000 -4.4077 0.0000 18.5665
#
#
#
# Elastic Compliance Matrix: (Units=1/GPa)
#
#
# Indices 1 2 3 4 5 6 
#
# 1 0.012725 -0.000468 0.000223 0.000000 0.000673 0.000000
# 2 -0.000468 0.011805 -0.000539 0.000000 -0.003232 0.000000
# 3 0.000223 -0.000539 0.015366 0.000000 0.006805 0.000000
# 4 0.000000 0.000000 0.000000 0.079598 0.000000 0.018897
# 5 0.000673 -0.003232 0.006805 0.000000 0.062569 0.000000
# 6 0.000000 0.000000 0.000000 0.018897 0.000000 0.058347
#
#
# Mechanical properties :
#
#
# Convention : Reuss Voigt Hill
#
# Bulk Modulus (GPa) = 26.08953 26.62430 26.35692
# Shear Modulus (GPa) = 19.62689 25.16889 22.39789
#
# Velocity S-wave (km/s) = 3.21688 3.64285 3.43647
# Velocity P-wave (km/s) = 5.24915 5.63308 5.44450
#
# Compressibility (1/GPa) = 0.03832955
#
# Stress axis : x y z
#
# Youngs Moduli (GPa) = 78.58706 84.70924 65.07844
#
# Poissons Ratio (x) = 0.03961 -0.01453
# Poissons Ratio (y) = 0.03675 0.03507
# Poissons Ratio (z) = -0.01754 0.04564
#
# Static dielectric constant tensor:
#      x y z
#    x 1.682950 0.000000 -0.007750 
#    y 0.000000 1.649050 0.000000 
#    z -0.007750 0.000000 1.698280 
# 
# From -- ./inp_files/88074.got.cif
#   From: 2010.05.17/outbox.ucp.g08.bks.cvg/sg12_45_cif.got.tgz:88074.got - 2010.06.11 11:47:21.
