data_PCOD9223476
_publ_section_title
;
Structure prediction by ZEFSAII (Michael W. Deem and Ramdas Pophale) SiO2 
 PCOD9223476
Probable space group: C 2/M
;
_chemical_formula_sum "Si O2"
_cell_formula_units_Z 24
_cell_length_a 24.000000
_cell_length_b 9.000000
_cell_length_c 21.000000
_cell_angle_alpha 90.000000
_cell_angle_beta 140.000000
_cell_angle_gamma 90.000000
_cell_volume 2915.684598
_symmetry_space_group_name_H-M "C 2/M"
_symmetry_group_IT_number 12
_symmetry_cell_setting 'monoclinic'
loop_
_space_group_symop_operation_xyz
x,y,z
-x,y,-z
-x,-y,-z
x,-y,z
1/2+x,1/2+y,z
1/2-x,1/2+y,-z
1/2-x,1/2-y,-z
1/2+x,1/2-y,z
loop_
_atom_site_type_symbol
_atom_site_label
_atom_site_fract_x
_atom_site_fract_y
_atom_site_fract_z
Si Si1 0.949580 0.677053 0.639897
Si Si2 0.235113 0.823834 0.727999
Si Si3 0.418773 0.679298 0.884018
Si Si4 0.559646 0.820591 0.613430
Si Si5 0.723058 0.826666 0.582719
Si Si6 0.924812 0.827718 0.744673
O O1 0.954957 0.500000 0.649792
O O2 0.851523 0.713138 0.531941
O O3 0.969158 0.745530 0.725287
O O4 0.010546 0.723679 0.634984
O O5 0.328666 0.753470 0.826237
O O6 0.153725 0.752764 0.692828
O O7 0.218320 0.776660 0.640040
O O8 0.237396 0.000000 0.737180
O O9 0.405676 0.500000 0.870862
O O10 0.438796 0.728087 0.828883
O O11 0.500000 0.712170 0.000000
O O12 0.500000 0.779625 0.500000
O O13 0.568044 0.000000 0.619240
O O14 0.820839 0.817890 0.643631
O O15 0.708001 0.000000 0.589338
O O16 0.949652 0.000000 0.764998
#
# Coordination Sequence:
#
# PCOD9223476 Si02
#       6
#     8   8   8   8   8   8
#     4  10  19  30  48  70  98 139 176 205 242 293
#     4  11  21  31  49  79 108 131 164 216 264 294
#     4   9  19  38  61  78  96 130 171 207 252 313
#     4  10  19  34  52  68  98 145 185 209 234 291
#     4   9  17  32  48  66  98 141 178 201 236 299
#     4   9  18  30  48  74 102 127 159 209 259 301
#
# _framework density 8.2313430000000007
#
# number of rings (size 3 to 8) (size 9 to 14) (size 15 to 20)
#    0.000    2.333    1.667    3.000    0.000    4.667 
#    0.000    0.000    0.000    1.000    0.000    0.000 
#    0.000    0.000    0.000    0.000    0.000    0.000 
#
# Total GULP energy -133778.693152 kJ/mol
# GULP energy per Si atom -5574.112215 kJ/mol
# Density = 0.821261 g / cm^3
# Si number density = 8.231343 Si / 1000 Ang^3
#
#
#
# Elastic Constant Matrix: (Units=GPa)
#
#
# Indices 1 2 3 4 5 6 
#
# 1 104.1471 44.6494 66.3073 0.0000 -13.4929 0.0000
# 2 44.6494 35.2481 40.9266 0.0000 0.4389 0.0000
# 3 66.3073 40.9266 107.6912 0.0000 1.8555 0.0000
# 4 0.0000 0.0000 0.0000 13.3934 0.0000 -6.2420
# 5 -13.4929 0.4389 1.8555 0.0000 10.7031 0.0000
# 6 0.0000 0.0000 0.0000 -6.2420 0.0000 20.8353
#
#
#
# Elastic Compliance Matrix: (Units=1/GPa)
#
#
# Indices 1 2 3 4 5 6 
#
# 1 0.040408 -0.039171 -0.010932 0.000000 0.054442 0.000000
# 2 -0.039171 0.088764 -0.008728 0.000000 -0.051508 0.000000
# 3 -0.010932 -0.008728 0.019623 0.000000 -0.016825 0.000000
# 4 0.000000 0.000000 0.000000 0.086780 0.000000 0.025998
# 5 0.054442 -0.051508 -0.016825 0.000000 0.167092 0.000000
# 6 0.000000 0.000000 0.000000 0.025998 0.000000 0.055784
#
#
# Mechanical properties :
#
#
# Convention : Reuss Voigt Hill
#
# Bulk Modulus (GPa) = 32.11838 61.20588 46.66213
# Shear Modulus (GPa) = 8.52528 15.33323 11.92925
#
# Velocity S-wave (km/s) = 2.27811 3.05518 2.69480
# Velocity P-wave (km/s) = 5.14508 7.05016 6.17157
#
# Compressibility (1/GPa) = 0.03113482
#
# Stress axis : x y z
#
# Youngs Moduli (GPa) = 24.74761 11.26580 50.95948
#
# Poissons Ratio (x) = 0.44129 0.55707
# Poissons Ratio (y) = 0.96938 0.44478
# Poissons Ratio (z) = 0.27053 0.09833
#
# Static dielectric constant tensor:
#      x y z
#    x 1.572030 0.000000 -0.004530 
#    y 0.000000 1.557970 0.000000 
#    z -0.004530 0.000000 1.534320 
# 
# From -- ./inp_files/229946.got.cif
#   From: 2010.05.17/outbox.ucp.g08.bks.cvg/sg12_115_cif.got.tgz:229946.got - 2010.06.11 11:47:21.
