data_PCOD9223403
_publ_section_title
;
Structure prediction by ZEFSAII (Michael W. Deem and Ramdas Pophale) SiO2 
 PCOD9223403
Probable space group: C 2/M
;
_chemical_formula_sum "Si O2"
_cell_formula_units_Z 22
_cell_length_a 27.000000
_cell_length_b 9.000000
_cell_length_c 12.000000
_cell_angle_alpha 90.000000
_cell_angle_beta 130.000000
_cell_angle_gamma 90.000000
_cell_volume 2233.785596
_symmetry_space_group_name_H-M "C 2/M"
_symmetry_group_IT_number 12
_symmetry_cell_setting 'monoclinic'
loop_
_space_group_symop_operation_xyz
x,y,z
-x,y,-z
-x,-y,-z
x,-y,z
1/2+x,1/2+y,z
1/2-x,1/2+y,-z
1/2-x,1/2-y,-z
1/2+x,1/2-y,z
loop_
_atom_site_type_symbol
_atom_site_label
_atom_site_fract_x
_atom_site_fract_y
_atom_site_fract_z
Si Si1 0.864546 0.663879 0.884583
Si Si2 0.500000 0.250744 0.000000
Si Si3 0.554070 0.334438 0.305955
Si Si4 0.957576 0.322507 0.330413
Si Si5 0.681528 0.674899 0.390481
Si Si6 0.818662 0.324385 0.072278
O O1 0.839631 0.500000 0.815795
O O2 0.839342 0.788068 0.765193
O O3 0.941467 0.662769 0.973886
O O4 0.841291 0.691977 0.976213
O O5 0.469395 0.341766 0.855372
O O6 0.558446 0.500000 0.360078
O O7 0.500216 0.244816 0.293576
O O8 0.625952 0.266702 0.395279
O O9 0.953496 0.500000 0.308213
O O10 0.883247 0.268404 0.230025
O O11 0.000000 0.291443 0.500000
O O12 0.684983 0.500000 0.413473
O O13 0.750000 0.750000 0.500000
O O14 0.810923 0.500000 0.083170
O O15 0.750000 0.250000 0.000000
#
# Coordination Sequence:
#
# PCOD9223403 Si02
#       6
#     8   4   8   8   8   8
#     4  10  20  35  59  87 116 151 196 245 298 361
#     4  10  18  34  60  90 118 146 190 244 304 352
#     4  10  21  36  58  87 118 149 192 248 303 360
#     4  10  22  41  62  86 119 158 208 259 306 366
#     4  10  22  38  56  85 122 156 194 241 302 368
#     4  10  22  40  59  87 119 159 208 255 306 365
#
# _framework density 9.8487519999999993
#
# number of rings (size 3 to 8) (size 9 to 14) (size 15 to 20)
#    0.000    2.000    1.818    1.091    0.000    7.636 
#    0.000    3.636    0.000    0.000    0.000    0.000 
#    0.000    0.000    0.000    0.000    0.000    0.000 
#
# Total GULP energy -122479.391853 kJ/mol
# GULP energy per Si atom -5567.245084 kJ/mol
# Density = 0.982634 g / cm^3
# Si number density = 9.848752 Si / 1000 Ang^3
#
#
#
# Elastic Constant Matrix: (Units=GPa)
#
#
# Indices 1 2 3 4 5 6 
#
# 1 166.4586 39.8415 76.4998 0.0000 32.5160 0.0000
# 2 39.8415 13.7534 52.9553 0.0000 1.1509 0.0000
# 3 76.4998 52.9553 69.6807 0.0000 34.5285 0.0000
# 4 0.0000 0.0000 0.0000 14.2023 0.0000 3.2700
# 5 32.5160 1.1509 34.5285 0.0000 34.4994 0.0000
# 6 0.0000 0.0000 0.0000 3.2700 0.0000 19.4810
#
#
#
# Elastic Compliance Matrix: (Units=1/GPa)
#
#
# Indices 1 2 3 4 5 6 
#
# 1 0.010912 -0.004538 -0.006962 0.000000 -0.003165 0.000000
# 2 -0.004538 -0.014064 0.026423 0.000000 -0.021698 0.000000
# 3 -0.006962 0.026423 -0.001787 0.000000 0.007469 0.000000
# 4 0.000000 0.000000 0.000000 0.073242 0.000000 -0.012294
# 5 -0.003165 -0.021698 0.007469 0.000000 0.025218 0.000000
# 6 0.000000 0.000000 0.000000 -0.012294 0.000000 0.053396
#
#
# Mechanical properties :
#
#
# Convention : Reuss Voigt Hill
#
# Bulk Modulus (GPa) = 40.15192 65.38732 52.76962
# Shear Modulus (GPa) = 39.88074 19.00961 29.44518
#
# Velocity S-wave (km/s) = 4.50450 3.10994 3.87055
# Velocity P-wave (km/s) = 6.89076 6.79437 6.84273
#
# Compressibility (1/GPa) = 0.02490541
#
# Stress axis : x y z
#
# Youngs Moduli (GPa) = 91.64617 -71.10485 -559.64120
#
# Poissons Ratio (x) = -0.32271 -3.89617
# Poissons Ratio (y) = 0.41593 14.78718
# Poissons Ratio (z) = 0.63803 1.87878
#
# Static dielectric constant tensor:
#      x y z
#    x 1.675810 0.000000 0.022290 
#    y 0.000000 1.694680 0.000000 
#    z 0.022290 0.000000 1.788880 
# 
# From -- ./inp_files/181303.got.cif
#   From: 2010.05.17/outbox.ucp.g08.bks.cvg/sg12_91_cif.got.tgz:181303.got - 2010.06.11 11:47:21.
