data_PCOD9223644
_publ_section_title
;
Structure prediction by ZEFSAII (Michael W. Deem and Ramdas Pophale) SiO2 
 PCOD9223644
Probable space group: C 2/M
;
_chemical_formula_sum "Si O2"
_cell_formula_units_Z 24
_cell_length_a 18.000000
_cell_length_b 15.000000
_cell_length_c 18.000000
_cell_angle_alpha 90.000000
_cell_angle_beta 30.000000
_cell_angle_gamma 90.000000
_cell_volume 2430.000000
_symmetry_space_group_name_H-M "C 2/M"
_symmetry_group_IT_number 12
_symmetry_cell_setting 'monoclinic'
loop_
_space_group_symop_operation_xyz
x,y,z
-x,y,-z
-x,-y,-z
x,-y,z
1/2+x,1/2+y,z
1/2-x,1/2+y,-z
1/2-x,1/2-y,-z
1/2+x,1/2-y,z
loop_
_atom_site_type_symbol
_atom_site_label
_atom_site_fract_x
_atom_site_fract_y
_atom_site_fract_z
Si Si1 0.567660 0.897658 0.647079
Si Si2 0.172564 0.101969 0.461223
Si Si3 0.040914 0.260402 0.380649
Si Si4 0.760347 0.103640 0.998901
Si Si5 0.554940 0.901662 0.869034
Si Si6 0.820445 0.257384 0.049976
O O1 0.707349 0.873693 0.578497
O O2 0.536466 0.831725 0.606828
O O3 0.413872 0.894829 0.826936
O O4 0.588911 0.000000 0.604421
O O5 0.035702 0.166760 0.572740
O O6 0.272391 0.105920 0.299770
O O7 0.126711 0.000000 0.513034
O O8 0.000000 0.282190 0.500000
O O9 0.217139 0.256944 0.211087
O O10 0.838161 0.161415 0.996078
O O11 0.805304 0.000000 0.950884
O O12 0.773958 0.170501 0.917430
O O13 0.512635 0.000000 0.871073
O O14 0.500000 0.910857 0.000000
O O15 0.474749 0.809408 0.918785
#
# Coordination Sequence:
#
# PCOD9223644 Si02
#       6
#     8   8   8   8   8   8
#     4   9  18  36  59  78 100 138 185 221 252 304
#     4  10  20  35  54  76 106 141 175 216 262 311
#     4  11  23  35  51  80 114 141 168 214 271 318
#     4   9  17  32  55  80 100 126 174 223 258 300
#     4  10  19  32  53  77 103 139 177 211 253 313
#     4  10  19  32  54  78 101 135 170 212 262 304
#
# _framework density 9.8765429999999999
#
# number of rings (size 3 to 8) (size 9 to 14) (size 15 to 20)
#    0.000    2.167    1.667    2.000    0.000    2.000 
#    0.000    0.000    0.000    0.500    0.000    0.000 
#    0.000    0.000    0.000    0.000    0.000    0.000 
#
# Total GULP energy -133639.614073 kJ/mol
# GULP energy per Si atom -5568.317253 kJ/mol
# Density = 0.985406 g / cm^3
# Si number density = 9.876543 Si / 1000 Ang^3
#
#
#
# Elastic Constant Matrix: (Units=GPa)
#
#
# Indices 1 2 3 4 5 6 
#
# 1 19.8118 12.3873 -6.7731 -0.0003 17.8376 0.0000
# 2 12.3873 83.4161 2.2710 -0.0004 14.0793 -0.0004
# 3 -6.7731 2.2710 37.8650 -0.0003 15.2843 -0.0015
# 4 -0.0003 -0.0004 -0.0003 42.3456 0.0004 49.5143
# 5 17.8376 14.0793 15.2843 0.0004 25.1262 0.0010
# 6 0.0000 -0.0004 -0.0015 49.5143 0.0010 146.1763
#
#
#
# Elastic Compliance Matrix: (Units=1/GPa)
#
#
# Indices 1 2 3 4 5 6 
#
# 1 -0.266403 -0.005355 -0.165527 -0.000003 0.292816 -0.000003
# 2 -0.005355 0.013380 -0.000356 0.000000 -0.003479 0.000000
# 3 -0.165527 -0.000356 -0.067189 -0.000002 0.158582 -0.000001
# 4 -0.000003 0.000000 -0.000002 0.039103 0.000003 -0.013245
# 5 0.292816 -0.003479 0.158582 0.000003 -0.262593 0.000002
# 6 -0.000003 0.000000 -0.000001 -0.013245 0.000002 0.011328
#
#
# Mechanical properties :
#
#
# Convention : Reuss Voigt Hill
#
# Bulk Modulus (GPa) = -1.50900 17.42928 7.96014
# Shear Modulus (GPa) = -12.17154 51.61013 19.71929
#
# Velocity S-wave (km/s) = -2.48500 5.11706 3.16300
# Velocity P-wave (km/s) = 2.99987 6.61477 4.16869
#
# Compressibility (1/GPa) = -0.66268873
#
# Stress axis : x y z
#
# Youngs Moduli (GPa) = -3.75371 74.73690 -14.88330
#
# Poissons Ratio (x) = 0.40023 -2.46359
# Poissons Ratio (y) = -0.02010 -0.00530
# Poissons Ratio (z) = -0.62134 0.02661
#
# Static dielectric constant tensor:
#      x y z
#    x 1.797470 0.000000 0.029410 
#    y 0.000000 1.707920 0.000000 
#    z 0.029410 0.000000 1.663140 
# 
# From -- ./inp_files/85935.got.cif
#   From: 2010.05.17/outbox.ucp.g08.bks.cvg/sg12_43_cif.got.tgz:85935.got - 2010.06.11 11:47:21.
