data_PCOD9223026
_publ_section_title
;
Structure prediction by ZEFSAII (Michael W. Deem and Ramdas Pophale) SiO2 
 PCOD9223026
Probable space group: C 2/M
;
_chemical_formula_sum "Si O2"
_cell_formula_units_Z 64
_cell_length_a 14.656056
_cell_length_b 7.558396
_cell_length_c 29.467857
_cell_angle_alpha 90.000000
_cell_angle_beta 90.010391
_cell_angle_gamma 90.000000
_cell_volume 3264.339378
_symmetry_space_group_name_H-M "C 2/M"
_symmetry_group_IT_number 12
_symmetry_cell_setting 'monoclinic'
loop_
_space_group_symop_operation_xyz
x,y,z
-x,y,-z
-x,-y,-z
x,-y,z
1/2+x,1/2+y,z
1/2-x,1/2+y,-z
1/2-x,1/2-y,-z
1/2+x,1/2-y,z
loop_
_atom_site_type_symbol
_atom_site_label
_atom_site_fract_x
_atom_site_fract_y
_atom_site_fract_z
Si Si1 0.999621 0.283339 0.300641
Si Si2 0.647176 0.212263 0.875105
Si Si3 0.856189 0.711335 0.374526
Si Si4 0.856899 0.288668 0.625627
Si Si5 0.353144 0.712032 0.876095
Si Si6 0.999748 0.716522 0.448240
Si Si7 0.500604 0.787397 0.802500
Si Si8 0.000387 0.212526 0.051330
O O1 0.999964 0.500000 0.299394
O O2 0.087803 0.226208 0.329907
O O3 0.999123 0.221058 0.248938
O O4 0.911643 0.226708 0.330084
O O5 0.750184 0.281186 0.875545
O O6 0.583920 0.279945 0.833829
O O7 0.592021 0.249148 0.921180
O O8 0.651879 0.000000 0.870063
O O9 0.865585 0.500000 0.374539
O O10 0.749655 0.750079 0.374450
O O11 0.911543 0.773620 0.418985
O O12 0.866387 0.500000 0.625631
O O13 0.912296 0.226416 0.581184
O O14 0.348102 0.500000 0.881429
O O15 0.408311 0.747351 0.829933
O O16 0.416544 0.780404 0.917249
O O17 0.999745 0.500000 0.449414
O O18 0.000000 0.777742 0.500000
O O19 0.508869 0.000000 0.800623
O O20 0.009640 0.000000 0.049190
O O21 0.000000 0.280477 0.000000
#
# Coordination Sequence:
#
# PCOD9223026 Si02
#       8
#     8   8   8   8   8   8   8   8
#     4   8  16  31  47  63  88 121 150 177 217 273
#     4   9  18  31  47  67  90 116 146 184 225 262
#     4   9  17  30  48  68  90 118 152 187 223 265
#     4   9  17  30  47  66  89 117 149 185 223 263
#     4   9  18  32  47  67  95 119 144 184 229 264
#     4   8  15  29  47  65  89 123 155 180 218 275
#     4   9  17  31  49  66  86 116 153 184 215 264
#     4   9  18  32  48  66  91 122 151 180 218 265
#
# _framework density 19.605803999999999
#
# number of rings (size 3 to 8) (size 9 to 14) (size 15 to 20)
#    0.000    3.250    0.000    1.500    0.000    2.750 
#    0.000    5.000    0.000    0.750    0.000    0.000 
#    0.000    0.000    0.000    0.000    0.000    0.000 
#
# Total GULP energy -178404.352719 kJ/mol
# GULP energy per Si atom -5575.136022 kJ/mol
# Density = 1.956118 g / cm^3
# Si number density = 19.605804 Si / 1000 Ang^3
#
#
#
# Elastic Constant Matrix: (Units=GPa)
#
#
# Indices 1 2 3 4 5 6 
#
# 1 206.7418 1.9228 126.2107 0.0000 -6.7462 0.0000
# 2 1.9228 42.9209 4.9373 0.0000 2.2255 0.0000
# 3 126.2107 4.9373 215.8287 0.0000 -6.4425 0.0000
# 4 0.0000 0.0000 0.0000 6.0523 0.0000 -4.6748
# 5 -6.7462 2.2255 -6.4425 0.0000 7.3239 0.0000
# 6 0.0000 0.0000 0.0000 -4.6748 0.0000 9.8183
#
#
#
# Elastic Compliance Matrix: (Units=1/GPa)
#
#
# Indices 1 2 3 4 5 6 
#
# 1 0.007593 -0.000005 -0.004346 0.000000 0.003173 0.000000
# 2 -0.000005 0.023799 -0.000778 0.000000 -0.007921 0.000000
# 3 -0.004346 -0.000778 0.007271 0.000000 0.002629 0.000000
# 4 0.000000 0.000000 0.000000 0.261340 0.000000 0.124433
# 5 0.003173 -0.007921 0.002629 0.000000 0.144182 0.000000
# 6 0.000000 0.000000 0.000000 0.124433 0.000000 0.161098
#
#
# Mechanical properties :
#
#
# Convention : Reuss Voigt Hill
#
# Bulk Modulus (GPa) = 35.20341 81.29258 58.24799
# Shear Modulus (GPa) = 7.99988 26.80027 17.40007
#
# Velocity S-wave (km/s) = 2.02218 3.70125 2.98232
# Velocity P-wave (km/s) = 4.84220 7.73429 6.45237
#
# Compressibility (1/GPa) = 0.02840634
#
# Stress axis : x y z
#
# Youngs Moduli (GPa) = 131.69304 42.01843 137.53708
#
# Poissons Ratio (x) = 0.00020 0.59768
# Poissons Ratio (y) = 0.00064 0.10701
# Poissons Ratio (z) = 0.57228 0.03269
#
# Static dielectric constant tensor:
#      x y z
#    x 1.674860 0.000000 0.016680 
#    y 0.000000 1.734270 0.000000 
#    z 0.016680 0.000000 1.674360 
# 
# From -- ./inp_files/357667.got.cif
#   From: 2010.05.17/outbox.cif.g08.bks.cpg/sg12_179_cif.got.tgz:357667.got - 2010.06.03 13:09:07.
