data_PCOD9223439
_publ_section_title
;
Structure prediction by ZEFSAII (Michael W. Deem and Ramdas Pophale) SiO2 
 PCOD9223439
Probable space group: C 2/M
;
_chemical_formula_sum "Si O2"
_cell_formula_units_Z 32
_cell_length_a 30.000000
_cell_length_b 24.000000
_cell_length_c 9.000000
_cell_angle_alpha 90.000000
_cell_angle_beta 30.000000
_cell_angle_gamma 90.000000
_cell_volume 3240.000000
_symmetry_space_group_name_H-M "C 2/M"
_symmetry_group_IT_number 12
_symmetry_cell_setting 'monoclinic'
loop_
_space_group_symop_operation_xyz
x,y,z
-x,y,-z
-x,-y,-z
x,-y,z
1/2+x,1/2+y,z
1/2-x,1/2+y,-z
1/2-x,1/2-y,-z
1/2+x,1/2-y,z
loop_
_atom_site_type_symbol
_atom_site_label
_atom_site_fract_x
_atom_site_fract_y
_atom_site_fract_z
Si Si1 0.634611 0.561523 0.062296
Si Si2 0.280143 0.632231 0.610719
Si Si3 0.746528 0.256740 0.689113
Si Si4 0.444434 0.248795 0.800060
Si Si5 0.180468 0.564788 0.646534
Si Si6 0.619723 0.436196 0.456863
Si Si7 0.089192 0.329247 0.829200
Si Si8 0.543387 0.360843 0.100266
O O1 0.599005 0.500000 0.121820
O O2 0.634470 0.565485 0.238488
O O3 0.575025 0.607438 0.156651
O O4 0.733694 0.565228 0.709752
O O5 0.254606 0.694745 0.730174
O O6 0.213005 0.599279 0.697134
O O7 0.299540 0.592535 0.691631
O O8 0.370755 0.640826 0.253430
O O9 0.750000 0.250000 0.500000
O O10 0.825660 0.299203 0.493713
O O11 0.646327 0.276011 0.003961
O O12 0.500000 0.229641 0.500000
O O13 0.487482 0.298717 0.771002
O O14 0.421250 0.199127 0.978760
O O15 0.157682 0.500000 0.740152
O O16 0.106261 0.604993 0.791831
O O17 0.607880 0.500000 0.538879
O O18 0.534353 0.398743 0.738636
O O19 0.000000 0.316419 0.000000
#
# Coordination Sequence:
#
# PCOD9223439 Si02
#       8
#     8   8   8   8   8   8   8   8
#     4   9  19  36  55  79 118 161 197 238 293 350
#     4  11  20  35  59  82 114 156 200 237 288 352
#     4  10  18  40  62  82 117 162 191 235 296 354
#     4  11  22  39  62  90 120 152 199 246 298 355
#     4  10  20  39  64  83 106 153 205 244 293 357
#     4  11  23  34  50  88 128 155 192 245 294 347
#     4  11  23  40  63  89 118 156 198 248 298 352
#     4  11  20  33  56  81 117 163 199 234 285 356
#
# _framework density 9.8765429999999999
#
# number of rings (size 3 to 8) (size 9 to 14) (size 15 to 20)
#    0.000    1.500    5.000    3.000    1.750    3.250 
#    2.250    0.625    0.000    0.375    0.000    0.000 
#    0.000    0.000    0.000    0.000    0.000    0.000 
#
# Total GULP energy -178515.172293 kJ/mol
# GULP energy per Si atom -5578.599134 kJ/mol
# Density = 0.985406 g / cm^3
# Si number density = 9.876543 Si / 1000 Ang^3
#
#
#
# Elastic Constant Matrix: (Units=GPa)
#
#
# Indices 1 2 3 4 5 6 
#
# 1 51.8844 25.9868 22.8427 0.0000 -14.7468 0.0000
# 2 25.9868 135.5657 14.2434 0.0000 -3.2840 0.0000
# 3 22.8427 14.2434 39.6333 0.0000 -3.8011 0.0000
# 4 0.0000 0.0000 0.0000 6.8796 0.0000 -1.4854
# 5 -14.7468 -3.2840 -3.8011 0.0000 21.5566 0.0000
# 6 0.0000 0.0000 0.0000 -1.4854 0.0000 25.9091
#
#
#
# Elastic Compliance Matrix: (Units=1/GPa)
#
#
# Indices 1 2 3 4 5 6 
#
# 1 0.034301 -0.004382 -0.016284 0.000000 0.019926 0.000000
# 2 -0.004382 0.008236 -0.000612 0.000000 -0.001851 0.000000
# 3 -0.016284 -0.000612 0.034340 0.000000 -0.005178 0.000000
# 4 0.000000 0.000000 0.000000 0.147180 0.000000 0.008438
# 5 0.019926 -0.001851 -0.005178 0.000000 0.058826 0.000000
# 6 0.000000 0.000000 0.000000 0.008438 0.000000 0.039080
#
#
# Mechanical properties :
#
#
# Convention : Reuss Voigt Hill
#
# Bulk Modulus (GPa) = 29.13572 39.24768 34.19170
# Shear Modulus (GPa) = 13.29939 21.80307 17.55123
#
# Velocity S-wave (km/s) = 2.59758 3.32592 2.98406
# Velocity P-wave (km/s) = 4.87633 5.88738 5.40555
#
# Compressibility (1/GPa) = 0.03432213
#
# Stress axis : x y z
#
# Youngs Moduli (GPa) = 29.15392 121.42000 29.12079
#
# Poissons Ratio (x) = 0.53201 0.47419
# Poissons Ratio (y) = 0.12774 0.01782
# Poissons Ratio (z) = 0.47473 0.07430
#
# Static dielectric constant tensor:
#      x y z
#    x 1.747050 0.000000 -0.045180 
#    y 0.000000 1.717590 0.000000 
#    z -0.045180 0.000000 1.706940 
# 
# From -- ./inp_files/113613.got.cif
#   From: 2010.05.17/outbox.ucp.g08.bks.cvg/sg12_57_cif.got.tgz:113613.got - 2010.06.11 11:47:21.
