data_PCOD9223726
_publ_section_title
;
Structure prediction by ZEFSAII (Michael W. Deem and Ramdas Pophale) SiO2 
 PCOD9223726
Probable space group: C 2/M
;
_chemical_formula_sum "Si O2"
_cell_formula_units_Z 28
_cell_length_a 30.000000
_cell_length_b 9.000000
_cell_length_c 21.000000
_cell_angle_alpha 90.000000
_cell_angle_beta 30.000000
_cell_angle_gamma 90.000000
_cell_volume 2835.000000
_symmetry_space_group_name_H-M "C 2/M"
_symmetry_group_IT_number 12
_symmetry_cell_setting 'monoclinic'
loop_
_space_group_symop_operation_xyz
x,y,z
-x,y,-z
-x,-y,-z
x,-y,z
1/2+x,1/2+y,z
1/2-x,1/2+y,-z
1/2-x,1/2-y,-z
1/2+x,1/2-y,z
loop_
_atom_site_type_symbol
_atom_site_label
_atom_site_fract_x
_atom_site_fract_y
_atom_site_fract_z
Si Si1 0.424227 0.828589 0.339992
Si Si2 0.766856 0.322833 0.197434
Si Si3 0.698380 0.323419 0.152563
Si Si4 0.788113 0.327871 0.612342
Si Si5 0.470496 0.174245 0.962953
Si Si6 0.860566 0.175234 0.304607
Si Si7 0.110450 0.323501 0.149332
O O1 0.382707 0.823810 0.461133
O O2 0.355488 0.746531 0.379777
O O3 0.523895 0.766139 0.219540
O O4 0.426387 0.000000 0.316534
O O5 0.772461 0.500000 0.183015
O O6 0.710126 0.264343 0.208746
O O7 0.717674 0.277911 0.321475
O O8 0.869759 0.272375 0.075718
O O9 0.682650 0.500000 0.170842
O O10 0.625355 0.246308 0.199625
O O11 0.797305 0.297408 0.001324
O O12 0.768749 0.500000 0.653557
O O13 0.711654 0.277388 0.657696
O O14 0.542534 0.271338 0.837747
O O15 0.475642 0.000000 0.937482
O O16 0.500000 0.181024 0.000000
O O17 0.853889 0.000000 0.317828
O O18 0.098349 0.500000 0.169883
#
# Coordination Sequence:
#
# PCOD9223726 Si02
#       7
#     8   8   8   8   8   8   8
#     4  10  21  38  57  75 102 142 184 220 258 313
#     4  10  20  35  55  79 107 143 180 213 258 317
#     4   9  18  33  55  82 108 130 163 215 269 317
#     4  10  22  37  52  75 108 143 179 221 262 306
#     4  10  19  33  54  77 104 141 178 211 254 312
#     4  11  22  34  52  80 110 139 175 223 271 309
#     4   9  18  35  58  80 102 131 172 218 261 312
#
# _framework density 9.8765429999999999
#
# number of rings (size 3 to 8) (size 9 to 14) (size 15 to 20)
#    0.000    2.143    1.429    1.714    0.000    5.429 
#    0.000    3.571    0.000    4.286    0.000    0.000 
#    0.000    0.000    0.000    0.000    0.000    0.000 
#
# Total GULP energy -156042.170250 kJ/mol
# GULP energy per Si atom -5572.934652 kJ/mol
# Density = 0.985406 g / cm^3
# Si number density = 9.876543 Si / 1000 Ang^3
#
#
#
# Elastic Constant Matrix: (Units=GPa)
#
#
# Indices 1 2 3 4 5 6 
#
# 1 111.8531 36.6112 15.8721 0.0016 7.3697 -0.0025
# 2 36.6112 -10.9728 7.8845 -0.0050 3.3335 0.0062
# 3 15.8721 7.8845 13.0419 -0.0044 9.6907 0.0058
# 4 0.0016 -0.0050 -0.0044 60.8089 0.0005 -52.7348
# 5 7.3697 3.3335 9.6907 0.0005 16.6444 0.0002
# 6 -0.0025 0.0062 0.0058 -52.7348 0.0002 90.9926
#
#
#
# Elastic Compliance Matrix: (Units=1/GPa)
#
#
# Indices 1 2 3 4 5 6 
#
# 1 0.007627 0.012003 -0.021577 0.000000 0.006782 0.000001
# 2 0.012003 -0.042032 0.014976 -0.000001 -0.005616 0.000001
# 3 -0.021577 0.014976 0.156882 0.000008 -0.084785 -0.000007
# 4 0.000000 -0.000001 0.000008 0.033062 -0.000005 0.019161
# 5 0.006782 -0.005616 -0.084785 -0.000005 0.107566 0.000003
# 6 0.000001 0.000001 -0.000007 0.019161 0.000003 0.022095
#
#
# Mechanical properties :
#
#
# Convention : Reuss Voigt Hill
#
# Bulk Modulus (GPa) = 7.50306 26.07310 16.78808
# Shear Modulus (GPa) = 15.68272 37.25947 26.47109
#
# Velocity S-wave (km/s) = 2.82075 4.34782 3.66471
# Velocity P-wave (km/s) = 3.79677 6.19943 5.14045
#
# Compressibility (1/GPa) = 0.13327888
#
# Stress axis : x y z
#
# Youngs Moduli (GPa) = 131.11904 -23.79132 6.37422
#
# Poissons Ratio (x) = 0.28556 0.13754
# Poissons Ratio (y) = -1.57377 -0.09546
# Poissons Ratio (z) = 2.82920 0.35630
#
# Static dielectric constant tensor:
#      x y z
#    x 1.738200 0.000000 0.056300 
#    y 0.000000 1.673980 0.000000 
#    z 0.056300 0.000000 1.723630 
# 
# From -- ./inp_files/249299.got.cif
#   From: 2010.05.17/outbox.ucp.g08.bks.cvg/sg12_125_cif.got.tgz:249299.got - 2010.06.11 11:47:21.
