data_PCOD9223287
_publ_section_title
;
Structure prediction by ZEFSAII (Michael W. Deem and Ramdas Pophale) SiO2 
 PCOD9223287
Probable space group: C 2/M
;
_chemical_formula_sum "Si O2"
_cell_formula_units_Z 32
_cell_length_a 27.000000
_cell_length_b 9.000000
_cell_length_c 15.000000
_cell_angle_alpha 90.000000
_cell_angle_beta 100.000000
_cell_angle_gamma 90.000000
_cell_volume 3589.624260
_symmetry_space_group_name_H-M "C 2/M"
_symmetry_group_IT_number 12
_symmetry_cell_setting 'monoclinic'
loop_
_space_group_symop_operation_xyz
x,y,z
-x,y,-z
-x,-y,-z
x,-y,z
1/2+x,1/2+y,z
1/2-x,1/2+y,-z
1/2-x,1/2-y,-z
1/2+x,1/2-y,z
loop_
_atom_site_type_symbol
_atom_site_label
_atom_site_fract_x
_atom_site_fract_y
_atom_site_fract_z
Si Si1 0.598834 0.680970 0.133282
Si Si2 0.596574 0.319306 0.928452
Si Si3 0.309613 0.678056 0.156409
Si Si4 0.285918 0.680238 0.791545
Si Si5 0.530743 0.321693 0.599198
Si Si6 0.498397 0.680519 0.785468
Si Si7 0.362717 0.175360 0.341722
Si Si8 0.236963 0.325290 0.588359
O O1 0.598566 0.500000 0.135919
O O2 0.656043 0.724811 0.175867
O O3 0.553009 0.731461 0.182478
O O4 0.588526 0.725917 0.028001
O O5 0.596058 0.500000 0.925196
O O6 0.652328 0.276206 0.911357
O O7 0.549766 0.269579 0.851853
O O8 0.303767 0.500000 0.152740
O O9 0.254851 0.752776 0.151759
O O10 0.341293 0.730105 0.252646
O O11 0.282558 0.500000 0.796413
O O12 0.267331 0.725533 0.686361
O O13 0.500000 0.289833 0.500000
O O14 0.540181 0.500000 0.605117
O O15 0.502230 0.281406 0.682238
O O16 0.583119 0.235306 0.615634
O O17 0.498321 0.500000 0.790914
O O18 0.321681 0.194512 0.406529
O O19 0.363607 0.000000 0.318643
O O20 0.247268 0.500000 0.583398
O O21 0.250000 0.250000 0.500000
#
# Coordination Sequence:
#
# PCOD9223287 Si02
#       8
#     8   8   8   8   8   8   8   8
#     4   9  17  29  48  73 105 140 169 213 266 310
#     4   9  16  27  48  77 102 130 176 219 258 307
#     4  10  18  31  53  77 102 133 171 215 257 303
#     4   9  19  34  49  74 108 136 170 211 261 316
#     4  10  20  33  52  80 108 135 171 215 261 305
#     4   9  16  29  48  74 106 136 173 216 256 305
#     4  10  20  35  53  74 103 136 171 211 258 309
#     4   9  19  33  50  72  97 130 171 212 251 306
#
# _framework density 8.9145819999999993
#
# number of rings (size 3 to 8) (size 9 to 14) (size 15 to 20)
#    0.000    2.625    1.250    1.875    0.000    5.750 
#    0.000    2.500    0.000    1.500    0.000    0.875 
#    0.000    0.000    0.000    0.000    0.000    0.000 
#
# Total GULP energy -178335.418857 kJ/mol
# GULP energy per Si atom -5572.981839 kJ/mol
# Density = 0.889429 g / cm^3
# Si number density = 8.914582 Si / 1000 Ang^3
#
#
#
# Elastic Constant Matrix: (Units=GPa)
#
#
# Indices 1 2 3 4 5 6 
#
# 1 144.8512 20.5510 73.4291 0.0000 -6.0984 0.0000
# 2 20.5510 11.6788 13.9316 0.0000 -6.3928 0.0000
# 3 73.4291 13.9316 110.6008 0.0000 -16.9212 0.0000
# 4 0.0000 0.0000 0.0000 11.3572 0.0000 -1.8194
# 5 -6.0984 -6.3928 -16.9212 0.0000 25.3945 0.0000
# 6 0.0000 0.0000 0.0000 -1.8194 0.0000 30.4183
#
#
#
# Elastic Compliance Matrix: (Units=1/GPa)
#
#
# Indices 1 2 3 4 5 6 
#
# 1 0.012743 -0.017118 -0.007232 0.000000 -0.006068 0.000000
# 2 -0.017118 0.132553 -0.000953 0.000000 0.028623 0.000000
# 3 -0.007232 -0.000953 0.015212 0.000000 0.008159 0.000000
# 4 0.000000 0.000000 0.000000 0.088902 0.000000 0.005318
# 5 -0.006068 0.028623 0.008159 0.000000 0.050564 0.000000
# 6 0.000000 0.000000 0.000000 0.005318 0.000000 0.033193
#
#
# Mechanical properties :
#
#
# Convention : Reuss Voigt Hill
#
# Bulk Modulus (GPa) = 9.09912 53.66155 31.38033
# Shear Modulus (GPa) = 11.89327 24.04860 17.97094
#
# Velocity S-wave (km/s) = 2.58557 3.67663 3.17827
# Velocity P-wave (km/s) = 3.74542 6.94165 5.57739
#
# Compressibility (1/GPa) = 0.10990074
#
# Stress axis : x y z
#
# Youngs Moduli (GPa) = 78.47347 7.54418 65.73932
#
# Poissons Ratio (x) = 0.12914 0.47546
# Poissons Ratio (y) = 1.34331 0.06263
# Poissons Ratio (z) = 0.56756 0.00719
#
# Static dielectric constant tensor:
#      x y z
#    x 1.613960 0.000000 -0.008890 
#    y 0.000000 1.601110 0.000000 
#    z -0.008890 0.000000 1.612620 
# 
# From -- ./inp_files/244050.got.cif
#   From: 2010.05.17/outbox.ucp.g08.bks.cvg/sg12_123_cif.got.tgz:244050.got - 2010.06.11 11:47:21.
