data_PCOD9223510
_publ_section_title
;
Structure prediction by ZEFSAII (Michael W. Deem and Ramdas Pophale) SiO2 
 PCOD9223510
Probable space group: C 2/M
;
_chemical_formula_sum "Si O2"
_cell_formula_units_Z 28
_cell_length_a 18.000000
_cell_length_b 9.000000
_cell_length_c 21.000000
_cell_angle_alpha 90.000000
_cell_angle_beta 120.000000
_cell_angle_gamma 90.000000
_cell_volume 2946.218424
_symmetry_space_group_name_H-M "C 2/M"
_symmetry_group_IT_number 12
_symmetry_cell_setting 'monoclinic'
loop_
_space_group_symop_operation_xyz
x,y,z
-x,y,-z
-x,-y,-z
x,-y,z
1/2+x,1/2+y,z
1/2-x,1/2+y,-z
1/2-x,1/2-y,-z
1/2+x,1/2-y,z
loop_
_atom_site_type_symbol
_atom_site_label
_atom_site_fract_x
_atom_site_fract_y
_atom_site_fract_z
Si Si1 0.245623 0.674267 0.815838
Si Si2 0.689470 0.329778 0.522729
Si Si3 0.505667 0.326682 0.573131
Si Si4 0.560128 0.678839 0.085504
Si Si5 0.075723 0.176571 0.736839
Si Si6 0.247428 0.327730 0.315197
Si Si7 0.547637 0.829394 0.217891
O O1 0.230149 0.500000 0.817596
O O2 0.339067 0.711217 0.883916
O O3 0.165530 0.769384 0.804328
O O4 0.246624 0.718443 0.741802
O O5 0.717020 0.500000 0.539751
O O6 0.750000 0.250000 0.500000
O O7 0.594624 0.325889 0.453389
O O8 0.699362 0.277169 0.600189
O O9 0.500000 0.256388 0.500000
O O10 0.533401 0.500000 0.575432
O O11 0.558142 0.268706 0.656262
O O12 0.552587 0.500000 0.091149
O O13 0.540578 0.758534 0.144269
O O14 0.500000 0.721031 0.000000
O O15 0.004543 0.238408 0.753019
O O16 0.071810 0.000000 0.732369
O O17 0.271180 0.500000 0.307945
O O18 0.145919 0.329928 0.283934
O O19 0.518294 0.000000 0.202416
#
# Coordination Sequence:
#
# PCOD9223510 Si02
#       7
#     8   8   8   8   8   8   8
#     4  10  20  34  55  80 104 132 168 211 257 308
#     4  10  19  31  48  70  97 130 171 218 264 306
#     4   9  18  32  50  71  97 135 181 223 260 302
#     4   9  19  38  62  85 108 134 167 208 257 316
#     4  11  21  34  53  76 107 145 182 218 260 311
#     4   9  18  33  52  73 100 136 175 216 262 313
#     4  10  20  34  54  81 111 140 174 216 261 310
#
# _framework density 9.5037079999999996
#
# number of rings (size 3 to 8) (size 9 to 14) (size 15 to 20)
#    0.000    2.286    0.000    3.000    0.000    4.286 
#    0.000    1.429    0.000    3.000    0.000    0.000 
#    0.000    0.000    0.000    0.000    0.000    0.000 
#
# Total GULP energy -156001.417754 kJ/mol
# GULP energy per Si atom -5571.479205 kJ/mol
# Density = 0.948208 g / cm^3
# Si number density = 9.503708 Si / 1000 Ang^3
#
#
#
# Elastic Constant Matrix: (Units=GPa)
#
#
# Indices 1 2 3 4 5 6 
#
# 1 81.2005 33.3695 31.7331 0.0000 11.1943 0.0000
# 2 33.3695 35.1397 25.4147 0.0000 8.6838 0.0000
# 3 31.7331 25.4147 124.2896 0.0000 27.4915 0.0000
# 4 0.0000 0.0000 0.0000 22.6790 0.0000 -2.2381
# 5 11.1943 8.6838 27.4915 0.0000 21.7911 0.0000
# 6 0.0000 0.0000 0.0000 -2.2381 0.0000 23.6427
#
#
#
# Elastic Compliance Matrix: (Units=1/GPa)
#
#
# Indices 1 2 3 4 5 6 
#
# 1 0.020477 -0.018189 -0.001089 0.000000 -0.001897 0.000000
# 2 -0.018189 0.050233 -0.004531 0.000000 -0.004958 0.000000
# 3 -0.001089 -0.004531 0.012105 0.000000 -0.012907 0.000000
# 4 0.000000 0.000000 0.000000 0.044510 0.000000 0.004213
# 5 -0.001897 -0.004958 -0.012907 0.000000 0.065123 0.000000
# 6 0.000000 0.000000 0.000000 0.004213 0.000000 0.042695
#
#
# Mechanical properties :
#
#
# Convention : Reuss Voigt Hill
#
# Bulk Modulus (GPa) = 28.41214 46.85161 37.63187
# Shear Modulus (GPa) = 16.97828 23.63006 20.30417
#
# Velocity S-wave (km/s) = 2.99196 3.52973 3.27191
# Velocity P-wave (km/s) = 5.18808 6.42765 5.84084
#
# Compressibility (1/GPa) = 0.03519622
#
# Stress axis : x y z
#
# Youngs Moduli (GPa) = 48.83477 19.90732 82.60959
#
# Poissons Ratio (x) = 0.36210 0.08999
# Poissons Ratio (y) = 0.88826 0.37431
# Poissons Ratio (z) = 0.05320 0.09020
#
# Static dielectric constant tensor:
#      x y z
#    x 1.754730 0.000000 0.010210 
#    y 0.000000 1.645780 0.000000 
#    z 0.010210 0.000000 1.646230 
# 
# From -- ./inp_files/313812.got.cif
#   From: 2010.05.17/outbox.ucp.g08.bks.cvg/sg12_157_cif.got.tgz:313812.got - 2010.06.11 11:47:21.
