data_PCOD9223083
_publ_section_title
;
Structure prediction by ZEFSAII (Michael W. Deem and Ramdas Pophale) SiO2 
 PCOD9223083
Probable space group: C 2/M
;
_chemical_formula_sum "Si O2"
_cell_formula_units_Z 56
_cell_length_a 31.592932
_cell_length_b 7.319754
_cell_length_c 14.400967
_cell_angle_alpha 90.000000
_cell_angle_beta 39.472589
_cell_angle_gamma 90.000000
_cell_volume 2117.075902
_symmetry_space_group_name_H-M "C 2/M"
_symmetry_group_IT_number 12
_symmetry_cell_setting 'monoclinic'
loop_
_space_group_symop_operation_xyz
x,y,z
-x,y,-z
-x,-y,-z
x,-y,z
1/2+x,1/2+y,z
1/2-x,1/2+y,-z
1/2-x,1/2-y,-z
1/2+x,1/2-y,z
loop_
_atom_site_type_symbol
_atom_site_label
_atom_site_fract_x
_atom_site_fract_y
_atom_site_fract_z
Si Si1 0.642644 0.780603 0.542502
Si Si2 0.789108 0.716369 0.298110
Si Si3 0.083731 0.723608 0.244805
Si Si4 0.862891 0.289439 0.659369
Si Si5 0.715168 0.220947 0.908668
Si Si6 0.998398 0.720267 0.783117
Si Si7 0.070030 0.279566 0.919252
O O1 0.714714 0.738797 0.462315
O O2 0.641227 0.712575 0.437500
O O3 0.570183 0.718055 0.699497
O O4 0.641510 0.000000 0.546681
O O5 0.799247 0.500000 0.275411
O O6 0.787416 0.785251 0.194297
O O7 0.856595 0.787243 0.231617
O O8 0.082429 0.500000 0.249853
O O9 0.090308 0.787010 0.339439
O O10 0.022347 0.782242 0.284164
O O11 0.151236 0.777007 0.076014
O O12 0.883198 0.500000 0.611568
O O13 0.786839 0.283294 0.825052
O O14 0.715603 0.000000 0.907001
O O15 0.002149 0.500000 0.773237
O O16 0.939483 0.756633 0.954838
O O17 0.068635 0.500000 0.903945
O O18 0.000000 0.208927 0.000000
#
# Coordination Sequence:
#
# PCOD9223083 Si02
#       7
#     8   8   8   8   8   8   8
#     4   9  18  30  45  66  95 126 151 179 220 270
#     4   9  16  29  49  69  90 118 150 187 227 265
#     4   9  15  24  40  61  87 115 150 191 223 253
#     4   9  17  26  38  62  91 119 150 183 217 259
#     4   9  15  25  42  62  85 116 151 185 223 261
#     4   9  16  28  45  66  91 119 151 188 228 265
#     4   9  16  28  49  74  92 110 148 195 228 260
#
# _framework density 26.45158
#
# number of rings (size 3 to 8) (size 9 to 14) (size 15 to 20)
#    0.000    3.000    1.429    0.429    0.000    0.571 
#    0.000    3.571    0.000    3.000    0.000    4.000 
#    0.000    0.000    0.000    0.000    0.000    0.000 
#
# Total GULP energy -156388.724642 kJ/mol
# GULP energy per Si atom -5585.311594 kJ/mol
# Density = 2.639138 g / cm^3
# Si number density = 26.451580 Si / 1000 Ang^3
#
#
#
# Elastic Constant Matrix: (Units=GPa)
#
#
# Indices 1 2 3 4 5 6 
#
# 1 156.1821 -2.6867 61.6514 -0.0001 -42.6929 -0.0006
# 2 -2.6867 100.5684 -5.3903 -0.0004 1.2367 -0.0012
# 3 61.6514 -5.3903 138.4902 -0.0005 -30.4508 -0.0002
# 4 -0.0001 -0.0004 -0.0005 9.7179 0.0002 -8.1287
# 5 -42.6929 1.2367 -30.4508 0.0002 46.0979 0.0005
# 6 -0.0006 -0.0012 -0.0002 -8.1287 0.0005 -2.2947
#
#
#
# Elastic Compliance Matrix: (Units=1/GPa)
#
#
# Indices 1 2 3 4 5 6 
#
# 1 0.009329 0.000023 -0.002635 0.000000 0.006899 0.000000
# 2 0.000023 0.009964 0.000378 -0.000001 0.000004 -0.000002
# 3 -0.002635 0.000378 0.009207 0.000000 0.003631 0.000000
# 4 0.000000 -0.000001 0.000000 0.025965 0.000001 -0.091979
# 5 0.006899 0.000004 0.003631 0.000001 0.030480 0.000002
# 6 0.000000 -0.000002 0.000000 -0.091979 0.000002 -0.109961
#
#
# Mechanical properties :
#
#
# Convention : Reuss Voigt Hill
#
# Bulk Modulus (GPa) = 41.60929 55.82107 48.71518
# Shear Modulus (GPa) = -398.85211 33.48198 -182.68507
#
# Velocity S-wave (km/s) = -12.29281 3.56165 -8.31949
# Velocity P-wave (km/s) = 13.62790 6.16950 8.59235
#
# Compressibility (1/GPa) = 0.02403309
#
# Stress axis : x y z
#
# Youngs Moduli (GPa) = 107.19005 100.35791 108.61314
#
# Poissons Ratio (x) = -0.00232 0.28623
# Poissons Ratio (y) = -0.00248 -0.04110
# Poissons Ratio (z) = 0.28248 -0.03798
#
# Static dielectric constant tensor:
#      x y z
#    x 2.092440 0.000000 0.012160 
#    y 0.000000 2.091380 0.000000 
#    z 0.012160 0.000000 2.064190 
# 
# From -- ./inp_files/245617.got.cif
#   From: 2010.05.17/outbox.cif.g08.bks.cpg/sg12_123_cif.got.tgz:245617.got - 2010.06.03 13:09:07.
