data_PCOD9223090
_publ_section_title
;
Structure prediction by ZEFSAII (Michael W. Deem and Ramdas Pophale) SiO2 
 PCOD9223090
Probable space group: C 2/M
;
_chemical_formula_sum "Si O2"
_cell_formula_units_Z 64
_cell_length_a 22.323820
_cell_length_b 7.302345
_cell_length_c 21.396295
_cell_angle_alpha 90.000000
_cell_angle_beta 124.643578
_cell_angle_gamma 90.000000
_cell_volume 2869.545875
_symmetry_space_group_name_H-M "C 2/M"
_symmetry_group_IT_number 12
_symmetry_cell_setting 'monoclinic'
loop_
_space_group_symop_operation_xyz
x,y,z
-x,y,-z
-x,-y,-z
x,-y,z
1/2+x,1/2+y,z
1/2-x,1/2+y,-z
1/2-x,1/2-y,-z
1/2+x,1/2-y,z
loop_
_atom_site_type_symbol
_atom_site_label
_atom_site_fract_x
_atom_site_fract_y
_atom_site_fract_z
Si Si1 0.577607 0.708157 0.480422
Si Si2 0.275023 0.276294 0.383326
Si Si3 0.997140 0.709940 0.765025
Si Si4 0.357468 0.777037 0.616381
Si Si5 0.363448 0.222343 0.084814
Si Si6 0.770018 0.776970 0.244276
Si Si7 0.562050 0.722379 0.667275
Si Si8 0.277239 0.213966 0.915259
O O1 0.567516 0.500000 0.496586
O O2 0.642066 0.789890 0.560055
O O3 0.615519 0.706311 0.434166
O O4 0.497387 0.785504 0.419309
O O5 0.277705 0.500000 0.386812
O O6 0.221842 0.219414 0.407518
O O7 0.243541 0.224165 0.297240
O O8 0.986199 0.500000 0.778075
O O9 0.057185 0.789368 0.847376
O O10 0.034826 0.714911 0.719004
O O11 0.917106 0.784269 0.703242
O O12 0.359801 0.000000 0.614224
O O13 0.302561 0.272751 0.100161
O O14 0.364833 0.000000 0.085002
O O15 0.333038 0.288515 0.000082
O O16 0.854859 0.722684 0.291395
O O17 0.728578 0.710326 0.158066
O O18 0.769208 0.000000 0.241212
O O19 0.559131 0.500000 0.665124
O O20 0.295183 0.000000 0.919882
#
# Coordination Sequence:
#
# PCOD9223090 Si02
#       8
#     8   8   8   8   8   8   8   8
#     4   9  17  28  44  64  83 102 133 178 213 237
#     4   9  17  28  42  61  82 109 141 169 202 242
#     4   9  16  26  41  61  84 108 133 166 204 241
#     4   9  17  29  45  61  80 108 140 171 203 240
#     4   9  16  25  40  62  85 106 131 164 202 239
#     4   9  16  26  41  60  85 111 135 164 200 246
#     4   9  16  26  41  62  84 106 133 167 206 243
#     4   9  16  26  41  61  84 108 132 162 199 241
#
# _framework density 22.303179
#
# number of rings (size 3 to 8) (size 9 to 14) (size 15 to 20)
#    0.000    3.000    1.250    0.375    0.000    0.500 
#    0.000    2.500    0.000    3.750    0.000    8.750 
#    0.000    0.000    0.000   12.500    0.000   13.000 
#
# Total GULP energy -178546.019892 kJ/mol
# GULP energy per Si atom -5579.563122 kJ/mol
# Density = 2.225242 g / cm^3
# Si number density = 22.303179 Si / 1000 Ang^3
#
#
#
# Elastic Constant Matrix: (Units=GPa)
#
#
# Indices 1 2 3 4 5 6 
#
# 1 47.8664 -4.0927 9.1013 0.0000 -3.3567 0.0000
# 2 -4.0927 95.8672 -1.2270 0.0001 1.4339 -0.0002
# 3 9.1013 -1.2270 148.3431 0.0000 -5.5407 0.0000
# 4 0.0000 0.0001 0.0000 -4.3942 0.0000 0.0790
# 5 -3.3567 1.4339 -5.5407 0.0000 29.9600 0.0000
# 6 0.0000 -0.0002 0.0000 0.0790 0.0000 4.6318
#
#
#
# Elastic Compliance Matrix: (Units=1/GPa)
#
#
# Indices 1 2 3 4 5 6 
#
# 1 0.021347 0.000864 -0.001223 0.000000 0.002124 0.000000
# 2 0.000864 0.010474 0.000019 0.000000 -0.000401 0.000000
# 3 -0.001223 0.000019 0.006859 0.000000 0.001130 0.000000
# 4 0.000000 0.000000 0.000000 -0.227502 0.000000 0.003881
# 5 0.002124 -0.000401 0.001130 0.000000 0.033844 0.000000
# 6 0.000000 0.000000 0.000000 0.003881 0.000000 0.215833
#
#
# Mechanical properties :
#
#
# Convention : Reuss Voigt Hill
#
# Bulk Modulus (GPa) = 26.31693 33.29332 29.80513
# Shear Modulus (GPa) = 67.38352 25.25919 46.32136
#
# Velocity S-wave (km/s) = 5.50255 3.36897 4.56224
# Velocity P-wave (km/s) = 7.22468 5.48574 6.41441
#
# Compressibility (1/GPa) = 0.03799835
#
# Stress axis : x y z
#
# Youngs Moduli (GPa) = 46.84523 95.47253 145.80330
#
# Poissons Ratio (x) = -0.08248 0.17835
# Poissons Ratio (y) = -0.04047 -0.00272
# Poissons Ratio (z) = 0.05730 -0.00178
#
# Static dielectric constant tensor:
#      x y z
#    x 1.770520 0.000000 0.006020 
#    y 0.000000 1.844280 0.000000 
#    z 0.006020 0.000000 1.865470 
# 
# From -- ./inp_files/288857.got.cif
#   From: 2010.05.17/outbox.cif.g08.bks.cpg/sg12_145_cif.got.tgz:288857.got - 2010.06.03 13:09:07.
