data_PCOD9223372
_publ_section_title
;
Structure prediction by ZEFSAII (Michael W. Deem and Ramdas Pophale) SiO2 
 PCOD9223372
Probable space group: C 2/M
;
_chemical_formula_sum "Si O2"
_cell_formula_units_Z 28
_cell_length_a 9.000000
_cell_length_b 30.000000
_cell_length_c 18.000000
_cell_angle_alpha 90.000000
_cell_angle_beta 40.000000
_cell_angle_gamma 90.000000
_cell_volume 3123.947783
_symmetry_space_group_name_H-M "C 2/M"
_symmetry_group_IT_number 12
_symmetry_cell_setting 'monoclinic'
loop_
_space_group_symop_operation_xyz
x,y,z
-x,y,-z
-x,-y,-z
x,-y,z
1/2+x,1/2+y,z
1/2-x,1/2+y,-z
1/2-x,1/2-y,-z
1/2+x,1/2-y,z
loop_
_atom_site_type_symbol
_atom_site_label
_atom_site_fract_x
_atom_site_fract_y
_atom_site_fract_z
Si Si1 0.737968 0.283740 0.073974
Si Si2 0.575106 0.699042 0.614749
Si Si3 0.718016 0.449407 0.469109
Si Si4 0.075443 0.353170 0.623354
Si Si5 0.429170 0.358963 0.242525
Si Si6 0.269596 0.551740 0.370777
Si Si7 0.636346 0.772688 0.695415
O O1 0.602984 0.331811 0.120907
O O2 0.581272 0.254248 0.189663
O O3 0.750000 0.250000 0.000000
O O4 0.000000 0.291704 0.000000
O O5 0.720046 0.670231 0.500948
O O6 0.510295 0.662646 0.701755
O O7 0.713481 0.740070 0.598764
O O8 0.347037 0.721678 0.670048
O O9 0.500000 0.447485 0.500000
O O10 0.822321 0.500000 0.423645
O O11 0.875750 0.406190 0.390585
O O12 0.620134 0.445292 0.590048
O O13 0.069756 0.322940 0.698741
O O14 0.832094 0.344926 0.676932
O O15 0.391735 0.412284 0.270295
O O16 0.276627 0.500000 0.342920
O O17 0.000000 0.562041 0.500000
#
# Coordination Sequence:
#
# PCOD9223372 Si02
#       7
#     8   8   8   8   8   8   8
#     4  11  23  42  57  72  99 139 190 251 286 317
#     4  11  21  35  49  78 114 142 170 215 265 337
#     4  10  20  33  50  78 120 158 179 203 247 313
#     4  12  21  33  51  81 115 147 172 215 262 339
#     4  11  21  35  56  80 107 145 190 221 275 331
#     4  10  18  33  56  85 120 151 177 212 263 334
#     4  11  23  35  54  76 101 141 185 220 281 332
#
# _framework density 8.9630179999999999
#
# number of rings (size 3 to 8) (size 9 to 14) (size 15 to 20)
#    0.000    1.143    2.857    6.429    0.000    2.286 
#    0.000    0.000    0.000    0.429    0.000    1.000 
#    0.000    3.429    0.000    0.000    0.000    0.000 
#
# Total GULP energy -155886.612744 kJ/mol
# GULP energy per Si atom -5567.379027 kJ/mol
# Density = 0.894262 g / cm^3
# Si number density = 8.963018 Si / 1000 Ang^3
#
#
#
# Elastic Constant Matrix: (Units=GPa)
#
#
# Indices 1 2 3 4 5 6 
#
# 1 79.5308 32.6755 16.9805 0.0000 -9.6542 0.0000
# 2 32.6755 165.9341 40.6543 0.0000 -7.3513 0.0000
# 3 16.9805 40.6543 66.0193 0.0000 -11.4689 0.0000
# 4 0.0000 0.0000 0.0000 31.6024 0.0000 -1.3024
# 5 -9.6542 -7.3513 -11.4689 0.0000 21.3289 0.0000
# 6 0.0000 0.0000 0.0000 -1.3024 0.0000 27.9837
#
#
#
# Elastic Compliance Matrix: (Units=1/GPa)
#
#
# Indices 1 2 3 4 5 6 
#
# 1 0.014416 -0.002263 -0.001452 0.000000 0.004965 0.000000
# 2 -0.002263 0.007453 -0.004124 0.000000 -0.000673 0.000000
# 3 -0.001452 -0.004124 0.019523 0.000000 0.008419 0.000000
# 4 0.000000 0.000000 0.000000 0.031704 0.000000 0.001476
# 5 0.004965 -0.000673 0.008419 0.000000 0.053427 0.000000
# 6 0.000000 0.000000 0.000000 0.001476 0.000000 0.035804
#
#
# Mechanical properties :
#
#
# Convention : Reuss Voigt Hill
#
# Bulk Modulus (GPa) = 38.89052 54.67832 46.78442
# Shear Modulus (GPa) = 26.79874 30.92792 28.86333
#
# Velocity S-wave (km/s) = 3.87067 4.15819 4.01700
# Velocity P-wave (km/s) = 6.45896 7.32273 6.90437
#
# Compressibility (1/GPa) = 0.02571321
#
# Stress axis : x y z
#
# Youngs Moduli (GPa) = 69.36647 134.17830 51.22224
#
# Poissons Ratio (x) = 0.30367 0.07437
# Poissons Ratio (y) = 0.15699 0.21125
# Poissons Ratio (z) = 0.10071 0.55339
#
# Static dielectric constant tensor:
#      x y z
#    x 1.692180 0.000000 0.052680 
#    y 0.000000 1.658510 0.000000 
#    z 0.052680 0.000000 1.658230 
# 
# From -- ./inp_files/260092.got.cif
#   From: 2010.05.17/outbox.ucp.g08.bks.cvg/sg12_131_cif.got.tgz:260092.got - 2010.06.11 11:47:21.
