data_PCOD9223714
_publ_section_title
;
Structure prediction by ZEFSAII (Michael W. Deem and Ramdas Pophale) SiO2 
 PCOD9223714
Probable space group: C 2/M
;
_chemical_formula_sum "Si O2"
_cell_formula_units_Z 32
_cell_length_a 24.000000
_cell_length_b 9.000000
_cell_length_c 30.000000
_cell_angle_alpha 90.000000
_cell_angle_beta 150.000000
_cell_angle_gamma 90.000000
_cell_volume 3240.000000
_symmetry_space_group_name_H-M "C 2/M"
_symmetry_group_IT_number 12
_symmetry_cell_setting 'monoclinic'
loop_
_space_group_symop_operation_xyz
x,y,z
-x,y,-z
-x,-y,-z
x,-y,z
1/2+x,1/2+y,z
1/2-x,1/2+y,-z
1/2-x,1/2-y,-z
1/2+x,1/2-y,z
loop_
_atom_site_type_symbol
_atom_site_label
_atom_site_fract_x
_atom_site_fract_y
_atom_site_fract_z
Si Si1 0.556501 0.828425 0.174408
Si Si2 0.494435 0.823320 0.447584
Si Si3 0.487490 0.824593 0.680141
Si Si4 0.428233 0.820465 0.994864
Si Si5 0.263211 0.826166 0.179963
Si Si6 0.277458 0.332293 0.275390
Si Si7 0.420321 0.676168 0.716751
Si Si8 0.316736 0.181523 0.487960
O O1 0.490579 0.782188 0.084265
O O2 0.686050 0.822115 0.250075
O O3 0.546098 0.736845 0.212107
O O4 0.527636 0.000000 0.163410
O O5 0.500000 0.755567 0.500000
O O6 0.372776 0.787242 0.347039
O O7 0.590792 0.766857 0.483116
O O8 0.510217 0.000000 0.460599
O O9 0.603885 0.809718 0.734645
O O10 0.501284 0.733562 0.734576
O O11 0.377512 0.772276 0.576265
O O12 0.472578 0.000000 0.678833
O O13 0.412656 0.000000 0.983476
O O14 0.500000 0.781954 0.000000
O O15 0.312662 0.730369 0.913016
O O16 0.225494 0.713459 0.192527
O O17 0.241465 0.000000 0.174447
O O18 0.321515 0.500000 0.304178
O O19 0.415259 0.500000 0.715140
O O20 0.300047 0.730765 0.614097
O O21 0.312898 0.000000 0.487564
#
# Coordination Sequence:
#
# PCOD9223714 Si02
#       8
#     8   8   8   8   8   8   8   8
#     4  10  22  40  60  83 119 160 189 229 298 357
#     4  10  19  33  53  79 117 159 194 234 292 351
#     4  10  21  40  61  81 117 159 196 239 293 350
#     4  10  20  39  63  88 120 155 190 234 293 352
#     4  11  22  37  61  90 117 150 193 239 289 346
#     4  11  21  35  56  83 118 154 193 237 286 349
#     4  11  23  38  60  88 115 149 201 251 288 338
#     4   9  18  35  56  82 116 154 194 238 290 343
#
# _framework density 9.8765429999999999
#
# number of rings (size 3 to 8) (size 9 to 14) (size 15 to 20)
#    0.000    1.750    2.500    2.250    0.000    4.000 
#    0.000    2.500    0.000    0.000    0.000    0.000 
#    0.000    0.000    0.000    0.000    0.000    0.000 
#
# Total GULP energy -178241.608719 kJ/mol
# GULP energy per Si atom -5570.050272 kJ/mol
# Density = 0.985406 g / cm^3
# Si number density = 9.876543 Si / 1000 Ang^3
#
#
#
# Elastic Constant Matrix: (Units=GPa)
#
#
# Indices 1 2 3 4 5 6 
#
# 1 58.5174 28.1658 25.8487 0.0000 -43.5186 0.0000
# 2 28.1658 2.8398 1.2884 0.0000 -15.2333 0.0001
# 3 25.8487 1.2884 64.3566 0.0000 -18.5101 0.0000
# 4 0.0000 0.0000 0.0000 42.3614 0.0000 3.0953
# 5 -43.5186 -15.2333 -18.5101 0.0000 25.8386 0.0000
# 6 0.0000 0.0001 0.0000 3.0953 0.0000 5.7556
#
#
#
# Elastic Compliance Matrix: (Units=1/GPa)
#
#
# Indices 1 2 3 4 5 6 
#
# 1 -0.066449 -0.012579 -0.009297 0.000000 -0.125993 0.000001
# 2 -0.012579 -0.128105 -0.025441 0.000000 -0.114936 0.000002
# 3 -0.009297 -0.025441 0.013810 0.000000 -0.020764 0.000000
# 4 0.000000 0.000000 0.000000 0.024572 0.000000 -0.013215
# 5 -0.125993 -0.114936 -0.020764 0.000000 -0.256138 0.000002
# 6 0.000001 0.000002 0.000000 -0.013215 0.000002 0.180851
#
#
# Mechanical properties :
#
#
# Convention : Reuss Voigt Hill
#
# Bulk Modulus (GPa) = -3.63137 26.25771 11.31317
# Shear Modulus (GPa) = -21.87064 19.48518 -1.19273
#
# Velocity S-wave (km/s) = -3.33107 3.14417 -0.77790
# Velocity P-wave (km/s) = 4.07886 5.14809 2.22101
#
# Compressibility (1/GPa) = -0.27537781
#
# Stress axis : x y z
#
# Youngs Moduli (GPa) = -15.04913 -7.80612 72.41328
#
# Poissons Ratio (x) = -0.09819 0.67322
# Poissons Ratio (y) = -0.18930 1.84226
# Poissons Ratio (z) = -0.13991 -0.19860
#
# Static dielectric constant tensor:
#      x y z
#    x 1.724470 0.000000 -0.042000 
#    y 0.000000 1.665690 0.000000 
#    z -0.042000 0.000000 1.932400 
# 
# From -- ./inp_files/382552.got.cif
#   From: 2010.05.17/outbox.ucp.g08.bks.cvg/sg12_192_cif.got.tgz:382552.got - 2010.06.11 11:47:21.
