data_PCOD9223076
_publ_section_title
;
Structure prediction by ZEFSAII (Michael W. Deem and Ramdas Pophale) SiO2 
 PCOD9223076
Probable space group: C 2/M
;
_chemical_formula_sum "Si O2"
_cell_formula_units_Z 40
_cell_length_a 18.807248
_cell_length_b 26.543714
_cell_length_c 9.486755
_cell_angle_alpha 90.000000
_cell_angle_beta 158.577717
_cell_angle_gamma 90.000000
_cell_volume 1729.743067
_symmetry_space_group_name_H-M "C 2/M"
_symmetry_group_IT_number 12
_symmetry_cell_setting 'monoclinic'
loop_
_space_group_symop_operation_xyz
x,y,z
-x,y,-z
-x,-y,-z
x,-y,z
1/2+x,1/2+y,z
1/2-x,1/2+y,-z
1/2-x,1/2-y,-z
1/2+x,1/2-y,z
loop_
_atom_site_type_symbol
_atom_site_label
_atom_site_fract_x
_atom_site_fract_y
_atom_site_fract_z
Si Si1 0.736648 0.596907 0.778854
Si Si2 0.273217 0.304945 0.731773
Si Si3 0.738976 0.600033 0.107092
Si Si4 0.262207 0.500000 0.723200
Si Si5 0.736881 0.500000 0.599710
Si Si6 0.234769 0.192513 0.604144
O O1 0.801373 0.595538 0.060039
O O2 0.499138 0.598681 0.339216
O O3 0.794691 0.548964 0.794142
O O4 0.806915 0.646631 0.829593
O O5 0.257071 0.245115 0.728397
O O6 0.190030 0.307894 0.418506
O O7 0.201472 0.347544 0.707432
O O8 0.503987 0.314547 0.156370
O O9 0.795414 0.550949 0.301799
O O10 0.198480 0.500000 0.442994
O O11 0.499408 0.500000 0.158291
#
# Coordination Sequence:
#
# PCOD9223076 Si02
#       6
#     8   8   8   4   4   8
#     4   9  16  25  38  58  84 111 139 173 212 252
#     4   9  17  29  44  62  85 113 144 176 209 247
#     4   9  16  25  38  58  84 111 139 173 212 252
#     4   9  15  23  37  57  82 111 140 171 210 254
#     4   9  15  23  37  57  82 111 140 171 210 254
#     4   9  17  29  44  62  85 113 144 176 209 247
#
# _framework density 23.124821000000001
#
# number of rings (size 3 to 8) (size 9 to 14) (size 15 to 20)
#    0.000    3.000    0.000    1.800    0.000    8.000 
#    0.000    0.000    0.000    0.000    0.000    1.400 
#    0.000   11.200    0.000    0.000    0.000    0.000 
#
# Total GULP energy -111783.807182 kJ/mol
# GULP energy per Si atom -5589.190359 kJ/mol
# Density = 2.307219 g / cm^3
# Si number density = 23.124821 Si / 1000 Ang^3
#
#
#
# Elastic Constant Matrix: (Units=GPa)
#
#
# Indices 1 2 3 4 5 6 
#
# 1 108.0855 118.3835 37.9611 0.0000 -47.1108 0.0000
# 2 118.3835 267.8103 61.4909 0.0000 -77.4199 0.0000
# 3 37.9611 61.4909 123.0674 0.0000 -25.7191 0.0000
# 4 0.0000 0.0000 0.0000 29.8391 0.0000 -3.0973
# 5 -47.1108 -77.4199 -25.7191 0.0000 54.1432 0.0000
# 6 0.0000 0.0000 0.0000 -3.0973 0.0000 19.4593
#
#
#
# Elastic Compliance Matrix: (Units=1/GPa)
#
#
# Indices 1 2 3 4 5 6 
#
# 1 0.020003 -0.006274 -0.001413 0.000000 0.007763 0.000000
# 2 -0.006274 0.008564 -0.001028 0.000000 0.006299 0.000000
# 3 -0.001413 -0.001028 0.009449 0.000000 0.001790 0.000000
# 4 0.000000 0.000000 0.000000 0.034076 0.000000 0.005424
# 5 0.007763 0.006299 0.001790 0.000000 0.035081 0.000000
# 6 0.000000 0.000000 0.000000 0.005424 0.000000 0.052252
#
#
# Mechanical properties :
#
#
# Convention : Reuss Voigt Hill
#
# Bulk Modulus (GPa) = 48.57277 103.84825 76.21051
# Shear Modulus (GPa) = 27.21570 39.43017 33.32294
#
# Velocity S-wave (km/s) = 3.43433 4.13377 3.80017
# Velocity P-wave (km/s) = 6.06435 8.23342 7.23068
#
# Compressibility (1/GPa) = 0.02058767
#
# Stress axis : x y z
#
# Youngs Moduli (GPa) = 49.99176 116.76699 105.83219
#
# Poissons Ratio (x) = 0.73255 0.14956
# Poissons Ratio (y) = 0.31363 0.10874
# Poissons Ratio (z) = 0.07065 0.11998
#
# Static dielectric constant tensor:
#      x y z
#    x 1.856570 0.000000 0.080390 
#    y 0.000000 1.804340 0.000000 
#    z 0.080390 0.000000 1.916270 
# 
# From -- ./inp_files/40564.got.cif
#   From: 2010.05.17/outbox.cif.g08.bks.cpg/sg12_21_cif.got.tgz:40564.got - 2010.06.03 13:09:07.
