data_PCOD9223260
_publ_section_title
;
Structure prediction by ZEFSAII (Michael W. Deem and Ramdas Pophale) SiO2 
 PCOD9223260
Probable space group: C 2/M
;
_chemical_formula_sum "Si O2"
_cell_formula_units_Z 32
_cell_length_a 21.000000
_cell_length_b 9.000000
_cell_length_c 18.000000
_cell_angle_alpha 90.000000
_cell_angle_beta 90.000000
_cell_angle_gamma 90.000000
_cell_volume 3402.000000
_symmetry_space_group_name_H-M "C 2/M"
_symmetry_group_IT_number 12
_symmetry_cell_setting 'monoclinic'
loop_
_space_group_symop_operation_xyz
x,y,z
-x,y,-z
-x,-y,-z
x,-y,z
1/2+x,1/2+y,z
1/2-x,1/2+y,-z
1/2-x,1/2-y,-z
1/2+x,1/2-y,z
loop_
_atom_site_type_symbol
_atom_site_label
_atom_site_fract_x
_atom_site_fract_y
_atom_site_fract_z
Si Si1 0.146121 0.322831 0.795107
Si Si2 0.321302 0.331807 0.575998
Si Si3 0.839082 0.668133 0.810718
Si Si4 0.076514 0.834314 0.291473
Si Si5 0.430400 0.320660 0.467081
Si Si6 0.740872 0.820411 0.919582
Si Si7 0.048185 0.324867 0.684717
Si Si8 0.764176 0.834479 0.320514
O O1 0.148043 0.500000 0.799918
O O2 0.177852 0.270794 0.872214
O O3 0.076735 0.279022 0.765049
O O4 0.189313 0.271151 0.725722
O O5 0.301004 0.500000 0.556746
O O6 0.367411 0.343884 0.648190
O O7 0.369634 0.269704 0.514684
O O8 0.262518 0.233192 0.603297
O O9 0.856317 0.500000 0.833710
O O10 0.896456 0.771704 0.785074
O O11 0.798159 0.755276 0.870761
O O12 0.794647 0.652981 0.737569
O O13 0.025226 0.717304 0.318417
O O14 0.048694 0.000000 0.285881
O O15 0.500000 0.273981 0.500000
O O16 0.430528 0.500000 0.469990
O O17 0.422489 0.263362 0.384006
O O18 0.742028 0.000000 0.923385
O O19 0.750000 0.750000 0.000000
O O20 0.058169 0.500000 0.675069
O O21 0.790828 0.000000 0.331200
#
# Coordination Sequence:
#
# PCOD9223260 Si02
#       8
#     8   8   8   8   8   8   8   8
#     4   9  20  37  53  72 104 139 169 200 251 312
#     4   9  17  30  49  69  96 131 168 211 261 309
#     4   9  17  30  49  78 108 132 165 211 252 296
#     4  10  18  31  50  73 101 137 174 211 255 303
#     4  10  19  34  50  70  99 134 175 216 261 309
#     4  10  19  34  57  83 108 136 166 204 251 302
#     4  11  22  34  50  74 102 136 174 214 255 302
#     4   9  17  29  49  74  98 125 167 216 255 294
#
# _framework density 9.4062319999999993
#
# number of rings (size 3 to 8) (size 9 to 14) (size 15 to 20)
#    0.000    2.375    1.250    1.875    0.000    5.750 
#    0.000    0.625    0.000    0.750    0.000    5.250 
#    0.000    0.000    0.000    0.000    0.000    0.000 
#
# Total GULP energy -178192.758951 kJ/mol
# GULP energy per Si atom -5568.523717 kJ/mol
# Density = 0.938482 g / cm^3
# Si number density = 9.406232 Si / 1000 Ang^3
#
#
#
# Elastic Constant Matrix: (Units=GPa)
#
#
# Indices 1 2 3 4 5 6 
#
# 1 9.3032 -2.5224 13.4335 0.0000 4.6507 0.0000
# 2 -2.5224 -1.5095 25.3942 0.0000 1.9264 0.0000
# 3 13.4335 25.3942 68.6506 0.0000 1.2036 0.0000
# 4 0.0000 0.0000 0.0000 20.8478 0.0000 -0.8891
# 5 4.6507 1.9264 1.2036 0.0000 23.6683 0.0000
# 6 0.0000 0.0000 0.0000 -0.8891 0.0000 11.3062
#
#
#
# Elastic Compliance Matrix: (Units=1/GPa)
#
#
# Indices 1 2 3 4 5 6 
#
# 1 0.088199 -0.062309 0.006010 0.000000 -0.012565 0.000000
# 2 -0.062309 -0.046925 0.029295 0.000000 0.014573 0.000000
# 3 0.006010 0.029295 0.002619 0.000000 -0.003699 0.000000
# 4 0.000000 0.000000 0.000000 0.048128 0.000000 0.003785
# 5 -0.012565 0.014573 -0.003699 0.000000 0.043721 0.000000
# 6 0.000000 0.000000 0.000000 0.003785 0.000000 0.088745
#
#
# Mechanical properties :
#
#
# Convention : Reuss Voigt Hill
#
# Bulk Modulus (GPa) = -98.85264 16.56166 -41.14549
# Shear Modulus (GPa) = 18.17371 13.84040 16.00705
#
# Velocity S-wave (km/s) = 3.11150 2.71533 2.92014
# Velocity P-wave (km/s) = 6.30491 4.31895 3.24796
#
# Compressibility (1/GPa) = -0.01011607
#
# Stress axis : x y z
#
# Youngs Moduli (GPa) = 11.33802 -21.31044 381.84039
#
# Poissons Ratio (x) = -1.32784 -2.29490
# Poissons Ratio (y) = 0.70647 -11.18607
# Poissons Ratio (z) = -0.06814 0.62429
#
# Static dielectric constant tensor:
#      x y z
#    x 1.744270 0.000000 -0.004390 
#    y 0.000000 1.660630 0.000000 
#    z -0.004390 0.000000 1.672190 
# 
# From -- ./inp_files/281403.got.cif
#   From: 2010.05.17/outbox.ucp.g08.bks.cvg/sg12_141_cif.got.tgz:281403.got - 2010.06.11 11:47:21.
