data_PCOD9223013
_publ_section_title
;
Structure prediction by ZEFSAII (Michael W. Deem and Ramdas Pophale) SiO2 
 PCOD9223013
Probable space group: C 2/M
;
_chemical_formula_sum "Si O2"
_cell_formula_units_Z 32
_cell_length_a 21.548342
_cell_length_b 7.226966
_cell_length_c 22.364301
_cell_angle_alpha 90.000000
_cell_angle_beta 19.527632
_cell_angle_gamma 90.000000
_cell_volume 1164.156758
_symmetry_space_group_name_H-M "C 2/M"
_symmetry_group_IT_number 12
_symmetry_cell_setting 'monoclinic'
loop_
_space_group_symop_operation_xyz
x,y,z
-x,y,-z
-x,-y,-z
x,-y,z
1/2+x,1/2+y,z
1/2-x,1/2+y,-z
1/2-x,1/2-y,-z
1/2+x,1/2-y,z
loop_
_atom_site_type_symbol
_atom_site_label
_atom_site_fract_x
_atom_site_fract_y
_atom_site_fract_z
Si Si1 0.427456 0.706970 0.483827
Si Si2 0.487272 0.226266 0.165702
Si Si3 0.682397 0.225001 0.870637
Si Si4 0.468209 0.782223 0.312916
O O1 0.399091 0.500000 0.533567
O O2 0.220587 0.788279 0.665643
O O3 0.619191 0.788758 0.335894
O O4 0.495151 0.693679 0.352854
O O5 0.544692 0.287525 0.179955
O O6 0.478360 0.000000 0.176077
O O7 0.632183 0.281144 0.983795
O O8 0.688536 0.000000 0.862802
O O9 0.500000 0.281376 0.000000
O O10 0.250000 0.750000 0.500000
O O11 0.504308 0.000000 0.286247
#
# Coordination Sequence:
#
# PCOD9223013 Si02
#       4
#     8   8   8   8
#     4   9  17  29  46  68  93 119 147 183 225 266
#     4   8  15  27  42  64  92 116 144 185 225 263
#     4   9  17  28  43  65  91 119 153 189 223 261
#     4   9  16  28  47  70  95 119 145 181 224 270
#
# _framework density 27.487704999999998
#
# number of rings (size 3 to 8) (size 9 to 14) (size 15 to 20)
#    0.000    3.250    0.000    2.250    0.000    2.000 
#    0.000    5.000    0.000    6.750    0.000    7.000 
#    0.000    0.000    0.000    0.000    0.000    0.000 
#
# Total GULP energy -89364.506198 kJ/mol
# GULP energy per Si atom -5585.281637 kJ/mol
# Density = 2.742514 g / cm^3
# Si number density = 27.487705 Si / 1000 Ang^3
#
#
#
# Elastic Constant Matrix: (Units=GPa)
#
#
# Indices 1 2 3 4 5 6 
#
# 1 32.5624 -0.2165 18.8303 -0.0004 8.7840 -0.0007
# 2 -0.2165 149.5523 -6.7199 0.0009 0.9411 0.0000
# 3 18.8303 -6.7199 205.1290 -0.0001 -23.2675 -0.0006
# 4 -0.0004 0.0009 -0.0001 -3.5603 0.0002 9.4474
# 5 8.7840 0.9411 -23.2675 0.0002 65.7098 0.0001
# 6 -0.0007 0.0000 -0.0006 9.4474 0.0001 -0.3522
#
#
#
# Elastic Compliance Matrix: (Units=1/GPa)
#
#
# Indices 1 2 3 4 5 6 
#
# 1 0.034552 -0.000085 -0.003853 0.000002 -0.005982 0.000003
# 2 -0.000085 0.006697 0.000227 0.000000 -0.000004 -0.000001
# 3 -0.003853 0.000227 0.005516 0.000000 0.002465 0.000000
# 4 0.000002 0.000000 0.000000 0.004003 -0.000001 0.107357
# 5 -0.005982 -0.000004 0.002465 -0.000001 0.016891 -0.000001
# 6 0.000003 -0.000001 0.000000 0.107357 -0.000001 0.040458
#
#
# Mechanical properties :
#
#
# Convention : Reuss Voigt Hill
#
# Bulk Modulus (GPa) = 25.41913 45.67016 35.54464
# Shear Modulus (GPa) = 38.86445 37.38277 38.12361
#
# Velocity S-wave (km/s) = 3.76425 3.69179 3.72820
# Velocity P-wave (km/s) = 5.30662 5.90113 5.61175
#
# Compressibility (1/GPa) = 0.03934044
#
# Stress axis : x y z
#
# Youngs Moduli (GPa) = 28.94222 149.32693 181.30048
#
# Poissons Ratio (x) = 0.01276 0.69856
# Poissons Ratio (y) = 0.00247 -0.04111
# Poissons Ratio (z) = 0.11152 -0.03386
#
# Static dielectric constant tensor:
#      x y z
#    x 2.999030 -0.000060 -0.319410 
#    y -0.000060 2.166350 0.000030 
#    z -0.319410 0.000030 2.237150 
# 
# From -- ./inp_files/70441.got.cif
#   From: 2010.05.17/outbox.cif.g08.bks.cpg/sg12_36_cif.got.tgz:70441.got - 2010.06.03 13:09:07.
