data_PCOD9223741
_publ_section_title
;
Structure prediction by ZEFSAII (Michael W. Deem and Ramdas Pophale) SiO2 
 PCOD9223741
Probable space group: C 2/M
;
_chemical_formula_sum "Si O2"
_cell_formula_units_Z 32
_cell_length_a 24.000000
_cell_length_b 12.000000
_cell_length_c 12.000000
_cell_angle_alpha 90.000000
_cell_angle_beta 70.000000
_cell_angle_gamma 90.000000
_cell_volume 3247.577697
_symmetry_space_group_name_H-M "C 2/M"
_symmetry_group_IT_number 12
_symmetry_cell_setting 'monoclinic'
loop_
_space_group_symop_operation_xyz
x,y,z
-x,y,-z
-x,-y,-z
x,-y,z
1/2+x,1/2+y,z
1/2-x,1/2+y,-z
1/2-x,1/2-y,-z
1/2+x,1/2-y,z
loop_
_atom_site_type_symbol
_atom_site_label
_atom_site_fract_x
_atom_site_fract_y
_atom_site_fract_z
Si Si1 0.648920 0.626914 0.432256
Si Si2 0.626138 0.125129 0.977416
Si Si3 0.737412 0.792756 0.778097
Si Si4 0.180516 0.374402 0.168980
Si Si5 0.413338 0.167186 0.587712
Si Si6 0.022307 0.625111 0.680089
Si Si7 0.953611 0.219359 0.123038
Si Si8 0.340781 0.373084 0.313600
O O1 0.631868 0.500000 0.437540
O O2 0.710283 0.646989 0.324799
O O3 0.598415 0.701972 0.412611
O O4 0.655481 0.655627 0.558262
O O5 0.689526 0.130813 0.871752
O O6 0.582541 0.197131 0.932785
O O7 0.603381 0.000000 0.998475
O O8 0.637844 0.162283 0.096699
O O9 0.767428 0.712670 0.849075
O O10 0.702297 0.712908 0.717437
O O11 0.200582 0.500000 0.128608
O O12 0.145053 0.377466 0.310368
O O13 0.465844 0.139399 0.637017
O O14 0.426180 0.132134 0.451128
O O15 0.022821 0.500000 0.726332
O O16 0.023651 0.711065 0.782889
O O17 0.904862 0.137678 0.210467
O O18 0.000000 0.170596 0.000000
O O19 0.319087 0.500000 0.318324
#
# Coordination Sequence:
#
# PCOD9223741 Si02
#       8
#     8   8   8   8   8   8   8   8
#     4  10  20  37  59  83 116 151 186 230 282 337
#     4  10  21  36  54  81 115 149 185 228 280 335
#     4  10  20  34  58  84 113 145 190 230 278 328
#     4  10  19  33  54  81 113 149 185 225 278 334
#     4  10  20  35  55  82 111 144 189 232 282 327
#     4  11  21  36  57  82 113 147 188 237 284 329
#     4  11  23  38  58  83 112 148 190 234 280 336
#     4  10  21  39  58  81 114 151 189 232 281 333
#
# _framework density 9.8534980000000001
#
# number of rings (size 3 to 8) (size 9 to 14) (size 15 to 20)
#    0.000    1.750    1.250    4.125    0.000    2.250 
#    0.000    1.875    0.000   14.250    0.000    0.000 
#    0.000    0.000    0.000    0.000    0.000    0.000 
#
# Total GULP energy -178382.744209 kJ/mol
# GULP energy per Si atom -5574.460757 kJ/mol
# Density = 0.983107 g / cm^3
# Si number density = 9.853498 Si / 1000 Ang^3
#
#
#
# Elastic Constant Matrix: (Units=GPa)
#
#
# Indices 1 2 3 4 5 6 
#
# 1 17.0132 20.6048 -10.1809 0.0000 -1.8522 0.0000
# 2 20.6048 47.5147 -3.7752 0.0000 24.4483 0.0000
# 3 -10.1809 -3.7752 84.6860 0.0000 -1.1203 0.0000
# 4 0.0000 0.0000 0.0000 -30.7396 0.0000 53.2995
# 5 -1.8522 24.4483 -1.1203 0.0000 28.7183 0.0000
# 6 0.0000 0.0000 0.0000 53.2995 0.0000 -54.2227
#
#
#
# Elastic Compliance Matrix: (Units=1/GPa)
#
#
# Indices 1 2 3 4 5 6 
#
# 1 -0.439640 0.360862 -0.041227 0.000000 -0.337169 0.000000
# 2 0.360862 -0.258616 0.035092 0.000000 0.244806 0.000000
# 3 -0.041227 0.035092 0.007990 0.000000 -0.032222 0.000000
# 4 0.000000 0.000000 0.000000 0.046184 0.000000 0.045398
# 5 -0.337169 0.244806 -0.032222 0.000000 -0.196588 0.000000
# 6 0.000000 0.000000 0.000000 0.045398 0.000000 0.026182
#
#
# Mechanical properties :
#
#
# Convention : Reuss Voigt Hill
#
# Bulk Modulus (GPa) = 52.11467 18.05682 35.08575
# Shear Modulus (GPa) = -3.29479 -1.74444 -2.51962
#
# Velocity S-wave (km/s) = -1.29442 -0.94187 -1.13195
# Velocity P-wave (km/s) = 4.92627 2.82838 4.01671
#
# Compressibility (1/GPa) = 0.01918845
#
# Stress axis : x y z
#
# Youngs Moduli (GPa) = -2.27459 -3.86673 125.15366
#
# Poissons Ratio (x) = 1.39536 5.15969
# Poissons Ratio (y) = 0.82081 -4.39193
# Poissons Ratio (z) = -0.09377 0.13569
#
# Static dielectric constant tensor:
#      x y z
#    x 1.712030 0.000000 -0.031660 
#    y 0.000000 1.690850 0.000000 
#    z -0.031660 0.000000 1.702520 
# 
# From -- ./inp_files/175252.got.cif
#   From: 2010.05.17/outbox.ucp.g08.bks.cvg/sg12_88_cif.got.tgz:175252.got - 2010.06.11 11:47:21.
