data_PCOD9223603
_publ_section_title
;
Structure prediction by ZEFSAII (Michael W. Deem and Ramdas Pophale) SiO2 
 PCOD9223603
Probable space group: C 2/M
;
_chemical_formula_sum "Si O2"
_cell_formula_units_Z 28
_cell_length_a 30.000000
_cell_length_b 9.000000
_cell_length_c 18.000000
_cell_angle_alpha 90.000000
_cell_angle_beta 40.000000
_cell_angle_gamma 90.000000
_cell_volume 3123.947783
_symmetry_space_group_name_H-M "C 2/M"
_symmetry_group_IT_number 12
_symmetry_cell_setting 'monoclinic'
loop_
_space_group_symop_operation_xyz
x,y,z
-x,y,-z
-x,-y,-z
x,-y,z
1/2+x,1/2+y,z
1/2-x,1/2+y,-z
1/2-x,1/2-y,-z
1/2+x,1/2-y,z
loop_
_atom_site_type_symbol
_atom_site_label
_atom_site_fract_x
_atom_site_fract_y
_atom_site_fract_z
Si Si1 0.335903 0.172964 0.463900
Si Si2 0.555446 0.672254 0.364774
Si Si3 0.463527 0.332023 0.334253
Si Si4 0.925329 0.324340 0.900948
Si Si5 0.073751 0.821278 0.941230
Si Si6 0.325579 0.324429 0.320023
Si Si7 0.826399 0.320512 0.885982
O O1 0.388082 0.268123 0.445959
O O2 0.343869 0.231433 0.369576
O O3 0.256291 0.194120 0.587667
O O4 0.352866 0.000000 0.446881
O O5 0.500000 0.726267 0.500000
O O6 0.573509 0.500000 0.360897
O O7 0.508620 0.671404 0.350728
O O8 0.626166 0.755810 0.244078
O O9 0.459733 0.500000 0.311287
O O10 0.501676 0.232820 0.224365
O O11 0.926558 0.500000 0.909259
O O12 0.870261 0.289824 0.905684
O O13 0.912419 0.247812 0.996169
O O14 0.131446 0.780882 0.806919
O O15 0.072958 0.000000 0.950247
O O16 0.000000 0.775944 0.000000
O O17 0.338388 0.500000 0.318600
O O18 0.820713 0.500000 0.884189
O O19 0.750000 0.250000 0.000000
#
# Coordination Sequence:
#
# PCOD9223603 Si02
#       7
#     8   8   8   8   8   8   8
#     4  10  19  32  51  74 103 138 175 219 263 310
#     4   9  19  37  59  83 112 143 182 231 279 332
#     4  10  19  33  55  78 102 138 176 213 264 323
#     4  10  21  36  55  81 109 138 179 226 266 317
#     4  10  20  34  53  77 107 143 180 219 265 318
#     4   9  19  34  50  72 105 140 176 216 261 314
#     4  10  21  38  60  85 114 150 189 232 283 339
#
# _framework density 8.9630179999999999
#
# number of rings (size 3 to 8) (size 9 to 14) (size 15 to 20)
#    0.000    2.286    0.000    2.571    0.000    5.143 
#    2.571    0.000    0.000    0.000    0.000    0.000 
#    0.000    0.000    0.000    0.000    0.000    0.000 
#
# Total GULP energy -156023.247749 kJ/mol
# GULP energy per Si atom -5572.258848 kJ/mol
# Density = 0.894262 g / cm^3
# Si number density = 8.963018 Si / 1000 Ang^3
#
#
#
# Elastic Constant Matrix: (Units=GPa)
#
#
# Indices 1 2 3 4 5 6 
#
# 1 45.9117 33.8998 42.1230 -0.0034 -9.3777 0.0046
# 2 33.8998 44.8253 47.4587 -0.0018 -7.3944 0.0076
# 3 42.1230 47.4587 144.7409 -0.0106 12.2916 0.0040
# 4 -0.0034 -0.0018 -0.0106 29.3661 0.0057 -2.9633
# 5 -9.3777 -7.3944 12.2916 0.0057 23.8791 -0.0026
# 6 0.0046 0.0076 0.0040 -2.9633 -0.0026 23.7823
#
#
#
# Elastic Compliance Matrix: (Units=1/GPa)
#
#
# Indices 1 2 3 4 5 6 
#
# 1 0.054227 -0.031334 -0.006789 -0.000001 0.015087 0.000002
# 2 -0.031334 0.060571 -0.011806 -0.000008 0.012528 -0.000011
# 3 -0.006789 -0.011806 0.013900 0.000006 -0.013477 0.000002
# 4 -0.000001 -0.000008 0.000006 0.034486 -0.000014 0.004297
# 5 0.015087 0.012528 -0.013477 -0.000014 0.058619 0.000000
# 6 0.000002 -0.000011 0.000002 0.004297 0.000000 0.042584
#
#
# Mechanical properties :
#
#
# Convention : Reuss Voigt Hill
#
# Bulk Modulus (GPa) = 34.67140 53.60456 44.13798
# Shear Modulus (GPa) = 13.37411 22.87192 18.12302
#
# Velocity S-wave (km/s) = 2.73440 3.57586 3.18305
# Velocity P-wave (km/s) = 5.41780 6.85690 6.17939
#
# Compressibility (1/GPa) = 0.02884221
#
# Stress axis : x y z
#
# Youngs Moduli (GPa) = 18.44109 16.50950 71.94284
#
# Poissons Ratio (x) = 0.51730 0.48839
# Poissons Ratio (y) = 0.57782 0.84933
# Poissons Ratio (z) = 0.12519 0.19491
#
# Static dielectric constant tensor:
#      x y z
#    x 1.611440 0.000000 -0.023580 
#    y 0.000000 1.619950 0.000010 
#    z -0.023580 0.000010 1.617660 
# 
# From -- ./inp_files/295098.got.cif
#   From: 2010.05.17/outbox.ucp.g08.bks.cvg/sg12_148_cif.got.tgz:295098.got - 2010.06.11 11:47:21.
