data_PCOD9223042
_publ_section_title
;
Structure prediction by ZEFSAII (Michael W. Deem and Ramdas Pophale) SiO2 
 PCOD9223042
Probable space group: C 2/M
;
_chemical_formula_sum "Si O2"
_cell_formula_units_Z 56
_cell_length_a 28.546153
_cell_length_b 7.489485
_cell_length_c 14.229355
_cell_angle_alpha 90.000000
_cell_angle_beta 119.753570
_cell_angle_gamma 90.000000
_cell_volume 2641.122106
_symmetry_space_group_name_H-M "C 2/M"
_symmetry_group_IT_number 12
_symmetry_cell_setting 'monoclinic'
loop_
_space_group_symop_operation_xyz
x,y,z
-x,y,-z
-x,-y,-z
x,-y,z
1/2+x,1/2+y,z
1/2-x,1/2+y,-z
1/2-x,1/2-y,-z
1/2+x,1/2-y,z
loop_
_atom_site_type_symbol
_atom_site_label
_atom_site_fract_x
_atom_site_fract_y
_atom_site_fract_z
Si Si1 0.722377 0.711229 0.871387
Si Si2 0.581794 0.781479 0.531104
Si Si3 0.876814 0.211582 0.121772
Si Si4 0.328605 0.294185 0.881079
Si Si5 0.186915 0.291629 0.542346
Si Si6 0.525025 0.214184 0.666576
Si Si7 0.690501 0.717355 0.337914
O O1 0.721744 0.500000 0.852015
O O2 0.661922 0.780563 0.831861
O O3 0.764070 0.791671 0.838555
O O4 0.750000 0.750000 0.000000
O O5 0.641171 0.715423 0.564570
O O6 0.536577 0.727440 0.409208
O O7 0.558078 0.723169 0.607371
O O8 0.583395 0.000000 0.533322
O O9 0.938963 0.235190 0.208800
O O10 0.865056 0.000000 0.107079
O O11 0.857700 0.286047 0.001895
O O12 0.345913 0.500000 0.893994
O O13 0.337148 0.219105 0.785709
O O14 0.192301 0.500000 0.571104
O O15 0.247261 0.216346 0.604248
O O16 0.167535 0.276083 0.415018
O O17 0.524271 0.000000 0.662378
O O18 0.690759 0.500000 0.338417
#
# Coordination Sequence:
#
# PCOD9223042 Si02
#       7
#     8   8   8   8   8   8   8
#     4   9  17  28  41  61  91 124 156 188 222 268
#     4   8  16  31  49  71  93 117 153 196 234 267
#     4   9  18  30  42  64  97 124 148 186 232 271
#     4   9  18  31  46  65  94 126 155 191 230 275
#     4   9  17  31  50  69  93 121 150 192 238 275
#     4   9  17  30  50  71  91 119 158 192 223 278
#     4   9  18  31  48  71  94 121 156 188 228 282
#
# _framework density 21.203109000000001
#
# number of rings (size 3 to 8) (size 9 to 14) (size 15 to 20)
#    0.000    3.143    0.000    2.143    2.000    3.429 
#    0.000    2.857    0.000    0.857    0.000    6.000 
#    0.000    0.000    0.000    0.000    0.000    0.000 
#
# Total GULP energy -156046.183403 kJ/mol
# GULP energy per Si atom -5573.077979 kJ/mol
# Density = 2.115485 g / cm^3
# Si number density = 21.203109 Si / 1000 Ang^3
#
#
#
# Elastic Constant Matrix: (Units=GPa)
#
#
# Indices 1 2 3 4 5 6 
#
# 1 35.3060 0.8356 -9.0242 0.0000 0.6944 0.0000
# 2 0.8356 61.2201 -2.4291 0.0000 2.8194 0.0000
# 3 -9.0242 -2.4291 73.7993 0.0000 0.2658 0.0000
# 4 0.0000 0.0000 0.0000 14.2164 0.0000 -2.3837
# 5 0.6944 2.8194 0.2658 0.0000 26.9592 0.0000
# 6 0.0000 0.0000 0.0000 -2.3837 0.0000 2.9943
#
#
#
# Elastic Compliance Matrix: (Units=1/GPa)
#
#
# Indices 1 2 3 4 5 6 
#
# 1 0.029257 -0.000222 0.003573 0.000000 -0.000766 0.000000
# 2 -0.000222 0.016437 0.000520 0.000000 -0.001718 0.000000
# 3 0.003573 0.000520 0.014005 0.000000 -0.000285 0.000000
# 4 0.000000 0.000000 0.000000 0.081176 0.000000 0.064621
# 5 -0.000766 -0.001718 -0.000285 0.000000 0.037295 0.000000
# 6 0.000000 0.000000 0.000000 0.064621 0.000000 0.385405
#
#
# Mechanical properties :
#
#
# Convention : Reuss Voigt Hill
#
# Bulk Modulus (GPa) = 14.82765 16.56556 15.69660
# Shear Modulus (GPa) = 8.64580 20.89688 14.77134
#
# Velocity S-wave (km/s) = 2.02150 3.14276 2.64229
# Velocity P-wave (km/s) = 3.52944 4.58247 4.08999
#
# Compressibility (1/GPa) = 0.06744157
#
# Stress axis : x y z
#
# Youngs Moduli (GPa) = 34.17940 60.83724 71.40145
#
# Poissons Ratio (x) = 0.01352 -0.25512
# Poissons Ratio (y) = 0.00760 -0.03713
# Poissons Ratio (z) = -0.12212 -0.03164
#
# Static dielectric constant tensor:
#      x y z
#    x 1.765240 0.000000 0.006100 
#    y 0.000000 -0.781210 0.000000 
#    z 0.006100 0.000000 1.817390 
# 
# From -- ./inp_files/248585.got.cif
#   From: 2010.05.17/outbox.cif.g08.bks.cpg/sg12_125_cif.got.tgz:248585.got - 2010.06.03 13:09:07.
