data_PCOD9223310
_publ_section_title
;
Structure prediction by ZEFSAII (Michael W. Deem and Ramdas Pophale) SiO2 
 PCOD9223310
Probable space group: C 2/M
;
_chemical_formula_sum "Si O2"
_cell_formula_units_Z 32
_cell_length_a 27.000000
_cell_length_b 9.000000
_cell_length_c 15.000000
_cell_angle_alpha 90.000000
_cell_angle_beta 110.000000
_cell_angle_gamma 90.000000
_cell_volume 3425.179603
_symmetry_space_group_name_H-M "C 2/M"
_symmetry_group_IT_number 12
_symmetry_cell_setting 'monoclinic'
loop_
_space_group_symop_operation_xyz
x,y,z
-x,y,-z
-x,-y,-z
x,-y,z
1/2+x,1/2+y,z
1/2-x,1/2+y,-z
1/2-x,1/2-y,-z
1/2+x,1/2-y,z
loop_
_atom_site_type_symbol
_atom_site_label
_atom_site_fract_x
_atom_site_fract_y
_atom_site_fract_z
Si Si1 0.441274 0.320000 0.292211
Si Si2 0.348579 0.829037 0.906749
Si Si3 0.731321 0.822389 0.647432
Si Si4 0.864824 0.320253 0.104380
Si Si5 0.124998 0.829092 0.571452
Si Si6 0.563754 0.328464 0.352412
Si Si7 0.342812 0.819944 0.701148
Si Si8 0.774707 0.172569 0.162071
O O1 0.438674 0.500000 0.284290
O O2 0.410606 0.238463 0.195252
O O3 0.408081 0.281094 0.361532
O O4 0.502901 0.278648 0.321755
O O5 0.352180 0.767229 0.809669
O O6 0.287113 0.829303 0.897132
O O7 0.366088 0.000000 0.908850
O O8 0.375617 0.764086 0.010459
O O9 0.675598 0.767775 0.573630
O O10 0.785108 0.749007 0.642172
O O11 0.723558 0.760251 0.743491
O O12 0.735990 0.000000 0.647988
O O13 0.861363 0.500000 0.102168
O O14 0.811465 0.252275 0.113327
O O15 0.084536 0.829246 0.465797
O O16 0.143259 0.000000 0.596605
O O17 0.564759 0.500000 0.319925
O O18 0.606905 0.234710 0.323791
O O19 0.338028 0.000000 0.695949
O O20 0.791355 0.000000 0.182641
#
# Coordination Sequence:
#
# PCOD9223310 Si02
#       8
#     8   8   8   8   8   8   8   8
#     4  10  21  38  59  83 115 150 186 230 284 341
#     4   8  18  34  53  78 110 148 189 227 274 332
#     4  11  21  34  56  87 119 149 183 231 280 332
#     4  11  20  32  53  83 114 145 185 233 278 330
#     4  10  20  37  61  85 114 148 184 229 286 345
#     4  10  22  40  61  84 108 146 195 238 281 333
#     4  10  21  40  61  81 112 153 192 233 280 332
#     4  10  18  32  52  78 115 153 185 222 276 338
#
# _framework density 9.3425759999999993
#
# number of rings (size 3 to 8) (size 9 to 14) (size 15 to 20)
#    0.000    2.000    1.250    3.750    0.000    3.000 
#    0.000    7.500    0.000    6.000    0.000    0.000 
#    0.000    0.000    0.000    0.000    0.000    0.000 
#
# Total GULP energy -178353.624464 kJ/mol
# GULP energy per Si atom -5573.550764 kJ/mol
# Density = 0.932131 g / cm^3
# Si number density = 9.342576 Si / 1000 Ang^3
#
#
#
# Elastic Constant Matrix: (Units=GPa)
#
#
# Indices 1 2 3 4 5 6 
#
# 1 117.8437 43.3571 34.6419 0.0000 -4.5319 0.0000
# 2 43.3571 67.6395 13.8712 0.0000 5.5906 0.0000
# 3 34.6419 13.8712 74.1993 0.0000 8.7522 0.0000
# 4 0.0000 0.0000 0.0000 18.1695 0.0000 1.7991
# 5 -4.5319 5.5906 8.7522 0.0000 -3.8754 0.0000
# 6 0.0000 0.0000 0.0000 1.7991 0.0000 29.5984
#
#
#
# Elastic Compliance Matrix: (Units=1/GPa)
#
#
# Indices 1 2 3 4 5 6 
#
# 1 0.009646 -0.004232 -0.001312 0.000000 -0.020349 0.000000
# 2 -0.004232 0.016513 -0.003557 0.000000 0.020737 0.000000
# 3 -0.001312 -0.003557 0.011986 0.000000 0.023472 0.000000
# 4 0.000000 0.000000 0.000000 0.055371 0.000000 -0.003366
# 5 -0.020349 0.020737 0.023472 0.000000 -0.151317 0.000000
# 6 0.000000 0.000000 0.000000 -0.003366 0.000000 0.033990
#
#
# Mechanical properties :
#
#
# Convention : Reuss Voigt Hill
#
# Bulk Modulus (GPa) = 50.14524 49.26921 49.70723
# Shear Modulus (GPa) = 4813.81046 19.96598 2416.88822
#
# Velocity S-wave (km/s) = 50.81209 3.27241 36.00401
# Velocity P-wave (km/s) = 58.90150 6.37994 41.89326
#
# Compressibility (1/GPa) = 0.01994207
#
# Stress axis : x y z
#
# Youngs Moduli (GPa) = 103.66889 60.55974 83.43000
#
# Poissons Ratio (x) = 0.25630 0.10947
# Poissons Ratio (y) = 0.43875 0.29677
# Poissons Ratio (z) = 0.13602 0.21541
#
# Static dielectric constant tensor:
#      x y z
#    x 1.624290 0.000000 0.029410 
#    y 0.000000 1.638470 0.000000 
#    z 0.029410 0.000000 1.712550 
# 
# From -- ./inp_files/244260.got.cif
#   From: 2010.05.17/outbox.ucp.g08.bks.cvg/sg12_123_cif.got.tgz:244260.got - 2010.06.11 11:47:21.
