data_PCOD9223459
_publ_section_title
;
Structure prediction by ZEFSAII (Michael W. Deem and Ramdas Pophale) SiO2 
 PCOD9223459
Probable space group: C 2/M
;
_chemical_formula_sum "Si O2"
_cell_formula_units_Z 28
_cell_length_a 30.000000
_cell_length_b 9.000000
_cell_length_c 18.000000
_cell_angle_alpha 90.000000
_cell_angle_beta 140.000000
_cell_angle_gamma 90.000000
_cell_volume 3123.947783
_symmetry_space_group_name_H-M "C 2/M"
_symmetry_group_IT_number 12
_symmetry_cell_setting 'monoclinic'
loop_
_space_group_symop_operation_xyz
x,y,z
-x,y,-z
-x,-y,-z
x,-y,z
1/2+x,1/2+y,z
1/2-x,1/2+y,-z
1/2-x,1/2-y,-z
1/2+x,1/2-y,z
loop_
_atom_site_type_symbol
_atom_site_label
_atom_site_fract_x
_atom_site_fract_y
_atom_site_fract_z
Si Si1 0.027045 0.179275 0.234726
Si Si2 0.874293 0.820517 0.209631
Si Si3 0.123508 0.676124 0.939852
Si Si4 0.427080 0.321092 0.867967
Si Si5 0.308007 0.823136 0.814306
Si Si6 0.036292 0.820350 0.411509
Si Si7 0.160688 0.818328 0.671597
O O1 0.067763 0.222526 0.212280
O O2 0.057931 0.219237 0.354785
O O3 0.950924 0.250778 0.137581
O O4 0.019026 0.000000 0.222695
O O5 0.848561 0.747929 0.100488
O O6 0.838277 0.774827 0.240496
O O7 0.956111 0.777877 0.320608
O O8 0.870599 0.000000 0.198108
O O9 0.115856 0.500000 0.919286
O O10 0.168889 0.701069 0.070906
O O11 0.423162 0.500000 0.867189
O O12 0.362118 0.254203 0.828622
O O13 0.500000 0.276384 0.000000
O O14 0.228220 0.772349 0.711414
O O15 0.310751 0.000000 0.803684
O O16 0.090538 0.766575 0.541789
O O17 0.036689 0.000000 0.416540
O O18 0.160433 0.000000 0.671768
#
# Coordination Sequence:
#
# PCOD9223459 Si02
#       7
#     8   8   8   8   8   8   8
#     4   9  17  31  52  76  94 118 160 203 241 278
#     4   9  17  30  52  75  93 122 166 205 236 274
#     4  10  19  30  45  70 101 128 156 194 241 288
#     4  10  19  32  52  74  97 124 158 200 241 282
#     4  10  21  33  47  70 101 132 160 191 237 293
#     4   8  14  27  51  76  94 117 160 208 237 267
#     4   9  17  31  49  71  98 128 162 200 236 277
#
# _framework density 8.9630179999999999
#
# number of rings (size 3 to 8) (size 9 to 14) (size 15 to 20)
#    0.000    2.714    1.429    1.714    0.000    3.714 
#    0.000    1.429    0.000   10.286    0.000    0.000 
#    0.000    0.000    0.000    0.000    0.000    0.000 
#
# Total GULP energy -156035.642238 kJ/mol
# GULP energy per Si atom -5572.701509 kJ/mol
# Density = 0.894262 g / cm^3
# Si number density = 8.963018 Si / 1000 Ang^3
#
#
#
# Elastic Constant Matrix: (Units=GPa)
#
#
# Indices 1 2 3 4 5 6 
#
# 1 114.2967 14.2844 9.8572 0.0000 -9.1745 0.0000
# 2 14.2844 7.4324 8.4320 0.0000 -5.6214 0.0000
# 3 9.8572 8.4320 7.2395 0.0000 -5.4728 0.0000
# 4 0.0000 0.0000 0.0000 11.0983 0.0000 -4.1172
# 5 -9.1745 -5.6214 -5.4728 0.0000 22.0372 0.0000
# 6 0.0000 0.0000 0.0000 -4.1172 0.0000 22.0454
#
#
#
# Elastic Compliance Matrix: (Units=1/GPa)
#
#
# Indices 1 2 3 4 5 6 
#
# 1 0.009604 0.011412 -0.026032 0.000000 0.000444 0.000000
# 2 0.011412 -0.399630 0.463455 0.000000 0.017907 0.000000
# 3 -0.026032 0.463455 -0.350923 0.000000 0.020234 0.000000
# 4 0.000000 0.000000 0.000000 0.096811 0.000000 0.018080
# 5 0.000444 0.017907 0.020234 0.000000 0.055156 0.000000
# 6 0.000000 0.000000 0.000000 0.018080 0.000000 0.048738
#
#
# Mechanical properties :
#
#
# Convention : Reuss Voigt Hill
#
# Bulk Modulus (GPa) = 6.38078 21.56842 13.97460
# Shear Modulus (GPa) = -3.60835 17.46251 6.92708
#
# Velocity S-wave (km/s) = -1.42031 3.12451 1.96790
# Velocity P-wave (km/s) = 0.93676 5.00747 3.60224
#
# Compressibility (1/GPa) = 0.15672058
#
# Stress axis : x y z
#
# Youngs Moduli (GPa) = 104.12704 -2.50231 -2.84963
#
# Poissons Ratio (x) = 0.02856 -0.07418
# Poissons Ratio (y) = -1.18833 1.32068
# Poissons Ratio (z) = 2.71067 1.15971
#
# Static dielectric constant tensor:
#      x y z
#    x 1.612550 0.000000 -0.010180 
#    y 0.000000 1.601980 0.000000 
#    z -0.010180 0.000000 1.633750 
# 
# From -- ./inp_files/288240.got.cif
#   From: 2010.05.17/outbox.ucp.g08.bks.cvg/sg12_145_cif.got.tgz:288240.got - 2010.06.11 11:47:21.
