data_PCOD9223168
_publ_section_title
;
Structure prediction by ZEFSAII (Michael W. Deem and Ramdas Pophale) SiO2 
 PCOD9223168
Probable space group: C 2/M
;
_chemical_formula_sum "Si O2"
_cell_formula_units_Z 24
_cell_length_a 24.000000
_cell_length_b 9.000000
_cell_length_c 15.000000
_cell_angle_alpha 90.000000
_cell_angle_beta 70.000000
_cell_angle_gamma 90.000000
_cell_volume 3044.604091
_symmetry_space_group_name_H-M "C 2/M"
_symmetry_group_IT_number 12
_symmetry_cell_setting 'monoclinic'
loop_
_space_group_symop_operation_xyz
x,y,z
-x,y,-z
-x,-y,-z
x,-y,z
1/2+x,1/2+y,z
1/2-x,1/2+y,-z
1/2-x,1/2-y,-z
1/2+x,1/2-y,z
loop_
_atom_site_type_symbol
_atom_site_label
_atom_site_fract_x
_atom_site_fract_y
_atom_site_fract_z
Si Si1 0.718724 0.676730 0.933367
Si Si2 0.921390 0.177835 0.996013
Si Si3 0.761246 0.179458 0.276675
Si Si4 0.471776 0.179348 0.149926
Si Si5 0.121456 0.820213 0.671565
Si Si6 0.192639 0.679891 0.482645
O O1 0.729905 0.500000 0.929221
O O2 0.648180 0.698930 0.979259
O O3 0.739189 0.734563 0.824521
O O4 0.750000 0.750000 0.000000
O O5 0.939194 0.255584 0.079481
O O6 0.933101 0.000000 0.994615
O O7 0.962211 0.254355 0.898681
O O8 0.822733 0.219693 0.293600
O O9 0.706157 0.217590 0.371654
O O10 0.762644 0.000000 0.271655
O O11 0.436223 0.246215 0.253017
O O12 0.471691 0.000000 0.149777
O O13 0.138263 0.753108 0.565698
O O14 0.117190 0.000000 0.670942
O O15 0.191913 0.500000 0.492248
O O16 0.250000 0.750000 0.500000
#
# Coordination Sequence:
#
# PCOD9223168 Si02
#       6
#     8   8   8   8   8   8
#     4  10  20  34  50  69  93 128 166 199 233 276
#     4  10  19  33  49  65  93 130 162 191 239 291
#     4   8  15  29  45  62  91 126 157 190 232 280
#     4  11  20  29  46  72  98 122 157 199 238 282
#     4  10  17  29  46  66  95 128 157 187 235 293
#     4   9  16  26  42  65  92 123 157 192 233 283
#
# _framework density 7.8827980000000002
#
# number of rings (size 3 to 8) (size 9 to 14) (size 15 to 20)
#    0.000    2.333    1.667    5.000    0.000    1.333 
#    0.000    1.667    0.000    0.000    0.000    1.167 
#    0.000    9.333    0.000    0.000    0.000    0.000 
#
# Total GULP energy -133672.906543 kJ/mol
# GULP energy per Si atom -5569.704439 kJ/mol
# Density = 0.786486 g / cm^3
# Si number density = 7.882798 Si / 1000 Ang^3
#
#
#
# Elastic Constant Matrix: (Units=GPa)
#
#
# Indices 1 2 3 4 5 6 
#
# 1 41.4648 30.0983 51.9909 0.0000 -3.3965 0.0000
# 2 30.0983 96.2233 54.5643 0.0000 -14.2310 0.0000
# 3 51.9909 54.5643 167.3402 0.0000 -25.9522 0.0000
# 4 0.0000 0.0000 0.0000 29.9227 0.0000 -3.3745
# 5 -3.3965 -14.2310 -25.9522 0.0000 26.9297 0.0000
# 6 0.0000 0.0000 0.0000 -3.3745 0.0000 20.4473
#
#
#
# Elastic Compliance Matrix: (Units=1/GPa)
#
#
# Indices 1 2 3 4 5 6 
#
# 1 0.046090 -0.008575 -0.013315 0.000000 -0.011550 0.000000
# 2 -0.008575 0.014586 -0.001251 0.000000 0.005421 0.000000
# 3 -0.013315 -0.001251 0.011943 0.000000 0.009169 0.000000
# 4 0.000000 0.000000 0.000000 0.034053 0.000000 0.005620
# 5 -0.011550 0.005421 0.009169 0.000000 0.047377 0.000000
# 6 0.000000 0.000000 0.000000 0.005620 0.000000 0.049834
#
#
# Mechanical properties :
#
#
# Convention : Reuss Voigt Hill
#
# Bulk Modulus (GPa) = 37.96990 64.25948 51.11469
# Shear Modulus (GPa) = 19.30926 26.68492 22.99709
#
# Velocity S-wave (km/s) = 3.50347 4.11859 3.82342
# Velocity P-wave (km/s) = 6.36412 7.96648 7.20995
#
# Compressibility (1/GPa) = 0.02633665
#
# Stress axis : x y z
#
# Youngs Moduli (GPa) = 21.69673 68.55983 83.73373
#
# Poissons Ratio (x) = 0.58787 1.11492
# Poissons Ratio (y) = 0.18604 0.10478
# Poissons Ratio (z) = 0.28889 0.08579
#
# Static dielectric constant tensor:
#      x y z
#    x 1.510110 0.000000 -0.028390 
#    y 0.000000 1.524600 0.000000 
#    z -0.028390 0.000000 1.572290 
# 
# From -- ./inp_files/236581.got.cif
#   From: 2010.05.17/outbox.ucp.g08.bks.cvg/sg12_119_cif.got.tgz:236581.got - 2010.06.11 11:47:21.
