data_PCOD9223202
_publ_section_title
;
Structure prediction by ZEFSAII (Michael W. Deem and Ramdas Pophale) SiO2 
 PCOD9223202
Probable space group: C 2/M
;
_chemical_formula_sum "Si O2"
_cell_formula_units_Z 28
_cell_length_a 21.000000
_cell_length_b 27.000000
_cell_length_c 18.000000
_cell_angle_alpha 90.000000
_cell_angle_beta 160.000000
_cell_angle_gamma 90.000000
_cell_volume 3490.657583
_symmetry_space_group_name_H-M "C 2/M"
_symmetry_group_IT_number 12
_symmetry_cell_setting 'monoclinic'
loop_
_space_group_symop_operation_xyz
x,y,z
-x,y,-z
-x,-y,-z
x,-y,z
1/2+x,1/2+y,z
1/2-x,1/2+y,-z
1/2-x,1/2-y,-z
1/2+x,1/2-y,z
loop_
_atom_site_type_symbol
_atom_site_label
_atom_site_fract_x
_atom_site_fract_y
_atom_site_fract_z
Si Si1 0.586694 0.320901 0.320675
Si Si2 0.860488 0.363745 0.998165
Si Si3 0.814238 0.266360 0.450551
Si Si4 0.748901 0.106929 0.384678
Si Si5 0.052931 0.054265 0.644659
Si Si6 0.791132 0.190729 0.303367
Si Si7 0.320505 0.804030 0.103341
O O1 0.673831 0.301991 0.339703
O O2 0.636249 0.277840 0.436085
O O3 0.670943 0.368893 0.452366
O O4 0.366756 0.327903 0.071507
O O5 0.682344 0.399268 0.806814
O O6 0.834104 0.322902 0.904487
O O7 0.887853 0.334479 0.104904
O O8 0.031549 0.397595 0.160943
O O9 0.748963 0.239857 0.304152
O O10 0.008957 0.295144 0.654744
O O11 0.775755 0.145971 0.345858
O O12 0.865990 0.060225 0.487522
O O13 0.000000 0.058397 0.500000
O O14 0.138118 0.000000 0.750085
O O15 0.000000 0.193659 0.500000
O O16 0.250000 0.750000 0.000000
#
# Coordination Sequence:
#
# PCOD9223202 Si02
#       7
#     8   8   8   8   8   8   8
#     4   9  16  29  44  63  86 111 145 197 231 275
#     4  12  20  33  50  70  89 129 166 202 239 285
#     4   9  18  29  41  66  90 113 152 198 228 276
#     4  11  19  32  50  64  86 117 164 202 244 281
#     4  11  23  37  48  64  91 121 162 215 256 282
#     4  11  19  32  45  64  96 124 157 199 234 272
#     4  10  18  28  48  66  89 119 158 196 231 283
#
# _framework density 8.0214110000000005
#
# number of rings (size 3 to 8) (size 9 to 14) (size 15 to 20)
#    0.000    1.571    5.714    2.143    2.000    0.571 
#    2.571    1.429    0.000    0.000    0.000    0.000 
#    0.000    0.000    0.000    0.000    0.000   18.571 
#
# Total GULP energy -156056.068601 kJ/mol
# GULP energy per Si atom -5573.431021 kJ/mol
# Density = 0.800315 g / cm^3
# Si number density = 8.021411 Si / 1000 Ang^3
#
#
#
# Elastic Constant Matrix: (Units=GPa)
#
#
# Indices 1 2 3 4 5 6 
#
# 1 38.5600 14.9154 16.3552 0.0000 14.9914 0.0000
# 2 14.9154 38.4321 6.8701 0.0000 -6.4692 0.0000
# 3 16.3552 6.8701 52.9751 0.0001 13.8022 0.0001
# 4 0.0000 0.0000 0.0001 8.8538 0.0000 0.5778
# 5 14.9914 -6.4692 13.8022 0.0000 22.2044 0.0000
# 6 0.0000 0.0000 0.0001 0.5778 0.0000 -0.1828
#
#
#
# Elastic Compliance Matrix: (Units=1/GPa)
#
#
# Indices 1 2 3 4 5 6 
#
# 1 0.054873 -0.028440 -0.001720 0.000001 -0.044264 -0.000009
# 2 -0.028440 0.044260 -0.006350 0.000000 0.036043 0.000005
# 3 -0.001720 -0.006350 0.024355 -0.000001 -0.015828 0.000014
# 4 0.000001 0.000000 -0.000001 0.093633 0.000000 0.295948
# 5 -0.044264 0.036043 -0.015828 0.000000 0.095261 -0.000003
# 6 -0.000009 0.000005 0.000014 0.295948 -0.000003 -4.535089
#
#
# Mechanical properties :
#
#
# Convention : Reuss Voigt Hill
#
# Bulk Modulus (GPa) = 19.81472 22.91651 21.36562
# Shear Modulus (GPa) = -1.20981 12.29686 5.54352
#
# Velocity S-wave (km/s) = -0.86934 2.77158 1.86090
# Velocity P-wave (km/s) = 3.37199 4.95558 4.23840
#
# Compressibility (1/GPa) = 0.05046752
#
# Stress axis : x y z
#
# Youngs Moduli (GPa) = 18.22383 22.59396 41.05888
#
# Poissons Ratio (x) = 0.64256 0.07063
# Poissons Ratio (y) = 0.51828 0.26074
# Poissons Ratio (z) = 0.03135 0.14348
#
# Static dielectric constant tensor:
#      x y z
#    x 1.534610 0.000000 0.037420 
#    y 0.000000 1.541490 0.000000 
#    z 0.037420 0.000000 1.592420 
# 
# From -- ./inp_files/286594.got.cif
#   From: 2010.05.17/outbox.ucp.g08.bks.cvg/sg12_144_cif.got.tgz:286594.got - 2010.06.11 11:47:21.
