data_PCOD9223526
_publ_section_title
;
Structure prediction by ZEFSAII (Michael W. Deem and Ramdas Pophale) SiO2 
 PCOD9223526
Probable space group: C 2/M
;
_chemical_formula_sum "Si O2"
_cell_formula_units_Z 24
_cell_length_a 27.000000
_cell_length_b 9.000000
_cell_length_c 24.000000
_cell_angle_alpha 90.000000
_cell_angle_beta 30.000000
_cell_angle_gamma 90.000000
_cell_volume 2916.000000
_symmetry_space_group_name_H-M "C 2/M"
_symmetry_group_IT_number 12
_symmetry_cell_setting 'monoclinic'
loop_
_space_group_symop_operation_xyz
x,y,z
-x,y,-z
-x,-y,-z
x,-y,z
1/2+x,1/2+y,z
1/2-x,1/2+y,-z
1/2-x,1/2-y,-z
1/2+x,1/2-y,z
loop_
_atom_site_type_symbol
_atom_site_label
_atom_site_fract_x
_atom_site_fract_y
_atom_site_fract_z
Si Si1 0.883483 0.321802 0.061886
Si Si2 0.600366 0.678590 0.838443
Si Si3 0.113815 0.675619 0.599594
Si Si4 0.397262 0.174884 0.839952
Si Si5 0.792844 0.675106 0.369416
Si Si6 0.696818 0.674185 0.965809
O O1 0.889434 0.500000 0.061061
O O2 0.854139 0.246505 0.149052
O O3 0.814457 0.270771 0.078506
O O4 0.991388 0.252877 0.942305
O O5 0.592822 0.500000 0.849033
O O6 0.660822 0.730947 0.725709
O O7 0.127907 0.500000 0.573952
O O8 0.147297 0.699211 0.631161
O O9 0.182789 0.770967 0.492207
O O10 0.998425 0.713265 0.710406
O O11 0.303439 0.193522 0.891074
O O12 0.402821 0.000000 0.850413
O O13 0.380036 0.269319 0.912423
O O14 0.796601 0.500000 0.352576
O O15 0.681268 0.500000 0.968801
#
# Coordination Sequence:
#
# PCOD9223526 Si02
#       6
#     8   8   8   8   8   8
#     4  11  21  34  51  72 100 131 162 198 244 292
#     4  11  21  34  52  74  99 127 162 201 242 289
#     4   9  18  32  49  70  98 132 166 199 238 285
#     4   9  18  32  50  72 100 133 167 204 244 287
#     4  10  19  31  49  74 102 130 161 198 242 290
#     4  10  19  31  49  74 101 130 166 204 244 289
#
# _framework density 8.2304530000000007
#
# number of rings (size 3 to 8) (size 9 to 14) (size 15 to 20)
#    0.000    2.000    0.000    6.000    0.000    3.333 
#    0.000    0.000    0.000    1.000    0.000    7.000 
#    0.000    0.000    0.000    0.000    0.000    0.000 
#
# Total GULP energy -133943.538415 kJ/mol
# GULP energy per Si atom -5580.980767 kJ/mol
# Density = 0.821172 g / cm^3
# Si number density = 8.230453 Si / 1000 Ang^3
#
#
#
# Elastic Constant Matrix: (Units=GPa)
#
#
# Indices 1 2 3 4 5 6 
#
# 1 37.1684 38.6680 17.8463 0.0003 14.1704 -0.0003
# 2 38.6680 123.9009 41.7338 0.0030 14.6195 -0.0029
# 3 17.8463 41.7338 82.6432 0.0011 9.5323 -0.0012
# 4 0.0003 0.0030 0.0011 29.7341 -0.0006 5.5487
# 5 14.1704 14.6195 9.5323 -0.0006 21.7025 0.0006
# 6 -0.0003 -0.0029 -0.0012 5.5487 0.0006 27.0677
#
#
#
# Elastic Compliance Matrix: (Units=1/GPa)
#
#
# Indices 1 2 3 4 5 6 
#
# 1 0.049069 -0.011943 -0.001893 0.000000 -0.023162 0.000000
# 2 -0.011943 0.013094 -0.004124 -0.000001 0.000789 0.000001
# 3 -0.001893 -0.004124 0.014883 0.000000 -0.002522 0.000000
# 4 0.000000 -0.000001 0.000000 0.034969 0.000002 -0.007169
# 5 -0.023162 0.000789 -0.002522 0.000002 0.061777 -0.000002
# 6 0.000000 0.000001 0.000000 -0.007169 -0.000002 0.038414
#
#
# Mechanical properties :
#
#
# Convention : Reuss Voigt Hill
#
# Bulk Modulus (GPa) = 24.31648 48.91208 36.61428
# Shear Modulus (GPa) = 19.09581 25.39849 22.24715
#
# Velocity S-wave (km/s) = 3.40968 3.93231 3.68028
# Velocity P-wave (km/s) = 5.50504 7.09902 6.35223
#
# Compressibility (1/GPa) = 0.04112437
#
# Stress axis : x y z
#
# Youngs Moduli (GPa) = 20.37934 76.36805 67.19152
#
# Poissons Ratio (x) = 0.91208 0.12722
# Poissons Ratio (y) = 0.24339 0.27713
# Poissons Ratio (z) = 0.03859 0.31498
#
# Static dielectric constant tensor:
#      x y z
#    x 1.561580 0.000000 -0.017670 
#    y 0.000000 1.551910 0.000000 
#    z -0.017670 0.000000 1.543720 
# 
# From -- ./inp_files/351031.got.cif
#   From: 2010.05.17/outbox.ucp.g08.bks.cvg/sg12_176_cif.got.tgz:351031.got - 2010.06.11 11:47:21.
