data_PCOD9223165
_publ_section_title
;
Structure prediction by ZEFSAII (Michael W. Deem and Ramdas Pophale) SiO2 
 PCOD9223165
Probable space group: C 2/M
;
_chemical_formula_sum "Si O2"
_cell_formula_units_Z 32
_cell_length_a 24.000000
_cell_length_b 9.000000
_cell_length_c 18.000000
_cell_angle_alpha 90.000000
_cell_angle_beta 100.000000
_cell_angle_gamma 90.000000
_cell_volume 3828.932544
_symmetry_space_group_name_H-M "C 2/M"
_symmetry_group_IT_number 12
_symmetry_cell_setting 'monoclinic'
loop_
_space_group_symop_operation_xyz
x,y,z
-x,y,-z
-x,-y,-z
x,-y,z
1/2+x,1/2+y,z
1/2-x,1/2+y,-z
1/2-x,1/2-y,-z
1/2+x,1/2-y,z
loop_
_atom_site_type_symbol
_atom_site_label
_atom_site_fract_x
_atom_site_fract_y
_atom_site_fract_z
Si Si1 0.574965 0.172899 0.906055
Si Si2 0.230997 0.822656 0.072510
Si Si3 0.598396 0.324753 0.061276
Si Si4 0.667926 0.819847 0.808101
Si Si5 0.033319 0.822082 0.338667
Si Si6 0.047047 0.671815 0.192169
Si Si7 0.911224 0.678387 0.343315
Si Si8 0.431847 0.671942 0.496960
O O1 0.627047 0.222284 0.867079
O O2 0.519550 0.180517 0.842644
O O3 0.583419 0.000000 0.929422
O O4 0.569837 0.268477 0.978829
O O5 0.165119 0.795251 0.068900
O O6 0.270000 0.771804 0.150857
O O7 0.239058 0.000000 0.067356
O O8 0.250000 0.750000 0.000000
O O9 0.588786 0.500000 0.068720
O O10 0.576736 0.235389 0.126617
O O11 0.638146 0.770773 0.724787
O O12 0.667767 0.000000 0.804104
O O13 0.058752 0.768242 0.267404
O O14 0.071980 0.779196 0.418390
O O15 0.971434 0.747441 0.332433
O O16 0.026317 0.000000 0.339647
O O17 0.061230 0.500000 0.208416
O O18 0.915607 0.500000 0.341124
O O19 0.903358 0.731837 0.426196
O O20 0.500000 0.676723 0.500000
O O21 0.414449 0.500000 0.485162
#
# Coordination Sequence:
#
# PCOD9223165 Si02
#       8
#     8   8   8   8   8   8   8   8
#     4  10  19  34  52  69  95 131 165 197 241 290
#     4  10  20  35  53  70  93 125 163 204 245 287
#     4  11  23  35  49  73  97 125 166 206 245 286
#     4   9  17  31  50  71  97 128 161 200 242 284
#     4  10  19  31  47  68 100 133 159 194 241 288
#     4  11  22  35  51  71  96 131 168 198 238 291
#     4  10  17  28  47  72  98 128 165 198 234 285
#     4   8  16  29  43  65  98 133 158 187 239 290
#
# _framework density 8.3574210000000004
#
# number of rings (size 3 to 8) (size 9 to 14) (size 15 to 20)
#    0.000    2.125    2.500    2.625    0.000    5.750 
#    0.000    1.250    0.000    0.000    0.000    0.875 
#    0.000    0.000    0.000    0.000    0.000    0.000 
#
# Total GULP energy -178380.179800 kJ/mol
# GULP energy per Si atom -5574.380619 kJ/mol
# Density = 0.833840 g / cm^3
# Si number density = 8.357421 Si / 1000 Ang^3
#
#
#
# Elastic Constant Matrix: (Units=GPa)
#
#
# Indices 1 2 3 4 5 6 
#
# 1 8.3394 12.0822 4.6435 0.0000 2.9454 0.0000
# 2 12.0822 34.8532 29.4112 0.0000 -0.9078 0.0000
# 3 4.6435 29.4112 124.2505 0.0000 8.7199 0.0000
# 4 0.0000 0.0000 0.0000 29.4265 0.0000 -2.4821
# 5 2.9454 -0.9078 8.7199 0.0000 13.9772 0.0000
# 6 0.0000 0.0000 0.0000 -2.4821 0.0000 13.6348
#
#
#
# Elastic Compliance Matrix: (Units=1/GPa)
#
#
# Indices 1 2 3 4 5 6 
#
# 1 0.364927 -0.154995 0.030489 0.000000 -0.105988 0.000000
# 2 -0.154995 0.102554 -0.022215 0.000000 0.053182 0.000000
# 3 0.030489 -0.022215 0.013302 0.000000 -0.016166 0.000000
# 4 0.000000 0.000000 0.000000 0.034513 0.000000 0.006283
# 5 -0.105988 0.053182 -0.016166 0.000000 0.107420 0.000000
# 6 0.000000 0.000000 0.000000 0.006283 0.000000 0.074486
#
#
# Mechanical properties :
#
#
# Convention : Reuss Voigt Hill
#
# Bulk Modulus (GPa) = 5.33787 28.85744 17.09765
# Shear Modulus (GPa) = 4.74793 19.49477 12.12135
#
# Velocity S-wave (km/s) = 1.68722 3.41884 2.69585
# Velocity P-wave (km/s) = 2.64500 5.73469 4.46557
#
# Compressibility (1/GPa) = 0.18734072
#
# Stress axis : x y z
#
# Youngs Moduli (GPa) = 2.74027 9.75096 75.17701
#
# Poissons Ratio (x) = 1.51135 -2.29206
# Poissons Ratio (y) = 0.42473 1.67008
# Poissons Ratio (z) = -0.08355 0.21662
#
# Static dielectric constant tensor:
#      x y z
#    x 1.532860 0.000000 -0.016650 
#    y 0.000000 1.559370 0.000000 
#    z -0.016650 0.000000 1.571160 
# 
# From -- ./inp_files/287745.got.cif
#   From: 2010.05.17/outbox.ucp.g08.bks.cvg/sg12_144_cif.got.tgz:287745.got - 2010.06.11 11:47:21.
