data_PCOD9223030
_publ_section_title
;
Structure prediction by ZEFSAII (Michael W. Deem and Ramdas Pophale) SiO2 
 PCOD9223030
Probable space group: C 2/M
;
_chemical_formula_sum "Si O2"
_cell_formula_units_Z 48
_cell_length_a 24.338376
_cell_length_b 23.388609
_cell_length_c 13.858558
_cell_angle_alpha 90.000000
_cell_angle_beta 15.978149
_cell_angle_gamma 90.000000
_cell_volume 2171.571234
_symmetry_space_group_name_H-M "C 2/M"
_symmetry_group_IT_number 12
_symmetry_cell_setting 'monoclinic'
loop_
_space_group_symop_operation_xyz
x,y,z
-x,y,-z
-x,-y,-z
x,-y,z
1/2+x,1/2+y,z
1/2-x,1/2+y,-z
1/2-x,1/2-y,-z
1/2+x,1/2-y,z
loop_
_atom_site_type_symbol
_atom_site_label
_atom_site_fract_x
_atom_site_fract_y
_atom_site_fract_z
Si Si1 0.762177 0.827653 0.790441
Si Si2 0.595495 0.000000 0.680959
Si Si3 0.816812 0.124883 0.508745
Si Si4 0.283752 0.693861 0.173334
Si Si5 0.257499 0.619186 0.396916
Si Si6 0.762568 0.818320 0.998440
Si Si7 0.690304 0.500000 0.471159
O O1 0.697579 0.865160 0.808802
O O2 0.724984 0.761860 0.823445
O O3 0.685361 0.842758 0.026998
O O4 0.002681 0.833593 0.392286
O O5 0.673080 0.941491 0.503386
O O6 0.700282 0.000000 0.609788
O O7 0.361228 0.000000 0.100435
O O8 0.698741 0.128361 0.607953
O O9 0.913802 0.061510 0.355150
O O10 0.987889 0.172473 0.214505
O O11 0.209257 0.668656 0.401063
O O12 0.187998 0.671638 0.233670
O O13 0.500000 0.614794 0.000000
O O14 0.750000 0.750000 0.000000
#
# Coordination Sequence:
#
# PCOD9223030 Si02
#       7
#     8   4   8   8   8   8   4
#     4   9  16  29  49  72 100 124 165 202 240 293
#     4   9  17  32  50  71  92 131 177 202 237 276
#     4   9  18  32  50  72  98 132 166 200 246 286
#     4   9  17  29  47  75 100 127 161 196 250 292
#     4   9  17  30  49  72 103 129 160 199 243 296
#     4   8  15  29  47  67  97 131 165 196 232 290
#     4   9  18  34  52  68  95 132 175 209 226 292
#
# _framework density 22.103809999999999
#
# number of rings (size 3 to 8) (size 9 to 14) (size 15 to 20)
#    0.000    3.167    0.000    0.250    0.000    2.667 
#    9.000    0.000    7.333    9.000    0.000    1.167 
#    0.000    0.000    0.000    0.000    0.000    0.000 
#
# Total GULP energy -133746.422929 kJ/mol
# GULP energy per Si atom -5572.767622 kJ/mol
# Density = 2.205350 g / cm^3
# Si number density = 22.103810 Si / 1000 Ang^3
#
#
#
# Elastic Constant Matrix: (Units=GPa)
#
#
# Indices 1 2 3 4 5 6 
#
# 1 192.9008 58.9069 26.7914 -0.0274 24.7127 -0.0467
# 2 58.9069 87.0787 9.6901 0.0513 5.0012 -0.0680
# 3 26.7914 9.6901 55.9450 0.0797 0.4275 -0.1207
# 4 -0.0274 0.0513 0.0797 9.2528 -0.0403 20.9664
# 5 24.7127 5.0012 0.4275 -0.0403 41.6050 0.0586
# 6 -0.0467 -0.0680 -0.1207 20.9664 0.0586 1.6475
#
#
#
# Elastic Compliance Matrix: (Units=1/GPa)
#
#
# Indices 1 2 3 4 5 6 
#
# 1 0.007433 -0.004502 -0.002751 -0.000005 -0.003846 0.000026
# 2 -0.004502 0.014516 -0.000366 0.000037 0.000933 -0.000054
# 3 -0.002751 -0.000366 0.019244 0.000109 0.001480 -0.000121
# 4 -0.000005 0.000037 0.000109 -0.003882 -0.000076 0.049408
# 5 -0.003846 0.000933 0.001480 -0.000076 0.026193 0.000071
# 6 0.000026 -0.000054 -0.000121 0.049408 0.000071 -0.021804
#
#
# Mechanical properties :
#
#
# Convention : Reuss Voigt Hill
#
# Bulk Modulus (GPa) = 38.52517 58.52238 48.52377
# Shear Modulus (GPa) = 76.23233 26.53679 51.38456
#
# Velocity S-wave (km/s) = 5.87905 3.46866 4.82674
# Velocity P-wave (km/s) = 7.97191 6.52501 7.28447
#
# Compressibility (1/GPa) = 0.02595706
#
# Stress axis : x y z
#
# Youngs Moduli (GPa) = 134.52772 68.88888 51.96541
#
# Poissons Ratio (x) = 0.31011 0.14294
# Poissons Ratio (y) = 0.60558 0.01901
# Poissons Ratio (z) = 0.37003 0.02520
#
# Static dielectric constant tensor:
#      x y z
#    x 1.904030 0.000010 0.064530 
#    y 0.000010 1.779030 0.000070 
#    z 0.064530 0.000070 1.945210 
# 
# From -- ./inp_files/242031.got.cif
#   From: 2010.05.17/outbox.cif.g08.bks.cpg/sg12_122_cif.got.tgz:242031.got - 2010.06.03 13:09:07.
