data_PCOD9223223
_publ_section_title
;
Structure prediction by ZEFSAII (Michael W. Deem and Ramdas Pophale) SiO2 
 PCOD9223223
Probable space group: C 2/M
;
_chemical_formula_sum "Si O2"
_cell_formula_units_Z 32
_cell_length_a 24.000000
_cell_length_b 9.000000
_cell_length_c 18.000000
_cell_angle_alpha 90.000000
_cell_angle_beta 100.000000
_cell_angle_gamma 90.000000
_cell_volume 3828.932544
_symmetry_space_group_name_H-M "C 2/M"
_symmetry_group_IT_number 12
_symmetry_cell_setting 'monoclinic'
loop_
_space_group_symop_operation_xyz
x,y,z
-x,y,-z
-x,-y,-z
x,-y,z
1/2+x,1/2+y,z
1/2-x,1/2+y,-z
1/2-x,1/2-y,-z
1/2+x,1/2-y,z
loop_
_atom_site_type_symbol
_atom_site_label
_atom_site_fract_x
_atom_site_fract_y
_atom_site_fract_z
Si Si1 0.155344 0.179310 0.627306
Si Si2 0.459844 0.675613 0.665668
Si Si3 0.131201 0.824546 0.227059
Si Si4 0.286891 0.178677 0.637271
Si Si5 0.123560 0.678007 0.467501
Si Si6 0.416523 0.320929 0.246117
Si Si7 0.924658 0.321201 0.921761
Si Si8 0.946019 0.679192 0.094480
O O1 0.221107 0.219255 0.628312
O O2 0.123801 0.250588 0.549217
O O3 0.131354 0.222575 0.703664
O O4 0.149940 0.000000 0.621853
O O5 0.457064 0.500000 0.646578
O O6 0.423469 0.698219 0.732345
O O7 0.429623 0.767006 0.593654
O O8 0.524088 0.715239 0.699331
O O9 0.180978 0.748839 0.285255
O O10 0.119186 0.753037 0.144546
O O11 0.140675 0.000000 0.222338
O O12 0.321136 0.223860 0.570040
O O13 0.291040 0.000000 0.641992
O O14 0.123841 0.500000 0.473460
O O15 0.413584 0.500000 0.235926
O O16 0.420519 0.250268 0.164011
O O17 0.920385 0.500000 0.917384
O O18 0.987569 0.282793 0.904761
O O19 0.919026 0.279094 0.007667
O O20 0.942603 0.500000 0.100833
#
# Coordination Sequence:
#
# PCOD9223223 Si02
#       8
#     8   8   8   8   8   8   8   8
#     4  10  21  36  53  71  96 133 170 204 249 300
#     4   9  18  32  48  70 101 132 161 195 246 300
#     4  10  18  29  50  78 103 129 162 205 250 288
#     4   9  19  35  53  73  97 129 167 208 253 295
#     4  10  20  33  52  75  97 123 164 214 254 290
#     4  10  20  34  51  72 101 135 168 201 242 297
#     4   9  17  30  49  75 105 134 163 195 241 296
#     4   9  18  31  49  74 104 136 164 196 240 291
#
# _framework density 8.3574210000000004
#
# number of rings (size 3 to 8) (size 9 to 14) (size 15 to 20)
#    0.000    2.500    1.250    1.875    0.000    3.500 
#    0.000    3.750    0.000    0.750    0.000    0.000 
#    0.000    0.000    0.000    0.000    0.000    0.000 
#
# Total GULP energy -178331.968838 kJ/mol
# GULP energy per Si atom -5572.874026 kJ/mol
# Density = 0.833840 g / cm^3
# Si number density = 8.357421 Si / 1000 Ang^3
#
#
#
# Elastic Constant Matrix: (Units=GPa)
#
#
# Indices 1 2 3 4 5 6 
#
# 1 38.7004 11.1591 25.4213 0.0000 -9.7682 0.0000
# 2 11.1591 17.0796 32.9353 0.0000 -4.3112 0.0000
# 3 25.4213 32.9353 141.2128 0.0000 -16.6291 0.0000
# 4 0.0000 0.0000 0.0000 34.9592 0.0000 -2.1595
# 5 -9.7682 -4.3112 -16.6291 0.0000 24.1081 0.0000
# 6 0.0000 0.0000 0.0000 -2.1595 0.0000 17.7927
#
#
#
# Elastic Compliance Matrix: (Units=1/GPa)
#
#
# Indices 1 2 3 4 5 6 
#
# 1 0.034148 -0.018539 -0.000636 0.000000 0.010082 0.000000
# 2 -0.018539 0.116567 -0.024249 0.000000 -0.003393 0.000000
# 3 -0.000636 -0.024249 0.013399 0.000000 0.004648 0.000000
# 4 0.000000 0.000000 0.000000 0.028821 0.000000 0.003498
# 5 0.010082 -0.003393 0.004648 0.000000 0.048164 0.000000
# 6 0.000000 0.000000 0.000000 0.003498 0.000000 0.056627
#
#
# Mechanical properties :
#
#
# Convention : Reuss Voigt Hill
#
# Bulk Modulus (GPa) = 12.94257 37.33603 25.13930
# Shear Modulus (GPa) = 12.18533 23.87048 18.02791
#
# Velocity S-wave (km/s) = 2.70295 3.78312 3.28770
# Velocity P-wave (km/s) = 4.18345 6.43958 5.42998
#
# Compressibility (1/GPa) = 0.07726443
#
# Stress axis : x y z
#
# Youngs Moduli (GPa) = 29.28448 8.57879 74.63196
#
# Poissons Ratio (x) = 0.15904 0.04748
# Poissons Ratio (y) = 0.54291 1.80976
# Poissons Ratio (z) = 0.01863 0.20803
#
# Static dielectric constant tensor:
#      x y z
#    x 1.574630 0.000000 0.004170 
#    y 0.000000 1.557300 0.000000 
#    z 0.004170 0.000000 1.552430 
# 
# From -- ./inp_files/287762.got.cif
#   From: 2010.05.17/outbox.ucp.g08.bks.cvg/sg12_144_cif.got.tgz:287762.got - 2010.06.11 11:47:21.
