data_PCOD9223601
_publ_section_title
;
Structure prediction by ZEFSAII (Michael W. Deem and Ramdas Pophale) SiO2 
 PCOD9223601
Probable space group: C 2/M
;
_chemical_formula_sum "Si O2"
_cell_formula_units_Z 32
_cell_length_a 30.000000
_cell_length_b 9.000000
_cell_length_c 15.000000
_cell_angle_alpha 90.000000
_cell_angle_beta 60.000000
_cell_angle_gamma 90.000000
_cell_volume 3507.402885
_symmetry_space_group_name_H-M "C 2/M"
_symmetry_group_IT_number 12
_symmetry_cell_setting 'monoclinic'
loop_
_space_group_symop_operation_xyz
x,y,z
-x,y,-z
-x,-y,-z
x,-y,z
1/2+x,1/2+y,z
1/2-x,1/2+y,-z
1/2-x,1/2-y,-z
1/2+x,1/2-y,z
loop_
_atom_site_type_symbol
_atom_site_label
_atom_site_fract_x
_atom_site_fract_y
_atom_site_fract_z
Si Si1 0.865479 0.322506 0.421622
Si Si2 0.783780 0.174126 0.848698
Si Si3 0.529593 0.175930 0.754460
Si Si4 0.204210 0.321523 0.341955
Si Si5 0.066804 0.824592 0.092045
Si Si6 0.316341 0.675699 0.298748
Si Si7 0.074874 0.175873 0.883362
Si Si8 0.673594 0.173279 0.020068
O O1 0.865094 0.500000 0.409357
O O2 0.924949 0.274100 0.357101
O O3 0.837182 0.289635 0.541064
O O4 0.834017 0.253244 0.371597
O O5 0.807503 0.228983 0.733746
O O6 0.805041 0.276087 0.905887
O O7 0.792546 0.000000 0.859052
O O8 0.722075 0.197265 0.906656
O O9 0.474407 0.250707 0.802006
O O10 0.551615 0.226049 0.828479
O O11 0.523780 0.000000 0.755950
O O12 0.205244 0.500000 0.323161
O O13 0.260735 0.276560 0.320717
O O14 0.123983 0.768913 0.050176
O O15 0.064059 0.000000 0.103220
O O16 0.054627 0.787013 0.001095
O O17 0.313072 0.500000 0.319234
O O18 0.363324 0.697651 0.182797
O O19 0.064829 0.000000 0.875623
O O20 0.660210 0.000000 0.032210
#
# Coordination Sequence:
#
# PCOD9223601 Si02
#       8
#     8   8   8   8   8   8   8   8
#     4   9  19  33  48  69 100 137 174 212 251 292
#     4  10  21  36  55  80 106 131 161 198 243 296
#     4  10  20  33  48  69 100 136 174 214 252 291
#     4  10  19  32  51  74 101 135 172 207 249 298
#     4  11  21  33  52  75 100 132 170 209 250 299
#     4   9  17  29  47  71 100 133 168 207 250 297
#     4   9  18  31  46  69 101 134 167 205 251 300
#     4  10  21  37  56  78 105 133 160 196 245 299
#
# _framework density 9.1235599999999994
#
# number of rings (size 3 to 8) (size 9 to 14) (size 15 to 20)
#    0.000    2.250    0.000    3.000    0.000    6.500 
#    0.000    2.500    0.000    0.750    0.000    5.250 
#    0.000    0.000    0.000    0.000    0.000    0.000 
#
# Total GULP energy -178463.090841 kJ/mol
# GULP energy per Si atom -5576.971589 kJ/mol
# Density = 0.910279 g / cm^3
# Si number density = 9.123560 Si / 1000 Ang^3
#
#
#
# Elastic Constant Matrix: (Units=GPa)
#
#
# Indices 1 2 3 4 5 6 
#
# 1 20.4578 -2.7601 15.1064 0.0000 -12.1116 0.0000
# 2 -2.7601 -27.5789 34.9579 0.0000 -15.0543 0.0000
# 3 15.1064 34.9579 78.4548 0.0000 -10.4617 0.0000
# 4 0.0000 0.0000 0.0000 18.3966 0.0000 -3.6213
# 5 -12.1116 -15.0543 -10.4617 0.0000 12.8287 0.0000
# 6 0.0000 0.0000 0.0000 -3.6213 0.0000 27.4499
#
#
#
# Elastic Compliance Matrix: (Units=1/GPa)
#
#
# Indices 1 2 3 4 5 6 
#
# 1 0.065539 -0.023261 0.002643 0.000000 0.036735 0.000000
# 2 -0.023261 -0.010755 0.005228 0.000000 -0.030318 0.000000
# 3 0.002643 0.005228 0.012408 0.000000 0.018749 0.000000
# 4 0.000000 0.000000 0.000000 0.055807 0.000000 0.007362
# 5 0.036735 -0.030318 0.018749 0.000000 0.092344 0.000000
# 6 0.000000 0.000000 0.000000 0.007362 0.000000 0.037401
#
#
# Mechanical properties :
#
#
# Convention : Reuss Voigt Hill
#
# Bulk Modulus (GPa) = 27.46203 18.43801 22.95002
# Shear Modulus (GPa) = 16.91137 13.33702 15.12420
#
# Velocity S-wave (km/s) = 3.04764 2.70647 2.88211
# Velocity P-wave (km/s) = 5.24088 4.46018 4.86621
#
# Compressibility (1/GPa) = 0.03641391
#
# Stress axis : x y z
#
# Youngs Moduli (GPa) = 15.25812 -92.97800 80.59511
#
# Poissons Ratio (x) = -2.16272 -0.21305
# Poissons Ratio (y) = 0.35491 -0.42138
# Poissons Ratio (z) = -0.04033 0.48612
#
# Static dielectric constant tensor:
#      x y z
#    x 1.647410 0.000000 -0.028480 
#    y 0.000000 1.612130 0.000000 
#    z -0.028480 0.000000 1.651880 
# 
# From -- ./inp_files/248975.got.cif
#   From: 2010.05.17/outbox.ucp.g08.bks.cvg/sg12_125_cif.got.tgz:248975.got - 2010.06.11 11:47:21.
