data_PCOD9223308
_publ_section_title
;
Structure prediction by ZEFSAII (Michael W. Deem and Ramdas Pophale) SiO2 
 PCOD9223308
Probable space group: C 2/M
;
_chemical_formula_sum "Si O2"
_cell_formula_units_Z 28
_cell_length_a 30.000000
_cell_length_b 9.000000
_cell_length_c 21.000000
_cell_angle_alpha 90.000000
_cell_angle_beta 150.000000
_cell_angle_gamma 90.000000
_cell_volume 2835.000000
_symmetry_space_group_name_H-M "C 2/M"
_symmetry_group_IT_number 12
_symmetry_cell_setting 'monoclinic'
loop_
_space_group_symop_operation_xyz
x,y,z
-x,y,-z
-x,-y,-z
x,-y,z
1/2+x,1/2+y,z
1/2-x,1/2+y,-z
1/2-x,1/2-y,-z
1/2+x,1/2-y,z
loop_
_atom_site_type_symbol
_atom_site_label
_atom_site_fract_x
_atom_site_fract_y
_atom_site_fract_z
Si Si1 0.424116 0.324616 0.768797
Si Si2 0.116208 0.823959 0.941643
Si Si3 0.164587 0.329048 0.456424
Si Si4 0.969137 0.668174 0.278322
Si Si5 0.312190 0.822753 0.729350
Si Si6 0.240780 0.180954 0.208569
Si Si7 0.440221 0.172589 0.487938
O O1 0.413920 0.500000 0.768398
O O2 0.523949 0.299192 0.866727
O O3 0.352442 0.271081 0.626863
O O4 0.399860 0.227913 0.799864
O O5 0.100185 0.746955 0.854073
O O6 0.124101 0.000000 0.941115
O O7 0.198148 0.775875 0.087962
O O8 0.191496 0.500000 0.475512
O O9 0.230184 0.254558 0.588955
O O10 0.064821 0.337619 0.361538
O O11 0.936700 0.500000 0.250129
O O12 0.999682 0.743221 0.382159
O O13 0.313532 0.754070 0.801196
O O14 0.301581 0.000000 0.716499
O O15 0.342610 0.229585 0.348605
O O16 0.236350 0.000000 0.206545
O O17 0.500000 0.170803 0.500000
O O18 0.424795 0.000000 0.489615
#
# Coordination Sequence:
#
# PCOD9223308 Si02
#       7
#     8   8   8   8   8   8   8
#     4  10  20  34  50  74 106 145 188 227 268 316
#     4   9  20  36  56  78 107 148 185 222 266 318
#     4  10  18  32  52  76 106 143 185 228 272 316
#     4   9  17  32  56  82 108 142 179 221 267 317
#     4  12  23  33  49  76 108 144 183 228 277 318
#     4  10  20  38  58  79 108 143 184 224 269 323
#     4   9  17  33  60  89 110 135 177 223 268 323
#
# _framework density 9.8765429999999999
#
# number of rings (size 3 to 8) (size 9 to 14) (size 15 to 20)
#    0.000    2.143    1.429    2.571    0.000    2.286 
#    0.000    3.571    0.000    1.714    0.000    0.000 
#    0.000    0.000    0.000    0.000    0.000    0.000 
#
# Total GULP energy -156139.073238 kJ/mol
# GULP energy per Si atom -5576.395473 kJ/mol
# Density = 0.985406 g / cm^3
# Si number density = 9.876543 Si / 1000 Ang^3
#
#
#
# Elastic Constant Matrix: (Units=GPa)
#
#
# Indices 1 2 3 4 5 6 
#
# 1 36.5476 12.9451 44.4567 0.0000 -23.6764 0.0000
# 2 12.9451 58.1498 32.7075 0.0000 -13.5684 0.0000
# 3 44.4567 32.7075 115.9841 0.0000 -50.3858 0.0000
# 4 0.0000 0.0000 0.0000 23.6415 0.0000 -7.7416
# 5 -23.6764 -13.5684 -50.3858 0.0000 25.4517 0.0000
# 6 0.0000 0.0000 0.0000 -7.7416 0.0000 10.9549
#
#
#
# Elastic Compliance Matrix: (Units=1/GPa)
#
#
# Indices 1 2 3 4 5 6 
#
# 1 0.070748 -0.001728 0.011143 0.000000 0.086950 0.000000
# 2 -0.001728 0.020529 -0.007649 0.000000 -0.005806 0.000000
# 3 0.011143 -0.007649 0.065998 0.000000 0.136941 0.000000
# 4 0.000000 0.000000 0.000000 0.055034 0.000000 0.038891
# 5 0.086950 -0.005806 0.136941 0.000000 0.388176 0.000000
# 6 0.000000 0.000000 0.000000 0.038891 0.000000 0.118767
#
#
# Mechanical properties :
#
#
# Convention : Reuss Voigt Hill
#
# Bulk Modulus (GPa) = 6.21869 43.43335 24.82602
# Shear Modulus (GPa) = 6.49922 20.04778 13.27350
#
# Velocity S-wave (km/s) = 1.81587 3.18923 2.59505
# Velocity P-wave (km/s) = 2.74801 5.96636 4.64484
#
# Compressibility (1/GPa) = 0.16080557
#
# Stress axis : x y z
#
# Youngs Moduli (GPa) = 14.13461 48.71078 15.15205
#
# Poissons Ratio (x) = 0.08419 -0.16883
# Poissons Ratio (y) = 0.02443 0.11590
# Poissons Ratio (z) = -0.15750 0.37259
#
# Static dielectric constant tensor:
#      x y z
#    x 1.742040 0.000000 -0.007640 
#    y 0.000000 1.677020 0.000000 
#    z -0.007640 0.000000 1.716000 
# 
# From -- ./inp_files/281673.got.cif
#   From: 2010.05.17/outbox.ucp.g08.bks.cvg/sg12_141_cif.got.tgz:281673.got - 2010.06.11 11:47:21.
