data_PCOD9223939
_publ_section_title
;
Structure prediction by ZEFSAII (Michael W. Deem and Ramdas Pophale) SiO2 
 PCOD9223939
Probable space group: C 2/M
;
_chemical_formula_sum "Si O2"
_cell_formula_units_Z 24
_cell_length_a 24.000000
_cell_length_b 9.000000
_cell_length_c 24.000000
_cell_angle_alpha 90.000000
_cell_angle_beta 30.000000
_cell_angle_gamma 90.000000
_cell_volume 2592.000000
_symmetry_space_group_name_H-M "C 2/M"
_symmetry_group_IT_number 12
_symmetry_cell_setting 'monoclinic'
loop_
_space_group_symop_operation_xyz
x,y,z
-x,y,-z
-x,-y,-z
x,-y,z
1/2+x,1/2+y,z
1/2-x,1/2+y,-z
1/2-x,1/2-y,-z
1/2+x,1/2-y,z
loop_
_atom_site_type_symbol
_atom_site_label
_atom_site_fract_x
_atom_site_fract_y
_atom_site_fract_z
Si Si1 0.137832 0.320686 0.129807
Si Si2 0.953401 0.677101 0.193611
Si Si3 0.706168 0.819944 0.402475
Si Si4 0.482174 0.681182 0.652717
Si Si5 0.190983 0.321292 0.281514
Si Si6 0.596937 0.170427 0.961608
O O1 0.158436 0.500000 0.120715
O O2 0.087096 0.246718 0.231986
O O3 0.033795 0.305661 0.177278
O O4 0.250000 0.250000 0.000000
O O5 0.931342 0.500000 0.204207
O O6 0.833080 0.758378 0.303358
O O7 0.032462 0.726377 0.072950
O O8 0.607538 0.746051 0.527052
O O9 0.689395 0.790873 0.349895
O O10 0.702788 0.000000 0.413211
O O11 0.487276 0.500000 0.652819
O O12 0.407752 0.735770 0.664811
O O13 0.180154 0.500000 0.284173
O O14 0.303435 0.265269 0.152273
O O15 0.637237 0.000000 0.937861
O O16 0.500000 0.162957 0.000000
#
# Coordination Sequence:
#
# PCOD9223939 Si02
#       6
#     8   8   8   8   8   8
#     4  11  24  44  69  96 128 165 209 259 309 370
#     4  10  22  40  63  93 127 166 208 252 307 371
#     4  11  24  41  63  93 128 164 206 259 318 377
#     4  12  26  43  65  90 122 168 216 260 314 374
#     4  11  23  39  62  93 129 165 208 262 318 376
#     4  10  19  34  60  92 127 162 202 251 303 369
#
# _framework density 9.2592590000000001
#
# number of rings (size 3 to 8) (size 9 to 14) (size 15 to 20)
#    0.000    1.167    1.667    4.500    0.000    8.333 
#    0.000    0.000    0.000    0.000    0.000    0.000 
#    0.000    0.000    0.000    0.000    0.000    0.000 
#
# Total GULP energy -133807.795452 kJ/mol
# GULP energy per Si atom -5575.324810 kJ/mol
# Density = 0.923818 g / cm^3
# Si number density = 9.259259 Si / 1000 Ang^3
#
#
#
# Elastic Constant Matrix: (Units=GPa)
#
#
# Indices 1 2 3 4 5 6 
#
# 1 91.9906 34.5468 41.3900 0.0001 3.4785 0.0000
# 2 34.5468 135.7895 72.0262 0.0011 2.7678 -0.0012
# 3 41.3900 72.0262 184.2708 0.0003 4.1466 -0.0003
# 4 0.0001 0.0011 0.0003 48.7441 -0.0002 1.1635
# 5 3.4785 2.7678 4.1466 -0.0002 40.7504 0.0003
# 6 0.0000 -0.0012 -0.0003 1.1635 0.0003 28.5414
#
#
#
# Elastic Compliance Matrix: (Units=1/GPa)
#
#
# Indices 1 2 3 4 5 6 
#
# 1 0.012591 -0.002141 -0.001975 0.000000 -0.000728 0.000000
# 2 -0.002141 0.009657 -0.003291 0.000000 -0.000138 0.000000
# 3 -0.001975 -0.003291 0.007164 0.000000 -0.000337 0.000000
# 4 0.000000 0.000000 0.000000 0.020535 0.000000 -0.000837
# 5 -0.000728 -0.000138 -0.000337 0.000000 0.024646 0.000000
# 6 0.000000 0.000000 0.000000 -0.000837 0.000000 0.035071
#
#
# Mechanical properties :
#
#
# Convention : Reuss Voigt Hill
#
# Bulk Modulus (GPa) = 68.49667 78.66409 73.58038
# Shear Modulus (GPa) = 38.65669 41.21303 39.93486
#
# Velocity S-wave (km/s) = 4.57383 4.72264 4.64883
# Velocity P-wave (km/s) = 8.05988 8.50345 8.28464
#
# Compressibility (1/GPa) = 0.01459925
#
# Stress axis : x y z
#
# Youngs Moduli (GPa) = 79.42310 103.54799 139.58211
#
# Poissons Ratio (x) = 0.22169 0.27566
# Poissons Ratio (y) = 0.17004 0.45934
# Poissons Ratio (z) = 0.15685 0.34075
#
# Static dielectric constant tensor:
#      x y z
#    x 1.669630 0.000000 0.008060 
#    y 0.000000 1.659150 0.000000 
#    z 0.008060 0.000000 1.651410 
# 
# From -- ./inp_files/348749.got.cif
#   From: 2010.05.17/outbox.ucp.g08.bks.cvg/sg12_175_cif.got.tgz:348749.got - 2010.06.11 11:47:21.
