data_PCOD9223979
_publ_section_title
;
Structure prediction by ZEFSAII (Michael W. Deem and Ramdas Pophale) SiO2 
 PCOD9223979
Probable space group: C 2/M
;
_chemical_formula_sum "Si O2"
_cell_formula_units_Z 24
_cell_length_a 21.000000
_cell_length_b 9.000000
_cell_length_c 21.000000
_cell_angle_alpha 90.000000
_cell_angle_beta 140.000000
_cell_angle_gamma 90.000000
_cell_volume 2551.224023
_symmetry_space_group_name_H-M "C 2/M"
_symmetry_group_IT_number 12
_symmetry_cell_setting 'monoclinic'
loop_
_space_group_symop_operation_xyz
x,y,z
-x,y,-z
-x,-y,-z
x,-y,z
1/2+x,1/2+y,z
1/2-x,1/2+y,-z
1/2-x,1/2-y,-z
1/2+x,1/2-y,z
loop_
_atom_site_type_symbol
_atom_site_label
_atom_site_fract_x
_atom_site_fract_y
_atom_site_fract_z
Si Si1 0.253955 0.172744 0.903099
Si Si2 0.594125 0.328646 0.893968
Si Si3 0.609259 0.176326 0.285318
Si Si4 0.414969 0.819474 0.590292
Si Si5 0.294152 0.821492 0.375563
Si Si6 0.631324 0.821050 0.704708
O O1 0.163937 0.184005 0.885166
O O2 0.215412 0.235468 0.807372
O O3 0.283000 0.000000 0.922346
O O4 0.339731 0.275439 0.996650
O O5 0.562939 0.500000 0.875880
O O6 0.501693 0.220983 0.817012
O O7 0.619368 0.231999 0.366511
O O8 0.685857 0.252090 0.296239
O O9 0.622997 0.000000 0.294910
O O10 0.346969 0.768115 0.480404
O O11 0.526728 0.778449 0.656267
O O12 0.412851 0.000000 0.590067
O O13 0.357397 0.785747 0.361231
O O14 0.286946 0.000000 0.372320
O O15 0.641693 0.000000 0.719749
#
# Coordination Sequence:
#
# PCOD9223979 Si02
#       6
#     8   8   8   8   8   8
#     4  10  20  34  56  85 113 140 176 227 279 326
#     4  10  20  35  57  83 110 142 182 225 271 329
#     4  11  21  35  56  82 114 147 182 230 278 323
#     4   9  18  34  57  82 107 145 193 231 267 317
#     4  10  21  36  55  80 113 151 188 226 270 325
#     4  10  19  35  58  82 111 147 187 228 270 323
#
# _framework density 9.4072490000000002
#
# number of rings (size 3 to 8) (size 9 to 14) (size 15 to 20)
#    0.000    2.000    1.667    2.500    0.000    4.000 
#    0.000    2.500    0.000    7.000    0.000    0.000 
#    0.000    0.000    0.000    0.000    0.000    0.000 
#
# Total GULP energy -133889.372524 kJ/mol
# GULP energy per Si atom -5578.723855 kJ/mol
# Density = 0.938584 g / cm^3
# Si number density = 9.407249 Si / 1000 Ang^3
#
#
#
# Elastic Constant Matrix: (Units=GPa)
#
#
# Indices 1 2 3 4 5 6 
#
# 1 44.7699 11.1962 -3.7682 0.0000 -6.9390 0.0000
# 2 11.1962 9.9458 -1.2868 0.0000 -4.8547 0.0000
# 3 -3.7682 -1.2868 44.4234 0.0000 -2.5088 0.0000
# 4 0.0000 0.0000 0.0000 22.8261 0.0000 -2.7891
# 5 -6.9390 -4.8547 -2.5088 0.0000 -8.9609 0.0000
# 6 0.0000 0.0000 0.0000 -2.7891 0.0000 18.6479
#
#
#
# Elastic Compliance Matrix: (Units=1/GPa)
#
#
# Indices 1 2 3 4 5 6 
#
# 1 0.030982 -0.036852 0.001312 0.000000 -0.004394 0.000000
# 2 -0.036852 0.123351 -0.001689 0.000000 -0.037818 0.000000
# 3 0.001312 -0.001689 0.022216 0.000000 -0.006321 0.000000
# 4 0.000000 0.000000 0.000000 0.044625 0.000000 0.006674
# 5 -0.004394 -0.037818 -0.006321 0.000000 -0.085935 0.000000
# 6 0.000000 0.000000 0.000000 0.006674 0.000000 0.054624
#
#
# Mechanical properties :
#
#
# Convention : Reuss Voigt Hill
#
# Bulk Modulus (GPa) = 9.79492 12.38015 11.08754
# Shear Modulus (GPa) = 16.75887 12.70249 14.73068
#
# Velocity S-wave (km/s) = 2.98777 2.60117 2.80115
# Velocity P-wave (km/s) = 4.13760 3.95169 4.04571
#
# Compressibility (1/GPa) = 0.10209370
#
# Stress axis : x y z
#
# Youngs Moduli (GPa) = 32.27699 8.10693 45.01244
#
# Poissons Ratio (x) = 0.29875 -0.05907
# Poissons Ratio (y) = 1.18946 0.07600
# Poissons Ratio (z) = -0.04236 0.01369
#
# Static dielectric constant tensor:
#      x y z
#    x 1.626490 0.000000 0.001350 
#    y 0.000000 1.615110 0.000000 
#    z 0.001350 0.000000 1.677820 
# 
# From -- ./inp_files/229911.got.cif
#   From: 2010.05.17/outbox.ucp.g08.bks.cvg/sg12_115_cif.got.tgz:229911.got - 2010.06.11 11:47:21.
