data_PCOD9223877
_publ_section_title
;
Structure prediction by ZEFSAII (Michael W. Deem and Ramdas Pophale) SiO2 
 PCOD9223877
Probable space group: C 2/M
;
_chemical_formula_sum "Si O2"
_cell_formula_units_Z 28
_cell_length_a 30.000000
_cell_length_b 9.000000
_cell_length_c 21.000000
_cell_angle_alpha 90.000000
_cell_angle_beta 30.000000
_cell_angle_gamma 90.000000
_cell_volume 2835.000000
_symmetry_space_group_name_H-M "C 2/M"
_symmetry_group_IT_number 12
_symmetry_cell_setting 'monoclinic'
loop_
_space_group_symop_operation_xyz
x,y,z
-x,y,-z
-x,-y,-z
x,-y,z
1/2+x,1/2+y,z
1/2-x,1/2+y,-z
1/2-x,1/2-y,-z
1/2+x,1/2-y,z
loop_
_atom_site_type_symbol
_atom_site_label
_atom_site_fract_x
_atom_site_fract_y
_atom_site_fract_z
Si Si1 0.375135 0.324527 0.454733
Si Si2 0.225832 0.677865 0.807078
Si Si3 0.690793 0.321888 0.724115
Si Si4 0.402259 0.323557 0.648351
Si Si5 0.561426 0.178739 0.265024
Si Si6 0.067612 0.174915 0.759085
Si Si7 0.388387 0.822434 0.934280
O O1 0.375636 0.500000 0.469908
O O2 0.286243 0.246880 0.588603
O O3 0.463222 0.248488 0.374893
O O4 0.377914 0.309596 0.374344
O O5 0.217201 0.500000 0.808046
O O6 0.173421 0.760767 0.816279
O O7 0.329891 0.717713 0.684313
O O8 0.189970 0.718805 0.921259
O O9 0.694515 0.500000 0.719693
O O10 0.621233 0.275867 0.755204
O O11 0.500000 0.297824 0.500000
O O12 0.390557 0.500000 0.674859
O O13 0.396498 0.239381 0.722326
O O14 0.614902 0.226522 0.135001
O O15 0.555142 0.000000 0.275016
O O16 0.977703 0.262544 0.856568
O O17 0.047227 0.000000 0.791604
O O18 0.392640 0.000000 0.927503
#
# Coordination Sequence:
#
# PCOD9223877 Si02
#       7
#     8   8   8   8   8   8   8
#     4  10  19  34  56  81 110 145 182 218 268 331
#     4  10  22  39  56  77 109 147 186 225 267 323
#     4  11  22  35  53  81 113 143 180 228 277 317
#     4  10  21  37  57  81 109 142 180 221 270 329
#     4  10  20  35  57  83 110 140 178 227 276 318
#     4   9  20  36  55  80 110 144 181 224 272 324
#     4   9  20  38  57  79 108 143 184 227 269 318
#
# _framework density 9.8765429999999999
#
# number of rings (size 3 to 8) (size 9 to 14) (size 15 to 20)
#    0.000    2.143    0.000    2.571    0.000    6.000 
#    0.000    2.857    0.000    0.000    0.000    0.000 
#    0.000    0.000    0.000    0.000    0.000    0.000 
#
# Total GULP energy -156280.789570 kJ/mol
# GULP energy per Si atom -5581.456770 kJ/mol
# Density = 0.985406 g / cm^3
# Si number density = 9.876543 Si / 1000 Ang^3
#
#
#
# Elastic Constant Matrix: (Units=GPa)
#
#
# Indices 1 2 3 4 5 6 
#
# 1 102.1526 17.5644 2.3920 0.0024 17.3310 -0.0007
# 2 17.5644 16.8429 20.2763 -0.0004 14.8505 0.0003
# 3 2.3920 20.2763 29.0198 0.0026 6.9346 -0.0011
# 4 0.0024 -0.0004 0.0026 19.8208 -0.0003 6.4749
# 5 17.3310 14.8505 6.9346 -0.0003 12.9720 0.0006
# 6 -0.0007 0.0003 -0.0011 6.4749 0.0006 34.9459
#
#
#
# Elastic Compliance Matrix: (Units=1/GPa)
#
#
# Indices 1 2 3 4 5 6 
#
# 1 0.012934 0.002250 0.002415 -0.000002 -0.021146 0.000001
# 2 0.002250 -0.161648 0.079399 -0.000014 0.139604 0.000004
# 3 0.002415 0.079399 0.001462 0.000000 -0.094905 0.000001
# 4 -0.000002 -0.000014 0.000000 0.053702 0.000021 -0.009950
# 5 -0.021146 0.139604 -0.094905 0.000021 -0.003744 -0.000009
# 6 0.000001 0.000004 0.000001 -0.009950 -0.000009 0.030459
#
#
# Mechanical properties :
#
#
# Convention : Reuss Voigt Hill
#
# Bulk Modulus (GPa) = 47.90198 25.38675 36.64437
# Shear Modulus (GPa) = -21.92953 20.73325 -0.59814
#
# Velocity S-wave (km/s) = -3.33555 3.24330 -0.55088
# Velocity P-wave (km/s) = 3.07709 5.18703 4.26461
#
# Compressibility (1/GPa) = 0.02087596
#
# Stress axis : x y z
#
# Youngs Moduli (GPa) = 77.31857 -6.18630 683.83871
#
# Poissons Ratio (x) = 0.01392 -1.65150
# Poissons Ratio (y) = -0.17397 -54.29599
# Poissons Ratio (z) = -0.18673 0.49118
#
# Static dielectric constant tensor:
#      x y z
#    x 1.668400 0.000000 0.039450 
#    y 0.000000 1.660980 0.000000 
#    z 0.039450 0.000000 1.746550 
# 
# From -- ./inp_files/238361.got.cif
#   From: 2010.05.17/outbox.ucp.g08.bks.cvg/sg12_120_cif.got.tgz:238361.got - 2010.06.11 11:47:21.
