data_PCOD9223977
_publ_section_title
;
Structure prediction by ZEFSAII (Michael W. Deem and Ramdas Pophale) SiO2 
 PCOD9223977
Probable space group: C 2/M
;
_chemical_formula_sum "Si O2"
_cell_formula_units_Z 28
_cell_length_a 21.000000
_cell_length_b 9.000000
_cell_length_c 21.000000
_cell_angle_alpha 90.000000
_cell_angle_beta 130.000000
_cell_angle_gamma 90.000000
_cell_volume 3040.430395
_symmetry_space_group_name_H-M "C 2/M"
_symmetry_group_IT_number 12
_symmetry_cell_setting 'monoclinic'
loop_
_space_group_symop_operation_xyz
x,y,z
-x,y,-z
-x,-y,-z
x,-y,z
1/2+x,1/2+y,z
1/2-x,1/2+y,-z
1/2-x,1/2-y,-z
1/2+x,1/2-y,z
loop_
_atom_site_type_symbol
_atom_site_label
_atom_site_fract_x
_atom_site_fract_y
_atom_site_fract_z
Si Si1 0.615185 0.322053 0.040748
Si Si2 0.088492 0.667539 0.753028
Si Si3 0.465488 0.176805 0.887545
Si Si4 0.515847 0.820687 0.435917
Si Si5 0.838772 0.826769 0.552874
Si Si6 0.769645 0.176795 0.081153
Si Si7 0.086116 0.665057 0.287610
O O1 0.614092 0.500000 0.038891
O O2 0.582140 0.258565 0.086241
O O3 0.703219 0.250569 0.085244
O O4 0.555208 0.254709 0.947576
O O5 0.125697 0.500000 0.773204
O O6 0.144902 0.777658 0.829958
O O7 0.058870 0.713998 0.662644
O O8 0.004934 0.654370 0.740472
O O9 0.421541 0.194127 0.791823
O O10 0.473920 0.000000 0.905383
O O11 0.500000 0.779100 0.500000
O O12 0.598023 0.748200 0.457314
O O13 0.525277 0.000000 0.439799
O O14 0.750000 0.750000 0.500000
O O15 0.873105 0.794034 0.645590
O O16 0.833080 0.000000 0.535632
O O17 0.761432 0.000000 0.070447
O O18 0.750000 0.250000 0.000000
O O19 0.125312 0.500000 0.322681
#
# Coordination Sequence:
#
# PCOD9223977 Si02
#       7
#     8   8   8   8   8   8   8
#     4  11  22  36  54  78 111 148 188 230 273 330
#     4   9  18  35  58  85 115 147 185 229 279 342
#     4  10  19  35  58  82 110 145 183 228 282 332
#     4   9  19  39  65  89 117 155 193 236 295 356
#     4  11  22  37  59  86 118 152 192 241 288 343
#     4  12  24  38  56  80 111 148 190 236 286 334
#     4   9  19  36  59  83 110 144 183 227 279 337
#
# _framework density 9.2092229999999997
#
# number of rings (size 3 to 8) (size 9 to 14) (size 15 to 20)
#    0.000    1.857    0.000    6.857    0.000    4.857 
#    2.571    0.000    0.000    0.000    0.000    0.000 
#    0.000    0.000    0.000    0.000    0.000    0.000 
#
# Total GULP energy -156073.028882 kJ/mol
# GULP energy per Si atom -5574.036746 kJ/mol
# Density = 0.918826 g / cm^3
# Si number density = 9.209223 Si / 1000 Ang^3
#
#
#
# Elastic Constant Matrix: (Units=GPa)
#
#
# Indices 1 2 3 4 5 6 
#
# 1 46.5702 38.3121 50.4863 0.0000 -6.1468 0.0000
# 2 38.3121 137.3965 58.9606 0.0000 0.8034 0.0000
# 3 50.4863 58.9606 99.8114 0.0000 -15.1227 0.0000
# 4 0.0000 0.0000 0.0000 22.7951 0.0000 7.2949
# 5 -6.1468 0.8034 -15.1227 0.0000 29.2909 0.0000
# 6 0.0000 0.0000 0.0000 7.2949 0.0000 19.6691
#
#
#
# Elastic Compliance Matrix: (Units=1/GPa)
#
#
# Indices 1 2 3 4 5 6 
#
# 1 0.049232 -0.003950 -0.022768 0.000000 -0.001315 0.000000
# 2 -0.003950 0.010412 -0.004688 0.000000 -0.003535 0.000000
# 3 -0.022768 -0.004688 0.025603 0.000000 0.008569 0.000000
# 4 0.000000 0.000000 0.000000 0.049777 0.000000 -0.018461
# 5 -0.001315 -0.003535 0.008569 0.000000 0.038386 0.000000
# 6 0.000000 0.000000 0.000000 -0.018461 0.000000 0.057688
#
#
# Mechanical properties :
#
#
# Convention : Reuss Voigt Hill
#
# Bulk Modulus (GPa) = 44.57466 64.36620 54.47043
# Shear Modulus (GPa) = 16.58987 23.41896 20.00441
#
# Velocity S-wave (km/s) = 3.00446 3.56967 3.29919
# Velocity P-wave (km/s) = 6.02406 7.21197 6.64462
#
# Compressibility (1/GPa) = 0.02243427
#
# Stress axis : x y z
#
# Youngs Moduli (GPa) = 20.31220 96.04144 39.05731
#
# Poissons Ratio (x) = 0.37934 0.88927
# Poissons Ratio (y) = 0.08023 0.18312
# Poissons Ratio (z) = 0.46247 0.45029
#
# Static dielectric constant tensor:
#      x y z
#    x 1.453620 0.000000 -0.139710 
#    y 0.000000 1.634910 0.000000 
#    z -0.139710 0.000000 1.485630 
# 
# From -- ./inp_files/320191.got.cif
#   From: 2010.05.17/outbox.ucp.g08.bks.cvg/sg12_161_cif.got.tgz:320191.got - 2010.06.11 11:47:21.
