data_PCOD9223646
_publ_section_title
;
Structure prediction by ZEFSAII (Michael W. Deem and Ramdas Pophale) SiO2 
 PCOD9223646
Probable space group: C 2/M
;
_chemical_formula_sum "Si O2"
_cell_formula_units_Z 32
_cell_length_a 18.000000
_cell_length_b 9.000000
_cell_length_c 30.000000
_cell_angle_alpha 90.000000
_cell_angle_beta 40.000000
_cell_angle_gamma 90.000000
_cell_volume 3123.947783
_symmetry_space_group_name_H-M "C 2/M"
_symmetry_group_IT_number 12
_symmetry_cell_setting 'monoclinic'
loop_
_space_group_symop_operation_xyz
x,y,z
-x,y,-z
-x,-y,-z
x,-y,z
1/2+x,1/2+y,z
1/2-x,1/2+y,-z
1/2-x,1/2-y,-z
1/2+x,1/2-y,z
loop_
_atom_site_type_symbol
_atom_site_label
_atom_site_fract_x
_atom_site_fract_y
_atom_site_fract_z
Si Si1 0.766017 0.671252 0.378456
Si Si2 0.358968 0.668436 0.471853
Si Si3 0.887990 0.830377 0.026883
Si Si4 0.479331 0.667502 0.125239
Si Si5 0.130733 0.330767 0.129711
Si Si6 0.521297 0.168734 0.275888
Si Si7 0.760528 0.831494 0.780206
Si Si8 0.613880 0.671575 0.370012
O O1 0.794613 0.500000 0.351168
O O2 0.679457 0.663086 0.459307
O O3 0.690449 0.743357 0.373908
O O4 0.890598 0.733375 0.337200
O O5 0.365448 0.500000 0.450461
O O6 0.250000 0.750000 0.500000
O O7 0.489130 0.734633 0.411810
O O8 0.932283 0.839041 0.956370
O O9 0.875781 0.000000 0.051690
O O10 0.757844 0.766690 0.084761
O O11 0.000000 0.760166 0.000000
O O12 0.448670 0.500000 0.153095
O O13 0.551850 0.747540 0.130394
O O14 0.361500 0.746508 0.162924
O O15 0.153380 0.500000 0.103196
O O16 0.055019 0.338572 0.208781
O O17 0.628728 0.256010 0.247576
O O18 0.518658 0.000000 0.295874
O O19 0.800538 0.835791 0.710699
O O20 0.745468 0.000000 0.803711
O O21 0.585907 0.500000 0.397010
#
# Coordination Sequence:
#
# PCOD9223646 Si02
#       8
#     8   8   8   8   8   8   8   8
#     4   9  17  31  53  79 104 134 175 217 257 308
#     4  10  19  32  53  78 105 136 171 214 260 309
#     4   9  18  34  56  80 106 140 179 216 259 313
#     4  11  22  36  56  81 109 140 178 222 265 313
#     4  10  20  36  58  81 109 144 178 215 262 315
#     4  10  20  35  56  80 107 140 177 217 263 317
#     4  11  22  36  55  78 107 141 178 221 267 316
#     4   9  18  33  53  77 103 136 178 218 258 309
#
# _framework density 10.243449
#
# number of rings (size 3 to 8) (size 9 to 14) (size 15 to 20)
#    0.000    2.125    0.000    3.750    0.000    6.000 
#    0.000    1.250    0.000    6.375    0.000    0.000 
#    0.000    0.000    0.000    0.000    0.000    0.000 
#
# Total GULP energy -178224.391207 kJ/mol
# GULP energy per Si atom -5569.512225 kJ/mol
# Density = 1.022013 g / cm^3
# Si number density = 10.243449 Si / 1000 Ang^3
#
#
#
# Elastic Constant Matrix: (Units=GPa)
#
#
# Indices 1 2 3 4 5 6 
#
# 1 48.5137 14.1937 -18.4841 0.0001 -5.2471 0.0007
# 2 14.1937 42.8531 -4.8415 0.0003 -4.0918 0.0011
# 3 -18.4841 -4.8415 73.7657 0.0000 -17.5768 0.0000
# 4 0.0001 0.0003 0.0000 13.4453 0.0000 -8.6071
# 5 -5.2471 -4.0918 -17.5768 0.0000 44.8306 -0.0001
# 6 0.0007 0.0011 0.0000 -8.6071 -0.0001 22.4901
#
#
#
# Elastic Compliance Matrix: (Units=1/GPa)
#
#
# Indices 1 2 3 4 5 6 
#
# 1 0.026110 -0.007320 0.007314 0.000000 0.005256 0.000000
# 2 -0.007320 0.025942 0.000252 -0.000002 0.001610 -0.000002
# 3 0.007314 0.000252 0.017224 0.000000 0.007632 0.000000
# 4 0.000000 -0.000002 0.000000 0.098510 0.000000 0.037700
# 5 0.005256 0.001610 0.007632 0.000000 0.026061 0.000000
# 6 0.000000 -0.000002 0.000000 0.037700 0.000000 0.058892
#
#
# Mechanical properties :
#
#
# Convention : Reuss Voigt Hill
#
# Bulk Modulus (GPa) = 14.33288 16.31874 15.32581
# Shear Modulus (GPa) = 18.14873 27.77081 22.95977
#
# Velocity S-wave (km/s) = 2.97959 3.68576 3.35133
# Velocity P-wave (km/s) = 4.34149 5.10841 4.74049
#
# Compressibility (1/GPa) = 0.06976965
#
# Stress axis : x y z
#
# Youngs Moduli (GPa) = 38.30015 38.54729 58.05703
#
# Poissons Ratio (x) = 0.28216 -0.42465
# Poissons Ratio (y) = 0.28035 -0.01464
# Poissons Ratio (z) = -0.28014 -0.00972
#
# Static dielectric constant tensor:
#      x y z
#    x 1.776700 0.000000 0.015430 
#    y 0.000000 1.790540 0.000000 
#    z 0.015430 0.000000 1.714590 
# 
# From -- ./inp_files/378113.got.cif
#   From: 2010.05.17/outbox.ucp.g08.bks.cvg/sg12_190_cif.got.tgz:378113.got - 2010.06.11 11:47:21.
