data_PCOD9223123
_publ_section_title
;
Structure prediction by ZEFSAII (Michael W. Deem and Ramdas Pophale) SiO2 
 PCOD9223123
Probable space group: C 2/M
;
_chemical_formula_sum "Si O2"
_cell_formula_units_Z 32
_cell_length_a 12.870137
_cell_length_b 14.673292
_cell_length_c 9.122978
_cell_angle_alpha 90.000000
_cell_angle_beta 46.540074
_cell_angle_gamma 90.000000
_cell_volume 1250.540082
_symmetry_space_group_name_H-M "C 2/M"
_symmetry_group_IT_number 12
_symmetry_cell_setting 'monoclinic'
loop_
_space_group_symop_operation_xyz
x,y,z
-x,y,-z
-x,-y,-z
x,-y,z
1/2+x,1/2+y,z
1/2-x,1/2+y,-z
1/2-x,1/2-y,-z
1/2+x,1/2-y,z
loop_
_atom_site_type_symbol
_atom_site_label
_atom_site_fract_x
_atom_site_fract_y
_atom_site_fract_z
Si Si1 0.039103 0.390973 0.802142
Si Si2 0.641891 0.795260 0.260444
Si Si3 0.082487 0.099760 0.263967
Si Si4 0.697888 0.607251 0.649730
O O1 0.047496 0.500000 0.804211
O O2 0.192171 0.361264 0.585576
O O3 0.919678 0.361828 0.802855
O O4 0.000000 0.354551 0.000000
O O5 0.500000 0.786622 0.500000
O O6 0.670983 0.692407 0.181173
O O7 0.765242 0.837982 0.240180
O O8 0.000000 0.093857 0.500000
O O9 0.961214 0.113120 0.258197
O O10 0.153202 0.000000 0.175912
O O11 0.727332 0.500000 0.649340
#
# Coordination Sequence:
#
# PCOD9223123 Si02
#       4
#     8   8   8   8
#     4   9  17  29  47  74 104 129 159 202 246 288
#     4   9  17  28  49  72  96 123 161 201 239 282
#     4   9  18  31  49  74 101 127 160 203 246 287
#     4   9  17  31  52  75  98 127 162 200 243 289
#
# _framework density 25.588944000000001
#
# number of rings (size 3 to 8) (size 9 to 14) (size 15 to 20)
#    0.000    3.000    0.000    0.750    0.000   12.000 
#    0.000    0.000    0.000   26.250    0.000   14.000 
#    0.000    0.000    0.000    0.000    0.000    0.000 
#
# Total GULP energy -89642.870050 kJ/mol
# GULP energy per Si atom -5602.679378 kJ/mol
# Density = 2.553070 g / cm^3
# Si number density = 25.588944 Si / 1000 Ang^3
#
#
#
# Elastic Constant Matrix: (Units=GPa)
#
#
# Indices 1 2 3 4 5 6 
#
# 1 93.9996 67.8396 38.4591 0.0000 32.7352 0.0000
# 2 67.8396 108.6614 30.6995 0.0000 18.9803 0.0000
# 3 38.4591 30.6995 67.7874 0.0000 -0.4037 0.0000
# 4 0.0000 0.0000 0.0000 25.6768 0.0000 2.4998
# 5 32.7352 18.9803 -0.4037 0.0000 41.6242 0.0000
# 6 0.0000 0.0000 0.0000 2.4998 0.0000 34.7594
#
#
#
# Elastic Compliance Matrix: (Units=1/GPa)
#
#
# Indices 1 2 3 4 5 6 
#
# 1 0.031629 -0.012972 -0.012183 0.000000 -0.019077 0.000000
# 2 -0.012972 0.016957 -0.000305 0.000000 0.002467 0.000000
# 3 -0.012183 -0.000305 0.021862 0.000000 0.009933 0.000000
# 4 0.000000 0.000000 0.000000 0.039220 0.000000 -0.002821
# 5 -0.019077 0.002467 0.009933 0.000000 0.037999 0.000000
# 6 0.000000 0.000000 0.000000 -0.002821 0.000000 0.028972
#
#
# Mechanical properties :
#
#
# Convention : Reuss Voigt Hill
#
# Bulk Modulus (GPa) = 51.21324 60.49388 55.85356
# Shear Modulus (GPa) = 21.36128 29.30875 25.33502
#
# Velocity S-wave (km/s) = 2.89240 3.38800 3.14996
# Velocity P-wave (km/s) = 5.58676 6.24473 5.92489
#
# Compressibility (1/GPa) = 0.01952620
#
# Stress axis : x y z
#
# Youngs Moduli (GPa) = 31.61696 58.97282 45.74245
#
# Poissons Ratio (x) = 0.76500 0.55729
# Poissons Ratio (y) = 0.41014 0.01396
# Poissons Ratio (z) = 0.38520 0.01799
#
# Static dielectric constant tensor:
#      x y z
#    x 1.939610 0.000000 -0.023300 
#    y 0.000000 1.991540 0.000000 
#    z -0.023300 0.000000 2.073590 
# 
# From -- ./inp_files/45245.got.cif
#   From: 2010.05.17/outbox.cif.g08.bks.cpg/sg12_23_cif.got.tgz:45245.got - 2010.06.03 13:09:07.
