data_PCOD9223629
_publ_section_title
;
Structure prediction by ZEFSAII (Michael W. Deem and Ramdas Pophale) SiO2 
 PCOD9223629
Probable space group: C 2/M
;
_chemical_formula_sum "Si O2"
_cell_formula_units_Z 28
_cell_length_a 30.000000
_cell_length_b 9.000000
_cell_length_c 18.000000
_cell_angle_alpha 90.000000
_cell_angle_beta 140.000000
_cell_angle_gamma 90.000000
_cell_volume 3123.947783
_symmetry_space_group_name_H-M "C 2/M"
_symmetry_group_IT_number 12
_symmetry_cell_setting 'monoclinic'
loop_
_space_group_symop_operation_xyz
x,y,z
-x,y,-z
-x,-y,-z
x,-y,z
1/2+x,1/2+y,z
1/2-x,1/2+y,-z
1/2-x,1/2-y,-z
1/2+x,1/2-y,z
loop_
_atom_site_type_symbol
_atom_site_label
_atom_site_fract_x
_atom_site_fract_y
_atom_site_fract_z
Si Si1 0.120487 0.178064 0.773156
Si Si2 0.469346 0.821701 0.593683
Si Si3 0.192157 0.821610 0.184289
Si Si4 0.573463 0.179029 0.132849
Si Si5 0.339706 0.178912 0.326801
Si Si6 0.876562 0.178287 0.057629
Si Si7 0.973042 0.677897 0.765939
O O1 0.159708 0.249210 0.753769
O O2 0.147151 0.222478 0.889725
O O3 0.041050 0.237061 0.670443
O O4 0.121714 0.000000 0.768788
O O5 0.410247 0.781418 0.459660
O O6 0.444797 0.790452 0.647117
O O7 0.482098 0.000000 0.604515
O O8 0.138160 0.747785 0.171672
O O9 0.272939 0.779231 0.290975
O O10 0.186427 0.000000 0.185366
O O11 0.170918 0.782374 0.072550
O O12 0.568566 0.224298 0.213478
O O13 0.578645 0.000000 0.135406
O O14 0.500000 0.220772 0.000000
O O15 0.337927 0.000000 0.315780
O O16 0.951275 0.249102 0.136980
O O17 0.883834 0.000000 0.067899
O O18 0.981322 0.500000 0.782028
#
# Coordination Sequence:
#
# PCOD9223629 Si02
#       7
#     8   8   8   8   8   8   8
#     4  10  20  33  52  77 101 127 165 210 252 291
#     4   9  18  34  55  74  97 132 170 204 241 289
#     4  10  21  35  51  72 102 136 167 200 243 296
#     4  10  19  32  52  78 103 126 161 206 249 295
#     4  10  21  36  51  71 100 135 172 204 238 291
#     4   9  18  32  49  73 102 129 161 203 248 293
#     4   9  17  31  52  76  99 126 162 205 248 289
#
# _framework density 8.9630179999999999
#
# number of rings (size 3 to 8) (size 9 to 14) (size 15 to 20)
#    0.000    2.429    1.429    0.857    0.000    4.857 
#    0.000    0.714    0.000    0.000    0.000    0.000 
#    0.000    0.000    0.000    0.000    0.000    0.000 
#
# Total GULP energy -156116.665857 kJ/mol
# GULP energy per Si atom -5575.595209 kJ/mol
# Density = 0.894262 g / cm^3
# Si number density = 8.963018 Si / 1000 Ang^3
#
#
#
# Elastic Constant Matrix: (Units=GPa)
#
#
# Indices 1 2 3 4 5 6 
#
# 1 113.5592 15.3963 8.8136 0.0000 -7.7026 0.0000
# 2 15.3963 3.6861 4.8217 0.0000 -3.6249 0.0000
# 3 8.8136 4.8217 13.3024 0.0000 -6.5778 0.0000
# 4 0.0000 0.0000 0.0000 13.9243 0.0000 -3.2744
# 5 -7.7026 -3.6249 -6.5778 0.0000 22.6329 0.0000
# 6 0.0000 0.0000 0.0000 -3.2744 0.0000 33.3760
#
#
#
# Elastic Compliance Matrix: (Units=1/GPa)
#
#
# Indices 1 2 3 4 5 6 
#
# 1 0.033511 -0.216093 0.052144 0.000000 -0.008051 0.000000
# 2 -0.216093 1.931407 -0.514204 0.000000 0.086353 0.000000
# 3 0.052144 -0.514204 0.227799 0.000000 0.001595 0.000000
# 4 0.000000 0.000000 0.000000 0.073513 0.000000 0.007212
# 5 -0.008051 0.086353 0.001595 0.000000 0.055738 0.000000
# 6 0.000000 0.000000 0.000000 0.007212 0.000000 0.030669
#
#
# Mechanical properties :
#
#
# Convention : Reuss Voigt Hill
#
# Bulk Modulus (GPa) = 1.19559 20.95676 11.07617
# Shear Modulus (GPa) = 1.25384 20.75436 11.00410
#
# Velocity S-wave (km/s) = 0.83724 3.40630 2.48031
# Velocity P-wave (km/s) = 1.26611 5.21408 3.79405
#
# Compressibility (1/GPa) = 0.83641042
#
# Stress axis : x y z
#
# Youngs Moduli (GPa) = 29.84123 0.51776 4.38984
#
# Poissons Ratio (x) = 0.11188 -0.22890
# Poissons Ratio (y) = 6.44849 2.25727
# Poissons Ratio (z) = -1.55603 0.26623
#
# Static dielectric constant tensor:
#      x y z
#    x 1.604100 0.000000 -0.025250 
#    y 0.000000 1.601710 0.000000 
#    z -0.025250 0.000000 1.629190 
# 
# From -- ./inp_files/288151.got.cif
#   From: 2010.05.17/outbox.ucp.g08.bks.cvg/sg12_145_cif.got.tgz:288151.got - 2010.06.11 11:47:21.
