data_PCOD9223094
_publ_section_title
;
Structure prediction by ZEFSAII (Michael W. Deem and Ramdas Pophale) SiO2 
 PCOD9223094
Probable space group: C 2/M
;
_chemical_formula_sum "Si O2"
_cell_formula_units_Z 64
_cell_length_a 28.522941
_cell_length_b 18.583578
_cell_length_c 9.444248
_cell_angle_alpha 90.000000
_cell_angle_beta 109.336199
_cell_angle_gamma 90.000000
_cell_volume 4723.623201
_symmetry_space_group_name_H-M "C 2/M"
_symmetry_group_IT_number 12
_symmetry_cell_setting 'monoclinic'
loop_
_space_group_symop_operation_xyz
x,y,z
-x,y,-z
-x,-y,-z
x,-y,z
1/2+x,1/2+y,z
1/2-x,1/2+y,-z
1/2-x,1/2-y,-z
1/2+x,1/2-y,z
loop_
_atom_site_type_symbol
_atom_site_label
_atom_site_fract_x
_atom_site_fract_y
_atom_site_fract_z
Si Si1 0.550390 0.915796 0.631084
Si Si2 0.750167 0.584211 0.831796
Si Si3 0.351198 0.171625 0.932348
Si Si4 0.198200 0.794976 0.285281
Si Si5 0.749833 0.915789 0.831462
Si Si6 0.949610 0.415796 0.030303
Si Si7 0.198200 0.794976 0.611119
Si Si8 0.351198 0.828375 0.270048
O O1 0.500000 0.895941 0.500000
O O2 0.543107 0.910137 0.793107
O O3 0.597500 0.867117 0.639507
O O4 0.561165 0.000000 0.610509
O O5 0.748963 0.500000 0.795356
O O6 0.805014 0.617308 0.859774
O O7 0.711162 0.631690 0.705402
O O8 0.740952 0.592344 0.990952
O O9 0.340235 0.244267 0.835925
O O10 0.402500 0.132883 0.944508
O O11 0.351444 0.186110 0.101444
O O12 0.211162 0.868310 0.216922
O O13 0.184096 0.806772 0.434096
O O14 0.250000 0.750000 0.335713
O O15 0.694986 0.882692 0.749746
O O16 0.751037 0.000000 0.797430
O O17 0.938835 0.500000 0.988178
O O18 0.000000 0.395941 0.000000
O O19 0.159765 0.744267 0.655454
#
# Coordination Sequence:
#
# PCOD9223094 Si02
#       8
#     8   8   8   8   8   8   8   8
#     4   9  17  28  41  58  80 105 134 168 202 233
#     4   9  16  26  41  59  78 103 135 166 195 231
#     4   9  16  27  42  57  76 105 138 167 195 230
#     4   9  17  27  38  55  79 104 130 162 199 236
#     4   9  16  26  41  59  78 103 135 166 195 231
#     4   9  17  28  41  58  80 105 134 168 202 233
#     4   9  17  27  38  55  79 104 130 162 199 236
#     4   9  16  27  42  57  76 105 138 167 195 230
#
# _framework density 13.548921
#
# number of rings (size 3 to 8) (size 9 to 14) (size 15 to 20)
#    0.000    3.000    0.000    1.500    0.000    7.500 
#    0.000    0.000    0.000    4.500    0.000    0.000 
#    0.000    1.000    0.000    3.250    0.000    4.000 
#
# Total GULP energy -178214.998607 kJ/mol
# GULP energy per Si atom -5569.218706 kJ/mol
# Density = 1.351808 g / cm^3
# Si number density = 13.548921 Si / 1000 Ang^3
#
#
#
# Elastic Constant Matrix: (Units=GPa)
#
#
# Indices 1 2 3 4 5 6 
#
# 1 91.7459 60.7292 48.8240 0.0000 0.7538 0.0000
# 2 60.7292 110.6581 64.0486 0.0000 -1.2651 0.0000
# 3 48.8240 64.0486 63.8905 0.0000 9.8629 0.0000
# 4 0.0000 0.0000 0.0000 17.7520 0.0000 2.8673
# 5 0.7538 -1.2651 9.8629 0.0000 17.0002 0.0000
# 6 0.0000 0.0000 0.0000 2.8673 0.0000 25.2749
#
#
#
# Elastic Compliance Matrix: (Units=1/GPa)
#
#
# Indices 1 2 3 4 5 6 
#
# 1 0.019911 -0.003575 -0.012581 0.000000 0.006150 0.000000
# 2 -0.003575 0.026673 -0.026733 0.000000 0.017653 0.000000
# 3 -0.012581 -0.026733 0.057429 0.000000 -0.034750 0.000000
# 4 0.000000 0.000000 0.000000 0.057383 0.000000 -0.006510
# 5 0.006150 0.017653 -0.034750 0.000000 0.080024 0.000000
# 6 0.000000 0.000000 0.000000 -0.006510 0.000000 0.040303
#
#
# Mechanical properties :
#
#
# Convention : Reuss Voigt Hill
#
# Bulk Modulus (GPa) = 54.83637 68.16644 61.50140
# Shear Modulus (GPa) = 13.38404 18.18496 15.78450
#
# Velocity S-wave (km/s) = 3.14639 3.66754 3.41691
# Velocity P-wave (km/s) = 7.33215 8.26771 7.81394
#
# Compressibility (1/GPa) = 0.01823607
#
# Stress axis : x y z
#
# Youngs Moduli (GPa) = 50.22451 37.49095 17.41274
#
# Poissons Ratio (x) = 0.13402 0.21907
# Poissons Ratio (y) = 0.17953 0.46549
# Poissons Ratio (z) = 0.63189 1.00223
#
# Static dielectric constant tensor:
#      x y z
#    x 1.422170 0.000000 -0.010290 
#    y 0.000000 1.429030 0.000000 
#    z -0.010290 0.000000 1.449170 
# 
# From -- ./inp_files/112342.got.cif
#   From: 2010.05.17/outbox.cif.g08.bks.cpg/sg12_57_cif.got.tgz:112342.got - 2010.06.03 13:09:07.
