data_PCOD9223787
_publ_section_title
;
Structure prediction by ZEFSAII (Michael W. Deem and Ramdas Pophale) SiO2 
 PCOD9223787
Probable space group: C 2/M
;
_chemical_formula_sum "Si O2"
_cell_formula_units_Z 32
_cell_length_a 18.000000
_cell_length_b 12.000000
_cell_length_c 15.000000
_cell_angle_alpha 90.000000
_cell_angle_beta 90.000000
_cell_angle_gamma 90.000000
_cell_volume 3240.000000
_symmetry_space_group_name_H-M "C 2/M"
_symmetry_group_IT_number 12
_symmetry_cell_setting 'monoclinic'
loop_
_space_group_symop_operation_xyz
x,y,z
-x,y,-z
-x,-y,-z
x,-y,z
1/2+x,1/2+y,z
1/2-x,1/2+y,-z
1/2-x,1/2-y,-z
1/2+x,1/2-y,z
loop_
_atom_site_type_symbol
_atom_site_label
_atom_site_fract_x
_atom_site_fract_y
_atom_site_fract_z
Si Si1 0.285102 0.246255 0.370499
Si Si2 0.947693 0.371058 0.917728
Si Si3 0.833755 0.624737 0.537791
Si Si4 0.493335 0.289824 0.759637
Si Si5 0.987541 0.371808 0.605918
Si Si6 0.149803 0.876699 0.787156
Si Si7 0.171289 0.872002 0.248967
Si Si8 0.280393 0.797678 0.908111
O O1 0.243009 0.350277 0.414297
O O2 0.335085 0.197620 0.448991
O O3 0.327906 0.284673 0.284409
O O4 0.219220 0.165047 0.335623
O O5 0.964696 0.500000 0.902901
O O6 0.970036 0.301951 0.831576
O O7 0.858693 0.358369 0.929377
O O8 0.000000 0.333338 0.000000
O O9 0.840637 0.500000 0.505666
O O10 0.898084 0.640290 0.610151
O O11 0.517256 0.222256 0.670990
O O12 0.562145 0.357248 0.801945
O O13 0.417586 0.357155 0.739421
O O14 0.008232 0.500000 0.628863
O O15 0.000000 0.357189 0.500000
O O16 0.210638 0.864169 0.865457
O O17 0.158769 0.000000 0.749222
O O18 0.197239 0.794754 0.166283
O O19 0.187824 0.000000 0.229276
O O20 0.250000 0.750000 0.000000
#
# Coordination Sequence:
#
# PCOD9223787 Si02
#       8
#     8   8   8   8   8   8   8   8
#     4  10  20  36  55  82 112 148 192 245 285 347
#     4  10  21  38  62  89 117 151 191 236 291 349
#     4  10  19  33  56  80 110 148 191 242 294 343
#     4  11  21  38  57  82 118 155 193 242 285 350
#     4  10  20  34  55  83 113 151 197 246 297 344
#     4  11  23  38  59  83 114 153 192 235 288 347
#     4  10  21  37  58  83 114 155 191 232 290 348
#     4  10  22  40  61  89 118 149 189 242 287 346
#
# _framework density 9.8765429999999999
#
# number of rings (size 3 to 8) (size 9 to 14) (size 15 to 20)
#    0.000    1.750    1.250    3.375    0.000    1.000 
#    0.000    6.875    0.000    5.625    0.000    0.000 
#    0.000    0.000    0.000    0.000    0.000    0.000 
#
# Total GULP energy -178294.788283 kJ/mol
# GULP energy per Si atom -5571.712134 kJ/mol
# Density = 0.985406 g / cm^3
# Si number density = 9.876543 Si / 1000 Ang^3
#
#
#
# Elastic Constant Matrix: (Units=GPa)
#
#
# Indices 1 2 3 4 5 6 
#
# 1 101.2986 29.7044 16.6944 0.0000 22.4319 0.0000
# 2 29.7044 52.5882 0.6282 0.0000 9.3627 0.0000
# 3 16.6944 0.6282 45.6334 0.0000 9.1458 0.0000
# 4 0.0000 0.0000 0.0000 5.7983 0.0000 6.3919
# 5 22.4319 9.3627 9.1458 0.0000 26.8818 0.0000
# 6 0.0000 0.0000 0.0000 6.3919 0.0000 11.3763
#
#
#
# Elastic Compliance Matrix: (Units=1/GPa)
#
#
# Indices 1 2 3 4 5 6 
#
# 1 0.014202 -0.006480 -0.003417 0.000000 -0.008432 0.000000
# 2 -0.006480 0.023293 0.002782 0.000000 -0.003652 0.000000
# 3 -0.003417 0.002782 0.024413 0.000000 -0.006424 0.000000
# 4 0.000000 0.000000 0.000000 0.453124 0.000000 -0.254594
# 5 -0.008432 -0.003652 -0.006424 0.000000 0.047693 0.000000
# 6 0.000000 0.000000 0.000000 -0.254594 0.000000 0.230950
#
#
# Mechanical properties :
#
#
# Convention : Reuss Voigt Hill
#
# Bulk Modulus (GPa) = 20.97391 32.61937 26.79664
# Shear Modulus (GPa) = 6.06945 18.97748 12.52346
#
# Velocity S-wave (km/s) = 1.75480 3.10294 2.52067
# Velocity P-wave (km/s) = 3.84016 5.42098 4.69755
#
# Compressibility (1/GPa) = 0.04767828
#
# Stress axis : x y z
#
# Youngs Moduli (GPa) = 70.41119 42.93156 40.96205
#
# Poissons Ratio (x) = 0.27820 0.13995
# Poissons Ratio (y) = 0.45627 -0.11395
# Poissons Ratio (z) = 0.24057 -0.11943
#
# Static dielectric constant tensor:
#      x y z
#    x 1.769160 0.000000 0.002520 
#    y 0.000000 1.681590 0.000000 
#    z 0.002520 0.000000 1.688200 
# 
# From -- ./inp_files/223846.got.cif
#   From: 2010.05.17/outbox.ucp.g08.bks.cvg/sg12_112_cif.got.tgz:223846.got - 2010.06.11 11:47:21.
