data_PCOD9223176
_publ_section_title
;
Structure prediction by ZEFSAII (Michael W. Deem and Ramdas Pophale) SiO2 
 PCOD9223176
Probable space group: C 2/M
;
_chemical_formula_sum "Si O2"
_cell_formula_units_Z 32
_cell_length_a 27.000000
_cell_length_b 15.000000
_cell_length_c 12.000000
_cell_angle_alpha 90.000000
_cell_angle_beta 140.000000
_cell_angle_gamma 90.000000
_cell_volume 3123.947783
_symmetry_space_group_name_H-M "C 2/M"
_symmetry_group_IT_number 12
_symmetry_cell_setting 'monoclinic'
loop_
_space_group_symop_operation_xyz
x,y,z
-x,y,-z
-x,-y,-z
x,-y,z
1/2+x,1/2+y,z
1/2-x,1/2+y,-z
1/2-x,1/2-y,-z
1/2+x,1/2-y,z
loop_
_atom_site_type_symbol
_atom_site_label
_atom_site_fract_x
_atom_site_fract_y
_atom_site_fract_z
Si Si1 0.431245 0.103402 0.460772
Si Si2 0.322180 0.750501 0.338524
Si Si3 0.132813 0.719092 0.334219
Si Si4 0.592119 0.603509 0.652606
Si Si5 0.992353 0.604029 0.161835
Si Si6 0.339195 0.221078 0.865520
Si Si7 0.950897 0.903588 0.801005
Si Si8 0.601808 0.397240 0.927403
O O1 0.500000 0.136691 0.500000
O O2 0.355410 0.164907 0.327065
O O3 0.469921 0.106243 0.649807
O O4 0.414114 0.000000 0.403792
O O5 0.329093 0.786836 0.478270
O O6 0.375090 0.670264 0.383547
O O7 0.236045 0.711515 0.187625
O O8 0.176620 0.704385 0.293358
O O9 0.104011 0.820553 0.285842
O O10 0.057525 0.655010 0.202272
O O11 0.500000 0.610076 0.500000
O O12 0.611957 0.500000 0.662966
O O13 0.617682 0.623809 0.824932
O O14 0.981640 0.500000 0.112496
O O15 0.912578 0.659198 0.022175
O O16 0.362030 0.323780 0.929449
O O17 0.011038 0.893786 0.802730
O O18 0.912111 0.000000 0.724214
O O19 0.000000 0.903969 0.000000
O O20 0.625689 0.500000 0.990131
#
# Coordination Sequence:
#
# PCOD9223176 Si02
#       8
#     8   8   8   8   8   8   8   8
#     4   9  20  41  66  90 115 157 212 254 291 352
#     4  11  25  38  61  87 125 160 196 247 310 359
#     4  11  21  40  60  86 118 164 207 248 290 357
#     4  10  22  41  63  87 118 156 197 237 291 367
#     4  10  22  40  63  88 119 161 209 255 296 348
#     4  12  24  38  58  91 125 156 200 252 308 358
#     4  10  17  30  57  90 115 142 190 246 291 342
#     4  10  21  37  59  88 120 152 190 241 298 353
#
# _framework density 10.243449
#
# number of rings (size 3 to 8) (size 9 to 14) (size 15 to 20)
#    0.000    1.625    2.500    1.875    3.500    4.000 
#    0.000    0.000    0.000    4.500    0.000    0.000 
#    0.000    0.000    0.000    0.000    0.000    0.000 
#
# Total GULP energy -178523.467770 kJ/mol
# GULP energy per Si atom -5578.858368 kJ/mol
# Density = 1.022013 g / cm^3
# Si number density = 10.243449 Si / 1000 Ang^3
#
#
#
# Elastic Constant Matrix: (Units=GPa)
#
#
# Indices 1 2 3 4 5 6 
#
# 1 109.1664 37.3622 11.7474 0.0000 14.8757 0.0000
# 2 37.3622 90.3107 6.9213 0.0000 12.0873 0.0000
# 3 11.7474 6.9213 20.4547 0.0000 0.9666 0.0000
# 4 0.0000 0.0000 0.0000 17.1394 0.0000 -10.1540
# 5 14.8757 12.0873 0.9666 0.0000 31.0182 0.0000
# 6 0.0000 0.0000 0.0000 -10.1540 0.0000 -9.7951
#
#
#
# Elastic Compliance Matrix: (Units=1/GPa)
#
#
# Indices 1 2 3 4 5 6 
#
# 1 0.011568 -0.003872 -0.005150 0.000000 -0.003879 0.000000
# 2 -0.003872 0.013272 -0.002113 0.000000 -0.003249 0.000000
# 3 -0.005150 -0.002113 0.052483 0.000000 0.001658 0.000000
# 4 0.000000 0.000000 0.000000 0.036146 0.000000 -0.037471
# 5 -0.003879 -0.003249 0.001658 0.000000 0.035314 0.000000
# 6 0.000000 0.000000 0.000000 -0.037471 0.000000 -0.063248
#
#
# Mechanical properties :
#
#
# Convention : Reuss Voigt Hill
#
# Bulk Modulus (GPa) = 18.16481 36.88818 27.52650
# Shear Modulus (GPa) = 39.63309 18.59920 29.11615
#
# Velocity S-wave (km/s) = 4.40313 3.01634 3.77398
# Velocity P-wave (km/s) = 5.89372 5.49326 5.69701
#
# Compressibility (1/GPa) = 0.05505149
#
# Stress axis : x y z
#
# Youngs Moduli (GPa) = 86.44325 75.34894 19.05368
#
# Poissons Ratio (x) = 0.29176 0.09813
# Poissons Ratio (y) = 0.33471 0.04027
# Poissons Ratio (z) = 0.44521 0.15924
#
# Static dielectric constant tensor:
#      x y z
#    x 1.750900 0.000000 -0.022860 
#    y 0.000000 1.723680 0.000000 
#    z -0.022860 0.000000 1.788430 
# 
# From -- ./inp_files/183823.got.cif
#   From: 2010.05.17/outbox.ucp.g08.bks.cvg/sg12_92_cif.got.tgz:183823.got - 2010.06.11 11:47:21.
