data_PCOD9223411
_publ_section_title
;
Structure prediction by ZEFSAII (Michael W. Deem and Ramdas Pophale) SiO2 
 PCOD9223411
Probable space group: C 2/M
;
_chemical_formula_sum "Si O2"
_cell_formula_units_Z 25
_cell_length_a 30.000000
_cell_length_b 12.000000
_cell_length_c 12.000000
_cell_angle_alpha 90.000000
_cell_angle_beta 140.000000
_cell_angle_gamma 90.000000
_cell_volume 2776.842474
_symmetry_space_group_name_H-M "C 2/M"
_symmetry_group_IT_number 12
_symmetry_cell_setting 'monoclinic'
loop_
_space_group_symop_operation_xyz
x,y,z
-x,y,-z
-x,-y,-z
x,-y,z
1/2+x,1/2+y,z
1/2-x,1/2+y,-z
1/2-x,1/2-y,-z
1/2+x,1/2-y,z
loop_
_atom_site_type_symbol
_atom_site_label
_atom_site_fract_x
_atom_site_fract_y
_atom_site_fract_z
Si Si1 0.500000 0.000000 0.500000
Si Si2 0.573938 0.872658 0.417263
Si Si3 0.570360 0.814059 0.774243
Si Si4 0.318842 0.869755 0.821328
Si Si5 0.215919 0.263851 0.759456
Si Si6 0.331796 0.627878 0.123081
Si Si7 0.424285 0.128249 0.841977
O O1 0.445246 0.097846 0.351644
O O2 0.504281 0.803964 0.308274
O O3 0.643762 0.824738 0.600769
O O4 0.587773 0.877066 0.312098
O O5 0.556921 0.000000 0.427046
O O6 0.602866 0.703505 0.784888
O O7 0.626570 0.858326 0.971438
O O8 0.252117 0.796695 0.724596
O O9 0.361436 0.826747 0.795161
O O10 0.300385 0.000000 0.772265
O O11 0.201030 0.171034 0.824635
O O12 0.272331 0.348482 0.917711
O O13 0.350060 0.500000 0.164063
O O14 0.431455 0.000000 0.899245
O O15 0.500000 0.182470 0.000000
#
# Coordination Sequence:
#
# PCOD9223411 Si02
#       7
#     2   8   8   8   8   8   8
#     4  12  20  32  50  90 108 132 196 236 264 322
#     4  11  20  35  54  84 114 137 185 241 278 327
#     4  11  21  33  58  82 110 148 185 237 280 313
#     4  10  18  35  55  82 111 144 181 227 280 342
#     4  10  22  35  56  81 109 154 187 223 283 325
#     4  10  22  41  54  78 115 158 192 221 278 348
#     4   9  17  30  55  82 109 138 174 233 293 323
#
# _framework density 9.003031
#
# number of rings (size 3 to 8) (size 9 to 14) (size 15 to 20)
#    0.000    1.760    3.200    1.920    0.000    0.640 
#    4.320    4.400    0.000    0.000    0.000   11.200 
#    0.000    0.000    0.000    0.000    0.000    0.000 
#
# Total GULP energy -139224.298293 kJ/mol
# GULP energy per Si atom -5568.971932 kJ/mol
# Density = 0.898254 g / cm^3
# Si number density = 9.003031 Si / 1000 Ang^3
#
#
#
# Elastic Constant Matrix: (Units=GPa)
#
#
# Indices 1 2 3 4 5 6 
#
# 1 115.2083 34.4780 1.3073 0.0000 19.5151 0.0000
# 2 34.4780 86.5025 22.8829 0.0000 11.8465 0.0000
# 3 1.3073 22.8829 47.5252 0.0000 15.6397 0.0000
# 4 0.0000 0.0000 0.0000 15.0000 0.0000 7.0114
# 5 19.5151 11.8465 15.6397 0.0000 31.4750 0.0000
# 6 0.0000 0.0000 0.0000 7.0114 0.0000 26.9448
#
#
#
# Elastic Compliance Matrix: (Units=1/GPa)
#
#
# Indices 1 2 3 4 5 6 
#
# 1 0.011272 -0.004631 0.004359 0.000000 -0.007412 0.000000
# 2 -0.004631 0.015275 -0.007508 0.000000 0.000853 0.000000
# 3 0.004359 -0.007508 0.029285 0.000000 -0.014428 0.000000
# 4 0.000000 0.000000 0.000000 0.075898 0.000000 -0.019750
# 5 -0.007412 0.000853 -0.014428 0.000000 0.043215 0.000000
# 6 0.000000 0.000000 0.000000 -0.019750 0.000000 0.042252
#
#
# Mechanical properties :
#
#
# Convention : Reuss Voigt Hill
#
# Bulk Modulus (GPa) = 24.83156 40.73027 32.78092
# Shear Modulus (GPa) = 20.31025 27.38848 23.84936
#
# Velocity S-wave (km/s) = 3.36217 3.90432 3.64334
# Velocity P-wave (km/s) = 5.37520 6.55701 5.99530
#
# Compressibility (1/GPa) = 0.04027133
#
# Stress axis : x y z
#
# Youngs Moduli (GPa) = 88.71770 65.46443 34.14759
#
# Poissons Ratio (x) = 0.30314 -0.14883
# Poissons Ratio (y) = 0.41082 0.25639
# Poissons Ratio (z) = -0.38668 0.49152
#
# Static dielectric constant tensor:
#      x y z
#    x 1.533280 0.000000 0.027770 
#    y 0.000000 1.596550 0.000000 
#    z 0.027770 0.000000 1.599380 
# 
# From -- ./inp_files/188791.got.cif
#   From: 2010.05.17/outbox.ucp.g08.bks.cvg/sg12_95_cif.got.tgz:188791.got - 2010.06.11 11:47:21.
