data_PCOD9223086
_publ_section_title
;
Structure prediction by ZEFSAII (Michael W. Deem and Ramdas Pophale) SiO2 
 PCOD9223086
Probable space group: C 2/M
;
_chemical_formula_sum "Si O2"
_cell_formula_units_Z 64
_cell_length_a 23.740504
_cell_length_b 7.420609
_cell_length_c 20.087457
_cell_angle_alpha 90.000000
_cell_angle_beta 60.259125
_cell_angle_gamma 90.000000
_cell_volume 3072.650446
_symmetry_space_group_name_H-M "C 2/M"
_symmetry_group_IT_number 12
_symmetry_cell_setting 'monoclinic'
loop_
_space_group_symop_operation_xyz
x,y,z
-x,y,-z
-x,-y,-z
x,-y,z
1/2+x,1/2+y,z
1/2-x,1/2+y,-z
1/2-x,1/2-y,-z
1/2+x,1/2-y,z
loop_
_atom_site_type_symbol
_atom_site_label
_atom_site_fract_x
_atom_site_fract_y
_atom_site_fract_z
Si Si1 0.075767 0.779821 0.770349
Si Si2 0.461237 0.279817 0.735815
Si Si3 0.297227 0.284605 0.377709
Si Si4 0.932262 0.779804 0.072670
Si Si5 0.830067 0.215719 0.883670
Si Si6 0.817816 0.215342 0.042697
Si Si7 0.334682 0.285447 0.501318
Si Si8 0.520105 0.279540 0.561573
O O1 0.146471 0.719939 0.703559
O O2 0.067187 0.721508 0.851113
O O3 0.018840 0.724852 0.752832
O O4 0.074515 0.000000 0.770681
O O5 0.461215 0.500000 0.735580
O O6 0.391393 0.219662 0.804808
O O7 0.478679 0.222803 0.650376
O O8 0.303158 0.500000 0.375536
O O9 0.312941 0.212107 0.442293
O O10 0.221454 0.247181 0.411926
O O11 0.870191 0.718935 0.065768
O O12 0.930608 0.000000 0.073958
O O13 0.000000 0.725867 0.000000
O O14 0.758038 0.251459 0.897730
O O15 0.836617 0.000000 0.883497
O O16 0.830995 0.284280 0.959695
O O17 0.825837 0.000000 0.035250
O O18 0.339893 0.500000 0.491457
O O19 0.405983 0.218713 0.473527
O O20 0.500000 0.221475 0.500000
O O21 0.518446 0.500000 0.563067
#
# Coordination Sequence:
#
# PCOD9223086 Si02
#       8
#     8   8   8   8   8   8   8   8
#     4   9  15  25  43  65  88 114 146 186 225 259
#     4   9  15  26  44  65  86 111 151 191 219 255
#     4   9  16  27  45  66  87 115 146 177 218 267
#     4   9  16  26  43  68  93 115 144 184 225 259
#     4   9  17  29  48  69  89 119 152 181 214 258
#     4   9  17  30  46  67  95 120 145 179 220 263
#     4   9  16  28  45  65  88 113 144 182 223 263
#     4   9  16  27  43  63  88 116 147 186 226 260
#
# _framework density 20.828923
#
# number of rings (size 3 to 8) (size 9 to 14) (size 15 to 20)
#    0.000    3.000    1.250    0.750    0.000    3.000 
#    2.250    0.000    0.000    2.250    0.000    0.000 
#    0.000    0.000    0.000    0.000    0.000    0.000 
#
# Total GULP energy -178450.139507 kJ/mol
# GULP energy per Si atom -5576.566860 kJ/mol
# Density = 2.078152 g / cm^3
# Si number density = 20.828923 Si / 1000 Ang^3
#
#
#
# Elastic Constant Matrix: (Units=GPa)
#
#
# Indices 1 2 3 4 5 6 
#
# 1 126.8484 0.8939 115.1111 0.1060 -11.2436 0.0984
# 2 0.8939 66.7161 3.1995 -0.5819 1.5416 -0.5447
# 3 115.1111 3.1995 209.1836 -0.1135 -22.4853 -0.1057
# 4 0.1060 -0.5819 -0.1135 3198.9173 -0.0198 2960.4829
# 5 -11.2436 1.5416 -22.4853 -0.0198 36.3021 -0.0183
# 6 0.0984 -0.5447 -0.1057 2960.4829 -0.0183 2773.0545
#
#
#
# Elastic Compliance Matrix: (Units=1/GPa)
#
#
# Indices 1 2 3 4 5 6 
#
# 1 0.015760 0.000220 -0.008733 -0.000001 -0.000538 0.000000
# 2 0.000220 0.015027 -0.000442 0.000000 -0.000843 0.000003
# 3 -0.008733 -0.000442 0.009968 0.000000 0.003488 0.000000
# 4 -0.000001 0.000000 0.000000 0.026084 0.000000 -0.027847
# 5 -0.000538 -0.000843 0.003488 0.000000 0.029576 0.000000
# 6 0.000000 0.000003 0.000000 -0.027847 0.000000 0.030090
#
#
# Mechanical properties :
#
#
# Convention : Reuss Voigt Hill
#
# Bulk Modulus (GPa) = 43.77453 71.23966 57.50710
# Shear Modulus (GPa) = 32.88848 1220.55768 626.72308
#
# Velocity S-wave (km/s) = 3.97795 24.23353 17.36502
# Velocity P-wave (km/s) = 6.49312 28.58837 20.72988
#
# Compressibility (1/GPa) = 0.02284433
#
# Stress axis : x y z
#
# Youngs Moduli (GPa) = 63.45355 66.54851 100.32024
#
# Poissons Ratio (x) = -0.01465 0.87614
# Poissons Ratio (y) = -0.01397 0.04430
# Poissons Ratio (z) = 0.55417 0.02939
#
# Static dielectric constant tensor:
#      x y z
#    x 1.740150 0.000000 -0.015820 
#    y 0.000000 1.789310 0.000000 
#    z -0.015820 0.000000 1.739980 
# 
# From -- ./inp_files/282889.got.cif
#   From: 2010.05.17/outbox.cif.g08.bks.cpg/sg12_142_cif.got.tgz:282889.got - 2010.06.03 13:09:07.
