data_PCOD9223928
_publ_section_title
;
Structure prediction by ZEFSAII (Michael W. Deem and Ramdas Pophale) SiO2 
 PCOD9223928
Probable space group: C 2/M
;
_chemical_formula_sum "Si O2"
_cell_formula_units_Z 32
_cell_length_a 15.000000
_cell_length_b 9.000000
_cell_length_c 30.000000
_cell_angle_alpha 90.000000
_cell_angle_beta 130.000000
_cell_angle_gamma 90.000000
_cell_volume 3102.479995
_symmetry_space_group_name_H-M "C 2/M"
_symmetry_group_IT_number 12
_symmetry_cell_setting 'monoclinic'
loop_
_space_group_symop_operation_xyz
x,y,z
-x,y,-z
-x,-y,-z
x,-y,z
1/2+x,1/2+y,z
1/2-x,1/2+y,-z
1/2-x,1/2-y,-z
1/2+x,1/2-y,z
loop_
_atom_site_type_symbol
_atom_site_label
_atom_site_fract_x
_atom_site_fract_y
_atom_site_fract_z
Si Si1 0.820257 0.822588 0.660007
Si Si2 0.619931 0.677839 0.902755
Si Si3 0.739862 0.179489 0.134472
Si Si4 0.658189 0.323518 0.437420
Si Si5 0.576022 0.826365 0.630453
Si Si6 0.480880 0.178306 0.045664
Si Si7 0.173671 0.172017 0.745595
Si Si8 0.073872 0.671184 0.220607
O O1 0.831904 0.777254 0.611898
O O2 0.688424 0.799406 0.635583
O O3 0.899718 0.737880 0.721902
O O4 0.844336 0.000000 0.670869
O O5 0.621572 0.500000 0.908092
O O6 0.727285 0.725696 0.905137
O O7 0.607454 0.749464 0.947582
O O8 0.513513 0.730221 0.836855
O O9 0.608821 0.216613 0.105479
O O10 0.821184 0.225494 0.201638
O O11 0.745855 0.000000 0.135856
O O12 0.672378 0.500000 0.442415
O O13 0.750000 0.250000 0.500000
O O14 0.533036 0.274993 0.415739
O O15 0.607121 0.779634 0.690991
O O16 0.546482 0.000000 0.618282
O O17 0.461484 0.000000 0.039749
O O18 0.500000 0.221193 0.000000
O O19 0.303919 0.168336 0.767025
O O20 0.129748 0.000000 0.729743
O O21 0.032345 0.500000 0.209806
#
# Coordination Sequence:
#
# PCOD9223928 Si02
#       8
#     8   8   8   8   8   8   8   8
#     4   9  21  40  60  84 118 157 192 233 294 351
#     4  11  22  35  56  85 118 152 189 235 291 348
#     4   9  19  36  56  82 115 154 190 229 291 353
#     4  11  24  42  62  85 117 158 200 240 290 348
#     4  10  21  38  59  87 118 149 193 241 288 343
#     4  10  21  41  64  82 110 155 201 242 287 344
#     4   9  17  34  58  81 114 154 190 229 285 351
#     4  10  19  34  59  87 117 150 193 240 284 340
#
# _framework density 10.314329000000001
#
# number of rings (size 3 to 8) (size 9 to 14) (size 15 to 20)
#    0.000    2.125    1.250    1.500    1.750    3.250 
#    0.000    4.375    0.000    0.000    0.000    0.000 
#    0.000    0.000    0.000    0.000    0.000    0.000 
#
# Total GULP energy -178606.842954 kJ/mol
# GULP energy per Si atom -5581.463842 kJ/mol
# Density = 1.029085 g / cm^3
# Si number density = 10.314329 Si / 1000 Ang^3
#
#
#
# Elastic Constant Matrix: (Units=GPa)
#
#
# Indices 1 2 3 4 5 6 
#
# 1 99.7622 22.1921 28.7429 0.0000 -15.7179 0.0000
# 2 22.1921 43.3472 16.3544 0.0000 -11.2763 0.0000
# 3 28.7429 16.3544 64.4857 0.0000 -12.3281 0.0000
# 4 0.0000 0.0000 0.0000 30.1087 0.0000 -11.4805
# 5 -15.7179 -11.2763 -12.3281 0.0000 32.2756 0.0000
# 6 0.0000 0.0000 0.0000 -11.4805 0.0000 24.9845
#
#
#
# Elastic Compliance Matrix: (Units=1/GPa)
#
#
# Indices 1 2 3 4 5 6 
#
# 1 0.012581 -0.004123 -0.003955 0.000000 0.003176 0.000000
# 2 -0.004123 0.028393 -0.004154 0.000000 0.006325 0.000000
# 3 -0.003955 -0.004154 0.019071 0.000000 0.003907 0.000000
# 4 0.000000 0.000000 0.000000 0.040269 0.000000 0.018504
# 5 0.003176 0.006325 0.003907 0.000000 0.036232 0.000000
# 6 0.000000 0.000000 0.000000 0.018504 0.000000 0.048527
#
#
# Mechanical properties :
#
#
# Convention : Reuss Voigt Hill
#
# Bulk Modulus (GPa) = 28.10472 38.01934 33.06203
# Shear Modulus (GPa) = 22.58403 26.82746 24.70575
#
# Velocity S-wave (km/s) = 3.31235 3.61015 3.46445
# Velocity P-wave (km/s) = 5.31814 5.98731 5.66262
#
# Compressibility (1/GPa) = 0.03558122
#
# Stress axis : x y z
#
# Youngs Moduli (GPa) = 79.48681 35.22002 52.43700
#
# Poissons Ratio (x) = 0.14520 0.20738
# Poissons Ratio (y) = 0.32769 0.21782
# Poissons Ratio (z) = 0.31436 0.14630
#
# Static dielectric constant tensor:
#      x y z
#    x 1.765640 0.000000 0.047080 
#    y 0.000000 1.692770 0.000000 
#    z 0.047080 0.000000 1.777510 
# 
# From -- ./inp_files/375688.got.cif
#   From: 2010.05.17/outbox.ucp.g08.bks.cvg/sg12_188_cif.got.tgz:375688.got - 2010.06.11 11:47:21.
