data_PCOD9223216
_publ_section_title
;
Structure prediction by ZEFSAII (Michael W. Deem and Ramdas Pophale) SiO2 
 PCOD9223216
Probable space group: C 2/M
;
_chemical_formula_sum "Si O2"
_cell_formula_units_Z 28
_cell_length_a 18.000000
_cell_length_b 9.000000
_cell_length_c 27.000000
_cell_angle_alpha 90.000000
_cell_angle_beta 140.000000
_cell_angle_gamma 90.000000
_cell_volume 2811.553005
_symmetry_space_group_name_H-M "C 2/M"
_symmetry_group_IT_number 12
_symmetry_cell_setting 'monoclinic'
loop_
_space_group_symop_operation_xyz
x,y,z
-x,y,-z
-x,-y,-z
x,-y,z
1/2+x,1/2+y,z
1/2-x,1/2+y,-z
1/2-x,1/2-y,-z
1/2+x,1/2-y,z
loop_
_atom_site_type_symbol
_atom_site_label
_atom_site_fract_x
_atom_site_fract_y
_atom_site_fract_z
Si Si1 0.236337 0.674882 0.582504
Si Si2 0.984338 0.678505 0.860970
Si Si3 0.607912 0.320236 0.827533
Si Si4 0.745815 0.173841 0.307134
Si Si5 0.544304 0.167428 0.333099
Si Si6 0.018259 0.668654 0.584615
Si Si7 0.686024 0.680512 0.015908
O O1 0.248747 0.500000 0.580051
O O2 0.279149 0.720331 0.659041
O O3 0.326800 0.767165 0.596776
O O4 0.101544 0.710848 0.503895
O O5 0.005876 0.500000 0.873336
O O6 0.846193 0.701809 0.783959
O O7 0.036467 0.749873 0.837174
O O8 0.055283 0.758203 0.941489
O O9 0.612666 0.500000 0.833351
O O10 0.540051 0.267143 0.743863
O O11 0.736441 0.248656 0.900019
O O12 0.878748 0.214557 0.366539
O O13 0.733615 0.000000 0.313951
O O14 0.502884 0.158697 0.367925
O O15 0.546533 0.000000 0.312879
O O16 0.051544 0.500000 0.584180
O O17 0.689411 0.500000 0.017263
O O18 0.750000 0.750000 0.000000
#
# Coordination Sequence:
#
# PCOD9223216 Si02
#       7
#     8   8   8   8   8   8   8
#     4  11  22  38  60  84 110 145 189 236 283 334
#     4  10  19  33  52  79 113 145 182 228 276 328
#     4  11  20  32  53  81 111 146 183 226 277 331
#     4  11  23  37  58  84 114 150 188 232 279 331
#     4  11  22  38  58  82 113 148 187 234 283 333
#     4  10  24  41  57  80 113 150 188 233 284 336
#     4  10  18  29  49  78 111 144 179 225 275 326
#
# _framework density 9.9589090000000002
#
# number of rings (size 3 to 8) (size 9 to 14) (size 15 to 20)
#    0.000    1.429    1.429    6.857    0.000    5.714 
#    0.000    0.000    0.000    0.857    0.000    6.000 
#    0.000    0.000    0.000    0.000    0.000    0.000 
#
# Total GULP energy -156204.437024 kJ/mol
# GULP energy per Si atom -5578.729894 kJ/mol
# Density = 0.993624 g / cm^3
# Si number density = 9.958909 Si / 1000 Ang^3
#
#
#
# Elastic Constant Matrix: (Units=GPa)
#
#
# Indices 1 2 3 4 5 6 
#
# 1 18.9455 8.4022 4.6728 0.0000 -2.5656 0.0000
# 2 8.4022 138.1005 52.8316 0.0000 11.5370 0.0000
# 3 4.6728 52.8316 160.9455 0.0000 24.9639 0.0000
# 4 0.0000 0.0000 0.0000 30.1010 0.0000 0.9551
# 5 -2.5656 11.5370 24.9639 0.0000 5.1676 0.0000
# 6 0.0000 0.0000 0.0000 0.9551 0.0000 13.2141
#
#
#
# Elastic Compliance Matrix: (Units=1/GPa)
#
#
# Indices 1 2 3 4 5 6 
#
# 1 0.119770 -0.016403 -0.051841 0.000000 0.346520 0.000000
# 2 -0.016403 0.011164 0.007741 0.000000 -0.070466 0.000000
# 3 -0.051841 0.007741 0.047269 0.000000 -0.271370 0.000000
# 4 0.000000 0.000000 0.000000 0.033298 0.000000 -0.002407
# 5 0.346520 -0.070466 -0.271370 0.000000 1.833820 0.000000
# 6 0.000000 0.000000 0.000000 -0.002407 0.000000 0.075851
#
#
# Mechanical properties :
#
#
# Convention : Reuss Voigt Hill
#
# Bulk Modulus (GPa) = 17.48325 49.97831 33.73078
# Shear Modulus (GPa) = 2.21117 26.50218 14.35668
#
# Velocity S-wave (km/s) = 1.05478 3.65166 2.68768
# Velocity P-wave (km/s) = 3.20627 6.55181 5.15783
#
# Compressibility (1/GPa) = 0.05719761
#
# Stress axis : x y z
#
# Youngs Moduli (GPa) = 8.34934 89.57079 21.15559
#
# Poissons Ratio (x) = 1.46925 1.09672
# Poissons Ratio (y) = 0.13696 -0.16377
# Poissons Ratio (z) = 0.43284 -0.69339
#
# Static dielectric constant tensor:
#      x y z
#    x 1.783500 0.000000 0.028060 
#    y 0.000000 1.687190 0.000000 
#    z 0.028060 0.000000 1.721230 
# 
# From -- ./inp_files/363218.got.cif
#   From: 2010.05.17/outbox.ucp.g08.bks.cvg/sg12_182_cif.got.tgz:363218.got - 2010.06.11 11:47:21.
