data_PCOD9223712
_publ_section_title
;
Structure prediction by ZEFSAII (Michael W. Deem and Ramdas Pophale) SiO2 
 PCOD9223712
Probable space group: C 2/M
;
_chemical_formula_sum "Si O2"
_cell_formula_units_Z 28
_cell_length_a 15.000000
_cell_length_b 12.000000
_cell_length_c 18.000000
_cell_angle_alpha 90.000000
_cell_angle_beta 70.000000
_cell_angle_gamma 90.000000
_cell_volume 3044.604091
_symmetry_space_group_name_H-M "C 2/M"
_symmetry_group_IT_number 12
_symmetry_cell_setting 'monoclinic'
loop_
_space_group_symop_operation_xyz
x,y,z
-x,y,-z
-x,-y,-z
x,-y,z
1/2+x,1/2+y,z
1/2-x,1/2+y,-z
1/2-x,1/2-y,-z
1/2+x,1/2-y,z
loop_
_atom_site_type_symbol
_atom_site_label
_atom_site_fract_x
_atom_site_fract_y
_atom_site_fract_z
Si Si1 0.446110 0.253818 0.159564
Si Si2 0.234887 0.233328 0.882058
Si Si3 0.090465 0.874907 0.219049
Si Si4 0.978251 0.796239 0.392745
Si Si5 0.126527 0.370703 0.041453
Si Si6 0.863215 0.367244 0.330511
Si Si7 0.854173 0.868915 0.558140
O O1 0.355812 0.303129 0.141048
O O2 0.518968 0.343469 0.172969
O O3 0.521839 0.179468 0.090507
O O4 0.398204 0.185605 0.242135
O O5 0.315178 0.298730 0.811265
O O6 0.301175 0.147905 0.909293
O O7 0.181897 0.310996 0.958175
O O8 0.024202 0.860407 0.309943
O O9 0.124810 0.000000 0.203427
O O10 0.934413 0.683679 0.371673
O O11 0.891531 0.853782 0.462724
O O12 0.070276 0.792527 0.419605
O O13 0.115633 0.500000 0.028737
O O14 0.870344 0.500000 0.323486
O O15 0.754247 0.341722 0.387927
O O16 0.869409 0.000000 0.573022
#
# Coordination Sequence:
#
# PCOD9223712 Si02
#       7
#     8   8   8   8   8   8   8
#     4  10  21  35  53  76 103 133 169 208 249 301
#     4  10  21  36  53  77 104 132 169 210 250 299
#     4  10  20  34  53  77 103 132 167 209 254 298
#     4  10  19  33  53  77 104 131 169 214 250 295
#     4  10  21  36  54  76 103 134 168 208 253 299
#     4  10  21  35  52  75 104 136 169 207 252 299
#     4  10  19  33  55  78 100 134 173 209 253 300
#
# _framework density 9.1965979999999998
#
# number of rings (size 3 to 8) (size 9 to 14) (size 15 to 20)
#    0.000    2.000    0.000    4.286    0.000    4.571 
#    0.000    1.429    0.000   15.429    0.000    0.000 
#    0.000    0.000    0.000    0.000    0.000    0.000 
#
# Total GULP energy -155921.588049 kJ/mol
# GULP energy per Si atom -5568.628145 kJ/mol
# Density = 0.917567 g / cm^3
# Si number density = 9.196598 Si / 1000 Ang^3
#
#
#
# Elastic Constant Matrix: (Units=GPa)
#
#
# Indices 1 2 3 4 5 6 
#
# 1 98.7584 -14.1429 8.1882 0.0000 -12.0658 0.0000
# 2 -14.1429 9.3474 1.3340 0.0000 -3.4407 0.0000
# 3 8.1882 1.3340 80.1918 0.0000 -23.8144 0.0000
# 4 0.0000 0.0000 0.0000 12.0219 0.0000 -11.1762
# 5 -12.0658 -3.4407 -23.8144 0.0000 40.2096 0.0000
# 6 0.0000 0.0000 0.0000 -11.1762 0.0000 17.5629
#
#
#
# Elastic Compliance Matrix: (Units=1/GPa)
#
#
# Indices 1 2 3 4 5 6 
#
# 1 0.014347 0.024053 0.000030 0.000000 0.006381 0.000000
# 2 0.024053 0.150876 0.001227 0.000000 0.020855 0.000000
# 3 0.000030 0.001227 0.015144 0.000000 0.009083 0.000000
# 4 0.000000 0.000000 0.000000 0.203674 0.000000 0.129609
# 5 0.006381 0.020855 0.009083 0.000000 0.033949 0.000000
# 6 0.000000 0.000000 0.000000 0.129609 0.000000 0.139415
#
#
# Mechanical properties :
#
#
# Convention : Reuss Voigt Hill
#
# Bulk Modulus (GPa) = 4.32923 19.89511 12.11217
# Shear Modulus (GPa) = 8.56485 26.82010 17.69248
#
# Velocity S-wave (km/s) = 2.16024 3.82272 3.10482
# Velocity P-wave (km/s) = 2.92934 5.50675 4.41052
#
# Compressibility (1/GPa) = 0.23098780
#
# Stress axis : x y z
#
# Youngs Moduli (GPa) = 69.69911 6.62795 66.03259
#
# Poissons Ratio (x) = -0.15942 -0.00197
# Poissons Ratio (y) = -1.67645 -0.08105
# Poissons Ratio (z) = -0.00208 -0.00814
#
# Static dielectric constant tensor:
#      x y z
#    x 1.624980 0.000000 0.051890 
#    y 0.000000 1.610100 0.000000 
#    z 0.051890 0.000000 1.700920 
# 
# From -- ./inp_files/268602.got.cif
#   From: 2010.05.17/outbox.ucp.g08.bks.cvg/sg12_135_cif.got.tgz:268602.got - 2010.06.11 11:47:21.
