data_PCOD9223325
_publ_section_title
;
Structure prediction by ZEFSAII (Michael W. Deem and Ramdas Pophale) SiO2 
 PCOD9223325
Probable space group: C 2/M
;
_chemical_formula_sum "Si O2"
_cell_formula_units_Z 32
_cell_length_a 24.000000
_cell_length_b 9.000000
_cell_length_c 15.000000
_cell_angle_alpha 90.000000
_cell_angle_beta 90.000000
_cell_angle_gamma 90.000000
_cell_volume 3240.000000
_symmetry_space_group_name_H-M "C 2/M"
_symmetry_group_IT_number 12
_symmetry_cell_setting 'monoclinic'
loop_
_space_group_symop_operation_xyz
x,y,z
-x,y,-z
-x,-y,-z
x,-y,z
1/2+x,1/2+y,z
1/2-x,1/2+y,-z
1/2-x,1/2-y,-z
1/2+x,1/2-y,z
loop_
_atom_site_type_symbol
_atom_site_label
_atom_site_fract_x
_atom_site_fract_y
_atom_site_fract_z
Si Si1 0.385815 0.678908 0.980576
Si Si2 0.065342 0.179593 0.486174
Si Si3 0.403747 0.318823 0.173257
Si Si4 0.770104 0.821918 0.907804
Si Si5 0.739656 0.179197 0.277930
Si Si6 0.850785 0.180443 0.357243
Si Si7 0.111791 0.678004 0.308107
Si Si8 0.532564 0.679273 0.161199
O O1 0.385512 0.500000 0.988324
O O2 0.336089 0.714401 0.913518
O O3 0.443770 0.720665 0.935751
O O4 0.378440 0.737349 0.080240
O O5 0.106911 0.227328 0.565716
O O6 0.086967 0.259828 0.398954
O O7 0.000000 0.213800 0.500000
O O8 0.069122 0.000000 0.476747
O O9 0.399961 0.500000 0.173734
O O10 0.375004 0.267213 0.262782
O O11 0.468740 0.279880 0.174159
O O12 0.746551 0.749216 0.818405
O O13 0.762372 0.000000 0.908132
O O14 0.750000 0.750000 0.000000
O O15 0.785627 0.222840 0.351994
O O16 0.676685 0.223419 0.300946
O O17 0.741754 0.000000 0.268588
O O18 0.852245 0.000000 0.359270
O O19 0.109700 0.500000 0.304274
O O20 0.073174 0.746356 0.231764
O O21 0.536395 0.500000 0.170030
#
# Coordination Sequence:
#
# PCOD9223325 Si02
#       8
#     8   8   8   8   8   8   8   8
#     4   9  17  29  49  80 111 140 181 231 279 323
#     4  10  21  39  64  90 111 139 184 236 285 336
#     4   9  16  28  52  83 110 137 178 235 286 323
#     4  11  21  34  54  80 112 152 194 236 280 326
#     4  10  21  38  57  79 113 152 189 227 275 334
#     4   9  18  34  56  82 111 143 182 231 281 327
#     4  11  23  37  56  82 115 154 187 226 283 338
#     4  10  18  32  55  82 110 142 186 234 275 328
#
# _framework density 9.8765429999999999
#
# number of rings (size 3 to 8) (size 9 to 14) (size 15 to 20)
#    0.000    2.125    1.250    2.625    0.000    6.750 
#    0.000    0.625    0.000    6.750    0.000    0.000 
#    0.000    0.000    0.000    0.000    0.000    0.000 
#
# Total GULP energy -178431.077808 kJ/mol
# GULP energy per Si atom -5575.971182 kJ/mol
# Density = 0.985406 g / cm^3
# Si number density = 9.876543 Si / 1000 Ang^3
#
#
#
# Elastic Constant Matrix: (Units=GPa)
#
#
# Indices 1 2 3 4 5 6 
#
# 1 70.0527 10.6831 22.2902 0.0000 10.9071 0.0000
# 2 10.6831 3.9291 1.4115 0.0000 1.0502 0.0000
# 3 22.2902 1.4115 78.7672 0.0000 13.4354 0.0000
# 4 0.0000 0.0000 0.0000 17.6132 0.0000 4.7462
# 5 10.9071 1.0502 13.4354 0.0000 34.3906 0.0000
# 6 0.0000 0.0000 0.0000 4.7462 0.0000 15.4706
#
#
#
# Elastic Compliance Matrix: (Units=1/GPa)
#
#
# Indices 1 2 3 4 5 6 
#
# 1 0.027870 -0.072516 -0.005847 0.000000 -0.004340 0.000000
# 2 -0.072516 0.446187 0.011707 0.000000 0.004800 0.000000
# 3 -0.005847 0.011707 0.014876 0.000000 -0.004315 0.000000
# 4 0.000000 0.000000 0.000000 0.061892 0.000000 -0.018988
# 5 -0.004340 0.004800 -0.004315 0.000000 0.031993 0.000000
# 6 0.000000 0.000000 0.000000 -0.018988 0.000000 0.070464
#
#
# Mechanical properties :
#
#
# Convention : Reuss Voigt Hill
#
# Bulk Modulus (GPa) = 2.81198 24.61320 13.71259
# Shear Modulus (GPa) = 5.52403 21.38583 13.45493
#
# Velocity S-wave (km/s) = 1.67410 3.29395 2.61273
# Velocity P-wave (km/s) = 2.27233 5.19175 4.00735
#
# Compressibility (1/GPa) = 0.35562094
#
# Stress axis : x y z
#
# Youngs Moduli (GPa) = 35.88095 2.24121 67.22017
#
# Poissons Ratio (x) = 0.16252 0.39304
# Poissons Ratio (y) = 2.60194 -0.78692
# Poissons Ratio (z) = 0.20980 -0.02624
#
# Static dielectric constant tensor:
#      x y z
#    x 1.745930 0.000000 0.000420 
#    y 0.000000 1.652380 0.000000 
#    z 0.000420 0.000000 1.707110 
# 
# From -- ./inp_files/238757.got.cif
#   From: 2010.05.17/outbox.ucp.g08.bks.cvg/sg12_120_cif.got.tgz:238757.got - 2010.06.11 11:47:21.
