data_PCOD9223830
_publ_section_title
;
Structure prediction by ZEFSAII (Michael W. Deem and Ramdas Pophale) SiO2 
 PCOD9223830
Probable space group: C 2/M
;
_chemical_formula_sum "Si O2"
_cell_formula_units_Z 28
_cell_length_a 27.000000
_cell_length_b 9.000000
_cell_length_c 18.000000
_cell_angle_alpha 90.000000
_cell_angle_beta 40.000000
_cell_angle_gamma 90.000000
_cell_volume 2811.553005
_symmetry_space_group_name_H-M "C 2/M"
_symmetry_group_IT_number 12
_symmetry_cell_setting 'monoclinic'
loop_
_space_group_symop_operation_xyz
x,y,z
-x,y,-z
-x,-y,-z
x,-y,z
1/2+x,1/2+y,z
1/2-x,1/2+y,-z
1/2-x,1/2-y,-z
1/2+x,1/2-y,z
loop_
_atom_site_type_symbol
_atom_site_label
_atom_site_fract_x
_atom_site_fract_y
_atom_site_fract_z
Si Si1 0.191954 0.179583 0.712826
Si Si2 0.944265 0.177349 0.231785
Si Si3 0.247489 0.173108 0.808408
Si Si4 0.340795 0.324989 0.497096
Si Si5 0.612863 0.672670 0.082477
Si Si6 0.520213 0.673424 0.563462
Si Si7 0.869161 0.323235 0.787588
O O1 0.110520 0.233306 0.772309
O O2 0.218502 0.237213 0.763422
O O3 0.263790 0.229553 0.580164
O O4 0.187327 0.000000 0.720540
O O5 0.895049 0.196324 0.363408
O O6 0.030479 0.234623 0.148596
O O7 0.953712 0.000000 0.207968
O O8 0.317549 0.236195 0.777864
O O9 0.268302 0.000000 0.769297
O O10 0.173807 0.175665 0.946481
O O11 0.321079 0.500000 0.524359
O O12 0.394114 0.285635 0.507551
O O13 0.600803 0.500000 0.118400
O O14 0.648911 0.755788 0.111463
O O15 0.500000 0.683454 0.500000
O O16 0.509999 0.500000 0.597695
O O17 0.457432 0.776445 0.674176
O O18 0.859342 0.500000 0.800879
#
# Coordination Sequence:
#
# PCOD9223830 Si02
#       7
#     8   8   8   8   8   8   8
#     4  10  20  35  54  80 108 138 175 218 270 319
#     4   9  18  33  56  80 104 135 179 224 260 310
#     4   9  20  35  54  80 109 138 175 220 267 316
#     4  10  19  34  52  77 108 138 178 217 255 314
#     4  10  19  37  59  77 104 143 179 220 263 308
#     4  10  20  34  54  78 107 145 182 215 258 316
#     4  11  21  34  52  80 112 139 174 220 265 316
#
# _framework density 9.9589090000000002
#
# number of rings (size 3 to 8) (size 9 to 14) (size 15 to 20)
#    0.000    2.143    1.429    2.143    0.000    1.429 
#    0.000    5.714    0.000    0.000    0.000    2.000 
#    0.000    0.000    0.000    0.000    0.000    0.000 
#
# Total GULP energy -156115.865210 kJ/mol
# GULP energy per Si atom -5575.566615 kJ/mol
# Density = 0.993624 g / cm^3
# Si number density = 9.958909 Si / 1000 Ang^3
#
#
#
# Elastic Constant Matrix: (Units=GPa)
#
#
# Indices 1 2 3 4 5 6 
#
# 1 147.3854 15.1779 11.1331 0.0010 -8.9226 0.0000
# 2 15.1779 10.6075 1.1895 -0.0033 2.0474 0.0005
# 3 11.1331 1.1895 20.9519 0.0031 -3.4714 -0.0004
# 4 0.0010 -0.0033 0.0031 17.7921 0.0007 0.6718
# 5 -8.9226 2.0474 -3.4714 0.0007 27.8460 0.0000
# 6 0.0000 0.0005 -0.0004 0.6718 0.0000 19.1748
#
#
#
# Elastic Compliance Matrix: (Units=1/GPa)
#
#
# Indices 1 2 3 4 5 6 
#
# 1 0.008508 -0.012430 -0.003280 -0.000002 0.003231 0.000000
# 2 -0.012430 0.114729 -0.002007 0.000023 -0.012669 -0.000004
# 3 -0.003280 -0.002007 0.050478 -0.000009 0.005389 0.000001
# 4 -0.000002 0.000023 -0.000009 0.056279 -0.000005 -0.001972
# 5 0.003231 -0.012669 0.005389 -0.000005 0.038551 0.000001
# 6 0.000000 -0.000004 0.000001 -0.001972 0.000001 0.052221
#
#
# Mechanical properties :
#
#
# Convention : Reuss Voigt Hill
#
# Bulk Modulus (GPa) = 7.23168 25.99396 16.61282
# Shear Modulus (GPa) = 12.42870 23.05887 17.74379
#
# Velocity S-wave (km/s) = 2.50071 3.40619 2.98795
# Velocity P-wave (km/s) = 3.46074 5.34308 4.50140
#
# Compressibility (1/GPa) = 0.13828038
#
# Stress axis : x y z
#
# Youngs Moduli (GPa) = 117.53106 8.71620 19.81051
#
# Poissons Ratio (x) = 0.10834 0.06498
# Poissons Ratio (y) = 1.46093 0.03977
# Poissons Ratio (z) = 0.38550 0.01750
#
# Static dielectric constant tensor:
#      x y z
#    x 1.746210 0.000000 0.030580 
#    y 0.000000 1.690770 0.000000 
#    z 0.030580 0.000000 1.728600 
# 
# From -- ./inp_files/288148.got.cif
#   From: 2010.05.17/outbox.ucp.g08.bks.cvg/sg12_145_cif.got.tgz:288148.got - 2010.06.11 11:47:21.
