data_PCOD9223282
_publ_section_title
;
Structure prediction by ZEFSAII (Michael W. Deem and Ramdas Pophale) SiO2 
 PCOD9223282
Probable space group: C 2/M
;
_chemical_formula_sum "Si O2"
_cell_formula_units_Z 20
_cell_length_a 27.000000
_cell_length_b 9.000000
_cell_length_c 12.000000
_cell_angle_alpha 90.000000
_cell_angle_beta 130.000000
_cell_angle_gamma 90.000000
_cell_volume 2233.785596
_symmetry_space_group_name_H-M "C 2/M"
_symmetry_group_IT_number 12
_symmetry_cell_setting 'monoclinic'
loop_
_space_group_symop_operation_xyz
x,y,z
-x,y,-z
-x,-y,-z
x,-y,z
1/2+x,1/2+y,z
1/2-x,1/2+y,-z
1/2-x,1/2-y,-z
1/2+x,1/2-y,z
loop_
_atom_site_type_symbol
_atom_site_label
_atom_site_fract_x
_atom_site_fract_y
_atom_site_fract_z
Si Si1 0.076177 0.666484 0.143336
Si Si2 0.907586 0.165669 0.040162
Si Si3 0.053208 0.827158 0.324443
Si Si4 0.817011 0.831929 0.119026
Si Si5 0.573252 0.176063 0.575897
O O1 0.092651 0.500000 0.201889
O O2 0.085025 0.783508 0.253873
O O3 0.109932 0.718477 0.080016
O O4 0.000000 0.668773 0.000000
O O5 0.853629 0.160853 0.054521
O O6 0.976402 0.202838 0.196792
O O7 0.916887 0.000000 0.004171
O O8 0.080280 0.721620 0.458228
O O9 0.061029 0.000000 0.364050
O O10 0.868712 0.750428 0.272623
O O11 0.805875 0.000000 0.143525
O O12 0.750000 0.750000 0.000000
O O13 0.500000 0.229299 0.500000
O O14 0.574990 0.000000 0.596327
#
# Coordination Sequence:
#
# PCOD9223282 Si02
#       5
#     8   8   8   8   8
#     4   9  17  28  46  75 108 139 175 221 271 319
#     4   9  18  32  51  75 106 143 181 221 267 322
#     4  10  18  31  52  78 109 142 179 222 272 324
#     4  11  23  39  57  80 111 148 188 226 272 327
#     4  11  22  35  55  82 112 144 182 229 277 323
#
# _framework density 8.9534109999999991
#
# number of rings (size 3 to 8) (size 9 to 14) (size 15 to 20)
#    0.000    2.000    2.000    2.400    0.000    5.600 
#    0.000    0.000    0.000    1.200    0.000    0.000 
#    0.000    0.000    0.000    0.000    0.000    0.000 
#
# Total GULP energy -111427.393278 kJ/mol
# GULP energy per Si atom -5571.369664 kJ/mol
# Density = 0.893303 g / cm^3
# Si number density = 8.953411 Si / 1000 Ang^3
#
#
#
# Elastic Constant Matrix: (Units=GPa)
#
#
# Indices 1 2 3 4 5 6 
#
# 1 38.1536 28.1147 40.1051 0.0000 -0.5318 0.0000
# 2 28.1147 64.0070 49.8499 0.0000 15.4936 0.0000
# 3 40.1051 49.8499 82.8444 0.0000 13.0817 0.0000
# 4 0.0000 0.0000 0.0000 29.8119 0.0000 -4.5668
# 5 -0.5318 15.4936 13.0817 0.0000 21.1985 0.0000
# 6 0.0000 0.0000 0.0000 -4.5668 0.0000 17.2468
#
#
#
# Elastic Compliance Matrix: (Units=1/GPa)
#
#
# Indices 1 2 3 4 5 6 
#
# 1 0.067480 -0.014633 -0.028606 0.000000 0.030041 0.000000
# 2 -0.014633 0.035458 -0.011193 0.000000 -0.019376 0.000000
# 3 -0.028606 -0.011193 0.034874 0.000000 -0.014058 0.000000
# 4 0.000000 0.000000 0.000000 0.034962 0.000000 0.009258
# 5 0.030041 -0.019376 -0.014058 0.000000 0.070763 0.000000
# 6 0.000000 0.000000 0.000000 0.009258 0.000000 0.060433
#
#
# Mechanical properties :
#
#
# Convention : Reuss Voigt Hill
#
# Bulk Modulus (GPa) = 34.54371 46.79383 40.66877
# Shear Modulus (GPa) = 11.83479 18.11377 14.97428
#
# Velocity S-wave (km/s) = 2.57361 3.18395 2.89491
# Velocity P-wave (km/s) = 5.30697 6.30121 5.82534
#
# Compressibility (1/GPa) = 0.02894883
#
# Stress axis : x y z
#
# Youngs Moduli (GPa) = 14.81912 28.20244 28.67493
#
# Poissons Ratio (x) = 0.41269 0.82027
# Poissons Ratio (y) = 0.21685 0.32095
# Poissons Ratio (z) = 0.42391 0.31566
#
# Static dielectric constant tensor:
#      x y z
#    x 1.632240 0.000000 -0.013890 
#    y 0.000000 1.645890 0.000000 
#    z -0.013890 0.000000 1.605010 
# 
# From -- ./inp_files/151655.got.cif
#   From: 2010.05.17/outbox.ucp.g08.bks.cvg/sg12_76_cif.got.tgz:151655.got - 2010.06.11 11:47:21.
