data_PCOD9223958
_publ_section_title
;
Structure prediction by ZEFSAII (Michael W. Deem and Ramdas Pophale) SiO2 
 PCOD9223958
Probable space group: C 2/M
;
_chemical_formula_sum "Si O2"
_cell_formula_units_Z 32
_cell_length_a 30.000000
_cell_length_b 9.000000
_cell_length_c 24.000000
_cell_angle_alpha 90.000000
_cell_angle_beta 30.000000
_cell_angle_gamma 90.000000
_cell_volume 3240.000000
_symmetry_space_group_name_H-M "C 2/M"
_symmetry_group_IT_number 12
_symmetry_cell_setting 'monoclinic'
loop_
_space_group_symop_operation_xyz
x,y,z
-x,y,-z
-x,-y,-z
x,-y,z
1/2+x,1/2+y,z
1/2-x,1/2+y,-z
1/2-x,1/2-y,-z
1/2+x,1/2-y,z
loop_
_atom_site_type_symbol
_atom_site_label
_atom_site_fract_x
_atom_site_fract_y
_atom_site_fract_z
Si Si1 0.198690 0.678717 0.415567
Si Si2 0.506079 0.828014 0.657252
Si Si3 0.061146 0.681140 0.984329
Si Si4 0.346140 0.178309 0.906695
Si Si5 0.009687 0.677745 0.161450
Si Si6 0.924006 0.672095 0.623476
Si Si7 0.324270 0.322937 0.380224
Si Si8 0.763933 0.822048 0.744072
O O1 0.189578 0.500000 0.418042
O O2 0.284437 0.706755 0.361398
O O3 0.208251 0.754907 0.345616
O O4 0.106808 0.731946 0.544945
O O5 0.425745 0.762730 0.780531
O O6 0.467156 0.826942 0.637275
O O7 0.515170 0.000000 0.666849
O O8 0.060880 0.500000 0.984737
O O9 0.019127 0.728906 0.087905
O O10 0.163470 0.726612 0.866606
O O11 0.000000 0.732525 0.000000
O O12 0.394234 0.204074 0.913864
O O13 0.336333 0.000000 0.909182
O O14 0.250000 0.250000 0.000000
O O15 0.994689 0.500000 0.180098
O O16 0.922513 0.754618 0.281688
O O17 0.905612 0.500000 0.627805
O O18 0.834206 0.763368 0.713165
O O19 0.000000 0.731383 0.500000
O O20 0.326604 0.500000 0.386058
O O21 0.250000 0.250000 0.500000
O O22 0.766425 0.000000 0.738783
#
# Coordination Sequence:
#
# PCOD9223958 Si02
#       8
#     8   8   8   8   8   8   8   8
#     4  10  20  38  60  83 113 152 192 229 280 354
#     4   9  18  35  57  78 106 148 195 232 279 346
#     4   9  19  36  57  81 114 156 193 230 287 353
#     4  10  22  39  60  84 112 153 199 246 297 348
#     4  10  21  40  62  83 116 159 201 243 293 352
#     4  10  19  35  57  78 108 154 193 229 284 354
#     4  11  23  38  62  91 119 150 190 241 293 349
#     4  11  22  34  55  87 117 145 187 242 294 342
#
# _framework density 9.8765429999999999
#
# number of rings (size 3 to 8) (size 9 to 14) (size 15 to 20)
#    0.000    2.000    1.250    2.250    1.750    4.750 
#    0.000    1.875    0.000    3.375    0.000    0.000 
#    0.000    0.000    0.000    0.000    0.000    0.000 
#
# Total GULP energy -178559.902436 kJ/mol
# GULP energy per Si atom -5579.996951 kJ/mol
# Density = 0.985406 g / cm^3
# Si number density = 9.876543 Si / 1000 Ang^3
#
#
#
# Elastic Constant Matrix: (Units=GPa)
#
#
# Indices 1 2 3 4 5 6 
#
# 1 74.8767 23.1232 35.5942 -0.0020 -17.5032 0.0003
# 2 23.1232 32.2960 21.6008 -0.0047 -13.5575 0.0033
# 3 35.5942 21.6008 122.3332 -0.0006 -22.4959 0.0014
# 4 -0.0020 -0.0047 -0.0006 26.0352 0.0015 -11.1247
# 5 -17.5032 -13.5575 -22.4959 0.0015 43.1865 -0.0008
# 6 0.0003 0.0033 0.0014 -11.1247 -0.0008 19.0261
#
#
#
# Elastic Compliance Matrix: (Units=1/GPa)
#
#
# Indices 1 2 3 4 5 6 
#
# 1 0.018593 -0.010068 -0.003127 0.000000 0.002746 0.000002
# 2 -0.010068 0.043723 -0.003337 0.000005 0.007907 -0.000004
# 3 -0.003127 -0.003337 0.010227 -0.000001 0.003013 -0.000001
# 4 0.000000 0.000005 -0.000001 0.051202 0.000000 0.029938
# 5 0.002746 0.007907 0.003013 0.000000 0.028320 -0.000001
# 6 0.000002 -0.000004 -0.000001 0.029938 -0.000001 0.070064
#
#
# Mechanical properties :
#
#
# Convention : Reuss Voigt Hill
#
# Bulk Modulus (GPa) = 25.32939 43.34915 34.33927
# Shear Modulus (GPa) = 18.63216 27.59539 23.11377
#
# Velocity S-wave (km/s) = 3.07457 3.74172 3.42443
# Velocity P-wave (km/s) = 5.04528 6.37656 5.74958
#
# Compressibility (1/GPa) = 0.03947983
#
# Stress axis : x y z
#
# Youngs Moduli (GPa) = 53.78409 22.87117 97.77595
#
# Poissons Ratio (x) = 0.23026 0.30576
# Poissons Ratio (y) = 0.54149 0.32627
# Poissons Ratio (z) = 0.16819 0.07632
#
# Static dielectric constant tensor:
#      x y z
#    x 1.725590 0.000000 0.032720 
#    y 0.000000 1.675630 0.000000 
#    z 0.032720 0.000000 1.695310 
# 
# From -- ./inp_files/353361.got.cif
#   From: 2010.05.17/outbox.ucp.g08.bks.cvg/sg12_177_cif.got.tgz:353361.got - 2010.06.11 11:47:21.
