data_PCOD9223386
_publ_section_title
;
Structure prediction by ZEFSAII (Michael W. Deem and Ramdas Pophale) SiO2 
 PCOD9223386
Probable space group: C 2/M
;
_chemical_formula_sum "Si O2"
_cell_formula_units_Z 28
_cell_length_a 9.000000
_cell_length_b 21.000000
_cell_length_c 30.000000
_cell_angle_alpha 90.000000
_cell_angle_beta 30.000000
_cell_angle_gamma 90.000000
_cell_volume 2835.000000
_symmetry_space_group_name_H-M "C 2/M"
_symmetry_group_IT_number 12
_symmetry_cell_setting 'monoclinic'
loop_
_space_group_symop_operation_xyz
x,y,z
-x,y,-z
-x,-y,-z
x,-y,z
1/2+x,1/2+y,z
1/2-x,1/2+y,-z
1/2-x,1/2-y,-z
1/2+x,1/2-y,z
loop_
_atom_site_type_symbol
_atom_site_label
_atom_site_fract_x
_atom_site_fract_y
_atom_site_fract_z
Si Si1 0.825061 0.500000 0.500604
Si Si2 0.593527 0.573784 0.256126
Si Si3 0.827465 0.763140 0.429163
Si Si4 0.230982 0.922815 0.904362
Si Si5 0.573129 0.600880 0.359614
Si Si6 0.650915 0.000000 0.598707
Si Si7 0.244387 0.926495 0.803406
Si Si8 0.865051 0.635548 0.688447
O O1 0.627489 0.564020 0.552816
O O2 0.003855 0.500000 0.409256
O O3 0.000000 0.500000 0.500000
O O4 0.607600 0.500000 0.236427
O O5 0.468565 0.578280 0.338490
O O6 0.389865 0.620345 0.280627
O O7 0.933571 0.597962 0.172059
O O8 0.500000 0.785539 0.500000
O O9 0.750000 0.750000 0.500000
O O10 0.048132 0.823208 0.368843
O O11 0.951501 0.699283 0.372002
O O12 0.114431 0.909309 0.885078
O O13 0.243303 0.000000 0.903035
O O14 0.000000 0.898404 0.000000
O O15 0.903606 0.574389 0.277601
O O16 0.559042 0.069533 0.640484
O O17 0.000000 0.000000 0.500000
O O18 0.204589 0.870904 0.777866
O O19 0.162415 0.000000 0.811568
#
# Coordination Sequence:
#
# PCOD9223386 Si02
#       8
#     4   8   8   8   8   4   8   8
#     4  12  20  30  50  74  93 127 182 231 277 306
#     4  10  18  34  56  81 106 137 177 226 266 321
#     4  12  25  40  51  72 110 146 190 240 280 318
#     4   8  16  31  56  87 116 139 168 213 274 330
#     4  11  20  36  54  74 100 141 185 233 271 318
#     4  12  22  32  48  70  97 137 182 225 275 312
#     4  10  18  34  56  80 107 140 178 223 268 331
#     4  12  22  36  52  76 108 147 183 228 276 325
#
# _framework density 9.8765429999999999
#
# number of rings (size 3 to 8) (size 9 to 14) (size 15 to 20)
#    0.000    1.286    2.857    6.000    0.000    0.000 
#    0.000    0.714    0.000    3.429    0.000   16.000 
#    0.000    0.000    0.000    0.000    0.000    0.000 
#
# Total GULP energy -155888.686416 kJ/mol
# GULP energy per Si atom -5567.453086 kJ/mol
# Density = 0.985406 g / cm^3
# Si number density = 9.876543 Si / 1000 Ang^3
#
#
#
# Elastic Constant Matrix: (Units=GPa)
#
#
# Indices 1 2 3 4 5 6 
#
# 1 78.7083 -6.6192 17.3312 0.0301 16.4251 0.0165
# 2 -6.6192 99.6236 20.5807 0.0344 13.5640 -0.0346
# 3 17.3312 20.5807 70.0781 0.0330 19.8929 0.1744
# 4 0.0301 0.0344 0.0330 7.6160 0.0059 2.2349
# 5 16.4251 13.5640 19.8929 0.0059 25.6067 -0.0184
# 6 0.0165 -0.0346 0.1744 2.2349 -0.0184 7.3221
#
#
#
# Elastic Compliance Matrix: (Units=1/GPa)
#
#
# Indices 1 2 3 4 5 6 
#
# 1 0.015407 0.002748 -0.001795 -0.000062 -0.009944 0.000015
# 2 0.002748 0.011529 -0.002350 -0.000081 -0.006044 0.000114
# 3 -0.001795 -0.002350 0.018891 0.000097 -0.012280 -0.000517
# 4 -0.000062 -0.000081 0.000097 0.144222 -0.000057 -0.044023
# 5 -0.009944 -0.006044 -0.012280 -0.000057 0.058172 0.000450
# 6 0.000015 0.000114 -0.000517 -0.044023 0.000450 0.150023
#
#
# Mechanical properties :
#
#
# Convention : Reuss Voigt Hill
#
# Bulk Modulus (GPa) = 23.23762 34.55503 28.89633
# Shear Modulus (GPa) = 12.03712 22.58346 17.31029
#
# Velocity S-wave (km/s) = 2.47124 3.38492 2.96350
# Velocity P-wave (km/s) = 4.46456 5.72786 5.13521
#
# Compressibility (1/GPa) = 0.04303367
#
# Stress axis : x y z
#
# Youngs Moduli (GPa) = 64.90728 86.73895 52.93544
#
# Poissons Ratio (x) = -0.23839 0.09500
# Poissons Ratio (y) = -0.17839 0.12440
# Poissons Ratio (z) = 0.11648 0.20384
#
# Static dielectric constant tensor:
#      x y z
#    x 1.843890 -0.000060 0.069890 
#    y -0.000060 1.722400 0.000090 
#    z 0.069890 0.000090 1.740450 
# 
# From -- ./inp_files/373159.got.cif
#   From: 2010.05.17/outbox.ucp.g08.bks.cvg/sg12_187_cif.got.tgz:373159.got - 2010.06.11 11:47:21.
