data_PCOD9223724
_publ_section_title
;
Structure prediction by ZEFSAII (Michael W. Deem and Ramdas Pophale) SiO2 
 PCOD9223724
Probable space group: C 2/M
;
_chemical_formula_sum "Si O2"
_cell_formula_units_Z 32
_cell_length_a 15.000000
_cell_length_b 9.000000
_cell_length_c 30.000000
_cell_angle_alpha 90.000000
_cell_angle_beta 50.000000
_cell_angle_gamma 90.000000
_cell_volume 3102.479995
_symmetry_space_group_name_H-M "C 2/M"
_symmetry_group_IT_number 12
_symmetry_cell_setting 'monoclinic'
loop_
_space_group_symop_operation_xyz
x,y,z
-x,y,-z
-x,-y,-z
x,-y,z
1/2+x,1/2+y,z
1/2-x,1/2+y,-z
1/2-x,1/2-y,-z
1/2+x,1/2-y,z
loop_
_atom_site_type_symbol
_atom_site_label
_atom_site_fract_x
_atom_site_fract_y
_atom_site_fract_z
Si Si1 0.567811 0.821626 0.219932
Si Si2 0.863406 0.319670 0.984693
Si Si3 0.385575 0.174792 0.698685
Si Si4 0.672416 0.821184 0.736692
Si Si5 0.636999 0.824636 0.579593
Si Si6 0.920994 0.328705 0.139232
Si Si7 0.245279 0.668696 0.891078
Si Si8 0.888610 0.178378 0.508270
O O1 0.624990 0.767789 0.247394
O O2 0.432511 0.778080 0.261860
O O3 0.640581 0.765575 0.154132
O O4 0.571702 0.000000 0.218715
O O5 0.868694 0.500000 0.980984
O O6 0.969746 0.259922 0.921377
O O7 0.750000 0.250000 0.000000
O O8 0.847086 0.281876 0.041916
O O9 0.300384 0.255369 0.691795
O O10 0.520552 0.193575 0.644653
O O11 0.358380 0.000000 0.706417
O O12 0.625788 0.764568 0.799867
O O13 0.682330 0.000000 0.733204
O O14 0.756879 0.782468 0.566169
O O15 0.616183 0.735307 0.540829
O O16 0.647744 0.000000 0.564827
O O17 0.951608 0.500000 0.140924
O O18 0.823281 0.332840 0.133023
O O19 0.281007 0.500000 0.890655
O O20 0.000000 0.236828 0.500000
O O21 0.897915 0.000000 0.505644
#
# Coordination Sequence:
#
# PCOD9223724 Si02
#       8
#     8   8   8   8   8   8   8   8
#     4  10  21  36  55  79 107 140 177 224 276 317
#     4  10  20  33  50  73 100 130 168 216 269 327
#     4  10  21  37  54  77 112 147 179 221 270 312
#     4  10  20  35  56  78 102 139 184 224 266 322
#     4   9  19  35  54  79 114 150 181 218 265 313
#     4   9  17  32  52  73  98 130 171 217 265 320
#     4  10  19  33  54  76  99 133 176 218 266 328
#     4   9  18  34  58  86 113 144 182 222 262 308
#
# _framework density 10.314329000000001
#
# number of rings (size 3 to 8) (size 9 to 14) (size 15 to 20)
#    0.000    2.375    1.250    1.125    0.000    5.250 
#    0.000    3.750    0.000    1.500    0.000    0.000 
#    0.000    0.000    0.000    0.000    0.000    0.000 
#
# Total GULP energy -178147.859117 kJ/mol
# GULP energy per Si atom -5567.120597 kJ/mol
# Density = 1.029085 g / cm^3
# Si number density = 10.314329 Si / 1000 Ang^3
#
#
#
# Elastic Constant Matrix: (Units=GPa)
#
#
# Indices 1 2 3 4 5 6 
#
# 1 107.0474 19.3923 20.4690 0.0000 -31.6618 -0.0001
# 2 19.3923 -6.8731 13.3286 -0.0001 -12.8031 -0.0002
# 3 20.4690 13.3286 7.8134 0.0000 -16.5605 0.0000
# 4 0.0000 -0.0001 0.0000 20.1539 0.0000 -5.1705
# 5 -31.6618 -12.8031 -16.5605 0.0000 25.2459 0.0000
# 6 -0.0001 -0.0002 0.0000 -5.1705 0.0000 23.1099
#
#
#
# Elastic Compliance Matrix: (Units=1/GPa)
#
#
# Indices 1 2 3 4 5 6 
#
# 1 0.014519 0.007669 0.010968 0.000000 0.029293 0.000000
# 2 0.007669 -0.181261 -0.293766 -0.000001 -0.275008 -0.000002
# 3 0.010968 -0.293766 -0.803841 -0.000002 -0.662520 -0.000002
# 4 0.000000 -0.000001 -0.000002 0.052640 -0.000002 0.011777
# 5 0.029293 -0.275008 -0.662520 -0.000002 -0.497712 -0.000002
# 6 0.000000 -0.000002 -0.000002 0.011777 -0.000002 0.045907
#
#
# Mechanical properties :
#
#
# Convention : Reuss Voigt Hill
#
# Bulk Modulus (GPa) = -0.65753 23.81860 11.58053
# Shear Modulus (GPa) = -3.76950 17.35512 6.79281
#
# Velocity S-wave (km/s) = -1.35325 2.90368 1.81660
# Velocity P-wave (km/s) = 1.66167 4.77632 3.16640
#
# Compressibility (1/GPa) = -1.52084238
#
# Stress axis : x y z
#
# Youngs Moduli (GPa) = 68.87424 -5.51690 -1.24403
#
# Poissons Ratio (x) = 0.04231 0.01364
# Poissons Ratio (y) = -0.52819 -0.36545
# Poissons Ratio (z) = -0.75540 -1.62068
#
# Static dielectric constant tensor:
#      x y z
#    x 1.756720 0.000000 0.005930 
#    y 0.000000 1.729820 0.000000 
#    z 0.005930 0.000000 1.949100 
# 
# From -- ./inp_files/375371.got.cif
#   From: 2010.05.17/outbox.ucp.g08.bks.cvg/sg12_188_cif.got.tgz:375371.got - 2010.06.11 11:47:21.
