data_PCOD9223929
_publ_section_title
;
Structure prediction by ZEFSAII (Michael W. Deem and Ramdas Pophale) SiO2 
 PCOD9223929
Probable space group: C 2/M
;
_chemical_formula_sum "Si O2"
_cell_formula_units_Z 32
_cell_length_a 30.000000
_cell_length_b 9.000000
_cell_length_c 18.000000
_cell_angle_alpha 90.000000
_cell_angle_beta 140.000000
_cell_angle_gamma 90.000000
_cell_volume 3123.947783
_symmetry_space_group_name_H-M "C 2/M"
_symmetry_group_IT_number 12
_symmetry_cell_setting 'monoclinic'
loop_
_space_group_symop_operation_xyz
x,y,z
-x,y,-z
-x,-y,-z
x,-y,z
1/2+x,1/2+y,z
1/2-x,1/2+y,-z
1/2-x,1/2-y,-z
1/2+x,1/2-y,z
loop_
_atom_site_type_symbol
_atom_site_label
_atom_site_fract_x
_atom_site_fract_y
_atom_site_fract_z
Si Si1 0.770015 0.671553 0.788782
Si Si2 0.865128 0.327191 0.348005
Si Si3 0.770995 0.331971 0.624224
Si Si4 0.471974 0.331067 0.584700
Si Si5 0.140521 0.167028 0.373484
Si Si6 0.987875 0.327241 0.757592
Si Si7 0.861266 0.167395 0.197459
Si Si8 0.865883 0.177643 0.033660
O O1 0.751766 0.500000 0.782693
O O2 0.701777 0.771657 0.693841
O O3 0.799526 0.672287 0.743572
O O4 0.820149 0.737890 0.914977
O O5 0.879502 0.500000 0.373155
O O6 0.930678 0.235836 0.462711
O O7 0.842155 0.285257 0.234994
O O8 0.784993 0.500000 0.612387
O O9 0.804897 0.200896 0.621226
O O10 0.687719 0.316060 0.507653
O O11 0.447558 0.500000 0.566578
O O12 0.463720 0.225350 0.644948
O O13 0.555218 0.338969 0.686082
O O14 0.079354 0.282608 0.282307
O O15 0.112677 0.000000 0.336326
O O16 0.004519 0.500000 0.780045
O O17 0.054850 0.233823 0.867033
O O18 0.843343 0.208669 0.090294
O O19 0.835088 0.000000 0.178538
O O20 0.862613 0.000000 0.019056
#
# Coordination Sequence:
#
# PCOD9223929 Si02
#       8
#     8   8   8   8   8   8   8   8
#     4  11  23  40  60  80 110 150 189 231 281 334
#     4  12  24  35  54  84 114 146 187 233 280 336
#     4   9  20  37  57  84 116 148 181 223 276 330
#     4  10  20  36  57  82 115 150 185 229 282 335
#     4  10  19  34  59  88 118 150 182 221 273 331
#     4  11  21  35  58  86 115 148 188 229 274 332
#     4   9  20  38  58  79 108 147 185 229 285 336
#     4  10  22  41  61  81 109 145 189 237 282 330
#
# _framework density 10.243449
#
# number of rings (size 3 to 8) (size 9 to 14) (size 15 to 20)
#    0.000    1.750    0.000    5.625    0.000    7.500 
#    0.000    0.625    0.000    3.750    0.000    0.000 
#    0.000    0.000    0.000    0.000    0.000    0.000 
#
# Total GULP energy -178448.643029 kJ/mol
# GULP energy per Si atom -5576.520095 kJ/mol
# Density = 1.022013 g / cm^3
# Si number density = 10.243449 Si / 1000 Ang^3
#
#
#
# Elastic Constant Matrix: (Units=GPa)
#
#
# Indices 1 2 3 4 5 6 
#
# 1 36.2558 13.9697 18.1012 0.0000 -6.5104 0.0000
# 2 13.9697 70.1914 7.6367 0.0000 -17.4503 0.0000
# 3 18.1012 7.6367 77.3603 0.0000 -33.0724 0.0000
# 4 0.0000 0.0000 0.0000 -68.6580 0.0000 42.3409
# 5 -6.5104 -17.4503 -33.0724 0.0000 19.6246 0.0000
# 6 0.0000 0.0000 0.0000 42.3409 0.0000 2.1644
#
#
#
# Elastic Compliance Matrix: (Units=1/GPa)
#
#
# Indices 1 2 3 4 5 6 
#
# 1 0.040743 -0.019103 -0.032665 0.000000 -0.058518 0.000000
# 2 -0.019103 0.039486 0.046051 0.000000 0.106381 0.000000
# 3 -0.032665 0.046051 0.103374 0.000000 0.204323 0.000000
# 4 0.000000 0.000000 0.000000 -0.001115 0.000000 0.021810
# 5 -0.058518 0.106381 0.204323 0.000000 0.470472 0.000000
# 6 0.000000 0.000000 0.000000 0.021810 0.000000 0.035366
#
#
# Mechanical properties :
#
#
# Convention : Reuss Voigt Hill
#
# Bulk Modulus (GPa) = 5.80827 29.24697 17.52762
# Shear Modulus (GPa) = 6.60372 0.23289 3.41831
#
# Velocity S-wave (km/s) = 1.79733 0.33753 1.29312
# Velocity P-wave (km/s) = 2.67366 3.80248 3.28689
#
# Compressibility (1/GPa) = 0.17216844
#
# Stress axis : x y z
#
# Youngs Moduli (GPa) = 24.54437 25.32563 9.67361
#
# Poissons Ratio (x) = 0.48380 0.31599
# Poissons Ratio (y) = 0.46887 -0.44548
# Poissons Ratio (z) = 0.80173 -1.16627
#
# Static dielectric constant tensor:
#      x y z
#    x 1.870730 0.000000 -0.003490 
#    y 0.000000 1.698250 0.000000 
#    z -0.003490 0.000000 1.689700 
# 
# From -- ./inp_files/295698.got.cif
#   From: 2010.05.17/outbox.ucp.g08.bks.cvg/sg12_148_cif.got.tgz:295698.got - 2010.06.11 11:47:21.
