data_PCOD9223276
_publ_section_title
;
Structure prediction by ZEFSAII (Michael W. Deem and Ramdas Pophale) SiO2 
 PCOD9223276
Probable space group: C 2/M
;
_chemical_formula_sum "Si O2"
_cell_formula_units_Z 28
_cell_length_a 21.000000
_cell_length_b 9.000000
_cell_length_c 30.000000
_cell_angle_alpha 90.000000
_cell_angle_beta 150.000000
_cell_angle_gamma 90.000000
_cell_volume 2835.000000
_symmetry_space_group_name_H-M "C 2/M"
_symmetry_group_IT_number 12
_symmetry_cell_setting 'monoclinic'
loop_
_space_group_symop_operation_xyz
x,y,z
-x,y,-z
-x,-y,-z
x,-y,z
1/2+x,1/2+y,z
1/2-x,1/2+y,-z
1/2-x,1/2-y,-z
1/2+x,1/2-y,z
loop_
_atom_site_type_symbol
_atom_site_label
_atom_site_fract_x
_atom_site_fract_y
_atom_site_fract_z
Si Si1 0.944526 0.179831 0.647434
Si Si2 0.523176 0.179887 0.601138
Si Si3 0.051549 0.180402 0.206737
Si Si4 0.150360 0.175164 0.096609
Si Si5 0.206935 0.678226 0.224702
Si Si6 0.627775 0.821226 0.833229
Si Si7 0.738256 0.178700 0.592452
O O1 0.808969 0.214985 0.588622
O O2 0.974573 0.263083 0.619898
O O3 0.043897 0.241939 0.744044
O O4 0.955503 0.000000 0.649182
O O5 0.659577 0.254975 0.676173
O O6 0.408771 0.225327 0.498282
O O7 0.536410 0.000000 0.608841
O O8 0.092981 0.248390 0.184520
O O9 0.167928 0.225908 0.310929
O O10 0.924489 0.248189 0.152711
O O11 0.043774 0.000000 0.200302
O O12 0.197403 0.270464 0.167315
O O13 0.229125 0.204294 0.098732
O O14 0.172180 0.000000 0.120503
O O15 0.000000 0.198951 0.000000
O O16 0.205076 0.500000 0.226867
O O17 0.606662 0.000000 0.821871
O O18 0.736327 0.000000 0.593934
#
# Coordination Sequence:
#
# PCOD9223276 Si02
#       7
#     8   8   8   8   8   8   8
#     4  10  18  31  51  80 116 154 198 244 292 345
#     4  11  20  33  53  79 114 156 202 248 296 343
#     4  10  21  40  62  84 118 160 202 244 292 347
#     4  10  22  42  68  95 121 150 188 236 293 356
#     4  12  25  40  59  87 121 156 197 244 296 354
#     4  10  19  35  61  90 119 153 193 237 291 352
#     4   8  18  33  52  79 112 155 202 246 290 341
#
# _framework density 9.8765429999999999
#
# number of rings (size 3 to 8) (size 9 to 14) (size 15 to 20)
#    0.000    1.857    1.429    4.286    0.000    1.429 
#    0.000   11.429    0.000    0.000    0.000    0.000 
#    0.000    0.000    0.000    0.000    0.000    0.000 
#
# Total GULP energy -156310.326451 kJ/mol
# GULP energy per Si atom -5582.511659 kJ/mol
# Density = 0.985406 g / cm^3
# Si number density = 9.876543 Si / 1000 Ang^3
#
#
#
# Elastic Constant Matrix: (Units=GPa)
#
#
# Indices 1 2 3 4 5 6 
#
# 1 119.1503 42.8085 14.0588 0.0002 26.6625 0.0000
# 2 42.8085 107.3227 23.9798 0.0002 16.9689 0.0001
# 3 14.0588 23.9798 37.4788 0.0010 29.4321 0.0000
# 4 0.0002 0.0002 0.0010 15.9947 0.0000 5.0024
# 5 26.6625 16.9689 29.4321 0.0000 30.6285 0.0000
# 6 0.0000 0.0001 0.0000 5.0024 0.0000 33.7988
#
#
#
# Elastic Compliance Matrix: (Units=1/GPa)
#
#
# Indices 1 2 3 4 5 6 
#
# 1 0.015178 -0.006250 0.024297 -0.000002 -0.033098 0.000000
# 2 -0.006250 0.013500 -0.019123 0.000001 0.016337 0.000000
# 3 0.024297 -0.019123 0.155243 -0.000010 -0.159736 0.000001
# 4 -0.000002 0.000001 -0.000010 0.065555 0.000011 -0.009702
# 5 -0.033098 0.016337 -0.159736 0.000011 0.205907 -0.000002
# 6 0.000000 0.000000 0.000001 -0.009702 -0.000002 0.031023
#
#
# Mechanical properties :
#
#
# Convention : Reuss Voigt Hill
#
# Bulk Modulus (GPa) = 5.50143 47.29402 26.39772
# Shear Modulus (GPa) = 9.10504 28.29138 18.69821
#
# Velocity S-wave (km/s) = 2.14929 3.78862 3.08002
# Velocity P-wave (km/s) = 2.99172 6.56755 5.10309
#
# Compressibility (1/GPa) = 0.18177081
#
# Stress axis : x y z
#
# Youngs Moduli (GPa) = 65.88607 74.07269 6.44151
#
# Poissons Ratio (x) = 0.46294 -0.15651
# Poissons Ratio (y) = 0.41177 0.12318
# Poissons Ratio (z) = -1.60085 1.41646
#
# Static dielectric constant tensor:
#      x y z
#    x 1.727160 0.000000 0.014760 
#    y 0.000000 1.655320 0.000000 
#    z 0.014760 0.000000 1.722790 
# 
# From -- ./inp_files/380736.got.cif
#   From: 2010.05.17/outbox.ucp.g08.bks.cvg/sg12_191_cif.got.tgz:380736.got - 2010.06.11 11:47:21.
