data_PCOD9223538
_publ_section_title
;
Structure prediction by ZEFSAII (Michael W. Deem and Ramdas Pophale) SiO2 
 PCOD9223538
Probable space group: C 2/M
;
_chemical_formula_sum "Si O2"
_cell_formula_units_Z 32
_cell_length_a 18.000000
_cell_length_b 9.000000
_cell_length_c 30.000000
_cell_angle_alpha 90.000000
_cell_angle_beta 140.000000
_cell_angle_gamma 90.000000
_cell_volume 3123.947783
_symmetry_space_group_name_H-M "C 2/M"
_symmetry_group_IT_number 12
_symmetry_cell_setting 'monoclinic'
loop_
_space_group_symop_operation_xyz
x,y,z
-x,y,-z
-x,-y,-z
x,-y,z
1/2+x,1/2+y,z
1/2-x,1/2+y,-z
1/2-x,1/2-y,-z
1/2+x,1/2-y,z
loop_
_atom_site_type_symbol
_atom_site_label
_atom_site_fract_x
_atom_site_fract_y
_atom_site_fract_z
Si Si1 0.944873 0.674474 0.409994
Si Si2 0.135040 0.823549 0.967199
Si Si3 0.383776 0.322790 0.859006
Si Si4 0.627569 0.829327 0.722991
Si Si5 0.192027 0.321398 0.083460
Si Si6 0.202910 0.821361 0.337989
Si Si7 0.798173 0.677808 0.477046
Si Si8 0.449434 0.677959 0.223422
O O1 0.945220 0.500000 0.423944
O O2 0.936864 0.683226 0.353016
O O3 0.823379 0.737516 0.372587
O O4 0.073480 0.732856 0.479198
O O5 0.004953 0.783772 0.890893
O O6 0.148445 0.000000 0.968950
O O7 0.250000 0.750000 0.000000
O O8 0.131511 0.768618 0.016532
O O9 0.391710 0.500000 0.873126
O O10 0.264274 0.301175 0.777358
O O11 0.359152 0.231253 0.892855
O O12 0.575847 0.726756 0.737431
O O13 0.619110 0.000000 0.735174
O O14 0.180103 0.500000 0.073073
O O15 0.329205 0.281027 0.143991
O O16 0.214726 0.799156 0.396575
O O17 0.075226 0.764929 0.265635
O O18 0.203192 0.000000 0.329082
O O19 0.808203 0.500000 0.488930
O O20 0.750000 0.750000 0.500000
O O21 0.454834 0.500000 0.223816
#
# Coordination Sequence:
#
# PCOD9223538 Si02
#       8
#     8   8   8   8   8   8   8   8
#     4   9  17  29  48  74  99 126 164 205 242 286
#     4  11  23  37  53  75 104 135 169 209 254 304
#     4   9  19  35  54  75  99 131 169 207 249 300
#     4   9  17  31  52  74  97 127 162 202 245 290
#     4  10  20  34  54  78 102 131 169 210 251 298
#     4   9  17  30  49  72  99 131 166 203 243 288
#     4  10  19  31  50  74  98 127 164 206 247 289
#     4   9  18  32  51  74  99 129 164 202 243 291
#
# _framework density 10.243449
#
# number of rings (size 3 to 8) (size 9 to 14) (size 15 to 20)
#    0.000    2.500    0.000    2.250    0.000    5.500 
#    0.000    3.750    0.000    3.750    0.000    0.000 
#    0.000    0.000    0.000    0.000    0.000    0.000 
#
# Total GULP energy -178385.705857 kJ/mol
# GULP energy per Si atom -5574.553308 kJ/mol
# Density = 1.022013 g / cm^3
# Si number density = 10.243449 Si / 1000 Ang^3
#
#
#
# Elastic Constant Matrix: (Units=GPa)
#
#
# Indices 1 2 3 4 5 6 
#
# 1 53.2178 -2.1075 11.9867 0.0000 34.8515 0.0000
# 2 -2.1075 3.2437 6.7830 0.0000 5.8801 0.0000
# 3 11.9867 6.7830 74.8850 0.0000 32.5625 0.0000
# 4 0.0000 0.0000 0.0000 15.6572 0.0000 0.8467
# 5 34.8515 5.8801 32.5625 0.0000 43.2363 0.0000
# 6 0.0000 0.0000 0.0000 0.8467 0.0000 28.8786
#
#
#
# Elastic Compliance Matrix: (Units=1/GPa)
#
#
# Indices 1 2 3 4 5 6 
#
# 1 0.211853 0.561004 0.033762 0.000000 -0.272491 0.000000
# 2 0.561004 1.914041 0.069373 0.000001 -0.764762 -0.000001
# 3 0.033762 0.069373 0.026174 0.000000 -0.056361 0.000000
# 4 0.000000 0.000001 0.000000 0.063970 0.000000 -0.001876
# 5 -0.272491 -0.764762 -0.056361 0.000000 0.389229 0.000000
# 6 0.000000 -0.000001 0.000000 -0.001876 0.000000 0.034683
#
#
# Mechanical properties :
#
#
# Convention : Reuss Voigt Hill
#
# Bulk Modulus (GPa) = 0.28733 18.29677 9.29205
# Shear Modulus (GPa) = 2.02283 25.20002 13.61143
#
# Velocity S-wave (km/s) = 0.99475 3.51102 2.58039
# Velocity P-wave (km/s) = 1.20827 5.03852 3.66378
#
# Compressibility (1/GPa) = 3.48034564
#
# Stress axis : x y z
#
# Youngs Moduli (GPa) = 4.72025 0.52245 38.20655
#
# Poissons Ratio (x) = -0.29310 -1.28993
# Poissons Ratio (y) = -2.64808 -2.65049
# Poissons Ratio (z) = -0.15936 -0.03624
#
# Static dielectric constant tensor:
#      x y z
#    x 1.745730 0.000000 0.040570 
#    y 0.000000 1.686340 0.000000 
#    z 0.040570 0.000000 1.791120 
# 
# From -- ./inp_files/378445.got.cif
#   From: 2010.05.17/outbox.ucp.g08.bks.cvg/sg12_190_cif.got.tgz:378445.got - 2010.06.11 11:47:21.
