data_PCOD9223296
_publ_section_title
;
Structure prediction by ZEFSAII (Michael W. Deem and Ramdas Pophale) SiO2 
 PCOD9223296
Probable space group: C 2/M
;
_chemical_formula_sum "Si O2"
_cell_formula_units_Z 28
_cell_length_a 18.000000
_cell_length_b 18.000000
_cell_length_c 30.000000
_cell_angle_alpha 90.000000
_cell_angle_beta 20.000000
_cell_angle_gamma 90.000000
_cell_volume 3324.435793
_symmetry_space_group_name_H-M "C 2/M"
_symmetry_group_IT_number 12
_symmetry_cell_setting 'monoclinic'
loop_
_space_group_symop_operation_xyz
x,y,z
-x,y,-z
-x,-y,-z
x,-y,z
1/2+x,1/2+y,z
1/2-x,1/2+y,-z
1/2-x,1/2-y,-z
1/2+x,1/2-y,z
loop_
_atom_site_type_symbol
_atom_site_label
_atom_site_fract_x
_atom_site_fract_y
_atom_site_fract_z
Si Si1 0.892179 0.087644 0.359781
Si Si2 0.445446 0.679131 0.645911
Si Si3 0.519891 0.225137 0.084786
Si Si4 0.827235 0.280917 0.556865
Si Si5 0.709182 0.412597 0.350463
Si Si6 0.168139 0.585226 0.945811
Si Si7 0.047549 0.291912 0.174972
O O1 0.702191 0.134892 0.443431
O O2 0.947495 0.133675 0.373857
O O3 0.097538 0.090885 0.210039
O O4 0.849891 0.000000 0.392278
O O5 0.596350 0.730897 0.528811
O O6 0.347118 0.619609 0.666360
O O7 0.236092 0.724672 0.782682
O O8 0.518362 0.234147 0.139587
O O9 0.617350 0.145917 0.012474
O O10 0.692760 0.282943 0.965826
O O11 0.597618 0.254582 0.708005
O O12 0.000000 0.274725 0.500000
O O13 0.500000 0.396210 0.500000
O O14 0.739010 0.500000 0.332553
O O15 0.926313 0.371192 0.244587
O O16 0.139357 0.500000 0.978164
O O17 0.000000 0.597572 0.000000
#
# Coordination Sequence:
#
# PCOD9223296 Si02
#       7
#     8   8   8   8   8   8   8
#     4  11  24  37  56  83 117 153 187 230 286 340
#     4  11  20  36  57  87 111 143 187 243 284 325
#     4  10  19  31  55  77 107 146 180 227 281 329
#     4  12  21  39  59  80 115 151 192 234 276 339
#     4  10  18  31  54  81 112 147 182 231 291 328
#     4  10  19  32  51  79 111 139 170 222 283 335
#     4  10  19  34  51  79 109 147 183 227 279 334
#
# _framework density 8.4224820000000005
#
# number of rings (size 3 to 8) (size 9 to 14) (size 15 to 20)
#    0.000    1.429    7.143    0.857    0.000    2.571 
#    0.000    0.000    0.000    0.857    0.000    0.000 
#    0.000    2.857    0.000    0.000    0.000    0.000 
#
# Total GULP energy -155993.257903 kJ/mol
# GULP energy per Si atom -5571.187782 kJ/mol
# Density = 0.840331 g / cm^3
# Si number density = 8.422482 Si / 1000 Ang^3
#
#
#
# Elastic Constant Matrix: (Units=GPa)
#
#
# Indices 1 2 3 4 5 6 
#
# 1 45.2632 28.0595 15.8654 -0.0076 8.4995 0.0040
# 2 28.0595 102.5777 47.9921 -0.0507 -3.4907 0.0218
# 3 15.8654 47.9921 107.3557 -0.0533 17.2540 0.0289
# 4 -0.0076 -0.0507 -0.0533 29.3909 0.0094 -1.2557
# 5 8.4995 -3.4907 17.2540 0.0094 21.7432 0.0020
# 6 0.0040 0.0218 0.0289 -1.2557 0.0020 24.0969
#
#
#
# Elastic Compliance Matrix: (Units=1/GPa)
#
#
# Indices 1 2 3 4 5 6 
#
# 1 0.030295 -0.009954 0.002445 0.000000 -0.015381 0.000002
# 2 -0.009954 0.016692 -0.008077 0.000007 0.012981 -0.000004
# 3 0.002445 -0.008077 0.014816 0.000018 -0.014009 -0.000009
# 4 0.000000 0.000007 0.000018 0.034100 -0.000028 0.001777
# 5 -0.015381 0.012981 -0.014009 -0.000028 0.065205 0.000001
# 6 0.000002 -0.000004 -0.000009 0.001777 0.000001 0.041592
#
#
# Mechanical properties :
#
#
# Convention : Reuss Voigt Hill
#
# Bulk Modulus (GPa) = 32.64786 48.78118 40.71452
# Shear Modulus (GPa) = 20.48480 25.93151 23.20815
#
# Velocity S-wave (km/s) = 3.49101 3.92780 3.71583
# Velocity P-wave (km/s) = 5.97269 7.04216 6.52936
#
# Compressibility (1/GPa) = 0.03062988
#
# Stress axis : x y z
#
# Youngs Moduli (GPa) = 33.00870 59.90750 67.49473
#
# Poissons Ratio (x) = 0.59633 -0.16501
# Poissons Ratio (y) = 0.32858 0.54517
# Poissons Ratio (z) = -0.08070 0.48389
#
# Static dielectric constant tensor:
#      x y z
#    x 1.570370 0.000000 -0.013390 
#    y 0.000000 1.581500 0.000050 
#    z -0.013390 0.000050 1.599990 
# 
# From -- ./inp_files/379633.got.cif
#   From: 2010.05.17/outbox.ucp.g08.bks.cvg/sg12_190_cif.got.tgz:379633.got - 2010.06.11 11:47:21.
