data_PCOD9223593
_publ_section_title
;
Structure prediction by ZEFSAII (Michael W. Deem and Ramdas Pophale) SiO2 
 PCOD9223593
Probable space group: C 2/M
;
_chemical_formula_sum "Si O2"
_cell_formula_units_Z 28
_cell_length_a 30.000000
_cell_length_b 9.000000
_cell_length_c 18.000000
_cell_angle_alpha 90.000000
_cell_angle_beta 140.000000
_cell_angle_gamma 90.000000
_cell_volume 3123.947783
_symmetry_space_group_name_H-M "C 2/M"
_symmetry_group_IT_number 12
_symmetry_cell_setting 'monoclinic'
loop_
_space_group_symop_operation_xyz
x,y,z
-x,y,-z
-x,-y,-z
x,-y,z
1/2+x,1/2+y,z
1/2-x,1/2+y,-z
1/2-x,1/2-y,-z
1/2+x,1/2-y,z
loop_
_atom_site_type_symbol
_atom_site_label
_atom_site_fract_x
_atom_site_fract_y
_atom_site_fract_z
Si Si1 0.569532 0.677568 0.267759
Si Si2 0.950438 0.168922 0.363742
Si Si3 0.953066 0.179867 0.009473
Si Si4 0.840821 0.324687 0.316825
Si Si5 0.295948 0.177634 0.623483
Si Si6 0.296435 0.320883 0.780067
Si Si7 0.062965 0.674806 0.416576
O O1 0.580008 0.500000 0.274732
O O2 0.494454 0.715708 0.137455
O O3 0.626710 0.762225 0.292342
O O4 0.577786 0.730653 0.362413
O O5 0.877781 0.230432 0.300446
O O6 0.000000 0.168940 0.500000
O O7 0.988948 0.274463 0.354781
O O8 0.946312 0.000000 0.330857
O O9 0.951110 0.000000 0.002510
O O10 0.873707 0.228424 0.901228
O O11 0.000000 0.231628 0.000000
O O12 0.849304 0.500000 0.311425
O O13 0.760884 0.291372 0.230590
O O14 0.881845 0.297975 0.446907
O O15 0.250000 0.250000 0.500000
O O16 0.274847 0.239526 0.676839
O O17 0.292119 0.000000 0.615306
O O18 0.296398 0.500000 0.766665
O O19 0.064506 0.500000 0.401087
#
# Coordination Sequence:
#
# PCOD9223593 Si02
#       7
#     8   8   8   8   8   8   8
#     4  11  21  35  55  77 104 139 179 220 261 311
#     4   9  17  30  50  75 104 137 171 208 255 315
#     4   9  17  33  56  77 100 137 182 220 260 309
#     4   9  18  31  51  77 105 136 168 209 262 315
#     4  12  24  36  51  75 106 139 173 214 266 316
#     4  10  19  35  56  77 104 139 178 217 260 315
#     4  10  19  32  50  77 110 139 172 214 263 316
#
# _framework density 8.9630179999999999
#
# number of rings (size 3 to 8) (size 9 to 14) (size 15 to 20)
#    0.000    2.000    1.429    3.429    0.000    4.000 
#    0.000    2.143    0.000    0.857    0.000    0.000 
#    0.000    0.000    0.000    0.000    0.000    0.000 
#
# Total GULP energy -156238.473345 kJ/mol
# GULP energy per Si atom -5579.945477 kJ/mol
# Density = 0.894262 g / cm^3
# Si number density = 8.963018 Si / 1000 Ang^3
#
#
#
# Elastic Constant Matrix: (Units=GPa)
#
#
# Indices 1 2 3 4 5 6 
#
# 1 58.5563 16.0155 0.1888 0.0000 26.2539 0.0000
# 2 16.0155 54.1200 12.0573 0.0000 10.4903 0.0000
# 3 0.1888 12.0573 46.4144 0.0000 24.1140 0.0000
# 4 0.0000 0.0000 0.0000 13.7034 0.0000 -0.0009
# 5 26.2539 10.4903 24.1140 0.0000 25.9562 0.0000
# 6 0.0000 0.0000 0.0000 -0.0009 0.0000 28.2942
#
#
#
# Elastic Compliance Matrix: (Units=1/GPa)
#
#
# Indices 1 2 3 4 5 6 
#
# 1 0.156169 -0.024325 0.159746 0.000000 -0.296537 0.000000
# 2 -0.024325 0.023927 -0.026821 0.000000 0.039852 0.000000
# 3 0.159746 -0.026821 0.205238 0.000000 -0.341409 0.000000
# 4 0.000000 0.000000 0.000000 0.072975 0.000000 0.000002
# 5 -0.296537 0.039852 -0.341409 0.000000 0.639536 0.000000
# 6 0.000000 0.000000 0.000000 0.000002 0.000000 0.035343
#
#
# Mechanical properties :
#
#
# Convention : Reuss Voigt Hill
#
# Bulk Modulus (GPa) = 1.65966 23.95710 12.80838
# Shear Modulus (GPa) = 4.47695 22.31270 13.39482
#
# Velocity S-wave (km/s) = 1.58205 3.53187 2.73651
# Velocity P-wave (km/s) = 2.06519 5.47956 4.14069
#
# Compressibility (1/GPa) = 0.60253278
#
# Stress axis : x y z
#
# Youngs Moduli (GPa) = 6.40332 41.79414 4.87240
#
# Poissons Ratio (x) = 1.01665 -0.77835
# Poissons Ratio (y) = 0.15576 0.13068
# Poissons Ratio (z) = -1.02290 1.12096
#
# Static dielectric constant tensor:
#      x y z
#    x 1.628090 0.000000 0.022020 
#    y 0.000000 1.595490 0.000000 
#    z 0.022020 0.000000 1.618470 
# 
# From -- ./inp_files/281025.got.cif
#   From: 2010.05.17/outbox.ucp.g08.bks.cvg/sg12_141_cif.got.tgz:281025.got - 2010.06.11 11:47:21.
