data_PCOD9223139
_publ_section_title
;
Structure prediction by ZEFSAII (Michael W. Deem and Ramdas Pophale) SiO2 
 PCOD9223139
Probable space group: C 2/M
;
_chemical_formula_sum "Si O2"
_cell_formula_units_Z 56
_cell_length_a 14.775405
_cell_length_b 7.460845
_cell_length_c 27.972658
_cell_angle_alpha 90.000000
_cell_angle_beta 60.894570
_cell_angle_gamma 90.000000
_cell_volume 2694.241183
_symmetry_space_group_name_H-M "C 2/M"
_symmetry_group_IT_number 12
_symmetry_cell_setting 'monoclinic'
loop_
_space_group_symop_operation_xyz
x,y,z
-x,y,-z
-x,-y,-z
x,-y,z
1/2+x,1/2+y,z
1/2-x,1/2+y,-z
1/2-x,1/2-y,-z
1/2+x,1/2-y,z
loop_
_atom_site_type_symbol
_atom_site_label
_atom_site_fract_x
_atom_site_fract_y
_atom_site_fract_z
Si Si1 0.666244 0.206864 0.951614
Si Si2 0.230909 0.784326 0.263653
Si Si3 0.503978 0.713354 0.346317
Si Si4 0.881423 0.719353 0.141706
Si Si5 0.891128 0.717385 0.929978
Si Si6 0.707770 0.286399 0.644656
Si Si7 0.935024 0.283997 0.561919
O O1 0.642905 0.283483 0.905711
O O2 0.788915 0.215042 0.930033
O O3 0.632194 0.000000 0.958110
O O4 0.614416 0.281007 0.013245
O O5 0.112557 0.716107 0.296904
O O6 0.299489 0.718093 0.201956
O O7 0.284466 0.743155 0.300562
O O8 0.225722 0.000000 0.261302
O O9 0.504344 0.500000 0.337587
O O10 0.398066 0.785746 0.350910
O O11 0.511447 0.741123 0.401295
O O12 0.876788 0.500000 0.142732
O O13 0.000380 0.768472 0.121305
O O14 0.884196 0.500000 0.932559
O O15 0.708049 0.500000 0.636313
O O16 0.816384 0.216694 0.595170
O O17 0.930423 0.500000 0.559885
O O18 0.000000 0.217773 0.500000
#
# Coordination Sequence:
#
# PCOD9223139 Si02
#       7
#     8   8   8   8   8   8   8
#     4   9  17  30  48  68  90 118 151 186 227 275
#     4   9  18  32  48  67  90 118 156 194 224 265
#     4   9  18  32  49  68  92 123 155 188 227 268
#     4   9  17  30  48  67  89 120 154 186 225 275
#     4   9  17  30  47  67  91 118 149 186 228 274
#     4   9  18  33  50  68  94 125 153 186 230 271
#     4   9  18  32  49  71  98 124 152 187 225 268
#
# _framework density 20.785072
#
# number of rings (size 3 to 8) (size 9 to 14) (size 15 to 20)
#    0.000    3.000    0.000    0.429    0.000    4.286 
#    0.000    3.571    0.000    3.429    0.000    0.000 
#    0.000    0.000    0.000    0.000    0.000    0.000 
#
# Total GULP energy -156211.310120 kJ/mol
# GULP energy per Si atom -5578.975361 kJ/mol
# Density = 2.073776 g / cm^3
# Si number density = 20.785072 Si / 1000 Ang^3
#
#
#
# Elastic Constant Matrix: (Units=GPa)
#
#
# Indices 1 2 3 4 5 6 
#
# 1 149.8957 8.0971 79.3479 0.0000 -15.7301 0.0001
# 2 8.0971 59.2762 0.2559 0.0001 -5.4434 0.0000
# 3 79.3479 0.2559 106.4738 0.0001 -23.0750 0.0001
# 4 0.0000 0.0001 0.0001 8.1005 0.0000 5.5437
# 5 -15.7301 -5.4434 -23.0750 0.0000 11.9368 0.0000
# 6 0.0001 0.0000 0.0001 5.5437 0.0000 -4.2054
#
#
#
# Elastic Compliance Matrix: (Units=1/GPa)
#
#
# Indices 1 2 3 4 5 6 
#
# 1 0.011240 -0.001846 -0.009198 0.000000 -0.003809 0.000000
# 2 -0.001846 0.018455 0.004522 0.000000 0.014726 0.000000
# 3 -0.009198 0.004522 0.024190 0.000000 0.036703 0.000000
# 4 0.000000 0.000000 0.000000 0.064900 -0.000001 0.085553
# 5 -0.003809 0.014726 0.036703 -0.000001 0.156420 0.000000
# 6 0.000000 0.000000 0.000000 0.085553 0.000000 -0.125012
#
#
# Mechanical properties :
#
#
# Convention : Reuss Voigt Hill
#
# Bulk Modulus (GPa) = 24.48370 54.56083 39.52227
# Shear Modulus (GPa) = 28.27281 18.36271 23.31776
#
# Velocity S-wave (km/s) = 3.69215 2.97552 3.35304
# Velocity P-wave (km/s) = 5.47549 6.17349 5.83494
#
# Compressibility (1/GPa) = 0.04084350
#
# Stress axis : x y z
#
# Youngs Moduli (GPa) = 88.96789 54.18556 41.33994
#
# Poissons Ratio (x) = 0.10000 0.38023
# Poissons Ratio (y) = 0.16419 -0.18696
# Poissons Ratio (z) = 0.81829 -0.24505
#
# Static dielectric constant tensor:
#      x y z
#    x 1.729080 0.000000 -0.026960 
#    y 0.000000 1.778240 0.000000 
#    z -0.026960 0.000000 1.721230 
# 
# From -- ./inp_files/304231.got.cif
#   From: 2010.05.17/outbox.cif.g08.bks.cpg/sg12_153_cif.got.tgz:304231.got - 2010.06.03 13:09:07.
