data_PCOD9223853
_publ_section_title
;
Structure prediction by ZEFSAII (Michael W. Deem and Ramdas Pophale) SiO2 
 PCOD9223853
Probable space group: C 2/M
;
_chemical_formula_sum "Si O2"
_cell_formula_units_Z 32
_cell_length_a 18.000000
_cell_length_b 9.000000
_cell_length_c 30.000000
_cell_angle_alpha 90.000000
_cell_angle_beta 40.000000
_cell_angle_gamma 90.000000
_cell_volume 3123.947783
_symmetry_space_group_name_H-M "C 2/M"
_symmetry_group_IT_number 12
_symmetry_cell_setting 'monoclinic'
loop_
_space_group_symop_operation_xyz
x,y,z
-x,y,-z
-x,-y,-z
x,-y,z
1/2+x,1/2+y,z
1/2-x,1/2+y,-z
1/2-x,1/2-y,-z
1/2+x,1/2-y,z
loop_
_atom_site_type_symbol
_atom_site_label
_atom_site_fract_x
_atom_site_fract_y
_atom_site_fract_z
Si Si1 0.846335 0.169925 0.114396
Si Si2 0.169687 0.678984 0.450040
Si Si3 0.508664 0.819607 0.809222
Si Si4 0.067356 0.319521 0.400935
Si Si5 0.755464 0.170685 0.056219
Si Si6 0.135511 0.680416 0.273240
Si Si7 0.028365 0.325065 0.079515
Si Si8 0.595153 0.179182 0.674493
O O1 0.809441 0.168017 0.080599
O O2 0.742425 0.225893 0.193563
O O3 0.955160 0.271302 0.072015
O O4 0.875710 0.000000 0.113858
O O5 0.178140 0.500000 0.447485
O O6 0.129880 0.722697 0.418137
O O7 0.292876 0.752274 0.399721
O O8 0.066999 0.723909 0.530826
O O9 0.373938 0.774729 0.873577
O O10 0.542973 0.774715 0.843428
O O11 0.575503 0.766699 0.734755
O O12 0.510843 0.000000 0.804988
O O13 0.068645 0.500000 0.399173
O O14 0.126011 0.265290 0.328524
O O15 0.747888 0.000000 0.043867
O O16 0.844296 0.258811 0.984452
O O17 0.140294 0.500000 0.272345
O O18 0.018579 0.719006 0.300950
O O19 0.036723 0.500000 0.077478
O O20 0.605234 0.000000 0.670400
#
# Coordination Sequence:
#
# PCOD9223853 Si02
#       8
#     8   8   8   8   8   8   8   8
#     4  10  20  35  56  79 100 130 177 221 249 291
#     4   9  18  33  53  79 109 138 166 206 256 302
#     4   9  19  36  54  74 103 136 170 211 259 304
#     4   8  16  32  53  77 107 139 171 206 248 299
#     4  10  19  37  59  75  97 133 177 217 249 296
#     4   9  17  32  55  77  98 135 181 214 244 295
#     4  11  23  35  51  77 107 136 164 206 268 319
#     4  10  19  34  55  77 102 135 173 214 256 298
#
# _framework density 10.243449
#
# number of rings (size 3 to 8) (size 9 to 14) (size 15 to 20)
#    0.000    2.500    1.250    1.875    1.750    2.500 
#    0.000    3.750    0.000    1.500    0.000    0.000 
#    0.000    0.000    0.000    0.000    0.000    0.000 
#
# Total GULP energy -178327.180797 kJ/mol
# GULP energy per Si atom -5572.724400 kJ/mol
# Density = 1.022013 g / cm^3
# Si number density = 10.243449 Si / 1000 Ang^3
#
#
#
# Elastic Constant Matrix: (Units=GPa)
#
#
# Indices 1 2 3 4 5 6 
#
# 1 54.6726 11.3429 0.4206 0.0000 -8.5246 0.0002
# 2 11.3429 10.6491 3.6208 0.0000 -2.8944 0.0013
# 3 0.4206 3.6208 61.0013 0.0000 1.7043 -0.0001
# 4 0.0000 0.0000 0.0000 25.3940 0.0000 -4.5146
# 5 -8.5246 -2.8944 1.7043 0.0000 36.1869 0.0001
# 6 0.0002 0.0013 -0.0001 -4.5146 0.0001 9.4985
#
#
#
# Elastic Compliance Matrix: (Units=1/GPa)
#
#
# Indices 1 2 3 4 5 6 
#
# 1 0.024038 -0.025040 0.001220 0.000001 0.003602 0.000003
# 2 -0.025040 0.124259 -0.007325 -0.000004 0.004385 -0.000019
# 3 0.001220 -0.007325 0.016850 0.000000 -0.001092 0.000001
# 4 0.000001 -0.000004 0.000000 0.043014 0.000000 0.020444
# 5 0.003602 0.004385 -0.001092 0.000000 0.028885 -0.000001
# 6 0.000003 -0.000019 0.000001 0.020444 -0.000001 0.114996
#
#
# Mechanical properties :
#
#
# Convention : Reuss Voigt Hill
#
# Bulk Modulus (GPa) = 9.72233 17.45461 13.58847
# Shear Modulus (GPa) = 11.14533 21.61179 16.37856
#
# Velocity S-wave (km/s) = 2.33496 3.25146 2.83055
# Velocity P-wave (km/s) = 3.46775 4.75756 4.16291
#
# Compressibility (1/GPa) = 0.10285601
#
# Stress axis : x y z
#
# Youngs Moduli (GPa) = 41.60079 8.04773 59.34716
#
# Poissons Ratio (x) = 0.20151 -0.07240
# Poissons Ratio (y) = 1.04167 0.43475
# Poissons Ratio (z) = -0.05075 0.05895
#
# Static dielectric constant tensor:
#      x y z
#    x 1.798280 0.000000 0.010170 
#    y 0.000000 1.695260 0.000000 
#    z 0.010170 0.000000 1.718910 
# 
# From -- ./inp_files/378233.got.cif
#   From: 2010.05.17/outbox.ucp.g08.bks.cvg/sg12_190_cif.got.tgz:378233.got - 2010.06.11 11:47:21.
