data_PCOD9223150
_publ_section_title
;
Structure prediction by ZEFSAII (Michael W. Deem and Ramdas Pophale) SiO2 
 PCOD9223150
Probable space group: C 2/M
;
_chemical_formula_sum "Si O2"
_cell_formula_units_Z 56
_cell_length_a 11.031866
_cell_length_b 14.511109
_cell_length_c 17.449898
_cell_angle_alpha 90.000000
_cell_angle_beta 108.427262
_cell_angle_gamma 90.000000
_cell_volume 2650.227445
_symmetry_space_group_name_H-M "C 2/M"
_symmetry_group_IT_number 12
_symmetry_cell_setting 'monoclinic'
loop_
_space_group_symop_operation_xyz
x,y,z
-x,y,-z
-x,-y,-z
x,-y,z
1/2+x,1/2+y,z
1/2-x,1/2+y,-z
1/2-x,1/2-y,-z
1/2+x,1/2-y,z
loop_
_atom_site_type_symbol
_atom_site_label
_atom_site_fract_x
_atom_site_fract_y
_atom_site_fract_z
Si Si1 0.001697 0.647442 0.239399
Si Si2 0.237704 0.852559 0.239399
Si Si3 0.953000 0.151187 0.678882
Si Si4 0.645611 0.395181 0.500001
Si Si5 0.912156 0.611599 0.053874
Si Si6 0.858283 0.888401 0.946127
Si Si7 0.774119 0.151187 0.321117
O O1 0.018573 0.747382 0.282060
O O2 0.141034 0.603020 0.273758
O O3 0.877705 0.603977 0.255409
O O4 0.965146 0.654162 0.143024
O O5 0.132727 0.896980 0.273759
O O6 0.177879 0.845840 0.143024
O O7 0.263488 0.752618 0.282058
O O8 0.867844 0.152429 0.584831
O O9 0.092259 0.111030 0.684519
O O10 0.500000 0.400229 0.500000
O O11 0.693609 0.500000 0.500002
O O12 0.716986 0.347570 0.584832
O O13 0.922118 0.500000 0.063504
O O14 0.760193 0.633079 0.020384
O O15 0.000000 0.638842 0.000000
O O16 0.858617 0.000000 0.936498
O O17 0.000000 0.861156 0.000000
#
# Coordination Sequence:
#
# PCOD9223150 Si02
#       7
#     8   8   8   8   8   8   8
#     4   9  18  32  50  74 104 134 165 206 253 298
#     4   9  18  32  50  74 104 134 165 206 253 298
#     4   9  18  33  52  73  99 134 171 205 247 299
#     4   9  18  33  53  77 102 128 166 215 255 290
#     4   9  18  33  52  74 102 135 169 207 250 295
#     4   9  18  33  52  74 102 135 169 207 250 295
#     4   9  18  33  52  73  99 134 171 205 247 299
#
# _framework density 21.13026
#
# number of rings (size 3 to 8) (size 9 to 14) (size 15 to 20)
#    0.000    3.000    0.000    0.000    0.000    4.571 
#    0.000    5.000    0.000   16.286    0.000    0.000 
#    0.000    0.000    0.000    0.000    0.000    0.000 
#
# Total GULP energy -155930.711527 kJ/mol
# GULP energy per Si atom -5568.953983 kJ/mol
# Density = 2.108217 g / cm^3
# Si number density = 21.130260 Si / 1000 Ang^3
#
#
#
# Elastic Constant Matrix: (Units=GPa)
#
#
# Indices 1 2 3 4 5 6 
#
# 1 219.5697 13.9393 89.8250 0.0000 -1.3549 0.0000
# 2 13.9393 99.0369 39.8437 0.0000 0.7020 0.0000
# 3 89.8250 39.8437 136.7746 0.0000 -0.8897 0.0000
# 4 0.0000 0.0000 0.0000 74.6524 0.0000 2.1789
# 5 -1.3549 0.7020 -0.8897 0.0000 39.8928 0.0000
# 6 0.0000 0.0000 0.0000 2.1789 0.0000 -5.6762
#
#
#
# Elastic Compliance Matrix: (Units=1/GPa)
#
#
# Indices 1 2 3 4 5 6 
#
# 1 0.006295 0.000879 -0.004390 0.000000 0.000100 0.000000
# 2 0.000879 0.011564 -0.003948 0.000000 -0.000262 0.000000
# 3 -0.004390 -0.003948 0.011345 0.000000 0.000173 0.000000
# 4 0.000000 0.000000 0.000000 0.013247 0.000000 0.005085
# 5 0.000100 -0.000262 0.000173 0.000000 0.025079 0.000000
# 6 0.000000 0.000000 0.000000 0.005085 0.000000 -0.174223
#
#
# Mechanical properties :
#
#
# Convention : Reuss Voigt Hill
#
# Bulk Modulus (GPa) = 69.99059 82.51080 76.25069
# Shear Modulus (GPa) = -57.46138 42.55867 -7.45135
#
# Velocity S-wave (km/s) = -5.22043 4.49275 -1.87991
# Velocity P-wave (km/s) = 1.77255 8.12690 5.60823
#
# Compressibility (1/GPa) = 0.01428763
#
# Stress axis : x y z
#
# Youngs Moduli (GPa) = 158.85809 86.47848 88.14256
#
# Poissons Ratio (x) = -0.07604 0.38691
# Poissons Ratio (y) = -0.13968 0.34796
# Poissons Ratio (z) = 0.69732 0.34139
#
# Static dielectric constant tensor:
#      x y z
#    x 1.857330 0.000000 -0.003630 
#    y 0.000000 1.808740 0.000000 
#    z -0.003630 0.000000 1.723410 
# 
# From -- ./inp_files/206232.got.cif
#   From: 2010.05.17/outbox.cif.g08.bks.cpg/sg12_104_cif.got.tgz:206232.got - 2010.06.03 13:09:07.
