data_PCOD9223291
_publ_section_title
;
Structure prediction by ZEFSAII (Michael W. Deem and Ramdas Pophale) SiO2 
 PCOD9223291
Probable space group: C 2/M
;
_chemical_formula_sum "Si O2"
_cell_formula_units_Z 32
_cell_length_a 30.000000
_cell_length_b 9.000000
_cell_length_c 15.000000
_cell_angle_alpha 90.000000
_cell_angle_beta 120.000000
_cell_angle_gamma 90.000000
_cell_volume 3507.402885
_symmetry_space_group_name_H-M "C 2/M"
_symmetry_group_IT_number 12
_symmetry_cell_setting 'monoclinic'
loop_
_space_group_symop_operation_xyz
x,y,z
-x,y,-z
-x,-y,-z
x,-y,z
1/2+x,1/2+y,z
1/2-x,1/2+y,-z
1/2-x,1/2-y,-z
1/2+x,1/2-y,z
loop_
_atom_site_type_symbol
_atom_site_label
_atom_site_fract_x
_atom_site_fract_y
_atom_site_fract_z
Si Si1 0.794469 0.676313 0.985408
Si Si2 0.974548 0.826820 0.230446
Si Si3 0.844976 0.180289 0.373253
Si Si4 0.048743 0.679408 0.984884
Si Si5 0.246279 0.319072 0.396304
Si Si6 0.362969 0.327020 0.190149
Si Si7 0.335698 0.180418 0.836175
Si Si8 0.460798 0.318482 0.540662
O O1 0.787452 0.500000 0.977341
O O2 0.844197 0.724330 0.091237
O O3 0.750000 0.750000 0.000000
O O4 0.802626 0.725140 0.891130
O O5 0.924494 0.824517 0.244972
O O6 0.019405 0.770041 0.341454
O O7 0.984556 0.000000 0.218367
O O8 0.962197 0.745156 0.124950
O O9 0.796970 0.223954 0.387881
O O10 0.841762 0.222495 0.265233
O O11 0.901752 0.227543 0.463534
O O12 0.845002 0.000000 0.372623
O O13 0.050803 0.500000 0.979392
O O14 0.104536 0.726500 0.083728
O O15 0.000000 0.717241 0.000000
O O16 0.245913 0.500000 0.403662
O O17 0.250000 0.250000 0.500000
O O18 0.195753 0.275558 0.285291
O O19 0.347036 0.500000 0.159803
O O20 0.336456 0.000000 0.835500
O O21 0.500000 0.272372 0.500000
O O22 0.461879 0.500000 0.541982
#
# Coordination Sequence:
#
# PCOD9223291 Si02
#       8
#     8   8   8   8   8   8   8   8
#     4  11  21  34  54  80 110 144 180 220 267 323
#     4  10  19  31  53  83 112 139 174 228 277 315
#     4   9  17  31  53  78 108 146 183 216 263 332
#     4  10  21  38  58  77 103 146 191 221 260 328
#     4  10  21  38  57  76 102 138 180 224 264 311
#     4  10  18  31  53  81 110 141 176 218 271 326
#     4   9  19  37  57  76 103 141 179 216 266 325
#     4   9  15  27  49  80 112 142 176 216 268 326
#
# _framework density 9.1235599999999994
#
# number of rings (size 3 to 8) (size 9 to 14) (size 15 to 20)
#    0.000    2.250    2.500    1.125    0.000    3.250 
#    0.000    3.750    0.000    1.125    0.000    0.000 
#    0.000    0.000    0.000    0.000    0.000    0.000 
#
# Total GULP energy -178320.938979 kJ/mol
# GULP energy per Si atom -5572.529343 kJ/mol
# Density = 0.910279 g / cm^3
# Si number density = 9.123560 Si / 1000 Ang^3
#
#
#
# Elastic Constant Matrix: (Units=GPa)
#
#
# Indices 1 2 3 4 5 6 
#
# 1 107.4854 15.6107 58.4342 0.0000 -10.4002 0.0000
# 2 15.6107 18.4771 19.7710 0.0000 -5.4298 0.0000
# 3 58.4342 19.7710 164.8719 0.0000 -10.8542 0.0000
# 4 0.0000 0.0000 0.0000 29.3334 0.0000 -5.3992
# 5 -10.4002 -5.4298 -10.8542 0.0000 36.9681 0.0000
# 6 0.0000 0.0000 0.0000 -5.3992 0.0000 19.2067
#
#
#
# Elastic Compliance Matrix: (Units=1/GPa)
#
#
# Indices 1 2 3 4 5 6 
#
# 1 0.012249 -0.006155 -0.003503 0.000000 0.001513 0.000000
# 2 -0.006155 0.067047 -0.005429 0.000000 0.006522 0.000000
# 3 -0.003503 -0.005429 0.007995 0.000000 0.000564 0.000000
# 4 0.000000 0.000000 0.000000 0.035951 0.000000 0.010106
# 5 0.001513 0.006522 0.000564 0.000000 0.028600 0.000000
# 6 0.000000 0.000000 0.000000 0.010106 0.000000 0.054906
#
#
# Mechanical properties :
#
#
# Convention : Reuss Voigt Hill
#
# Bulk Modulus (GPa) = 17.50834 53.16292 35.33563
# Shear Modulus (GPa) = 19.53416 30.23621 24.88518
#
# Velocity S-wave (km/s) = 3.27545 4.07509 3.69696
# Velocity P-wave (km/s) = 4.89088 7.16520 6.13436
#
# Compressibility (1/GPa) = 0.05711563
#
# Stress axis : x y z
#
# Youngs Moduli (GPa) = 81.64220 14.91484 125.07436
#
# Poissons Ratio (x) = 0.09180 0.43819
# Poissons Ratio (y) = 0.50251 0.67907
# Poissons Ratio (z) = 0.28603 0.08098
#
# Static dielectric constant tensor:
#      x y z
#    x 1.674010 0.000000 0.049760 
#    y 0.000000 1.617180 0.000000 
#    z 0.049760 0.000000 1.661560 
# 
# From -- ./inp_files/249192.got.cif
#   From: 2010.05.17/outbox.ucp.g08.bks.cvg/sg12_125_cif.got.tgz:249192.got - 2010.06.11 11:47:21.
