data_PCOD9223088
_publ_section_title
;
Structure prediction by ZEFSAII (Michael W. Deem and Ramdas Pophale) SiO2 
 PCOD9223088
Probable space group: C 2/M
;
_chemical_formula_sum "Si O2"
_cell_formula_units_Z 64
_cell_length_a 33.449663
_cell_length_b 9.342258
_cell_length_c 14.213493
_cell_angle_alpha 90.000000
_cell_angle_beta 94.724531
_cell_angle_gamma 90.000000
_cell_volume 4426.559141
_symmetry_space_group_name_H-M "C 2/M"
_symmetry_group_IT_number 12
_symmetry_cell_setting 'monoclinic'
loop_
_space_group_symop_operation_xyz
x,y,z
-x,y,-z
-x,-y,-z
x,-y,z
1/2+x,1/2+y,z
1/2-x,1/2+y,-z
1/2-x,1/2-y,-z
1/2+x,1/2-y,z
loop_
_atom_site_type_symbol
_atom_site_label
_atom_site_fract_x
_atom_site_fract_y
_atom_site_fract_z
Si Si1 0.545620 0.335360 0.468439
Si Si2 0.034678 0.674267 0.077791
Si Si3 0.015940 0.328593 0.287235
Si Si4 0.222166 0.164821 0.862353
Si Si5 0.856770 0.670499 0.191416
Si Si6 0.072768 0.329331 0.650798
Si Si7 0.122123 0.328774 0.021625
Si Si8 0.299281 0.335085 0.918347
O O1 0.500000 0.333480 0.500000
O O2 0.557640 0.500000 0.458659
O O3 0.542661 0.251557 0.369794
O O4 0.571388 0.255436 0.552786
O O5 0.033778 0.500000 0.075984
O O6 0.025778 0.716987 0.183097
O O7 0.078721 0.716321 0.051000
O O8 0.000000 0.724017 0.000000
O O9 0.021904 0.500000 0.296359
O O10 0.969192 0.300772 0.302929
O O11 0.184470 0.243033 0.807631
O O12 0.263487 0.251257 0.859970
O O13 0.226108 0.000000 0.833933
O O14 0.212209 0.165418 0.972555
O O15 0.848784 0.500000 0.195511
O O16 0.890008 0.707993 0.275241
O O17 0.874216 0.697247 0.089886
O O18 0.073811 0.500000 0.632779
O O19 0.126746 0.500000 0.036396
O O20 0.158482 0.246318 0.078418
O O21 0.301919 0.500000 0.888996
#
# Coordination Sequence:
#
# PCOD9223088 Si02
#       8
#     8   8   8   8   8   8   8   8
#     4   9  17  28  41  57  77 102 133 170 211 249
#     4   9  16  26  42  63  84 108 141 176 204 232
#     4   9  16  27  43  60  79 106 140 174 204 236
#     4   9  16  25  38  56  77 103 134 166 201 241
#     4   9  16  25  38  58  84 110 134 163 201 243
#     4   9  16  26  41  60  81 106 136 168 203 244
#     4   9  16  26  40  58  81 109 140 171 201 235
#     4   9  16  26  39  54  75 104 137 170 202 237
#
# _framework density 14.458182000000001
#
# number of rings (size 3 to 8) (size 9 to 14) (size 15 to 20)
#    0.000    3.000    0.000    1.875    0.000    8.000 
#    0.000    0.625    0.000    3.000    0.000    0.000 
#    0.000    1.000    0.000    3.000    0.000    4.000 
#
# Total GULP energy -178208.299544 kJ/mol
# GULP energy per Si atom -5569.009361 kJ/mol
# Density = 1.442527 g / cm^3
# Si number density = 14.458182 Si / 1000 Ang^3
#
#
#
# Elastic Constant Matrix: (Units=GPa)
#
#
# Indices 1 2 3 4 5 6 
#
# 1 111.4063 59.3044 62.8106 0.0000 24.2987 0.0000
# 2 59.3044 64.9952 54.6699 0.0000 19.4744 0.0000
# 3 62.8106 54.6699 101.2318 0.0000 20.1058 0.0000
# 4 0.0000 0.0000 0.0000 11.4840 0.0000 5.4354
# 5 24.2987 19.4744 20.1058 0.0000 22.2566 0.0000
# 6 0.0000 0.0000 0.0000 5.4354 0.0000 19.1500
#
#
#
# Elastic Compliance Matrix: (Units=1/GPa)
#
#
# Indices 1 2 3 4 5 6 
#
# 1 0.019124 -0.012060 -0.004024 0.000000 -0.006691 0.000000
# 2 -0.012060 0.039447 -0.011675 0.000000 -0.010803 0.000000
# 3 -0.004024 -0.011675 0.019228 0.000000 -0.002762 0.000000
# 4 0.000000 0.000000 0.000000 0.100591 0.000000 -0.028551
# 5 -0.006691 -0.010803 -0.002762 0.000000 0.064183 0.000000
# 6 0.000000 0.000000 0.000000 -0.028551 0.000000 0.060323
#
#
# Mechanical properties :
#
#
# Convention : Reuss Voigt Hill
#
# Bulk Modulus (GPa) = 44.87948 70.13367 57.50657
# Shear Modulus (GPa) = 13.66713 17.30134 15.48423
#
# Velocity S-wave (km/s) = 3.07789 3.46301 3.27611
# Velocity P-wave (km/s) = 6.61358 8.03761 7.36012
#
# Compressibility (1/GPa) = 0.02228190
#
# Stress axis : x y z
#
# Youngs Moduli (GPa) = 52.28992 25.35067 52.00667
#
# Poissons Ratio (x) = 0.30574 0.20926
# Poissons Ratio (y) = 0.63063 0.60716
# Poissons Ratio (z) = 0.21040 0.29596
#
# Static dielectric constant tensor:
#      x y z
#    x 1.463010 0.000000 0.005160 
#    y 0.000000 1.484310 0.000000 
#    z 0.005160 0.000000 1.457080 
# 
# From -- ./inp_files/248516.got.cif
#   From: 2010.05.17/outbox.cif.g08.bks.cpg/sg12_125_cif.got.tgz:248516.got - 2010.06.03 13:09:07.
