data_PCOD9223660
_publ_section_title
;
Structure prediction by ZEFSAII (Michael W. Deem and Ramdas Pophale) SiO2 
 PCOD9223660
Probable space group: C 2/M
;
_chemical_formula_sum "Si O2"
_cell_formula_units_Z 24
_cell_length_a 15.000000
_cell_length_b 9.000000
_cell_length_c 30.000000
_cell_angle_alpha 90.000000
_cell_angle_beta 140.000000
_cell_angle_gamma 90.000000
_cell_volume 2603.289819
_symmetry_space_group_name_H-M "C 2/M"
_symmetry_group_IT_number 12
_symmetry_cell_setting 'monoclinic'
loop_
_space_group_symop_operation_xyz
x,y,z
-x,y,-z
-x,-y,-z
x,-y,z
1/2+x,1/2+y,z
1/2-x,1/2+y,-z
1/2-x,1/2-y,-z
1/2+x,1/2-y,z
loop_
_atom_site_type_symbol
_atom_site_label
_atom_site_fract_x
_atom_site_fract_y
_atom_site_fract_z
Si Si1 0.154222 0.176337 0.926648
Si Si2 0.581367 0.177890 0.312039
Si Si3 0.074611 0.177607 0.666310
Si Si4 0.357390 0.823467 0.822167
Si Si5 0.666452 0.677422 0.831925
Si Si6 0.101605 0.818960 0.577475
O O1 0.209167 0.212360 0.898283
O O2 0.997488 0.235073 0.869212
O O3 0.155482 0.000000 0.932618
O O4 0.250000 0.250000 0.000000
O O5 0.518570 0.235640 0.334382
O O6 0.476716 0.242457 0.235224
O O7 0.739479 0.229072 0.367302
O O8 0.578279 0.000000 0.308830
O O9 0.236900 0.204180 0.739736
O O10 0.047368 0.222002 0.605394
O O11 0.053142 0.000000 0.663893
O O12 0.282515 0.783688 0.840084
O O13 0.387411 0.000000 0.833575
O O14 0.643590 0.500000 0.819195
O O15 0.000000 0.765692 0.500000
O O16 0.103540 0.000000 0.576894
#
# Coordination Sequence:
#
# PCOD9223660 Si02
#       6
#     8   8   8   8   8   8
#     4  11  23  37  54  78 107 138 170 208 255 305
#     4  10  19  32  54  80 102 130 174 222 258 296
#     4   9  18  34  55  76 102 138 174 211 260 311
#     4   9  18  35  56  76 100 134 175 213 253 305
#     4   9  20  38  57  76 103 139 172 206 257 313
#     4   9  18  32  50  74 106 143 177 209 254 312
#
# _framework density 9.2191039999999997
#
# number of rings (size 3 to 8) (size 9 to 14) (size 15 to 20)
#    0.000    2.500    0.000    3.000    0.000    6.667 
#    0.000    5.000    0.000    3.500    0.000    0.000 
#    0.000    0.000    0.000    0.000    0.000    0.000 
#
# Total GULP energy -133905.522824 kJ/mol
# GULP energy per Si atom -5579.396784 kJ/mol
# Density = 0.919812 g / cm^3
# Si number density = 9.219104 Si / 1000 Ang^3
#
#
#
# Elastic Constant Matrix: (Units=GPa)
#
#
# Indices 1 2 3 4 5 6 
#
# 1 39.4623 13.4930 31.3690 0.0000 -23.7869 0.0000
# 2 13.4930 6.4959 14.0161 0.0000 -14.2599 0.0000
# 3 31.3690 14.0161 49.6165 0.0000 -42.7020 0.0000
# 4 0.0000 0.0000 0.0000 21.8160 0.0000 0.7888
# 5 -23.7869 -14.2599 -42.7020 0.0000 25.6203 0.0000
# 6 0.0000 0.0000 0.0000 0.7888 0.0000 19.5198
#
#
#
# Elastic Compliance Matrix: (Units=1/GPa)
#
#
# Indices 1 2 3 4 5 6 
#
# 1 0.065899 -0.088701 0.014821 0.000000 0.036516 0.000000
# 2 -0.088701 0.456071 -0.172251 0.000000 -0.115605 0.000000
# 3 0.014821 -0.172251 0.025839 0.000000 -0.039046 0.000000
# 4 0.000000 0.000000 0.000000 0.045905 0.000000 -0.001855
# 5 0.036516 -0.115605 -0.039046 0.000000 -0.056490 0.000000
# 6 0.000000 0.000000 0.000000 -0.001855 0.000000 0.051305
#
#
# Mechanical properties :
#
#
# Convention : Reuss Voigt Hill
#
# Bulk Modulus (GPa) = 18.00270 23.70343 20.85307
# Shear Modulus (GPa) = 4.54832 15.83765 10.19299
#
# Velocity S-wave (km/s) = 1.57231 2.93398 2.35376
# Velocity P-wave (km/s) = 3.61679 4.93570 4.32680
#
# Compressibility (1/GPa) = 0.05554722
#
# Stress axis : x y z
#
# Youngs Moduli (GPa) = 15.17471 2.19264 38.70192
#
# Poissons Ratio (x) = 0.19449 -0.57359
# Poissons Ratio (y) = 1.34601 6.66643
# Poissons Ratio (z) = -0.22490 0.37768
#
# Static dielectric constant tensor:
#      x y z
#    x 1.638300 0.000000 -0.032350 
#    y 0.000000 1.614120 0.000000 
#    z -0.032350 0.000000 1.620180 
# 
# From -- ./inp_files/308292.got.cif
#   From: 2010.05.17/outbox.ucp.g08.bks.cvg/sg12_155_cif.got.tgz:308292.got - 2010.06.11 11:47:21.
