data_PCOD9223573
_publ_section_title
;
Structure prediction by ZEFSAII (Michael W. Deem and Ramdas Pophale) SiO2 
 PCOD9223573
Probable space group: C 2/M
;
_chemical_formula_sum "Si O2"
_cell_formula_units_Z 24
_cell_length_a 12.000000
_cell_length_b 18.000000
_cell_length_c 24.000000
_cell_angle_alpha 90.000000
_cell_angle_beta 30.000000
_cell_angle_gamma 90.000000
_cell_volume 2592.000000
_symmetry_space_group_name_H-M "C 2/M"
_symmetry_group_IT_number 12
_symmetry_cell_setting 'monoclinic'
loop_
_space_group_symop_operation_xyz
x,y,z
-x,y,-z
-x,-y,-z
x,-y,z
1/2+x,1/2+y,z
1/2-x,1/2+y,-z
1/2-x,1/2-y,-z
1/2+x,1/2-y,z
loop_
_atom_site_type_symbol
_atom_site_label
_atom_site_fract_x
_atom_site_fract_y
_atom_site_fract_z
Si Si1 0.398447 0.147430 0.447133
Si Si2 0.979582 0.808163 0.571693
Si Si3 0.649892 0.088720 0.772876
Si Si4 0.050503 0.910869 0.685610
Si Si5 0.877062 0.087482 0.222320
Si Si6 0.377832 0.409715 0.995529
O O1 0.492355 0.231864 0.406147
O O2 0.262272 0.126224 0.562492
O O3 0.610762 0.098128 0.340679
O O4 0.196897 0.142361 0.490810
O O5 0.763085 0.856618 0.678986
O O6 0.000000 0.784326 0.500000
O O7 0.818499 0.100920 0.752589
O O8 0.664685 0.000000 0.753024
O O9 0.387666 0.106904 0.893216
O O10 0.036661 0.883164 0.755218
O O11 0.090705 0.000000 0.668098
O O12 0.991329 0.117628 0.116547
O O13 0.927849 0.000000 0.200375
O O14 0.392081 0.500000 0.989837
O O15 0.500000 0.384639 0.000000
#
# Coordination Sequence:
#
# PCOD9223573 Si02
#       6
#     8   8   8   8   8   8
#     4  10  20  34  51  78 109 132 169 215 253 310
#     4  10  21  34  52  75 102 141 172 205 263 309
#     4   9  19  35  52  74 105 135 173 219 253 298
#     4   9  17  31  53  80 107 134 167 213 260 301
#     4  10  19  31  54  80 102 137 173 208 259 305
#     4   9  19  34  51  74 104 137 172 213 256 300
#
# _framework density 9.2592590000000001
#
# number of rings (size 3 to 8) (size 9 to 14) (size 15 to 20)
#    0.000    2.500    0.000    2.000    2.333    3.000 
#    0.000    4.167    0.000    0.000    0.000    0.000 
#    0.000    0.000    0.000    0.000    0.000    0.000 
#
# Total GULP energy -133640.358200 kJ/mol
# GULP energy per Si atom -5568.348258 kJ/mol
# Density = 0.923818 g / cm^3
# Si number density = 9.259259 Si / 1000 Ang^3
#
#
#
# Elastic Constant Matrix: (Units=GPa)
#
#
# Indices 1 2 3 4 5 6 
#
# 1 55.1988 6.4443 56.3530 0.0141 -8.7704 0.0134
# 2 6.4443 20.6764 20.5869 -0.0377 0.7994 0.0016
# 3 56.3530 20.5869 144.1690 -0.0509 -9.8827 0.0016
# 4 0.0141 -0.0377 -0.0509 10.1241 -0.0016 -2.0957
# 5 -8.7704 0.7994 -9.8827 -0.0016 21.4146 -0.0009
# 6 0.0134 0.0016 0.0016 -2.0957 -0.0009 18.2934
#
#
#
# Elastic Compliance Matrix: (Units=1/GPa)
#
#
# Indices 1 2 3 4 5 6 
#
# 1 0.031305 0.001931 -0.012019 -0.000103 0.007202 -0.000033
# 2 0.001931 0.057259 -0.009318 0.000166 -0.005647 0.000013
# 3 -0.012019 -0.009318 0.013065 0.000051 0.001455 0.000014
# 4 -0.000103 0.000166 0.000051 0.101174 -0.000017 0.011591
# 5 0.007202 -0.005647 0.001455 -0.000017 0.050529 -0.000004
# 6 -0.000033 0.000013 0.000014 0.011591 -0.000004 0.055992
#
#
# Mechanical properties :
#
#
# Convention : Reuss Voigt Hill
#
# Bulk Modulus (GPa) = 15.91925 42.97915 29.44920
# Shear Modulus (GPa) = 13.54736 19.07710 16.31223
#
# Velocity S-wave (km/s) = 2.70767 3.21310 2.97115
# Velocity P-wave (km/s) = 4.28840 6.08477 5.26378
#
# Compressibility (1/GPa) = 0.06281703
#
# Stress axis : x y z
#
# Youngs Moduli (GPa) = 31.94340 17.46447 76.54299
#
# Poissons Ratio (x) = -0.03372 0.91995
# Poissons Ratio (y) = -0.06168 0.71324
# Poissons Ratio (z) = 0.38392 0.16274
#
# Static dielectric constant tensor:
#      x y z
#    x 1.705680 0.000010 0.024760 
#    y 0.000010 1.632250 0.000000 
#    z 0.024760 0.000000 1.626110 
# 
# From -- ./inp_files/133741.got.cif
#   From: 2010.05.17/outbox.ucp.g08.bks.cvg/sg12_67_cif.got.tgz:133741.got - 2010.06.11 11:47:21.
