data_PCOD9223423
_publ_section_title
;
Structure prediction by ZEFSAII (Michael W. Deem and Ramdas Pophale) SiO2 
 PCOD9223423
Probable space group: C 2/M
;
_chemical_formula_sum "Si O2"
_cell_formula_units_Z 24
_cell_length_a 24.000000
_cell_length_b 9.000000
_cell_length_c 12.000000
_cell_angle_alpha 90.000000
_cell_angle_beta 70.000000
_cell_angle_gamma 90.000000
_cell_volume 2435.683273
_symmetry_space_group_name_H-M "C 2/M"
_symmetry_group_IT_number 12
_symmetry_cell_setting 'monoclinic'
loop_
_space_group_symop_operation_xyz
x,y,z
-x,y,-z
-x,-y,-z
x,-y,z
1/2+x,1/2+y,z
1/2-x,1/2+y,-z
1/2-x,1/2-y,-z
1/2+x,1/2-y,z
loop_
_atom_site_type_symbol
_atom_site_label
_atom_site_fract_x
_atom_site_fract_y
_atom_site_fract_z
Si Si1 0.201092 0.321492 0.763414
Si Si2 0.144733 0.680685 0.038802
Si Si3 0.990521 0.328999 0.874005
Si Si4 0.898359 0.176262 0.317854
Si Si5 0.931469 0.676490 0.523543
Si Si6 0.318963 0.177028 0.748429
O O1 0.200009 0.500000 0.757408
O O2 0.158534 0.253194 0.699304
O O3 0.268024 0.261425 0.716034
O O4 0.172925 0.274330 0.902309
O O5 0.143187 0.500000 0.039454
O O6 0.076224 0.727720 0.098293
O O7 0.180837 0.727583 0.123001
O O8 0.994861 0.500000 0.828340
O O9 0.042394 0.233289 0.785142
O O10 0.000000 0.334229 0.000000
O O11 0.906602 0.230837 0.437878
O O12 0.893138 0.000000 0.313518
O O13 0.930606 0.500000 0.497475
O O14 0.885299 0.699292 0.655811
O O15 0.000000 0.716098 0.500000
O O16 0.307045 0.000000 0.751695
#
# Coordination Sequence:
#
# PCOD9223423 Si02
#       6
#     8   8   8   8   8   8
#     4  11  22  39  61  87 121 162 204 241 296 366
#     4   9  18  35  61  90 120 157 199 244 294 358
#     4  10  18  35  62  88 118 157 201 242 290 356
#     4  12  25  39  59  90 127 159 198 252 305 352
#     4  10  22  43  69  90 115 157 205 247 296 363
#     4  10  21  38  61  90 120 152 199 253 302 351
#
# _framework density 9.8534980000000001
#
# number of rings (size 3 to 8) (size 9 to 14) (size 15 to 20)
#    0.000    1.667    1.667    3.500    0.000    4.667 
#    0.000    3.333    0.000    0.000    0.000    0.000 
#    0.000    0.000    0.000    0.000    0.000    0.000 
#
# Total GULP energy -134106.442315 kJ/mol
# GULP energy per Si atom -5587.768430 kJ/mol
# Density = 0.983107 g / cm^3
# Si number density = 9.853498 Si / 1000 Ang^3
#
#
#
# Elastic Constant Matrix: (Units=GPa)
#
#
# Indices 1 2 3 4 5 6 
#
# 1 140.3897 47.2235 24.6707 0.0000 0.1982 0.0000
# 2 47.2235 68.3713 34.7395 0.0000 4.7834 0.0000
# 3 24.6707 34.7395 56.9131 0.0000 9.9410 0.0000
# 4 0.0000 0.0000 0.0000 12.1408 0.0000 5.3382
# 5 0.1982 4.7834 9.9410 0.0000 26.3238 0.0000
# 6 0.0000 0.0000 0.0000 5.3382 0.0000 22.5688
#
#
#
# Elastic Compliance Matrix: (Units=1/GPa)
#
#
# Indices 1 2 3 4 5 6 
#
# 1 0.009317 -0.006320 -0.000395 0.000000 0.001228 0.000000
# 2 -0.006320 0.025519 -0.012885 0.000000 0.000277 0.000000
# 3 -0.000395 -0.012885 0.026977 0.000000 -0.007843 0.000000
# 4 0.000000 0.000000 0.000000 0.091928 0.000000 -0.021744
# 5 0.001228 0.000277 -0.007843 0.000000 0.040891 0.000000
# 6 0.000000 0.000000 0.000000 -0.021744 0.000000 0.049452
#
#
# Mechanical properties :
#
#
# Convention : Reuss Voigt Hill
#
# Bulk Modulus (GPa) = 44.22538 53.21573 48.72055
# Shear Modulus (GPa) = 17.19266 22.80935 20.00101
#
# Velocity S-wave (km/s) = 2.95687 3.40578 3.18924
# Velocity P-wave (km/s) = 5.84360 6.52134 6.19175
#
# Compressibility (1/GPa) = 0.02261145
#
# Stress axis : x y z
#
# Youngs Moduli (GPa) = 107.33485 39.18666 37.06836
#
# Poissons Ratio (x) = 0.24766 0.01465
# Poissons Ratio (y) = 0.67835 0.47764
# Poissons Ratio (z) = 0.04243 0.50493
#
# Static dielectric constant tensor:
#      x y z
#    x 1.680060 0.000000 -0.004380 
#    y 0.000000 1.661310 0.000000 
#    z -0.004380 0.000000 1.728910 
# 
# From -- ./inp_files/172943.got.cif
#   From: 2010.05.17/outbox.ucp.g08.bks.cvg/sg12_87_cif.got.tgz:172943.got - 2010.06.11 11:47:21.
