data_PCOD9223145
_publ_section_title
;
Structure prediction by ZEFSAII (Michael W. Deem and Ramdas Pophale) SiO2 
 PCOD9223145
Probable space group: C 2/M
;
_chemical_formula_sum "Si O2"
_cell_formula_units_Z 40
_cell_length_a 11.542925
_cell_length_b 18.489223
_cell_length_c 13.626321
_cell_angle_alpha 90.000000
_cell_angle_beta 139.232527
_cell_angle_gamma 90.000000
_cell_volume 1898.979075
_symmetry_space_group_name_H-M "C 2/M"
_symmetry_group_IT_number 12
_symmetry_cell_setting 'monoclinic'
loop_
_space_group_symop_operation_xyz
x,y,z
-x,y,-z
-x,-y,-z
x,-y,z
1/2+x,1/2+y,z
1/2-x,1/2+y,-z
1/2-x,1/2-y,-z
1/2+x,1/2-y,z
loop_
_atom_site_type_symbol
_atom_site_label
_atom_site_fract_x
_atom_site_fract_y
_atom_site_fract_z
Si Si1 0.773122 0.172690 0.962683
Si Si2 0.590540 0.859802 0.217511
Si Si3 0.734208 0.665134 0.470133
Si Si4 0.324880 0.310307 0.773813
Si Si5 0.581701 0.579589 0.662770
O O1 0.619007 0.126459 0.914739
O O2 0.736103 0.181185 0.822540
O O3 0.750000 0.250000 0.000000
O O4 0.979704 0.153286 0.100327
O O5 0.658060 0.872110 0.372906
O O6 0.635772 0.775438 0.219899
O O7 0.712278 0.904067 0.221436
O O8 0.750000 0.750000 0.500000
O O9 0.780860 0.657416 0.385990
O O10 0.530397 0.639646 0.352509
O O11 0.500000 0.580982 0.500000
O O12 0.551399 0.500000 0.685300
#
# Coordination Sequence:
#
# PCOD9223145 Si02
#       5
#     8   8   8   8   8
#     4   9  18  31  45  72 103 142 166 208 275 317
#     4   9  18  29  50  74 102 133 171 212 260 320
#     4   9  18  31  50  78 105 131 170 222 265 310
#     4   9  18  30  48  73 107 133 167 218 273 310
#     4   9  18  33  52  76 109 143 172 214 270 321
#
# _framework density 21.063949999999998
#
# number of rings (size 3 to 8) (size 9 to 14) (size 15 to 20)
#    0.000    3.000    0.000    0.000    8.400    0.800 
#    0.000    0.000    0.000    3.600    0.000    8.400 
#    0.000    0.000    0.000    0.000    0.000    0.000 
#
# Total GULP energy -111418.018163 kJ/mol
# GULP energy per Si atom -5570.900908 kJ/mol
# Density = 2.101601 g / cm^3
# Si number density = 21.063950 Si / 1000 Ang^3
#
#
#
# Elastic Constant Matrix: (Units=GPa)
#
#
# Indices 1 2 3 4 5 6 
#
# 1 118.9649 34.2804 39.9971 0.0000 7.2111 0.0000
# 2 34.2804 45.5702 8.5461 0.0000 8.3249 0.0000
# 3 39.9971 8.5461 41.2310 0.0000 -4.6756 0.0000
# 4 0.0000 0.0000 0.0000 6.6630 0.0000 1.3991
# 5 7.2111 8.3249 -4.6756 0.0000 47.1626 0.0000
# 6 0.0000 0.0000 0.0000 1.3991 0.0000 13.9644
#
#
#
# Elastic Compliance Matrix: (Units=1/GPa)
#
#
# Indices 1 2 3 4 5 6 
#
# 1 0.015656 -0.008827 -0.013606 0.000000 -0.002185 0.000000
# 2 -0.008827 0.028816 0.002191 0.000000 -0.003520 0.000000
# 3 -0.013606 0.002191 0.037613 0.000000 0.005423 0.000000
# 4 0.000000 0.000000 0.000000 0.153307 0.000000 -0.015360
# 5 -0.002185 -0.003520 0.005423 0.000000 0.022696 0.000000
# 6 0.000000 0.000000 0.000000 -0.015360 0.000000 0.073150
#
#
# Mechanical properties :
#
#
# Convention : Reuss Voigt Hill
#
# Bulk Modulus (GPa) = 24.03750 41.26811 32.65281
# Shear Modulus (GPa) = 12.96717 21.75418 17.36068
#
# Velocity S-wave (km/s) = 2.48384 3.21716 2.87398
# Velocity P-wave (km/s) = 4.43423 5.78226 5.15252
#
# Compressibility (1/GPa) = 0.04160166
#
# Stress axis : x y z
#
# Youngs Moduli (GPa) = 63.87284 34.70262 26.58652
#
# Poissons Ratio (x) = 0.30631 0.36173
# Poissons Ratio (y) = 0.56379 -0.05824
# Poissons Ratio (z) = 0.86904 -0.07602
#
# Static dielectric constant tensor:
#      x y z
#    x 1.793320 0.000000 -0.016860 
#    y 0.000000 1.747440 0.000000 
#    z -0.016860 0.000000 1.862820 
# 
# From -- ./inp_files/207132.got.cif
#   From: 2010.05.17/outbox.cif.g08.bks.cpg/sg12_104_cif.got.tgz:207132.got - 2010.06.03 13:09:07.
