data_PCOD9223417
_publ_section_title
;
Structure prediction by ZEFSAII (Michael W. Deem and Ramdas Pophale) SiO2 
 PCOD9223417
Probable space group: C 2/M
;
_chemical_formula_sum "Si O2"
_cell_formula_units_Z 32
_cell_length_a 21.000000
_cell_length_b 18.000000
_cell_length_c 12.000000
_cell_angle_alpha 90.000000
_cell_angle_beta 130.000000
_cell_angle_gamma 90.000000
_cell_volume 3474.777594
_symmetry_space_group_name_H-M "C 2/M"
_symmetry_group_IT_number 12
_symmetry_cell_setting 'monoclinic'
loop_
_space_group_symop_operation_xyz
x,y,z
-x,y,-z
-x,-y,-z
x,-y,z
1/2+x,1/2+y,z
1/2-x,1/2+y,-z
1/2-x,1/2-y,-z
1/2+x,1/2-y,z
loop_
_atom_site_type_symbol
_atom_site_label
_atom_site_fract_x
_atom_site_fract_y
_atom_site_fract_z
Si Si1 0.574978 0.815518 0.755798
Si Si2 0.413047 0.885584 0.838039
Si Si3 0.322931 0.412886 0.047078
Si Si4 0.976922 0.823109 0.160323
Si Si5 0.881741 0.213892 0.823091
Si Si6 0.417721 0.915150 0.579028
Si Si7 0.819393 0.586155 0.953267
Si Si8 0.288378 0.836604 0.271994
O O1 0.533050 0.743342 0.762908
O O2 0.499637 0.869113 0.638362
O O3 0.640707 0.800247 0.729613
O O4 0.622864 0.858268 0.910499
O O5 0.405384 0.797309 0.818314
O O6 0.408927 0.913012 0.705445
O O7 0.341857 0.907554 0.847915
O O8 0.500000 0.904733 0.000000
O O9 0.322132 0.500000 0.033413
O O10 0.417863 0.386245 0.145477
O O11 0.273351 0.395075 0.106364
O O12 0.266947 0.380565 0.882587
O O13 0.071188 0.834279 0.220613
O O14 0.927140 0.802224 0.991241
O O15 0.783558 0.206439 0.738905
O O16 0.339980 0.882588 0.422177
O O17 0.428775 0.000000 0.558867
O O18 0.836320 0.500000 0.004285
#
# Coordination Sequence:
#
# PCOD9223417 Si02
#       8
#     8   8   8   8   8   8   8   8
#     4  11  20  35  55  82 109 148 185 224 270 329
#     4  12  20  35  56  84 112 141 188 228 278 331
#     4   9  20  36  57  83 113 143 182 232 282 327
#     4  10  18  35  59  83 110 141 186 234 279 321
#     4  10  18  36  56  82 112 140 181 237 275 316
#     4  12  24  38  55  78 116 155 184 221 269 333
#     4  10  19  31  52  85 113 139 177 225 275 327
#     4  10  24  35  55  79 114 151 188 217 272 333
#
# _framework density 9.2092220000000005
#
# number of rings (size 3 to 8) (size 9 to 14) (size 15 to 20)
#    0.000    1.500    5.000    1.500    1.750    4.500 
#    0.000    5.625    0.000    0.000    0.000    0.000 
#    0.000    5.000    0.000    0.000    0.000    0.000 
#
# Total GULP energy -178231.126073 kJ/mol
# GULP energy per Si atom -5569.722690 kJ/mol
# Density = 0.918826 g / cm^3
# Si number density = 9.209222 Si / 1000 Ang^3
#
#
#
# Elastic Constant Matrix: (Units=GPa)
#
#
# Indices 1 2 3 4 5 6 
#
# 1 161.4465 26.3748 32.8934 0.0000 -1.9393 0.0000
# 2 26.3748 29.8103 -0.2008 0.0000 3.0060 0.0000
# 3 32.8934 -0.2008 36.5713 0.0000 -7.1359 0.0000
# 4 0.0000 0.0000 0.0000 8.3876 0.0000 1.8581
# 5 -1.9393 3.0060 -7.1359 0.0000 25.9943 0.0000
# 6 0.0000 0.0000 0.0000 1.8581 0.0000 23.2954
#
#
#
# Elastic Compliance Matrix: (Units=1/GPa)
#
#
# Indices 1 2 3 4 5 6 
#
# 1 0.009254 -0.008174 -0.008504 0.000000 -0.000699 0.000000
# 2 -0.008174 0.041174 0.006900 0.000000 -0.003477 0.000000
# 3 -0.008504 0.006900 0.036718 0.000000 0.008647 0.000000
# 4 0.000000 0.000000 0.000000 0.121368 0.000000 -0.009681
# 5 -0.000699 -0.003477 0.008647 0.000000 0.041194 0.000000
# 6 0.000000 0.000000 0.000000 -0.009681 0.000000 0.043699
#
#
# Mechanical properties :
#
#
# Convention : Reuss Voigt Hill
#
# Bulk Modulus (GPa) = 14.79535 38.44032 26.61783
# Shear Modulus (GPa) = 14.90338 22.78618 18.84478
#
# Velocity S-wave (km/s) = 2.84765 3.52111 3.20214
# Velocity P-wave (km/s) = 4.34310 6.11938 5.30610
#
# Compressibility (1/GPa) = 0.06758880
#
# Stress axis : x y z
#
# Youngs Moduli (GPa) = 108.06568 24.28689 27.23454
#
# Poissons Ratio (x) = 0.19852 0.23161
# Poissons Ratio (y) = 0.88333 -0.18791
# Poissons Ratio (z) = 0.91902 -0.16757
#
# Static dielectric constant tensor:
#      x y z
#    x 1.718260 0.000000 0.014400 
#    y 0.000000 1.662850 0.000000 
#    z 0.014400 0.000000 1.615240 
# 
# From -- ./inp_files/168792.got.cif
#   From: 2010.05.17/outbox.ucp.g08.bks.cvg/sg12_85_cif.got.tgz:168792.got - 2010.06.11 11:47:21.
