data_PCOD9223948
_publ_section_title
;
Structure prediction by ZEFSAII (Michael W. Deem and Ramdas Pophale) SiO2 
 PCOD9223948
Probable space group: C 2/M
;
_chemical_formula_sum "Si O2"
_cell_formula_units_Z 24
_cell_length_a 12.000000
_cell_length_b 15.000000
_cell_length_c 21.000000
_cell_angle_alpha 90.000000
_cell_angle_beta 140.000000
_cell_angle_gamma 90.000000
_cell_volume 2429.737165
_symmetry_space_group_name_H-M "C 2/M"
_symmetry_group_IT_number 12
_symmetry_cell_setting 'monoclinic'
loop_
_space_group_symop_operation_xyz
x,y,z
-x,y,-z
-x,-y,-z
x,-y,z
1/2+x,1/2+y,z
1/2-x,1/2+y,-z
1/2-x,1/2-y,-z
1/2+x,1/2-y,z
loop_
_atom_site_type_symbol
_atom_site_label
_atom_site_fract_x
_atom_site_fract_y
_atom_site_fract_z
Si Si1 0.576173 0.328996 0.846656
Si Si2 0.032576 0.369290 0.783583
Si Si3 0.901187 0.102385 0.892752
Si Si4 0.804179 0.103142 0.222999
Si Si5 0.134580 0.895775 0.610419
Si Si6 0.574975 0.100522 0.948444
O O1 0.543416 0.235137 0.800471
O O2 0.450795 0.347532 0.850270
O O3 0.571449 0.392291 0.782843
O O4 0.766507 0.339734 0.960515
O O5 0.194965 0.396104 0.812135
O O6 0.070448 0.406866 0.870371
O O7 0.836618 0.392088 0.677874
O O8 0.962141 0.000000 0.911307
O O9 0.000000 0.135882 0.000000
O O10 0.867077 0.142642 0.317871
O O11 0.615023 0.139376 0.119232
O O12 0.764174 0.000000 0.219039
O O13 0.000000 0.856614 0.500000
O O14 0.085624 0.000000 0.595452
O O15 0.602635 0.000000 0.986379
#
# Coordination Sequence:
#
# PCOD9223948 Si02
#       6
#     8   8   8   8   8   8
#     4  12  23  33  54  81 122 156 189 227 286 340
#     4  11  23  35  56  87 117 147 194 244 279 333
#     4  11  23  37  55  79 120 169 199 220 269 351
#     4   9  19  34  57  83 112 146 194 243 281 334
#     4   9  19  40  68  86 102 139 192 247 295 339
#     4  10  19  35  55  78 114 157 196 232 270 331
#
# _framework density 9.8776119999999992
#
# number of rings (size 3 to 8) (size 9 to 14) (size 15 to 20)
#    0.000    1.667    1.667    5.000    4.667    1.333 
#    0.000    0.833    0.000    0.000    0.000    4.667 
#    0.000    0.000    0.000    0.000    0.000    0.000 
#
# Total GULP energy -133831.108480 kJ/mol
# GULP energy per Si atom -5576.296187 kJ/mol
# Density = 0.985513 g / cm^3
# Si number density = 9.877612 Si / 1000 Ang^3
#
#
#
# Elastic Constant Matrix: (Units=GPa)
#
#
# Indices 1 2 3 4 5 6 
#
# 1 116.9044 2.4903 36.9907 0.0000 -4.3282 0.0000
# 2 2.4903 42.9208 -3.3476 0.0000 -7.0926 0.0000
# 3 36.9907 -3.3476 104.8477 0.0000 0.3642 0.0000
# 4 0.0000 0.0000 0.0000 14.0279 0.0000 -0.6173
# 5 -4.3282 -7.0926 0.3642 0.0000 11.3658 0.0000
# 6 0.0000 0.0000 0.0000 -0.6173 0.0000 31.5645
#
#
#
# Elastic Compliance Matrix: (Units=1/GPa)
#
#
# Indices 1 2 3 4 5 6 
#
# 1 0.009796 -0.000228 -0.003476 0.000000 0.003699 0.000000
# 2 -0.000228 0.026046 0.000856 0.000000 0.016139 0.000000
# 3 -0.003476 0.000856 0.010795 0.000000 -0.001135 0.000000
# 4 0.000000 0.000000 0.000000 0.071348 0.000000 0.001395
# 5 0.003699 0.016139 -0.001135 0.000000 0.099500 0.000000
# 6 0.000000 0.000000 0.000000 0.001395 0.000000 0.031708
#
#
# Mechanical properties :
#
#
# Convention : Reuss Voigt Hill
#
# Bulk Modulus (GPa) = 24.42585 37.43775 30.93180
# Shear Modulus (GPa) = 18.61948 26.62762 22.62355
#
# Velocity S-wave (km/s) = 3.07336 3.67533 3.38774
# Velocity P-wave (km/s) = 4.99852 6.08298 5.56722
#
# Compressibility (1/GPa) = 0.04094023
#
# Stress axis : x y z
#
# Youngs Moduli (GPa) = 102.08541 38.39408 92.63287
#
# Poissons Ratio (x) = 0.00876 0.32200
# Poissons Ratio (y) = 0.02329 -0.07930
# Poissons Ratio (z) = 0.35486 -0.03287
#
# Static dielectric constant tensor:
#      x y z
#    x 1.760310 0.000000 -0.011830 
#    y 0.000000 1.810010 0.000000 
#    z -0.011830 0.000000 1.694350 
# 
# From -- ./inp_files/204290.got.cif
#   From: 2010.05.17/outbox.ucp.g08.bks.cvg/sg12_103_cif.got.tgz:204290.got - 2010.06.11 11:47:21.
