data_PCOD9223300
_publ_section_title
;
Structure prediction by ZEFSAII (Michael W. Deem and Ramdas Pophale) SiO2 
 PCOD9223300
Probable space group: C 2/M
;
_chemical_formula_sum "Si O2"
_cell_formula_units_Z 28
_cell_length_a 21.000000
_cell_length_b 9.000000
_cell_length_c 30.000000
_cell_angle_alpha 90.000000
_cell_angle_beta 30.000000
_cell_angle_gamma 90.000000
_cell_volume 2835.000000
_symmetry_space_group_name_H-M "C 2/M"
_symmetry_group_IT_number 12
_symmetry_cell_setting 'monoclinic'
loop_
_space_group_symop_operation_xyz
x,y,z
-x,y,-z
-x,-y,-z
x,-y,z
1/2+x,1/2+y,z
1/2-x,1/2+y,-z
1/2-x,1/2-y,-z
1/2+x,1/2-y,z
loop_
_atom_site_type_symbol
_atom_site_label
_atom_site_fract_x
_atom_site_fract_y
_atom_site_fract_z
Si Si1 0.367297 0.822746 0.837914
Si Si2 0.052467 0.823948 0.654296
Si Si3 0.228610 0.324696 0.412722
Si Si4 0.986323 0.175671 0.591493
Si Si5 0.645539 0.681118 0.911946
Si Si6 0.277240 0.679209 0.233117
Si Si7 0.050841 0.822250 0.792471
O O1 0.459288 0.772164 0.741628
O O2 0.228424 0.773718 0.904533
O O3 0.426914 0.752476 0.846220
O O4 0.368813 0.000000 0.841212
O O5 0.193267 0.797703 0.588676
O O6 0.031255 0.792823 0.615347
O O7 0.025747 0.000000 0.678190
O O8 0.200998 0.500000 0.426211
O O9 0.329907 0.287116 0.312690
O O10 0.097981 0.235927 0.492391
O O11 0.850775 0.254439 0.668509
O O12 0.972156 0.000000 0.594985
O O13 0.645266 0.500000 0.912005
O O14 0.708514 0.727587 0.826851
O O15 0.500000 0.731238 0.000000
O O16 0.268205 0.500000 0.239649
O O17 0.400391 0.720439 0.188074
O O18 0.032959 0.000000 0.801957
#
# Coordination Sequence:
#
# PCOD9223300 Si02
#       7
#     8   8   8   8   8   8   8
#     4  10  18  31  56  83 106 137 175 220 265 312
#     4   9  18  32  49  72 106 142 177 220 265 313
#     4   9  18  32  48  69 100 142 187 221 254 309
#     4  11  21  31  48  76 109 140 176 228 273 303
#     4   9  18  34  58  87 110 131 170 220 266 316
#     4  10  20  37  58  77 103 144 184 215 260 323
#     4   9  20  37  55  75 106 147 184 217 257 312
#
# _framework density 9.8765429999999999
#
# number of rings (size 3 to 8) (size 9 to 14) (size 15 to 20)
#    0.000    2.429    1.429    2.143    0.000    4.000 
#    0.000    3.571    0.000    3.857    0.000    0.000 
#    0.000    0.000    0.000    0.000    0.000    0.000 
#
# Total GULP energy -156235.073978 kJ/mol
# GULP energy per Si atom -5579.824071 kJ/mol
# Density = 0.985406 g / cm^3
# Si number density = 9.876543 Si / 1000 Ang^3
#
#
#
# Elastic Constant Matrix: (Units=GPa)
#
#
# Indices 1 2 3 4 5 6 
#
# 1 115.9956 25.9481 11.5860 -0.0004 -28.0163 -0.0008
# 2 25.9481 9.4990 9.5970 -0.0004 -12.2848 0.0009
# 3 11.5860 9.5970 35.9570 -0.0007 -31.0479 -0.0031
# 4 -0.0004 -0.0004 -0.0007 12.4945 0.0003 -4.3920
# 5 -28.0163 -12.2848 -31.0479 0.0003 26.4584 0.0008
# 6 -0.0008 0.0009 -0.0031 -4.3920 0.0008 26.4090
#
#
#
# Elastic Compliance Matrix: (Units=1/GPa)
#
#
# Indices 1 2 3 4 5 6 
#
# 1 0.021839 -0.094897 -0.016091 -0.000002 -0.039819 0.000003
# 2 -0.094897 0.431384 -0.122608 -0.000005 -0.044065 -0.000031
# 3 -0.016091 -0.122608 -0.139769 -0.000009 -0.237981 -0.000008
# 4 -0.000002 -0.000005 -0.000009 0.085005 -0.000016 0.014137
# 5 -0.039819 -0.044065 -0.237981 -0.000016 -0.304089 -0.000021
# 6 0.000003 -0.000031 -0.000008 0.014137 -0.000021 0.040217
#
#
# Mechanical properties :
#
#
# Convention : Reuss Voigt Hill
#
# Bulk Modulus (GPa) = -6.50455 28.41265 10.95405
# Shear Modulus (GPa) = 9.08211 20.69373 14.88792
#
# Velocity S-wave (km/s) = 2.14658 3.24021 2.74834
# Velocity P-wave (km/s) = 1.68631 5.33045 3.95331
#
# Compressibility (1/GPa) = -0.15373848
#
# Stress axis : x y z
#
# Youngs Moduli (GPa) = 45.78924 2.31812 -7.15466
#
# Poissons Ratio (x) = 0.21998 -0.11513
# Poissons Ratio (y) = 4.34525 -0.87722
# Poissons Ratio (z) = 0.73681 0.28422
#
# Static dielectric constant tensor:
#      x y z
#    x 1.733780 0.000000 -0.003930 
#    y 0.000000 1.656400 0.000000 
#    z -0.003930 0.000000 1.685190 
# 
# From -- ./inp_files/320229.got.cif
#   From: 2010.05.17/outbox.ucp.g08.bks.cvg/sg12_161_cif.got.tgz:320229.got - 2010.06.11 11:47:21.
