data_PCOD9223639
_publ_section_title
;
Structure prediction by ZEFSAII (Michael W. Deem and Ramdas Pophale) SiO2 
 PCOD9223639
Probable space group: C 2/M
;
_chemical_formula_sum "Si O2"
_cell_formula_units_Z 20
_cell_length_a 21.000000
_cell_length_b 9.000000
_cell_length_c 18.000000
_cell_angle_alpha 90.000000
_cell_angle_beta 40.000000
_cell_angle_gamma 90.000000
_cell_volume 2186.763448
_symmetry_space_group_name_H-M "C 2/M"
_symmetry_group_IT_number 12
_symmetry_cell_setting 'monoclinic'
loop_
_space_group_symop_operation_xyz
x,y,z
-x,y,-z
-x,-y,-z
x,-y,z
1/2+x,1/2+y,z
1/2-x,1/2+y,-z
1/2-x,1/2-y,-z
1/2+x,1/2-y,z
loop_
_atom_site_type_symbol
_atom_site_label
_atom_site_fract_x
_atom_site_fract_y
_atom_site_fract_z
Si Si1 0.220729 0.330234 0.754678
Si Si2 0.096995 0.327697 0.461934
Si Si3 0.645775 0.676416 0.569963
Si Si4 0.909380 0.166686 0.022121
Si Si5 0.043515 0.325956 0.792978
O O1 0.256674 0.500000 0.721255
O O2 0.305999 0.209408 0.671946
O O3 0.163017 0.289774 0.880623
O O4 0.141452 0.313597 0.758290
O O5 0.096125 0.500000 0.486704
O O6 0.112816 0.219947 0.517243
O O7 0.000000 0.299031 0.500000
O O8 0.652538 0.500000 0.573404
O O9 0.750000 0.750000 0.500000
O O10 0.568762 0.754189 0.692788
O O11 0.868351 0.000000 0.052490
O O12 0.000000 0.158928 0.000000
O O13 0.957576 0.228896 0.905310
O O14 0.019869 0.500000 0.810291
#
# Coordination Sequence:
#
# PCOD9223639 Si02
#       5
#     8   8   8   8   8
#     4  10  19  32  53  79 110 147 185 229 275 328
#     4  11  24  40  58  81 112 150 190 232 279 334
#     4  12  23  36  57  83 113 148 186 232 281 332
#     4   9  17  29  48  76 110 145 181 226 275 327
#     4  10  19  32  52  81 113 144 182 229 277 329
#
# _framework density 9.145937
#
# number of rings (size 3 to 8) (size 9 to 14) (size 15 to 20)
#    0.000    1.600    2.000    4.200    0.000    5.600 
#    0.000    0.000    0.000    1.200    0.000    0.000 
#    0.000    0.000    0.000    0.000    0.000    0.000 
#
# Total GULP energy -111500.859702 kJ/mol
# GULP energy per Si atom -5575.042985 kJ/mol
# Density = 0.912512 g / cm^3
# Si number density = 9.145937 Si / 1000 Ang^3
#
#
#
# Elastic Constant Matrix: (Units=GPa)
#
#
# Indices 1 2 3 4 5 6 
#
# 1 19.1815 6.7476 -4.8184 0.0000 -0.3530 0.0000
# 2 6.7476 61.1762 -24.0412 -0.0001 -3.5993 0.0000
# 3 -4.8184 -24.0412 47.0952 0.0000 16.4829 0.0000
# 4 0.0000 -0.0001 0.0000 24.6183 0.0000 0.7711
# 5 -0.3530 -3.5993 16.4829 0.0000 4.1844 0.0000
# 6 0.0000 0.0000 0.0000 0.7711 0.0000 19.9699
#
#
#
# Elastic Compliance Matrix: (Units=1/GPa)
#
#
# Indices 1 2 3 4 5 6 
#
# 1 0.053430 -0.007014 -0.006392 0.000000 0.023652 0.000000
# 2 -0.007014 0.016660 -0.007866 0.000000 0.044723 0.000000
# 3 -0.006392 -0.007866 -0.050494 0.000000 0.191600 0.000000
# 4 0.000000 0.000000 0.000000 0.040669 0.000001 -0.001570
# 5 0.023652 0.044723 0.191600 0.000001 -0.475297 -0.000001
# 6 0.000000 0.000000 0.000000 -0.001570 -0.000001 0.050136
#
#
# Mechanical properties :
#
#
# Convention : Reuss Voigt Hill
#
# Bulk Modulus (GPa) = -43.58124 9.24764 -17.16680
# Shear Modulus (GPa) = -15.15139 19.72551 2.28706
#
# Velocity S-wave (km/s) = -2.88116 3.28743 1.11939
# Velocity P-wave (km/s) = 5.91146 4.41318 2.78111
#
# Compressibility (1/GPa) = -0.02294566
#
# Stress axis : x y z
#
# Youngs Moduli (GPa) = 18.71594 60.02405 -19.80426
#
# Poissons Ratio (x) = 0.42098 -0.12658
# Poissons Ratio (y) = 0.13127 -0.15577
# Poissons Ratio (z) = 0.11963 0.47213
#
# Static dielectric constant tensor:
#      x y z
#    x 1.561300 0.000000 -0.033720 
#    y 0.000000 1.589890 0.000000 
#    z -0.033720 0.000000 1.602540 
# 
# From -- ./inp_files/162737.got.cif
#   From: 2010.05.17/outbox.ucp.g08.bks.cvg/sg12_82_cif.got.tgz:162737.got - 2010.06.11 11:47:21.
