data_PCOD9223905
_publ_section_title
;
Structure prediction by ZEFSAII (Michael W. Deem and Ramdas Pophale) SiO2 
 PCOD9223905
Probable space group: C 2/M
;
_chemical_formula_sum "Si O2"
_cell_formula_units_Z 32
_cell_length_a 15.000000
_cell_length_b 18.000000
_cell_length_c 18.000000
_cell_angle_alpha 90.000000
_cell_angle_beta 40.000000
_cell_angle_gamma 90.000000
_cell_volume 3123.947783
_symmetry_space_group_name_H-M "C 2/M"
_symmetry_group_IT_number 12
_symmetry_cell_setting 'monoclinic'
loop_
_space_group_symop_operation_xyz
x,y,z
-x,y,-z
-x,-y,-z
x,-y,z
1/2+x,1/2+y,z
1/2-x,1/2+y,-z
1/2-x,1/2-y,-z
1/2+x,1/2-y,z
loop_
_atom_site_type_symbol
_atom_site_label
_atom_site_fract_x
_atom_site_fract_y
_atom_site_fract_z
Si Si1 0.626988 0.418985 0.043564
Si Si2 0.139042 0.082046 0.211822
Si Si3 0.341283 0.347819 0.427106
Si Si4 0.665084 0.198926 0.658795
Si Si5 0.791816 0.276984 0.099838
Si Si6 0.108778 0.644997 0.204597
Si Si7 0.453647 0.910396 0.445110
Si Si8 0.550556 0.725879 0.866738
O O1 0.570138 0.500000 0.060045
O O2 0.662800 0.418741 0.107820
O O3 0.516300 0.353418 0.106210
O O4 0.765984 0.402879 0.908232
O O5 0.241902 0.147805 0.169691
O O6 0.978863 0.104377 0.326914
O O7 0.166940 0.000000 0.224022
O O8 0.368501 0.264906 0.378879
O O9 0.301293 0.338991 0.539292
O O10 0.201091 0.379561 0.476789
O O11 0.540362 0.139925 0.739441
O O12 0.658023 0.242987 0.738986
O O13 0.660929 0.229860 0.156743
O O14 0.862487 0.223147 0.114126
O O15 0.917864 0.281651 0.961074
O O16 0.065699 0.624840 0.316391
O O17 0.500000 0.893829 0.500000
O O18 0.451897 0.000000 0.436842
#
# Coordination Sequence:
#
# PCOD9223905 Si02
#       8
#     8   8   8   8   8   8   8   8
#     4  10  20  34  58  88 114 149 188 234 291 337
#     4  11  21  37  61  86 115 146 187 242 289 337
#     4  10  20  35  55  83 108 145 192 235 276 329
#     4  10  19  34  58  80 107 144 193 235 271 322
#     4  10  21  36  56  86 112 150 189 230 292 336
#     4  10  19  35  56  80 111 147 193 236 270 338
#     4  10  22  36  52  79 118 155 183 225 286 345
#     4  10  20  37  57  81 118 150 187 237 280 339
#
# _framework density 10.243449
#
# number of rings (size 3 to 8) (size 9 to 14) (size 15 to 20)
#    0.000    1.875    2.500    1.500    1.750    2.000 
#    0.000    7.500    0.000    6.000    0.000    0.000 
#    0.000    0.000    0.000    0.000    0.000    0.000 
#
# Total GULP energy -178290.723139 kJ/mol
# GULP energy per Si atom -5571.585098 kJ/mol
# Density = 1.022013 g / cm^3
# Si number density = 10.243449 Si / 1000 Ang^3
#
#
#
# Elastic Constant Matrix: (Units=GPa)
#
#
# Indices 1 2 3 4 5 6 
#
# 1 18.5096 -5.2398 9.3950 0.0003 4.6419 -0.0002
# 2 -5.2398 66.5977 0.6621 0.0003 -5.5361 -0.0002
# 3 9.3950 0.6621 109.3093 0.0014 10.2678 -0.0010
# 4 0.0003 0.0003 0.0014 -6.6614 -0.0007 22.8728
# 5 4.6419 -5.5361 10.2678 -0.0007 26.8392 0.0004
# 6 -0.0002 -0.0002 -0.0010 22.8728 0.0004 2.2881
#
#
#
# Elastic Compliance Matrix: (Units=1/GPa)
#
#
# Indices 1 2 3 4 5 6 
#
# 1 0.059352 0.004070 -0.004399 0.000001 -0.007743 -0.000001
# 2 0.004070 0.015574 -0.000705 0.000000 0.002778 0.000000
# 3 -0.004399 -0.000705 0.009826 0.000000 -0.003144 0.000000
# 4 0.000001 0.000000 0.000000 -0.004250 -0.000001 0.042482
# 5 -0.007743 0.002778 -0.003144 -0.000001 0.040374 0.000001
# 6 -0.000001 0.000000 0.000000 0.042482 0.000001 0.012372
#
#
# Mechanical properties :
#
#
# Convention : Reuss Voigt Hill
#
# Bulk Modulus (GPa) = 12.09418 22.67236 17.38327
# Shear Modulus (GPa) = 30.69786 17.13313 23.91549
#
# Velocity S-wave (km/s) = 3.87513 2.89502 3.42037
# Velocity P-wave (km/s) = 5.09298 4.71865 4.90938
#
# Compressibility (1/GPa) = 0.08268441
#
# Stress axis : x y z
#
# Youngs Moduli (GPa) = 16.84850 64.21081 101.77092
#
# Poissons Ratio (x) = -0.26133 0.44765
# Poissons Ratio (y) = -0.06857 0.07176
# Poissons Ratio (z) = 0.07411 0.04528
#
# Static dielectric constant tensor:
#      x y z
#    x 1.738670 0.000000 0.040620 
#    y 0.000000 1.764360 0.000000 
#    z 0.040620 0.000000 1.808740 
# 
# From -- ./inp_files/271724.got.cif
#   From: 2010.05.17/outbox.ucp.g08.bks.cvg/sg12_136_cif.got.tgz:271724.got - 2010.06.11 11:47:21.
