data_PCOD9223095
_publ_section_title
;
Structure prediction by ZEFSAII (Michael W. Deem and Ramdas Pophale) SiO2 
 PCOD9223095
Probable space group: C 2/M
;
_chemical_formula_sum "Si O2"
_cell_formula_units_Z 56
_cell_length_a 22.127539
_cell_length_b 23.322775
_cell_length_c 7.529369
_cell_angle_alpha 90.000000
_cell_angle_beta 90.000089
_cell_angle_gamma 90.000000
_cell_volume 3885.723725
_symmetry_space_group_name_H-M "C 2/M"
_symmetry_group_IT_number 12
_symmetry_cell_setting 'monoclinic'
loop_
_space_group_symop_operation_xyz
x,y,z
-x,y,-z
-x,-y,-z
x,-y,z
1/2+x,1/2+y,z
1/2-x,1/2+y,-z
1/2-x,1/2-y,-z
1/2+x,1/2-y,z
loop_
_atom_site_type_symbol
_atom_site_label
_atom_site_fract_x
_atom_site_fract_y
_atom_site_fract_z
Si Si1 0.361040 0.384970 0.710653
Si Si2 0.429475 0.734669 0.709388
Si Si3 0.570527 0.734668 0.709374
Si Si4 0.861037 0.115031 0.289370
Si Si5 0.569182 0.500000 0.716235
Si Si6 0.930824 0.000000 0.716244
Si Si7 0.724865 0.657926 0.999993
Si Si8 0.345422 0.779902 0.000005
O O1 0.404963 0.330151 0.738034
O O2 0.347863 0.388130 0.500012
O O3 0.395385 0.442587 0.767461
O O4 0.301736 0.373880 0.827589
O O5 0.500002 0.737851 0.756812
O O6 0.423047 0.746830 0.500007
O O7 0.388400 0.775846 0.828670
O O8 0.595039 0.669848 0.738016
O O9 0.611605 0.775845 0.828651
O O10 0.895378 0.057413 0.232554
O O11 0.801732 0.126125 0.172438
O O12 0.500003 0.500000 0.778646
O O13 0.567167 0.500000 0.499996
O O14 0.796099 0.669906 1.000000
O O15 0.692625 0.720419 0.000000
#
# Coordination Sequence:
#
# PCOD9223095 Si02
#       8
#     8   8   8   8   4   4   8   8
#     4   9  17  28  41  57  80 108 136 168 199 228
#     4   9  16  26  41  60  80 103 131 163 201 240
#     4   9  16  26  41  60  80 103 131 163 201 240
#     4   9  17  28  41  57  80 108 136 168 199 228
#     4   9  16  27  43  61  82 109 139 170 202 230
#     4   9  16  27  43  61  82 109 139 170 202 230
#     4   9  18  29  39  54  74 102 141 172 197 231
#     4   9  17  28  40  54  75 102 134 171 201 231
#
# _framework density 14.41173
#
# number of rings (size 3 to 8) (size 9 to 14) (size 15 to 20)
#    0.000    3.000    0.000    1.286    0.000    5.143 
#    0.000    8.571    0.000    0.000    0.000    0.000 
#    0.000    0.000    0.000   10.286    0.000   59.429 
#
# Total GULP energy -155978.744310 kJ/mol
# GULP energy per Si atom -5570.669440 kJ/mol
# Density = 1.437893 g / cm^3
# Si number density = 14.411730 Si / 1000 Ang^3
#
#
#
# Elastic Constant Matrix: (Units=GPa)
#
#
# Indices 1 2 3 4 5 6 
#
# 1 133.4171 59.4263 67.7140 0.0000 0.0079 0.0000
# 2 59.4263 54.6703 34.8149 0.0000 0.0043 0.0000
# 3 67.7140 34.8149 68.8440 0.0000 0.0050 0.0000
# 4 0.0000 0.0000 0.0000 11.9124 0.0000 -0.0015
# 5 0.0079 0.0043 0.0050 0.0000 19.2331 0.0000
# 6 0.0000 0.0000 0.0000 -0.0015 0.0000 23.3519
#
#
#
# Elastic Compliance Matrix: (Units=1/GPa)
#
#
# Indices 1 2 3 4 5 6 
#
# 1 0.020119 -0.013670 -0.012876 0.000000 -0.000002 0.000000
# 2 -0.013670 0.036268 -0.004896 0.000000 -0.000001 0.000000
# 3 -0.012876 -0.004896 0.029666 0.000000 -0.000001 0.000000
# 4 0.000000 0.000000 0.000000 0.083946 0.000000 0.000005
# 5 -0.000002 -0.000001 -0.000001 0.000000 0.051994 0.000000
# 6 0.000000 0.000000 0.000000 0.000005 0.000000 0.042823
#
#
# Mechanical properties :
#
#
# Convention : Reuss Voigt Hill
#
# Bulk Modulus (GPa) = 43.15861 64.53800 53.84831
# Shear Modulus (GPa) = 14.90663 17.23123 16.06893
#
# Velocity S-wave (km/s) = 3.21960 3.46155 3.34277
# Velocity P-wave (km/s) = 6.62065 7.80098 7.23493
#
# Compressibility (1/GPa) = 0.02317035
#
# Stress axis : x y z
#
# Youngs Moduli (GPa) = 49.70440 27.57262 33.70869
#
# Poissons Ratio (x) = 0.37691 0.43403
# Poissons Ratio (y) = 0.67944 0.16503
# Poissons Ratio (z) = 0.63999 0.13499
#
# Static dielectric constant tensor:
#      x y z
#    x 1.460050 0.000000 0.000000 
#    y 0.000000 1.451510 0.000000 
#    z 0.000000 0.000000 1.510890 
# 
# From -- ./inp_files/88793.got.cif
#   From: 2010.05.17/outbox.cif.g08.bks.cpg/sg12_45_cif.got.tgz:88793.got - 2010.06.03 13:09:07.
