data_PCOD9223478
_publ_section_title
;
Structure prediction by ZEFSAII (Michael W. Deem and Ramdas Pophale) SiO2 
 PCOD9223478
Probable space group: C 2/M
;
_chemical_formula_sum "Si O2"
_cell_formula_units_Z 28
_cell_length_a 18.000000
_cell_length_b 9.000000
_cell_length_c 21.000000
_cell_angle_alpha 90.000000
_cell_angle_beta 120.000000
_cell_angle_gamma 90.000000
_cell_volume 2946.218424
_symmetry_space_group_name_H-M "C 2/M"
_symmetry_group_IT_number 12
_symmetry_cell_setting 'monoclinic'
loop_
_space_group_symop_operation_xyz
x,y,z
-x,y,-z
-x,-y,-z
x,-y,z
1/2+x,1/2+y,z
1/2-x,1/2+y,-z
1/2-x,1/2-y,-z
1/2+x,1/2-y,z
loop_
_atom_site_type_symbol
_atom_site_label
_atom_site_fract_x
_atom_site_fract_y
_atom_site_fract_z
Si Si1 0.327819 0.822670 0.454748
Si Si2 0.965531 0.678413 0.270304
Si Si3 0.174474 0.681203 0.688263
Si Si4 0.353138 0.679962 0.825730
Si Si5 0.400749 0.670483 0.982210
Si Si6 0.964650 0.323945 0.127944
Si Si7 0.372061 0.675691 0.601233
O O1 0.350094 0.773175 0.393345
O O2 0.376854 0.740627 0.532082
O O3 0.225651 0.795230 0.418609
O O4 0.341683 0.000000 0.467178
O O5 0.973399 0.500000 0.278868
O O6 0.896236 0.730530 0.291817
O O7 0.934864 0.712917 0.186122
O O8 0.057525 0.748296 0.324567
O O9 0.176187 0.500000 0.689094
O O10 0.269889 0.726984 0.750515
O O11 0.361016 0.500000 0.825854
O O12 0.345613 0.718563 0.897597
O O13 0.441644 0.750208 0.840035
O O14 0.380026 0.500000 0.988512
O O15 0.500000 0.673845 0.000000
O O16 0.402061 0.766194 0.046140
O O17 0.974370 0.500000 0.125926
O O18 0.384866 0.500000 0.607092
#
# Coordination Sequence:
#
# PCOD9223478 Si02
#       7
#     8   8   8   8   8   8   8
#     4   9  18  34  56  77  96 125 164 202 240 285
#     4  10  21  35  50  71 100 133 166 199 239 289
#     4   9  18  34  54  72  94 130 172 203 231 282
#     4   9  17  32  54  75  95 125 168 209 240 280
#     4   8  15  28  48  73  97 125 163 204 242 283
#     4  10  19  30  48  74 102 129 158 200 251 294
#     4  10  20  34  54  78 101 125 157 202 249 289
#
# _framework density 9.5037079999999996
#
# number of rings (size 3 to 8) (size 9 to 14) (size 15 to 20)
#    0.000    2.714    0.000    2.571    0.000    6.000 
#    0.000    5.714    0.000    0.000    0.000    0.000 
#    0.000    0.000    0.000    0.000    0.000    0.000 
#
# Total GULP energy -156145.399900 kJ/mol
# GULP energy per Si atom -5576.621425 kJ/mol
# Density = 0.948208 g / cm^3
# Si number density = 9.503708 Si / 1000 Ang^3
#
#
#
# Elastic Constant Matrix: (Units=GPa)
#
#
# Indices 1 2 3 4 5 6 
#
# 1 24.5070 17.7485 8.2157 0.0000 -28.8990 0.0000
# 2 17.7485 8.0412 21.7961 0.0000 -17.7187 0.0000
# 3 8.2157 21.7961 71.0996 0.0000 -37.2753 0.0000
# 4 0.0000 0.0000 0.0000 27.6195 0.0000 -0.3595
# 5 -28.8990 -17.7187 -37.2753 0.0000 27.2550 0.0000
# 6 0.0000 0.0000 0.0000 -0.3595 0.0000 7.3179
#
#
#
# Elastic Compliance Matrix: (Units=1/GPa)
#
#
# Indices 1 2 3 4 5 6 
#
# 1 -0.020548 0.026310 -0.028787 0.000000 -0.044054 0.000000
# 2 0.026310 -0.298721 0.004759 0.000000 -0.159796 0.000000
# 3 -0.028787 0.004759 0.005483 0.000000 -0.019931 0.000000
# 4 0.000000 0.000000 0.000000 0.036229 0.000000 0.001780
# 5 -0.044054 -0.159796 -0.019931 0.000000 -0.141164 0.000000
# 6 0.000000 0.000000 0.000000 0.001780 0.000000 0.136739
#
#
# Mechanical properties :
#
#
# Convention : Reuss Voigt Hill
#
# Bulk Modulus (GPa) = -3.23392 22.12981 9.44794
# Shear Modulus (GPa) = -12.83308 16.16432 1.66562
#
# Velocity S-wave (km/s) = -2.60121 2.91936 0.93712
# Velocity P-wave (km/s) = 3.27518 4.79912 2.48040
#
# Compressibility (1/GPa) = -0.30922179
#
# Stress axis : x y z
#
# Youngs Moduli (GPa) = -48.66647 -3.34761 182.37233
#
# Poissons Ratio (x) = 0.08808 5.25000
# Poissons Ratio (y) = 1.28043 -0.86786
# Poissons Ratio (z) = -1.40097 0.01593
#
# Static dielectric constant tensor:
#      x y z
#    x 1.656560 0.000000 -0.036420 
#    y 0.000000 1.639640 0.000000 
#    z -0.036420 0.000000 1.666730 
# 
# From -- ./inp_files/314412.got.cif
#   From: 2010.05.17/outbox.ucp.g08.bks.cvg/sg12_158_cif.got.tgz:314412.got - 2010.06.11 11:47:21.
