data_PCOD9223663
_publ_section_title
;
Structure prediction by ZEFSAII (Michael W. Deem and Ramdas Pophale) SiO2 
 PCOD9223663
Probable space group: C 2/M
;
_chemical_formula_sum "Si O2"
_cell_formula_units_Z 32
_cell_length_a 15.000000
_cell_length_b 9.000000
_cell_length_c 30.000000
_cell_angle_alpha 90.000000
_cell_angle_beta 60.000000
_cell_angle_gamma 90.000000
_cell_volume 3507.402885
_symmetry_space_group_name_H-M "C 2/M"
_symmetry_group_IT_number 12
_symmetry_cell_setting 'monoclinic'
loop_
_space_group_symop_operation_xyz
x,y,z
-x,y,-z
-x,-y,-z
x,-y,z
1/2+x,1/2+y,z
1/2-x,1/2+y,-z
1/2-x,1/2-y,-z
1/2+x,1/2-y,z
loop_
_atom_site_type_symbol
_atom_site_label
_atom_site_fract_x
_atom_site_fract_y
_atom_site_fract_z
Si Si1 0.880411 0.319773 0.363035
Si Si2 0.730002 0.677054 0.168592
Si Si3 0.512498 0.820318 0.242321
Si Si4 0.089007 0.169425 0.052064
Si Si5 0.196059 0.670410 0.947089
Si Si6 0.449998 0.820222 0.444071
Si Si7 0.662902 0.179929 0.439104
Si Si8 0.442637 0.824025 0.161054
O O1 0.875245 0.500000 0.363745
O O2 0.930326 0.272585 0.398198
O O3 0.765503 0.253773 0.394312
O O4 0.945997 0.274355 0.302616
O O5 0.709014 0.500000 0.168755
O O6 0.627890 0.756629 0.211405
O O7 0.772028 0.730837 0.109588
O O8 0.823563 0.697612 0.179152
O O9 0.466038 0.773921 0.205690
O O10 0.515954 0.000000 0.242343
O O11 0.197935 0.169487 0.051255
O O12 0.010020 0.248565 0.105346
O O13 0.056529 0.000000 0.053107
O O14 0.113455 0.245623 0.998496
O O15 0.161170 0.500000 0.949572
O O16 0.366599 0.773132 0.502608
O O17 0.562661 0.780079 0.434635
O O18 0.446348 0.000000 0.445097
O O19 0.673443 0.000000 0.436043
O O20 0.465272 0.000000 0.153171
#
# Coordination Sequence:
#
# PCOD9223663 Si02
#       8
#     8   8   8   8   8   8   8   8
#     4  10  20  34  52  76 107 140 172 214 265 309
#     4  10  21  38  58  77 100 136 178 215 255 307
#     4  10  22  38  54  75 105 139 175 216 263 307
#     4  10  19  32  54  81 106 133 168 209 255 311
#     4   9  18  33  53  77 104 134 167 207 258 311
#     4   8  16  32  53  76 108 142 172 210 258 310
#     4   9  17  32  54  79 104 138 179 213 251 306
#     4  10  21  37  56  76 103 138 172 212 262 310
#
# _framework density 9.1235599999999994
#
# number of rings (size 3 to 8) (size 9 to 14) (size 15 to 20)
#    0.000    2.500    1.250    1.500    0.000    3.500 
#    0.000    4.375    0.000    0.000    0.000    0.000 
#    0.000    0.000    0.000    0.000    0.000    0.000 
#
# Total GULP energy -178436.341902 kJ/mol
# GULP energy per Si atom -5576.135684 kJ/mol
# Density = 0.910279 g / cm^3
# Si number density = 9.123560 Si / 1000 Ang^3
#
#
#
# Elastic Constant Matrix: (Units=GPa)
#
#
# Indices 1 2 3 4 5 6 
#
# 1 71.8716 28.6027 73.9006 0.0000 -12.7849 0.0000
# 2 28.6027 29.3717 48.5410 0.0000 -7.6496 0.0000
# 3 73.9006 48.5410 208.0964 0.0000 -18.1038 0.0000
# 4 0.0000 0.0000 0.0000 25.2548 0.0000 -10.9764
# 5 -12.7849 -7.6496 -18.1038 0.0000 9.4093 0.0000
# 6 0.0000 0.0000 0.0000 -10.9764 0.0000 21.0910
#
#
#
# Elastic Compliance Matrix: (Units=1/GPa)
#
#
# Indices 1 2 3 4 5 6 
#
# 1 0.027764 -0.014401 -0.005089 0.000000 0.016225 0.000000
# 2 -0.014401 0.067892 -0.009156 0.000000 0.018012 0.000000
# 3 -0.005089 -0.009156 0.009007 0.000000 0.002972 0.000000
# 4 0.000000 0.000000 0.000000 0.051171 0.000000 0.026631
# 5 0.016225 0.018012 0.002972 0.000000 0.148684 0.000000
# 6 0.000000 0.000000 0.000000 0.026631 0.000000 0.061273
#
#
# Mechanical properties :
#
#
# Convention : Reuss Voigt Hill
#
# Bulk Modulus (GPa) = 21.10956 67.93648 44.52302
# Shear Modulus (GPa) = 11.39283 21.70404 16.54844
#
# Velocity S-wave (km/s) = 2.50144 3.45258 3.01476
# Velocity P-wave (km/s) = 4.46506 7.29424 6.04742
#
# Compressibility (1/GPa) = 0.04737189
#
# Stress axis : x y z
#
# Youngs Moduli (GPa) = 36.01843 14.72919 111.02703
#
# Poissons Ratio (x) = 0.21212 0.56500
# Poissons Ratio (y) = 0.51870 1.01651
# Poissons Ratio (z) = 0.18329 0.13485
#
# Static dielectric constant tensor:
#      x y z
#    x 1.645190 0.000000 0.023720 
#    y 0.000000 1.627830 0.000000 
#    z 0.023720 0.000000 1.607750 
# 
# From -- ./inp_files/375024.got.cif
#   From: 2010.05.17/outbox.ucp.g08.bks.cvg/sg12_188_cif.got.tgz:375024.got - 2010.06.11 11:47:21.
