data_PCOD9223932
_publ_section_title
;
Structure prediction by ZEFSAII (Michael W. Deem and Ramdas Pophale) SiO2 
 PCOD9223932
Probable space group: C 2/M
;
_chemical_formula_sum "Si O2"
_cell_formula_units_Z 32
_cell_length_a 30.000000
_cell_length_b 9.000000
_cell_length_c 15.000000
_cell_angle_alpha 90.000000
_cell_angle_beta 50.000000
_cell_angle_gamma 90.000000
_cell_volume 3102.479995
_symmetry_space_group_name_H-M "C 2/M"
_symmetry_group_IT_number 12
_symmetry_cell_setting 'monoclinic'
loop_
_space_group_symop_operation_xyz
x,y,z
-x,y,-z
-x,-y,-z
x,-y,z
1/2+x,1/2+y,z
1/2-x,1/2+y,-z
1/2-x,1/2-y,-z
1/2+x,1/2-y,z
loop_
_atom_site_type_symbol
_atom_site_label
_atom_site_fract_x
_atom_site_fract_y
_atom_site_fract_z
Si Si1 0.387410 0.820954 0.891747
Si Si2 0.259300 0.820334 0.720508
Si Si3 0.922013 0.321349 0.215653
Si Si4 0.873965 0.179136 0.104017
Si Si5 0.164970 0.678896 0.220792
Si Si6 0.491435 0.321356 0.281016
Si Si7 0.694916 0.178341 0.522898
Si Si8 0.563343 0.673936 0.464169
O O1 0.341563 0.774016 0.873684
O O2 0.449134 0.764357 0.774759
O O3 0.386625 0.000000 0.903194
O O4 0.381391 0.742133 0.994930
O O5 0.192890 0.781473 0.785111
O O6 0.280699 0.766727 0.789617
O O7 0.301060 0.772170 0.585731
O O8 0.261179 0.000000 0.721043
O O9 0.930732 0.500000 0.201884
O O10 0.914394 0.255469 0.126519
O O11 0.970373 0.239635 0.212776
O O12 0.863008 0.287613 0.347531
O O13 0.881075 0.000000 0.095944
O O14 0.165682 0.500000 0.217741
O O15 0.109626 0.730462 0.350366
O O16 0.499895 0.500000 0.268527
O O17 0.446367 0.287554 0.419182
O O18 0.750000 0.250000 0.500000
O O19 0.701020 0.000000 0.515745
O O20 0.500000 0.688121 0.500000
O O21 0.580251 0.500000 0.436651
#
# Coordination Sequence:
#
# PCOD9223932 Si02
#       8
#     8   8   8   8   8   8   8   8
#     4  11  24  41  61  87 119 154 201 254 298 346
#     4   9  19  37  60  88 120 156 195 238 287 349
#     4  11  23  39  62  92 124 155 195 247 299 350
#     4  11  23  41  64  85 116 160 203 245 296 354
#     4  10  21  38  62  89 120 158 198 241 295 354
#     4  11  23  40  63  89 121 159 199 240 295 360
#     4  10  19  34  59  88 122 157 191 235 289 350
#     4  10  20  36  59  89 125 157 191 241 293 350
#
# _framework density 10.314329000000001
#
# number of rings (size 3 to 8) (size 9 to 14) (size 15 to 20)
#    0.000    1.625    2.500    2.250    0.000    4.250 
#    0.000    4.375    0.000    0.000    0.000    0.000 
#    0.000    0.000    0.000    0.000    0.000    0.000 
#
# Total GULP energy -178734.251481 kJ/mol
# GULP energy per Si atom -5585.445359 kJ/mol
# Density = 1.029085 g / cm^3
# Si number density = 10.314329 Si / 1000 Ang^3
#
#
#
# Elastic Constant Matrix: (Units=GPa)
#
#
# Indices 1 2 3 4 5 6 
#
# 1 105.9238 11.4081 3.5912 0.0000 39.1736 -0.0002
# 2 11.4081 36.8185 6.9587 -0.0001 12.7524 -0.0006
# 3 3.5912 6.9587 53.8077 0.0000 31.8794 0.0000
# 4 0.0000 -0.0001 0.0000 28.1293 0.0000 4.0347
# 5 39.1736 12.7524 31.8794 0.0000 42.0125 0.0000
# 6 -0.0002 -0.0006 0.0000 4.0347 0.0000 21.5404
#
#
#
# Elastic Compliance Matrix: (Units=1/GPa)
#
#
# Indices 1 2 3 4 5 6 
#
# 1 0.021700 0.001912 0.019323 0.000000 -0.035476 0.000000
# 2 0.001912 0.030751 0.004509 0.000000 -0.014538 0.000001
# 3 0.019323 0.004509 0.051228 0.000000 -0.058258 0.000000
# 4 0.000000 0.000000 0.000000 0.036532 0.000000 -0.006843
# 5 -0.035476 -0.014538 -0.058258 0.000000 0.105501 -0.000001
# 6 0.000000 0.000001 0.000000 -0.006843 -0.000001 0.047706
#
#
# Mechanical properties :
#
#
# Convention : Reuss Voigt Hill
#
# Bulk Modulus (GPa) = 6.44468 26.71843 16.58156
# Shear Modulus (GPa) = 17.02692 29.97590 23.50141
#
# Velocity S-wave (km/s) = 2.87610 3.81612 3.37895
# Velocity P-wave (km/s) = 3.76300 5.69185 4.82480
#
# Compressibility (1/GPa) = 0.15516669
#
# Stress axis : x y z
#
# Youngs Moduli (GPa) = 46.08324 32.51911 19.52055
#
# Poissons Ratio (x) = -0.06217 -0.37720
# Poissons Ratio (y) = -0.08810 -0.08802
# Poissons Ratio (z) = -0.89047 -0.14663
#
# Static dielectric constant tensor:
#      x y z
#    x 1.785450 0.000000 -0.009790 
#    y 0.000000 1.678110 0.000000 
#    z -0.009790 0.000000 1.759420 
# 
# From -- ./inp_files/249699.got.cif
#   From: 2010.05.17/outbox.ucp.g08.bks.cvg/sg12_125_cif.got.tgz:249699.got - 2010.06.11 11:47:21.
