data_PCOD9223038
_publ_section_title
;
Structure prediction by ZEFSAII (Michael W. Deem and Ramdas Pophale) SiO2 
 PCOD9223038
Probable space group: C 2/M
;
_chemical_formula_sum "Si O2"
_cell_formula_units_Z 32
_cell_length_a 29.457262
_cell_length_b 7.559151
_cell_length_c 16.450827
_cell_angle_alpha 90.000000
_cell_angle_beta 153.539185
_cell_angle_gamma 90.000000
_cell_volume 1632.241201
_symmetry_space_group_name_H-M "C 2/M"
_symmetry_group_IT_number 12
_symmetry_cell_setting 'monoclinic'
loop_
_space_group_symop_operation_xyz
x,y,z
-x,y,-z
-x,-y,-z
x,-y,z
1/2+x,1/2+y,z
1/2-x,1/2+y,-z
1/2-x,1/2-y,-z
1/2+x,1/2-y,z
loop_
_atom_site_type_symbol
_atom_site_label
_atom_site_fract_x
_atom_site_fract_y
_atom_site_fract_z
Si Si1 0.926261 0.716623 0.000135
Si Si2 0.323042 0.787232 0.000133
Si Si3 0.356408 0.788689 0.713037
Si Si4 0.897862 0.288171 0.294365
O O1 0.924711 0.500000 0.999521
O O2 0.043658 0.773277 0.175992
O O3 0.875031 0.778721 0.001138
O O4 0.867273 0.773767 0.823700
O O5 0.203458 0.746186 0.815779
O O6 0.332531 0.000000 0.015665
O O7 0.375220 0.719866 0.166999
O O8 0.250000 0.750000 0.500000
O O9 0.365814 0.000000 0.731878
O O10 0.908855 0.500000 0.305023
O O11 0.000000 0.218386 0.500000
#
# Coordination Sequence:
#
# PCOD9223038 Si02
#       4
#     8   8   8   8
#     4   8  16  31  48  65  90 124 152 177 219 274
#     4   9  17  31  49  66  88 121 156 183 215 266
#     4   9  17  31  49  68  91 118 150 185 222 265
#     4   9  18  31  46  67  94 119 146 186 230 264
#
# _framework density 19.604945000000001
#
# number of rings (size 3 to 8) (size 9 to 14) (size 15 to 20)
#    0.000    3.250    0.000    1.500    0.000    2.500 
#    0.000    7.500    0.000    0.000    0.000    0.000 
#    0.000    0.000    0.000    0.000    0.000    0.000 
#
# Total GULP energy -89201.863082 kJ/mol
# GULP energy per Si atom -5575.116443 kJ/mol
# Density = 1.956032 g / cm^3
# Si number density = 19.604945 Si / 1000 Ang^3
#
#
#
# Elastic Constant Matrix: (Units=GPa)
#
#
# Indices 1 2 3 4 5 6 
#
# 1 215.2169 2.4604 125.7617 0.0000 3.0654 0.0000
# 2 2.4604 42.3961 2.3840 0.0000 -2.2735 0.0000
# 3 125.7617 2.3840 208.6956 0.0000 9.1823 0.0000
# 4 0.0000 0.0000 0.0000 16.7042 0.0000 4.3873
# 5 3.0654 -2.2735 9.1823 0.0000 7.6220 0.0000
# 6 0.0000 0.0000 0.0000 4.3873 0.0000 12.4134
#
#
#
# Elastic Compliance Matrix: (Units=1/GPa)
#
#
# Indices 1 2 3 4 5 6 
#
# 1 0.007216 -0.000037 -0.004456 0.000000 0.002455 0.000000
# 2 -0.000037 0.024047 -0.000601 0.000000 0.007911 0.000000
# 3 -0.004456 -0.000601 0.007828 0.000000 -0.007817 0.000000
# 4 0.000000 0.000000 0.000000 0.065991 0.000000 -0.023323
# 5 0.002455 0.007911 -0.007817 0.000000 0.141989 0.000000
# 6 0.000000 0.000000 0.000000 -0.023323 0.000000 0.088801
#
#
# Mechanical properties :
#
#
# Convention : Reuss Voigt Hill
#
# Bulk Modulus (GPa) = 34.59705 80.83565 57.71635
# Shear Modulus (GPa) = 14.05706 29.72809 21.89257
#
# Velocity S-wave (km/s) = 2.68062 3.89827 3.34531
# Velocity P-wave (km/s) = 5.22172 7.84753 6.66521
#
# Compressibility (1/GPa) = 0.02890420
#
# Stress axis : x y z
#
# Youngs Moduli (GPa) = 138.58699 41.58489 127.75306
#
# Poissons Ratio (x) = 0.00152 0.56925
# Poissons Ratio (y) = 0.00506 0.07675
# Poissons Ratio (z) = 0.61752 0.02498
#
# Static dielectric constant tensor:
#      x y z
#    x 1.672300 0.000000 -0.016590 
#    y 0.000000 1.737150 0.000000 
#    z -0.016590 0.000000 1.676920 
# 
# From -- ./inp_files/127316.got.cif
#   From: 2010.05.17/outbox.cif.g08.bks.cpg/sg12_64_cif.got.tgz:127316.got - 2010.06.03 13:09:07.
