data_PCOD9223156
_publ_section_title
;
Structure prediction by ZEFSAII (Michael W. Deem and Ramdas Pophale) SiO2 
 PCOD9223156
Probable space group: C 2/M
;
_chemical_formula_sum "Si O2"
_cell_formula_units_Z 19
_cell_length_a 12.000000
_cell_length_b 21.000000
_cell_length_c 12.000000
_cell_angle_alpha 90.000000
_cell_angle_beta 40.000000
_cell_angle_gamma 90.000000
_cell_volume 1943.789732
_symmetry_space_group_name_H-M "C 2/M"
_symmetry_group_IT_number 12
_symmetry_cell_setting 'monoclinic'
loop_
_space_group_symop_operation_xyz
x,y,z
-x,y,-z
-x,-y,-z
x,-y,z
1/2+x,1/2+y,z
1/2-x,1/2+y,-z
1/2-x,1/2-y,-z
1/2+x,1/2-y,z
loop_
_atom_site_type_symbol
_atom_site_label
_atom_site_fract_x
_atom_site_fract_y
_atom_site_fract_z
Si Si1 0.500000 0.785587 0.500000
Si Si2 0.828742 0.636324 0.430090
Si Si3 0.985035 0.000000 0.878334
Si Si4 0.563307 0.603900 0.254466
Si Si5 0.375950 0.000000 0.486652
Si Si6 0.183731 0.306912 0.807311
Si Si7 0.000000 0.000000 0.500000
O O1 0.565526 0.825308 0.557026
O O2 0.666900 0.744544 0.334248
O O3 0.621137 0.640702 0.615777
O O4 0.887506 0.563106 0.402851
O O5 0.851870 0.659063 0.285122
O O6 0.902548 0.062835 0.883841
O O7 0.181750 0.000000 0.683343
O O8 0.000000 0.000000 0.000000
O O9 0.722200 0.646612 0.175167
O O10 0.527497 0.554883 0.382618
O O11 0.500000 0.000000 0.500000
O O12 0.000000 0.284704 0.000000
#
# Coordination Sequence:
#
# PCOD9223156 Si02
#       7
#     4   8   4   8   4   8   2
#     4  12  25  47  70  93 139 182 228 284 330 390
#     4  11  22  44  71  96 136 177 221 282 341 403
#     4   9  21  36  63  96 141 177 213 278 342 400
#     4  10  20  39  68  94 133 181 222 270 347 396
#     4  10  21  39  67 101 129 175 218 263 351 413
#     4  12  26  43  69 102 130 180 235 278 330 396
#     4  10  14  36  74  90 124 186 212 272 330 414
#
# _framework density 9.7747200000000003
#
# number of rings (size 3 to 8) (size 9 to 14) (size 15 to 20)
#    0.000    1.263    5.263    1.263    0.000    2.526 
#    0.000    4.737    0.000    0.000    0.000    0.000 
#    0.000    0.000    0.000    0.000    0.000    0.000 
#
# Total GULP energy -105838.545655 kJ/mol
# GULP energy per Si atom -5570.449771 kJ/mol
# Density = 0.975247 g / cm^3
# Si number density = 9.774720 Si / 1000 Ang^3
#
#
#
# Elastic Constant Matrix: (Units=GPa)
#
#
# Indices 1 2 3 4 5 6 
#
# 1 147.7339 65.2260 45.5482 -0.0001 7.8006 0.0000
# 2 65.2260 104.1404 52.9423 0.0000 0.0251 0.0000
# 3 45.5482 52.9423 96.7273 -0.0003 1.8472 0.0001
# 4 -0.0001 0.0000 -0.0003 4.0225 0.0002 -0.4701
# 5 7.8006 0.0251 1.8472 0.0002 46.7014 0.0000
# 6 0.0000 0.0000 0.0001 -0.4701 0.0000 35.8402
#
#
#
# Elastic Compliance Matrix: (Units=1/GPa)
#
#
# Indices 1 2 3 4 5 6 
#
# 1 0.009663 -0.005201 -0.001674 0.000000 -0.001545 0.000000
# 2 -0.005201 0.016107 -0.006388 -0.000001 0.001113 0.000000
# 3 -0.001674 -0.006388 0.014629 0.000001 -0.000296 0.000000
# 4 0.000000 -0.000001 0.000001 0.248984 -0.000001 0.003266
# 5 -0.001545 0.001113 -0.000296 -0.000001 0.021682 0.000000
# 6 0.000000 0.000000 0.000000 0.003266 0.000000 0.027945
#
#
# Mechanical properties :
#
#
# Convention : Reuss Voigt Hill
#
# Bulk Modulus (GPa) = 72.08440 75.11495 73.59967
# Shear Modulus (GPa) = 13.50771 29.63848 21.57310
#
# Velocity S-wave (km/s) = 2.63145 3.89791 3.32552
# Velocity P-wave (km/s) = 6.79600 7.66582 7.24397
#
# Compressibility (1/GPa) = 0.01387263
#
# Stress axis : x y z
#
# Youngs Moduli (GPa) = 103.48980 62.08444 68.35786
#
# Poissons Ratio (x) = 0.32288 0.11444
# Poissons Ratio (y) = 0.53821 0.43669
# Poissons Ratio (z) = 0.17326 0.39662
#
# Static dielectric constant tensor:
#      x y z
#    x 1.700730 0.000000 -0.019370 
#    y 0.000000 1.735980 0.000000 
#    z -0.019370 0.000000 1.665820 
# 
# From -- ./inp_files/133693.got.cif
#   From: 2010.05.17/outbox.ucp.g08.bks.cvg/sg12_67_cif.got.tgz:133693.got - 2010.06.11 11:47:21.
