data_PCOD9223435
_publ_section_title
;
Structure prediction by ZEFSAII (Michael W. Deem and Ramdas Pophale) SiO2 
 PCOD9223435
Probable space group: C 2/M
;
_chemical_formula_sum "Si O2"
_cell_formula_units_Z 28
_cell_length_a 18.000000
_cell_length_b 18.000000
_cell_length_c 30.000000
_cell_angle_alpha 90.000000
_cell_angle_beta 20.000000
_cell_angle_gamma 90.000000
_cell_volume 3324.435793
_symmetry_space_group_name_H-M "C 2/M"
_symmetry_group_IT_number 12
_symmetry_cell_setting 'monoclinic'
loop_
_space_group_symop_operation_xyz
x,y,z
-x,y,-z
-x,-y,-z
x,-y,z
1/2+x,1/2+y,z
1/2-x,1/2+y,-z
1/2-x,1/2-y,-z
1/2+x,1/2-y,z
loop_
_atom_site_type_symbol
_atom_site_label
_atom_site_fract_x
_atom_site_fract_y
_atom_site_fract_z
Si Si1 0.208692 0.294848 0.352078
Si Si2 0.626360 0.587618 0.476203
Si Si3 0.179444 0.189272 0.291246
Si Si4 0.032138 0.323441 0.216280
Si Si5 0.835586 0.664144 0.950833
Si Si6 0.259074 0.306760 0.848530
Si Si7 0.035241 0.911760 0.192695
O O1 0.163482 0.267940 0.327076
O O2 0.382700 0.236696 0.274161
O O3 0.308028 0.375587 0.304928
O O4 0.000000 0.285293 0.500000
O O5 0.500000 0.596462 0.500000
O O6 0.630073 0.500000 0.484565
O O7 0.495498 0.635134 0.586770
O O8 0.866513 0.621152 0.333720
O O9 0.420808 0.161175 0.167465
O O10 0.168765 0.191983 0.243871
O O11 0.163827 0.359936 0.101215
O O12 0.177784 0.273449 0.166429
O O13 0.750000 0.750000 0.000000
O O14 0.693670 0.614085 0.063431
O O15 0.381030 0.368885 0.809975
O O16 0.000000 0.317871 0.000000
O O17 0.030906 0.000000 0.200950
#
# Coordination Sequence:
#
# PCOD9223435 Si02
#       7
#     8   8   8   8   8   8   8
#     4  10  18  37  61  81 107 144 200 239 264 324
#     4  11  21  35  56  86 113 140 183 237 289 326
#     4  11  19  34  59  83 108 148 189 231 275 329
#     4  10  19  35  58  84 108 143 190 233 273 331
#     4  11  17  34  58  80 107 143 189 233 266 326
#     4  11  22  36  57  84 111 150 186 228 281 338
#     4  11  24  37  55  86 119 148 182 232 290 337
#
# _framework density 8.4224820000000005
#
# number of rings (size 3 to 8) (size 9 to 14) (size 15 to 20)
#    0.000    1.286   10.000    0.000    0.000    2.857 
#    0.000    0.000    0.000    1.286    0.000    0.000 
#    0.000    0.000    0.000    0.000    0.000    0.000 
#
# Total GULP energy -156094.806278 kJ/mol
# GULP energy per Si atom -5574.814510 kJ/mol
# Density = 0.840331 g / cm^3
# Si number density = 8.422482 Si / 1000 Ang^3
#
#
#
# Elastic Constant Matrix: (Units=GPa)
#
#
# Indices 1 2 3 4 5 6 
#
# 1 123.5360 55.4523 42.2931 -0.0414 37.0668 -0.0051
# 2 55.4523 94.2661 25.4280 0.0079 0.8268 0.0190
# 3 42.2931 25.4280 72.4018 0.0486 25.4305 0.0412
# 4 -0.0414 0.0079 0.0486 22.4869 0.0126 -0.2596
# 5 37.0668 0.8268 25.4305 0.0126 25.6533 -0.0019
# 6 -0.0051 0.0190 0.0412 -0.2596 -0.0019 16.5006
#
#
#
# Elastic Compliance Matrix: (Units=1/GPa)
#
#
# Indices 1 2 3 4 5 6 
#
# 1 0.027088 -0.017091 0.005728 0.000068 -0.044267 0.000010
# 2 -0.017091 0.023068 -0.010019 -0.000037 0.033884 -0.000004
# 3 0.005728 -0.010019 0.025741 -0.000024 -0.033471 -0.000055
# 4 0.000068 -0.000037 -0.000024 0.044479 -0.000096 0.000700
# 5 -0.044267 0.033884 -0.033471 -0.000096 0.135031 0.000045
# 6 0.000010 -0.000004 -0.000055 0.000700 0.000045 0.060615
#
#
# Mechanical properties :
#
#
# Convention : Reuss Voigt Hill
#
# Bulk Modulus (GPa) = 30.18331 59.61676 44.90003
# Shear Modulus (GPa) = 13.51969 24.06353 18.79161
#
# Velocity S-wave (km/s) = 2.83608 3.78369 3.34363
# Velocity P-wave (km/s) = 5.35553 7.38625 6.45129
#
# Compressibility (1/GPa) = 0.03313089
#
# Stress axis : x y z
#
# Youngs Moduli (GPa) = 36.91669 43.35062 38.84821
#
# Poissons Ratio (x) = 0.74092 -0.22250
# Poissons Ratio (y) = 0.63095 0.38923
# Poissons Ratio (z) = -0.21144 0.43434
#
# Static dielectric constant tensor:
#      x y z
#    x 1.575330 -0.000010 0.014860 
#    y -0.000010 1.566360 0.000040 
#    z 0.014860 0.000040 1.610230 
# 
# From -- ./inp_files/225363.got.cif
#   From: 2010.05.17/outbox.ucp.g08.bks.cvg/sg12_113_cif.got.tgz:225363.got - 2010.06.11 11:47:21.
