data_PCOD9223551
_publ_section_title
;
Structure prediction by ZEFSAII (Michael W. Deem and Ramdas Pophale) SiO2 
 PCOD9223551
Probable space group: C 2/M
;
_chemical_formula_sum "Si O2"
_cell_formula_units_Z 32
_cell_length_a 24.000000
_cell_length_b 9.000000
_cell_length_c 18.000000
_cell_angle_alpha 90.000000
_cell_angle_beta 80.000000
_cell_angle_gamma 90.000000
_cell_volume 3828.932544
_symmetry_space_group_name_H-M "C 2/M"
_symmetry_group_IT_number 12
_symmetry_cell_setting 'monoclinic'
loop_
_space_group_symop_operation_xyz
x,y,z
-x,y,-z
-x,-y,-z
x,-y,z
1/2+x,1/2+y,z
1/2-x,1/2+y,-z
1/2-x,1/2-y,-z
1/2+x,1/2-y,z
loop_
_atom_site_type_symbol
_atom_site_label
_atom_site_fract_x
_atom_site_fract_y
_atom_site_fract_z
Si Si1 0.963905 0.820194 0.790116
Si Si2 0.320628 0.678776 0.405582
Si Si3 0.138240 0.180204 0.294803
Si Si4 0.382225 0.680525 0.945005
Si Si5 0.187107 0.321540 0.431195
Si Si6 0.218973 0.179490 0.140773
Si Si7 0.597030 0.319355 0.753554
Si Si8 0.649027 0.819638 0.892449
O O1 0.920606 0.776546 0.733384
O O2 0.933244 0.777495 0.875716
O O3 0.029856 0.776243 0.764415
O O4 0.963515 0.000000 0.790456
O O5 0.324896 0.500000 0.413866
O O6 0.254359 0.712993 0.402541
O O7 0.330198 0.755423 0.483938
O O8 0.364321 0.720020 0.328430
O O9 0.151409 0.252868 0.371265
O O10 0.188251 0.222803 0.225028
O O11 0.138357 0.000000 0.302056
O O12 0.383370 0.500000 0.952536
O O13 0.323767 0.723773 0.915701
O O14 0.381268 0.755347 0.026346
O O15 0.181331 0.500000 0.433905
O O16 0.284211 0.226409 0.119434
O O17 0.219181 0.000000 0.139970
O O18 0.599444 0.500000 0.759600
O O19 0.622716 0.246024 0.822385
O O20 0.645863 0.000000 0.892532
#
# Coordination Sequence:
#
# PCOD9223551 Si02
#       8
#     8   8   8   8   8   8   8   8
#     4   8  17  34  55  73  91 123 168 210 240 273
#     4   9  19  34  52  74 100 129 160 195 235 282
#     4   9  16  31  54  75  95 125 164 201 239 283
#     4   9  17  33  53  71  93 126 166 203 240 282
#     4  10  19  31  50  78 106 128 153 189 238 293
#     4   8  16  30  49  72  99 128 159 198 242 288
#     4  10  20  36  54  71  93 125 167 207 239 277
#     4  11  21  31  46  73 103 129 158 196 247 297
#
# _framework density 8.3574210000000004
#
# number of rings (size 3 to 8) (size 9 to 14) (size 15 to 20)
#    0.000    2.750    0.000    3.375    0.000    1.500 
#    0.000    8.125    0.000    3.750    0.000    0.000 
#    0.000    0.000    0.000    0.000    0.000    0.000 
#
# Total GULP energy -178324.010061 kJ/mol
# GULP energy per Si atom -5572.625314 kJ/mol
# Density = 0.833840 g / cm^3
# Si number density = 8.357421 Si / 1000 Ang^3
#
#
#
# Elastic Constant Matrix: (Units=GPa)
#
#
# Indices 1 2 3 4 5 6 
#
# 1 124.3807 27.6918 85.5096 0.0000 -10.6938 0.0000
# 2 27.6918 38.4479 43.5249 0.0000 2.0879 0.0000
# 3 85.5096 43.5249 180.1955 0.0000 2.4214 0.0000
# 4 0.0000 0.0000 0.0000 29.9202 0.0000 3.5204
# 5 -10.6938 2.0879 2.4214 0.0000 28.1512 0.0000
# 6 0.0000 0.0000 0.0000 3.5204 0.0000 23.2045
#
#
#
# Elastic Compliance Matrix: (Units=1/GPa)
#
#
# Indices 1 2 3 4 5 6 
#
# 1 0.013037 -0.003590 -0.005396 0.000000 0.005683 0.000000
# 2 -0.003590 0.036890 -0.007160 0.000000 -0.003484 0.000000
# 3 -0.005396 -0.007160 0.009871 0.000000 -0.002368 0.000000
# 4 0.000000 0.000000 0.000000 0.034030 0.000000 -0.005163
# 5 0.005683 -0.003484 -0.002368 0.000000 0.038143 0.000000
# 6 0.000000 0.000000 0.000000 -0.005163 0.000000 0.043878
#
#
# Mechanical properties :
#
#
# Convention : Reuss Voigt Hill
#
# Bulk Modulus (GPa) = 36.35538 72.94183 54.64861
# Shear Modulus (GPa) = 23.00857 28.67504 25.84181
#
# Velocity S-wave (km/s) = 3.71419 4.14641 3.93624
# Velocity P-wave (km/s) = 6.33966 8.16439 7.30919
#
# Compressibility (1/GPa) = 0.02750625
#
# Stress axis : x y z
#
# Youngs Moduli (GPa) = 76.70300 27.10790 101.30372
#
# Poissons Ratio (x) = 0.09732 0.54662
# Poissons Ratio (y) = 0.27538 0.72532
# Poissons Ratio (z) = 0.41388 0.19409
#
# Static dielectric constant tensor:
#      x y z
#    x 1.577000 0.000000 -0.004430 
#    y 0.000000 1.556020 0.000000 
#    z -0.004430 0.000000 1.555640 
# 
# From -- ./inp_files/287590.got.cif
#   From: 2010.05.17/outbox.ucp.g08.bks.cvg/sg12_144_cif.got.tgz:287590.got - 2010.06.11 11:47:21.
