data_PCOD9223789
_publ_section_title
;
Structure prediction by ZEFSAII (Michael W. Deem and Ramdas Pophale) SiO2 
 PCOD9223789
Probable space group: C 2/M
;
_chemical_formula_sum "Si O2"
_cell_formula_units_Z 32
_cell_length_a 15.000000
_cell_length_b 9.000000
_cell_length_c 30.000000
_cell_angle_alpha 90.000000
_cell_angle_beta 60.000000
_cell_angle_gamma 90.000000
_cell_volume 3507.402885
_symmetry_space_group_name_H-M "C 2/M"
_symmetry_group_IT_number 12
_symmetry_cell_setting 'monoclinic'
loop_
_space_group_symop_operation_xyz
x,y,z
-x,y,-z
-x,-y,-z
x,-y,z
1/2+x,1/2+y,z
1/2-x,1/2+y,-z
1/2-x,1/2-y,-z
1/2+x,1/2-y,z
loop_
_atom_site_type_symbol
_atom_site_label
_atom_site_fract_x
_atom_site_fract_y
_atom_site_fract_z
Si Si1 0.518642 0.321270 0.356593
Si Si2 0.117016 0.173719 0.987949
Si Si3 0.957266 0.820843 0.898871
Si Si4 0.203495 0.178689 0.628197
Si Si5 0.279021 0.677587 0.881990
Si Si6 0.081123 0.178304 0.442353
Si Si7 0.734976 0.822367 0.286021
Si Si8 0.170110 0.677751 0.822531
O O1 0.526604 0.500000 0.348608
O O2 0.407327 0.274871 0.364527
O O3 0.532371 0.288723 0.405904
O O4 0.619956 0.245087 0.310508
O O5 0.110356 0.221702 0.041054
O O6 0.144852 0.000000 0.979627
O O7 0.194008 0.258930 0.936803
O O8 0.000000 0.188315 0.000000
O O9 0.890879 0.783298 0.872156
O O10 0.063807 0.735776 0.869860
O O11 0.974718 0.000000 0.897277
O O12 0.306202 0.249095 0.581004
O O13 0.217517 0.215015 0.677227
O O14 0.208983 0.000000 0.622213
O O15 0.270662 0.500000 0.886234
O O16 0.255905 0.722368 0.837451
O O17 0.000000 0.226625 0.500000
O O18 0.906491 0.000000 0.557883
O O19 0.805581 0.755063 0.229946
O O20 0.730005 0.000000 0.283920
O O21 0.168720 0.500000 0.818045
#
# Coordination Sequence:
#
# PCOD9223789 Si02
#       8
#     8   8   8   8   8   8   8   8
#     4   9  18  35  56  77 106 142 178 217 260 309
#     4  10  19  33  56  81 105 135 169 208 253 302
#     4  10  21  38  56  77 106 138 170 207 255 308
#     4   9  19  35  55  78 104 140 182 219 261 310
#     4  10  22  37  55  78 105 137 171 208 253 310
#     4   9  18  32  51  79 114 147 178 215 259 305
#     4  10  21  37  56  77 102 134 174 221 267 311
#     4  11  23  38  55  78 105 135 172 214 262 313
#
# _framework density 9.1235599999999994
#
# number of rings (size 3 to 8) (size 9 to 14) (size 15 to 20)
#    0.000    2.250    1.250    1.125    0.000    4.500 
#    0.000    5.000    0.000    0.000    0.000    0.000 
#    0.000    0.000    0.000    0.000    0.000    0.000 
#
# Total GULP energy -178492.291500 kJ/mol
# GULP energy per Si atom -5577.884109 kJ/mol
# Density = 0.910279 g / cm^3
# Si number density = 9.123560 Si / 1000 Ang^3
#
#
#
# Elastic Constant Matrix: (Units=GPa)
#
#
# Indices 1 2 3 4 5 6 
#
# 1 88.6449 19.1307 3.1706 0.0000 1.9724 0.0000
# 2 19.1307 7.8171 9.7288 0.0000 3.8577 0.0000
# 3 3.1706 9.7288 47.4714 0.0000 4.2541 0.0000
# 4 0.0000 0.0000 0.0000 29.5965 0.0000 -7.0100
# 5 1.9724 3.8577 4.2541 0.0000 13.2382 0.0000
# 6 0.0000 0.0000 0.0000 -7.0100 0.0000 26.6496
#
#
#
# Elastic Compliance Matrix: (Units=1/GPa)
#
#
# Indices 1 2 3 4 5 6 
#
# 1 0.040939 -0.144359 0.024328 0.000000 0.028150 0.000000
# 2 -0.144359 0.703976 -0.121679 0.000000 -0.144535 0.000000
# 3 0.024328 -0.121679 0.042756 0.000000 0.018094 0.000000
# 4 0.000000 0.000000 0.000000 0.036033 0.000000 0.009478
# 5 0.028150 -0.144535 0.018094 0.000000 0.107649 0.000000
# 6 0.000000 0.000000 0.000000 0.009478 0.000000 0.040017
#
#
# Mechanical properties :
#
#
# Convention : Reuss Voigt Hill
#
# Bulk Modulus (GPa) = 3.28675 23.11040 13.19857
# Shear Modulus (GPa) = 3.21294 21.35708 12.28501
#
# Velocity S-wave (km/s) = 1.32839 3.42487 2.59754
# Velocity P-wave (km/s) = 2.03911 5.32282 4.03053
#
# Compressibility (1/GPa) = 0.30425164
#
# Stress axis : x y z
#
# Youngs Moduli (GPa) = 24.42667 1.42050 23.38859
#
# Poissons Ratio (x) = 0.20506 -0.56900
# Poissons Ratio (y) = 3.52620 2.84590
# Poissons Ratio (z) = -0.59425 0.17285
#
# Static dielectric constant tensor:
#      x y z
#    x 1.643240 0.000000 0.030580 
#    y 0.000000 1.611130 0.000000 
#    z 0.030580 0.000000 1.622200 
# 
# From -- ./inp_files/359736.got.cif
#   From: 2010.05.17/outbox.ucp.g08.bks.cvg/sg12_180_cif.got.tgz:359736.got - 2010.06.11 11:47:21.
