data_PCOD9223536
_publ_section_title
;
Structure prediction by ZEFSAII (Michael W. Deem and Ramdas Pophale) SiO2 
 PCOD9223536
Probable space group: C 2/M
;
_chemical_formula_sum "Si O2"
_cell_formula_units_Z 28
_cell_length_a 30.000000
_cell_length_b 9.000000
_cell_length_c 18.000000
_cell_angle_alpha 90.000000
_cell_angle_beta 40.000000
_cell_angle_gamma 90.000000
_cell_volume 3123.947783
_symmetry_space_group_name_H-M "C 2/M"
_symmetry_group_IT_number 12
_symmetry_cell_setting 'monoclinic'
loop_
_space_group_symop_operation_xyz
x,y,z
-x,y,-z
-x,-y,-z
x,-y,z
1/2+x,1/2+y,z
1/2-x,1/2+y,-z
1/2-x,1/2-y,-z
1/2+x,1/2-y,z
loop_
_atom_site_type_symbol
_atom_site_label
_atom_site_fract_x
_atom_site_fract_y
_atom_site_fract_z
Si Si1 0.761498 0.676787 0.372218
Si Si2 0.691680 0.832132 0.336560
Si Si3 0.710606 0.169124 0.138566
Si Si4 0.955516 0.825673 0.485555
Si Si5 0.859060 0.821534 0.893397
Si Si6 0.504672 0.325341 0.735467
Si Si7 0.859768 0.677311 0.374235
O O1 0.753551 0.500000 0.380920
O O2 0.750492 0.744073 0.305552
O O3 0.831815 0.712640 0.327005
O O4 0.697283 0.746440 0.500014
O O5 0.707065 0.835282 0.230461
O O6 0.616706 0.756758 0.436057
O O7 0.688055 0.000000 0.370612
O O8 0.649997 0.264132 0.178890
O O9 0.704607 0.000000 0.117536
O O10 0.786685 0.228460 0.021208
O O11 0.991600 0.814394 0.359138
O O12 0.000000 0.770510 0.500000
O O13 0.941334 0.000000 0.517831
O O14 0.926924 0.770103 0.850079
O O15 0.861882 0.000000 0.889638
O O16 0.512348 0.500000 0.744162
O O17 0.565640 0.237819 0.697752
O O18 0.857339 0.500000 0.386237
#
# Coordination Sequence:
#
# PCOD9223536 Si02
#       7
#     8   8   8   8   8   8   8
#     4  10  20  34  51  72  99 131 167 203 244 301
#     4  11  21  32  49  74 102 133 165 205 252 292
#     4   9  19  34  51  74 102 131 170 213 247 286
#     4  10  20  32  46  69 101 134 165 198 241 299
#     4   9  18  34  54  74  98 133 173 208 245 291
#     4  10  19  31  50  74 100 132 166 203 246 296
#     4  10  20  33  51  74 100 129 162 205 252 297
#
# _framework density 8.9630179999999999
#
# number of rings (size 3 to 8) (size 9 to 14) (size 15 to 20)
#    0.000    2.143    1.429    2.143    0.000    4.857 
#    0.000    0.000    0.000    0.857    0.000    6.000 
#    0.000    0.000    0.000    0.000    0.000    0.000 
#
# Total GULP energy -155961.179345 kJ/mol
# GULP energy per Si atom -5570.042119 kJ/mol
# Density = 0.894262 g / cm^3
# Si number density = 8.963018 Si / 1000 Ang^3
#
#
#
# Elastic Constant Matrix: (Units=GPa)
#
#
# Indices 1 2 3 4 5 6 
#
# 1 120.8842 43.4284 25.5764 -0.0110 -35.3494 0.0062
# 2 43.4284 43.1179 17.7397 -0.0091 -14.5256 0.0043
# 3 25.5764 17.7397 27.7593 -0.0066 -16.5066 0.0025
# 4 -0.0110 -0.0091 -0.0066 -16.5421 0.0001 23.7474
# 5 -35.3494 -14.5256 -16.5066 0.0001 23.8619 0.0020
# 6 0.0062 0.0043 0.0025 23.7474 0.0020 12.0913
#
#
#
# Elastic Compliance Matrix: (Units=1/GPa)
#
#
# Indices 1 2 3 4 5 6 
#
# 1 0.018682 -0.013030 0.004849 -0.000006 0.023099 0.000001
# 2 -0.013030 0.041709 -0.018737 -0.000003 -0.006875 0.000003
# 3 0.004849 -0.018737 0.069683 -0.000012 0.043981 0.000006
# 4 -0.000006 -0.000003 -0.000012 -0.015827 -0.000021 0.031085
# 5 0.023099 -0.006875 0.043981 -0.000021 0.102366 0.000006
# 6 0.000001 0.000003 0.000006 0.031085 0.000006 0.021653
#
#
# Mechanical properties :
#
#
# Convention : Reuss Voigt Hill
#
# Bulk Modulus (GPa) = 13.11677 40.58338 26.85007
# Shear Modulus (GPa) = 15.74731 10.88333 13.31532
#
# Velocity S-wave (km/s) = 2.96710 2.46666 2.72838
# Velocity P-wave (km/s) = 4.36707 5.54987 4.99361
#
# Compressibility (1/GPa) = 0.07623827
#
# Stress axis : x y z
#
# Youngs Moduli (GPa) = 53.52698 23.97558 14.35076
#
# Poissons Ratio (x) = 0.31241 -0.06959
# Poissons Ratio (y) = 0.69747 0.26889
# Poissons Ratio (z) = -0.25956 0.44922
#
# Static dielectric constant tensor:
#      x y z
#    x 1.627700 0.000000 0.032860 
#    y 0.000000 1.620920 0.000000 
#    z 0.032860 0.000000 1.667210 
# 
# From -- ./inp_files/287343.got.cif
#   From: 2010.05.17/outbox.ucp.g08.bks.cvg/sg12_144_cif.got.tgz:287343.got - 2010.06.11 11:47:21.
