data_PCOD9223911
_publ_section_title
;
Structure prediction by ZEFSAII (Michael W. Deem and Ramdas Pophale) SiO2 
 PCOD9223911
Probable space group: C 2/M
;
_chemical_formula_sum "Si O2"
_cell_formula_units_Z 32
_cell_length_a 24.000000
_cell_length_b 9.000000
_cell_length_c 21.000000
_cell_angle_alpha 90.000000
_cell_angle_beta 120.000000
_cell_angle_gamma 90.000000
_cell_volume 3928.291232
_symmetry_space_group_name_H-M "C 2/M"
_symmetry_group_IT_number 12
_symmetry_cell_setting 'monoclinic'
loop_
_space_group_symop_operation_xyz
x,y,z
-x,y,-z
-x,-y,-z
x,-y,z
1/2+x,1/2+y,z
1/2-x,1/2+y,-z
1/2-x,1/2-y,-z
1/2+x,1/2-y,z
loop_
_atom_site_type_symbol
_atom_site_label
_atom_site_fract_x
_atom_site_fract_y
_atom_site_fract_z
Si Si1 0.216845 0.178587 0.792249
Si Si2 0.439384 0.324114 0.816734
Si Si3 0.413834 0.176662 0.236951
Si Si4 0.208907 0.320408 0.034227
Si Si5 0.705720 0.320102 0.278480
Si Si6 0.297201 0.178888 0.580495
Si Si7 0.942762 0.676495 0.681375
Si Si8 0.429513 0.822489 0.094483
O O1 0.144308 0.232946 0.765411
O O2 0.260023 0.219010 0.879563
O O3 0.244194 0.255514 0.744115
O O4 0.218933 0.000000 0.786643
O O5 0.446086 0.500000 0.826696
O O6 0.365631 0.283224 0.790927
O O7 0.441950 0.273963 0.744527
O O8 0.501702 0.248528 0.884102
O O9 0.485891 0.204948 0.306215
O O10 0.416655 0.210387 0.162397
O O11 0.400921 0.000000 0.235640
O O12 0.211850 0.500000 0.029964
O O13 0.250000 0.250000 0.000000
O O14 0.133954 0.276202 0.981184
O O15 0.710306 0.500000 0.286663
O O16 0.712233 0.248711 0.353473
O O17 0.250000 0.250000 0.500000
O O18 0.373831 0.203565 0.608304
O O19 0.287178 0.000000 0.577487
O O20 0.943050 0.500000 0.698785
O O21 0.435990 0.000000 0.093009
#
# Coordination Sequence:
#
# PCOD9223911 Si02
#       8
#     8   8   8   8   8   8   8   8
#     4  11  22  33  49  74 102 135 174 216 261 306
#     4   9  17  29  48  72  95 124 167 216 257 296
#     4   9  16  29  49  71  98 134 172 208 250 299
#     4  10  20  33  48  70 100 133 174 218 262 309
#     4  10  21  37  54  74 103 138 173 208 253 308
#     4  10  19  34  58  86 112 136 165 203 247 297
#     4   8  16  30  49  74 104 135 165 200 245 299
#     4   9  17  30  48  69  96 131 169 212 263 312
#
# _framework density 8.1460360000000005
#
# number of rings (size 3 to 8) (size 9 to 14) (size 15 to 20)
#    0.000    2.500    1.250    2.250    0.000    5.000 
#    0.000    0.625    0.000    4.500    0.000    5.250 
#    0.000    0.000    0.000    0.000    0.000    0.000 
#
# Total GULP energy -178208.121630 kJ/mol
# GULP energy per Si atom -5569.003801 kJ/mol
# Density = 0.812749 g / cm^3
# Si number density = 8.146036 Si / 1000 Ang^3
#
#
#
# Elastic Constant Matrix: (Units=GPa)
#
#
# Indices 1 2 3 4 5 6 
#
# 1 109.4336 40.8949 51.3098 0.0000 18.3861 0.0000
# 2 40.8949 49.4558 32.2884 0.0000 5.8395 0.0000
# 3 51.3098 32.2884 99.4568 0.0000 21.4904 0.0000
# 4 0.0000 0.0000 0.0000 26.1698 0.0000 5.9588
# 5 18.3861 5.8395 21.4904 0.0000 31.2765 0.0000
# 6 0.0000 0.0000 0.0000 5.9588 0.0000 28.6260
#
#
#
# Elastic Compliance Matrix: (Units=1/GPa)
#
#
# Indices 1 2 3 4 5 6 
#
# 1 0.015272 -0.009632 -0.003759 0.000000 -0.004597 0.000000
# 2 -0.009632 0.031765 -0.006207 0.000000 0.003996 0.000000
# 3 -0.003759 -0.006207 0.015597 0.000000 -0.007348 0.000000
# 4 0.000000 0.000000 0.000000 0.040113 0.000000 -0.008350
# 5 -0.004597 0.003996 -0.007348 0.000000 0.038978 0.000000
# 6 0.000000 0.000000 0.000000 -0.008350 0.000000 0.036671
#
#
# Mechanical properties :
#
#
# Convention : Reuss Voigt Hill
#
# Bulk Modulus (GPa) = 42.66393 56.37026 49.51709
# Shear Modulus (GPa) = 22.18248 26.13802 24.16025
#
# Velocity S-wave (km/s) = 3.69392 4.00977 3.85508
# Velocity P-wave (km/s) = 6.66612 7.49083 7.09048
#
# Compressibility (1/GPa) = 0.02343900
#
# Stress axis : x y z
#
# Youngs Moduli (GPa) = 65.48003 31.48126 64.11687
#
# Poissons Ratio (x) = 0.30321 0.24099
# Poissons Ratio (y) = 0.63068 0.39797
# Poissons Ratio (z) = 0.24611 0.19540
#
# Static dielectric constant tensor:
#      x y z
#    x 1.567590 0.000000 0.035350 
#    y 0.000000 1.546420 0.000000 
#    z 0.035350 0.000000 1.537220 
# 
# From -- ./inp_files/323723.got.cif
#   From: 2010.05.17/outbox.ucp.g08.bks.cvg/sg12_162_cif.got.tgz:323723.got - 2010.06.11 11:47:21.
