data_PCOD9223938
_publ_section_title
;
Structure prediction by ZEFSAII (Michael W. Deem and Ramdas Pophale) SiO2 
 PCOD9223938
Probable space group: C 2/M
;
_chemical_formula_sum "Si O2"
_cell_formula_units_Z 32
_cell_length_a 18.000000
_cell_length_b 9.000000
_cell_length_c 30.000000
_cell_angle_alpha 90.000000
_cell_angle_beta 140.000000
_cell_angle_gamma 90.000000
_cell_volume 3123.947783
_symmetry_space_group_name_H-M "C 2/M"
_symmetry_group_IT_number 12
_symmetry_cell_setting 'monoclinic'
loop_
_space_group_symop_operation_xyz
x,y,z
-x,y,-z
-x,-y,-z
x,-y,z
1/2+x,1/2+y,z
1/2-x,1/2+y,-z
1/2-x,1/2-y,-z
1/2+x,1/2-y,z
loop_
_atom_site_type_symbol
_atom_site_label
_atom_site_fract_x
_atom_site_fract_y
_atom_site_fract_z
Si Si1 0.285106 0.673219 0.560835
Si Si2 0.604982 0.837741 0.081952
Si Si3 0.026083 0.176739 0.287062
Si Si4 0.136144 0.168453 0.563177
Si Si5 0.681082 0.168882 0.839434
Si Si6 0.417073 0.334283 0.844185
Si Si7 0.680628 0.173664 0.281368
Si Si8 0.175524 0.166536 0.928970
O O1 0.287691 0.500000 0.554623
O O2 0.250000 0.750000 0.500000
O O3 0.408424 0.717993 0.637723
O O4 0.194846 0.715529 0.557596
O O5 0.686777 0.700837 0.109086
O O6 0.567458 0.798586 0.113924
O O7 0.662141 0.000000 0.105703
O O8 0.500000 0.838025 0.000000
O O9 0.090333 0.263950 0.276662
O O10 0.895425 0.228937 0.227489
O O11 0.036198 0.000000 0.283982
O O12 0.194412 0.184825 0.638124
O O13 0.000000 0.182928 0.500000
O O14 0.166583 0.000000 0.561966
O O15 0.668292 0.231531 0.882731
O O16 0.646531 0.000000 0.819435
O O17 0.382510 0.500000 0.843996
O O18 0.331621 0.275473 0.767147
O O19 0.544517 0.350227 0.883424
O O20 0.656188 0.000000 0.260988
O O21 0.222632 0.000000 0.941499
O O22 0.250000 0.250000 0.000000
#
# Coordination Sequence:
#
# PCOD9223938 Si02
#       8
#     8   8   8   8   8   8   8   8
#     4  10  21  37  60  88 120 158 197 243 292 347
#     4  11  25  44  64  85 116 156 198 244 298 358
#     4  10  20  37  60  87 119 156 197 245 297 347
#     4   9  19  37  60  87 120 157 196 240 290 345
#     4  12  24  39  62  89 119 154 196 243 296 355
#     4  11  23  39  60  86 119 156 195 241 294 350
#     4  10  19  34  60  89 117 155 198 243 294 347
#     4  11  23  38  60  89 120 152 192 242 290 343
#
# _framework density 10.243449
#
# number of rings (size 3 to 8) (size 9 to 14) (size 15 to 20)
#    0.000    1.500    1.250    4.125    0.000    6.750 
#    2.250    0.000    0.000    0.000    0.000    0.000 
#    0.000    0.000    0.000    0.000    0.000    0.000 
#
# Total GULP energy -178404.005921 kJ/mol
# GULP energy per Si atom -5575.125185 kJ/mol
# Density = 1.022013 g / cm^3
# Si number density = 10.243449 Si / 1000 Ang^3
#
#
#
# Elastic Constant Matrix: (Units=GPa)
#
#
# Indices 1 2 3 4 5 6 
#
# 1 24.5306 16.2515 24.8076 0.0000 -8.1932 0.0000
# 2 16.2515 66.4745 57.2045 0.0000 -8.9831 0.0000
# 3 24.8076 57.2045 131.3344 0.0000 -11.2814 0.0000
# 4 0.0000 0.0000 0.0000 30.4240 0.0000 -4.3601
# 5 -8.1932 -8.9831 -11.2814 0.0000 22.9197 0.0000
# 6 0.0000 0.0000 0.0000 -4.3601 0.0000 24.9580
#
#
#
# Elastic Compliance Matrix: (Units=1/GPa)
#
#
# Indices 1 2 3 4 5 6 
#
# 1 0.056457 -0.005980 -0.006815 0.000000 0.014483 0.000000
# 2 -0.005980 0.025141 -0.009562 0.000000 0.003009 0.000000
# 3 -0.006815 -0.009562 0.013089 0.000000 0.000258 0.000000
# 4 0.000000 0.000000 0.000000 0.033713 0.000000 0.005890
# 5 0.014483 0.003009 0.000258 0.000000 0.050115 0.000000
# 6 0.000000 0.000000 0.000000 0.005890 0.000000 0.041096
#
#
# Mechanical properties :
#
#
# Convention : Reuss Voigt Hill
#
# Bulk Modulus (GPa) = 20.01174 46.54074 33.27624
# Shear Modulus (GPa) = 17.79466 23.93206 20.86336
#
# Velocity S-wave (km/s) = 2.95038 3.42155 3.19466
# Velocity P-wave (km/s) = 4.62554 6.19483 5.46679
#
# Compressibility (1/GPa) = 0.04997066
#
# Stress axis : x y z
#
# Youngs Moduli (GPa) = 17.71262 39.77566 76.40198
#
# Poissons Ratio (x) = 0.23788 0.52069
# Poissons Ratio (y) = 0.10593 0.73059
# Poissons Ratio (z) = 0.12071 0.38035
#
# Static dielectric constant tensor:
#      x y z
#    x 2.206930 0.000000 -0.053150 
#    y 0.000000 2.178330 0.000000 
#    z -0.053150 0.000000 1.763620 
# 
# From -- ./inp_files/378431.got.cif
#   From: 2010.05.17/outbox.ucp.g08.bks.cvg/sg12_190_cif.got.tgz:378431.got - 2010.06.11 11:47:21.
