data_PCOD9223428
_publ_section_title
;
Structure prediction by ZEFSAII (Michael W. Deem and Ramdas Pophale) SiO2 
 PCOD9223428
Probable space group: C 2/M
;
_chemical_formula_sum "Si O2"
_cell_formula_units_Z 24
_cell_length_a 18.000000
_cell_length_b 18.000000
_cell_length_c 24.000000
_cell_angle_alpha 90.000000
_cell_angle_beta 160.000000
_cell_angle_gamma 90.000000
_cell_volume 2659.548635
_symmetry_space_group_name_H-M "C 2/M"
_symmetry_group_IT_number 12
_symmetry_cell_setting 'monoclinic'
loop_
_space_group_symop_operation_xyz
x,y,z
-x,y,-z
-x,-y,-z
x,-y,z
1/2+x,1/2+y,z
1/2-x,1/2+y,-z
1/2-x,1/2-y,-z
1/2+x,1/2-y,z
loop_
_atom_site_type_symbol
_atom_site_label
_atom_site_fract_x
_atom_site_fract_y
_atom_site_fract_z
Si Si1 0.785889 0.915377 0.309758
Si Si2 0.588184 0.814777 0.625448
Si Si3 0.015835 0.327240 0.207564
Si Si4 0.985692 0.840223 0.141487
Si Si5 0.938714 0.834881 0.583454
Si Si6 0.298492 0.411418 0.601380
O O1 0.603616 0.867397 0.213090
O O2 0.000000 0.911325 0.500000
O O3 0.881022 0.888282 0.317849
O O4 0.711972 0.000000 0.254434
O O5 0.500000 0.795319 0.500000
O O6 0.537352 0.745743 0.632114
O O7 0.439344 0.880359 0.546690
O O8 0.838790 0.836759 0.786250
O O9 0.203861 0.339961 0.386419
O O10 0.004817 0.240378 0.184643
O O11 0.771121 0.351077 0.052706
O O12 0.060214 0.896711 0.242829
O O13 0.890210 0.861630 0.613236
O O14 0.295010 0.500000 0.585413
#
# Coordination Sequence:
#
# PCOD9223428 Si02
#       6
#     8   8   8   8   8   8
#     4   9  17  30  54  84 113 143 184 234 281 334
#     4  10  18  36  61  84 108 152 198 237 275 335
#     4  10  19  35  60  87 113 149 195 236 282 338
#     4  10  21  37  59  85 116 150 193 236 282 341
#     4  11  18  36  61  85 113 148 194 241 282 336
#     4  11  24  37  57  87 119 154 188 233 291 347
#
# _framework density 9.0240880000000008
#
# number of rings (size 3 to 8) (size 9 to 14) (size 15 to 20)
#    0.000    1.833    5.000    1.500    0.000    4.333 
#    0.000    1.667    0.000    3.000    0.000    0.000 
#    0.000    0.000    0.000    0.000    0.000    0.000 
#
# Total GULP energy -133654.802298 kJ/mol
# GULP energy per Si atom -5568.950096 kJ/mol
# Density = 0.900355 g / cm^3
# Si number density = 9.024088 Si / 1000 Ang^3
#
#
#
# Elastic Constant Matrix: (Units=GPa)
#
#
# Indices 1 2 3 4 5 6 
#
# 1 128.7399 34.4938 30.3279 0.0222 28.6554 0.0024
# 2 34.4938 93.2309 11.2330 -0.0006 5.8383 -0.0025
# 3 30.3279 11.2330 81.3500 0.0606 32.8944 0.0147
# 4 0.0222 -0.0006 0.0606 12.5249 0.0055 1.7224
# 5 28.6554 5.8383 32.8944 0.0055 35.2502 0.0008
# 6 0.0024 -0.0025 0.0147 1.7224 0.0008 32.2319
#
#
#
# Elastic Compliance Matrix: (Units=1/GPa)
#
#
# Indices 1 2 3 4 5 6 
#
# 1 0.010439 -0.003343 -0.000358 -0.000014 -0.007599 0.000000
# 2 -0.003343 0.011987 -0.001132 0.000011 0.001789 0.000001
# 3 -0.000358 -0.001132 0.019896 -0.000087 -0.018089 -0.000004
# 4 -0.000014 0.000011 -0.000087 0.080432 0.000078 -0.004298
# 5 -0.007599 0.001789 -0.018089 0.000078 0.051129 0.000003
# 6 0.000000 0.000001 -0.000004 -0.004298 0.000003 0.031255
#
#
# Mechanical properties :
#
#
# Convention : Reuss Voigt Hill
#
# Bulk Modulus (GPa) = 30.62156 50.60334 40.61245
# Shear Modulus (GPa) = 22.15422 31.15250 26.65336
#
# Velocity S-wave (km/s) = 3.50738 4.15911 3.84707
# Velocity P-wave (km/s) = 5.77976 7.15284 6.50264
#
# Compressibility (1/GPa) = 0.03265673
#
# Stress axis : x y z
#
# Youngs Moduli (GPa) = 95.79518 83.42085 50.26018
#
# Poissons Ratio (x) = 0.27890 0.01797
# Poissons Ratio (y) = 0.32027 0.05691
# Poissons Ratio (z) = 0.03425 0.09445
#
# Static dielectric constant tensor:
#      x y z
#    x 1.619320 -0.000010 0.001350 
#    y -0.000010 1.650970 -0.000030 
#    z 0.001350 -0.000030 1.652640 
# 
# From -- ./inp_files/344505.got.cif
#   From: 2010.05.17/outbox.ucp.g08.bks.cvg/sg12_173_cif.got.tgz:344505.got - 2010.06.11 11:47:21.
