data_PCOD9223274
_publ_section_title
;
Structure prediction by ZEFSAII (Michael W. Deem and Ramdas Pophale) SiO2 
 PCOD9223274
Probable space group: C 2/M
;
_chemical_formula_sum "Si O2"
_cell_formula_units_Z 32
_cell_length_a 18.000000
_cell_length_b 15.000000
_cell_length_c 15.000000
_cell_angle_alpha 90.000000
_cell_angle_beta 130.000000
_cell_angle_gamma 90.000000
_cell_volume 3102.479995
_symmetry_space_group_name_H-M "C 2/M"
_symmetry_group_IT_number 12
_symmetry_cell_setting 'monoclinic'
loop_
_space_group_symop_operation_xyz
x,y,z
-x,y,-z
-x,-y,-z
x,-y,z
1/2+x,1/2+y,z
1/2-x,1/2+y,-z
1/2-x,1/2-y,-z
1/2+x,1/2-y,z
loop_
_atom_site_type_symbol
_atom_site_label
_atom_site_fract_x
_atom_site_fract_y
_atom_site_fract_z
Si Si1 0.429658 0.106111 0.310589
Si Si2 0.338704 0.102664 0.542588
Si Si3 0.681807 0.779589 0.629759
Si Si4 0.276929 0.834069 0.843385
Si Si5 0.908305 0.710512 0.112293
Si Si6 0.917714 0.103186 0.214823
Si Si7 0.598364 0.101897 0.216740
Si Si8 0.419514 0.598699 0.514465
O O1 0.546424 0.112747 0.392047
O O2 0.391848 0.159347 0.368033
O O3 0.390209 0.155609 0.190804
O O4 0.405628 0.000000 0.295497
O O5 0.284353 0.164467 0.429990
O O6 0.334801 0.122896 0.645046
O O7 0.311327 0.000000 0.507914
O O8 0.758408 0.749589 0.763591
O O9 0.637492 0.687842 0.556134
O O10 0.173594 0.878180 0.789061
O O11 0.344822 0.893911 0.832383
O O12 0.328355 0.808336 0.975319
O O13 0.914211 0.815026 0.142355
O O14 0.008999 0.670106 0.152051
O O15 0.018272 0.111348 0.347329
O O16 0.909943 0.000000 0.177192
O O17 0.562612 0.000000 0.204032
O O18 0.500000 0.591666 0.500000
O O19 0.369648 0.500000 0.479074
#
# Coordination Sequence:
#
# PCOD9223274 Si02
#       8
#     8   8   8   8   8   8   8   8
#     4  10  20  34  59  90 118 158 205 251 304 361
#     4   9  19  36  59  86 117 157 205 245 296 369
#     4  12  21  34  57  87 128 160 194 251 307 366
#     4  12  25  37  59  94 129 159 204 253 313 363
#     4  11  22  43  61  89 122 162 211 255 306 367
#     4  11  23  39  63  92 124 161 205 257 308 359
#     4  10  23  43  67  91 119 159 206 258 313 368
#     4  10  18  31  51  79 113 154 194 234 292 357
#
# _framework density 10.314329000000001
#
# number of rings (size 3 to 8) (size 9 to 14) (size 15 to 20)
#    0.000    1.375    2.500    5.250    0.000    4.500 
#    0.000    0.625    0.000    4.500    0.000    0.000 
#    0.000    0.000    0.000    0.000    0.000    0.000 
#
# Total GULP energy -178853.093192 kJ/mol
# GULP energy per Si atom -5589.159162 kJ/mol
# Density = 1.029085 g / cm^3
# Si number density = 10.314329 Si / 1000 Ang^3
#
#
#
# Elastic Constant Matrix: (Units=GPa)
#
#
# Indices 1 2 3 4 5 6 
#
# 1 60.7675 32.8126 15.1014 0.0000 -4.7869 0.0000
# 2 32.8126 154.8489 61.8595 0.0000 -8.2143 0.0000
# 3 15.1014 61.8595 124.2753 0.0000 -24.4472 0.0000
# 4 0.0000 0.0000 0.0000 23.6094 0.0000 -10.2700
# 5 -4.7869 -8.2143 -24.4472 0.0000 22.2604 0.0000
# 6 0.0000 0.0000 0.0000 -10.2700 0.0000 23.0652
#
#
#
# Elastic Compliance Matrix: (Units=1/GPa)
#
#
# Indices 1 2 3 4 5 6 
#
# 1 0.018734 -0.003910 0.000228 0.000000 0.002836 0.000000
# 2 -0.003910 0.008936 -0.004451 0.000000 -0.002432 0.000000
# 3 0.000228 -0.004451 0.012655 0.000000 0.012305 0.000000
# 4 0.000000 0.000000 0.000000 0.052530 0.000000 0.023390
# 5 0.002836 -0.002432 0.012305 0.000000 0.058149 0.000000
# 6 0.000000 0.000000 0.000000 0.023390 0.000000 0.053770
#
#
# Mechanical properties :
#
#
# Convention : Reuss Voigt Hill
#
# Bulk Modulus (GPa) = 41.56643 62.15985 51.86314
# Shear Modulus (GPa) = 21.82829 29.12822 25.47825
#
# Velocity S-wave (km/s) = 3.25646 3.76177 3.51820
# Velocity P-wave (km/s) = 5.85943 7.00472 6.45752
#
# Compressibility (1/GPa) = 0.02405787
#
# Stress axis : x y z
#
# Youngs Moduli (GPa) = 53.37758 111.91160 79.01971
#
# Poissons Ratio (x) = 0.43762 -0.01800
# Poissons Ratio (y) = 0.20873 0.35172
# Poissons Ratio (z) = -0.01216 0.49812
#
# Static dielectric constant tensor:
#      x y z
#    x 1.761660 0.000000 0.020040 
#    y 0.000000 1.753990 0.000000 
#    z 0.020040 0.000000 1.751860 
# 
# From -- ./inp_files/225750.got.cif
#   From: 2010.05.17/outbox.ucp.g08.bks.cvg/sg12_113_cif.got.tgz:225750.got - 2010.06.11 11:47:21.
