data_PCOD9223961
_publ_section_title
;
Structure prediction by ZEFSAII (Michael W. Deem and Ramdas Pophale) SiO2 
 PCOD9223961
Probable space group: C 2/M
;
_chemical_formula_sum "Si O2"
_cell_formula_units_Z 32
_cell_length_a 15.000000
_cell_length_b 9.000000
_cell_length_c 27.000000
_cell_angle_alpha 90.000000
_cell_angle_beta 100.000000
_cell_angle_gamma 90.000000
_cell_volume 3589.624260
_symmetry_space_group_name_H-M "C 2/M"
_symmetry_group_IT_number 12
_symmetry_cell_setting 'monoclinic'
loop_
_space_group_symop_operation_xyz
x,y,z
-x,y,-z
-x,-y,-z
x,-y,z
1/2+x,1/2+y,z
1/2-x,1/2+y,-z
1/2-x,1/2-y,-z
1/2+x,1/2-y,z
loop_
_atom_site_type_symbol
_atom_site_label
_atom_site_fract_x
_atom_site_fract_y
_atom_site_fract_z
Si Si1 0.243205 0.826538 0.761162
Si Si2 0.277495 0.322640 0.577875
Si Si3 0.852750 0.320731 0.867793
Si Si4 0.277350 0.678818 0.055060
Si Si5 0.623822 0.826116 0.319412
Si Si6 0.943716 0.319577 0.131355
Si Si7 0.941835 0.678601 0.248072
Si Si8 0.107125 0.178291 0.510604
O O1 0.293993 0.767210 0.815204
O O2 0.311985 0.820550 0.722403
O O3 0.152965 0.736873 0.740975
O O4 0.219247 0.000000 0.767543
O O5 0.267179 0.500000 0.580780
O O6 0.327250 0.258905 0.631212
O O7 0.178313 0.252359 0.556190
O O8 0.344807 0.291483 0.537810
O O9 0.855358 0.500000 0.862508
O O10 0.802341 0.286364 0.913544
O O11 0.956453 0.272729 0.876761
O O12 0.285675 0.500000 0.051358
O O13 0.367019 0.745267 0.090022
O O14 0.250000 0.750000 0.000000
O O15 0.526708 0.769183 0.289540
O O16 0.613649 0.000000 0.332884
O O17 0.934675 0.500000 0.127392
O O18 0.941644 0.277883 0.189649
O O19 0.946678 0.500000 0.248828
O O20 0.000000 0.224357 0.500000
O O21 0.107976 0.000000 0.518930
#
# Coordination Sequence:
#
# PCOD9223961 Si02
#       8
#     8   8   8   8   8   8   8   8
#     4  10  19  35  57  80 106 145 190 224 263 328
#     4  10  21  36  56  85 117 146 185 238 281 321
#     4   9  18  35  59  80 104 142 184 218 264 333
#     4  11  23  39  58  82 111 142 180 229 279 329
#     4  10  21  37  56  79 115 155 187 223 273 334
#     4  10  19  36  60  82 106 140 183 225 270 328
#     4  10  20  34  55  83 111 142 181 229 277 321
#     4   9  19  38  62  83 109 150 194 229 276 336
#
# _framework density 8.9145819999999993
#
# number of rings (size 3 to 8) (size 9 to 14) (size 15 to 20)
#    0.000    2.125    2.500    0.750    0.000    3.250 
#    0.000    8.125    0.000    0.000    0.000    0.000 
#    0.000    0.000    0.000    0.000    0.000    0.000 
#
# Total GULP energy -178446.206487 kJ/mol
# GULP energy per Si atom -5576.443953 kJ/mol
# Density = 0.889429 g / cm^3
# Si number density = 8.914582 Si / 1000 Ang^3
#
#
#
# Elastic Constant Matrix: (Units=GPa)
#
#
# Indices 1 2 3 4 5 6 
#
# 1 104.4073 15.3995 6.5274 0.0000 26.6111 0.0000
# 2 15.3995 26.0553 25.3918 0.0000 8.6506 0.0000
# 3 6.5274 25.3918 76.8355 0.0000 26.8431 0.0000
# 4 0.0000 0.0000 0.0000 30.6425 0.0000 4.6866
# 5 26.6111 8.6506 26.8431 0.0000 29.8307 0.0000
# 6 0.0000 0.0000 0.0000 4.6866 0.0000 29.2209
#
#
#
# Elastic Compliance Matrix: (Units=1/GPa)
#
#
# Indices 1 2 3 4 5 6 
#
# 1 0.015484 -0.011839 0.009077 0.000000 -0.018547 0.000000
# 2 -0.011839 0.065672 -0.025864 0.000000 0.014791 0.000000
# 3 0.009077 -0.025864 0.030628 0.000000 -0.028157 0.000000
# 4 0.000000 0.000000 0.000000 0.033455 0.000000 -0.005366
# 5 -0.018547 0.014791 -0.028157 0.000000 0.071116 0.000000
# 6 0.000000 0.000000 0.000000 -0.005366 0.000000 0.035083
#
#
# Mechanical properties :
#
#
# Convention : Reuss Voigt Hill
#
# Bulk Modulus (GPa) = 18.33839 33.54839 25.94339
# Shear Modulus (GPa) = 15.29669 28.60409 21.95039
#
# Velocity S-wave (km/s) = 2.93227 4.00977 3.51258
# Velocity P-wave (km/s) = 4.66607 6.34784 5.57079
#
# Compressibility (1/GPa) = 0.05453040
#
# Stress axis : x y z
#
# Youngs Moduli (GPa) = 64.58340 15.22711 32.64982
#
# Poissons Ratio (x) = 0.18028 -0.29635
# Poissons Ratio (y) = 0.76462 0.84447
# Poissons Ratio (z) = -0.58620 0.39384
#
# Static dielectric constant tensor:
#      x y z
#    x 1.614030 0.000000 -0.008640 
#    y 0.000000 1.608340 0.000000 
#    z -0.008640 0.000000 1.602210 
# 
# From -- ./inp_files/359878.got.cif
#   From: 2010.05.17/outbox.ucp.g08.bks.cvg/sg12_180_cif.got.tgz:359878.got - 2010.06.11 11:47:21.
