data_PCOD9223752
_publ_section_title
;
Structure prediction by ZEFSAII (Michael W. Deem and Ramdas Pophale) SiO2 
 PCOD9223752
Probable space group: C 2/M
;
_chemical_formula_sum "Si O2"
_cell_formula_units_Z 28
_cell_length_a 27.000000
_cell_length_b 18.000000
_cell_length_c 18.000000
_cell_angle_alpha 90.000000
_cell_angle_beta 160.000000
_cell_angle_gamma 90.000000
_cell_volume 2991.992214
_symmetry_space_group_name_H-M "C 2/M"
_symmetry_group_IT_number 12
_symmetry_cell_setting 'monoclinic'
loop_
_space_group_symop_operation_xyz
x,y,z
-x,y,-z
-x,-y,-z
x,-y,z
1/2+x,1/2+y,z
1/2-x,1/2+y,-z
1/2-x,1/2-y,-z
1/2+x,1/2-y,z
loop_
_atom_site_type_symbol
_atom_site_label
_atom_site_fract_x
_atom_site_fract_y
_atom_site_fract_z
Si Si1 0.078036 0.665487 0.787753
Si Si2 0.214186 0.586307 0.462950
Si Si3 0.078778 0.910578 0.532834
Si Si4 0.464458 0.410225 0.100673
Si Si5 0.708420 0.913862 0.633791
Si Si6 0.898218 0.589594 0.022081
Si Si7 0.120932 0.834958 0.871623
O O1 0.109457 0.612970 0.902610
O O2 0.070655 0.749609 0.807052
O O3 0.928697 0.637672 0.540521
O O4 0.215533 0.662963 0.927935
O O5 0.214634 0.500000 0.438696
O O6 0.370107 0.619208 0.662060
O O7 0.216892 0.587120 0.556453
O O8 0.056386 0.617384 0.216970
O O9 0.000000 0.892797 0.500000
O O10 0.986258 0.873791 0.337863
O O11 0.076160 0.000000 0.520930
O O12 0.247524 0.886209 0.772297
O O13 0.473963 0.500000 0.114384
O O14 0.386258 0.378775 0.062200
O O15 0.361422 0.391219 0.885663
O O16 0.679928 0.000000 0.615554
O O17 0.902000 0.500000 0.023584
#
# Coordination Sequence:
#
# PCOD9223752 Si02
#       7
#     8   8   8   8   8   8   8
#     4  10  21  36  51  75 105 140 175 210 261 312
#     4   8  15  31  56  81 104 132 172 214 256 308
#     4  10  19  33  55  78  98 130 178 221 255 299
#     4  10  20  34  54  81 109 137 167 213 267 311
#     4   9  18  34  57  80 102 134 177 216 253 307
#     4   9  17  33  58  79  96 130 181 222 249 294
#     4  11  23  35  49  75 111 140 169 210 266 317
#
# _framework density 9.3583130000000008
#
# number of rings (size 3 to 8) (size 9 to 14) (size 15 to 20)
#    0.000    2.429    1.429    2.143    0.000    5.143 
#    0.000    5.000    0.000    6.857    0.000    0.000 
#    0.000    0.000    0.000    0.000    0.000    0.000 
#
# Total GULP energy -155985.238073 kJ/mol
# GULP energy per Si atom -5570.901360 kJ/mol
# Density = 0.933701 g / cm^3
# Si number density = 9.358313 Si / 1000 Ang^3
#
#
#
# Elastic Constant Matrix: (Units=GPa)
#
#
# Indices 1 2 3 4 5 6 
#
# 1 -0.7545 -5.9895 -9.5327 0.0000 5.6219 0.0000
# 2 -5.9895 -3.4768 11.6855 0.0000 6.3133 0.0000
# 3 -9.5327 11.6855 74.1742 0.0000 21.3535 0.0000
# 4 0.0000 0.0000 0.0000 14.5760 0.0000 0.5773
# 5 5.6219 6.3133 21.3535 0.0000 25.5951 0.0000
# 6 0.0000 0.0000 0.0000 0.5773 0.0000 14.6221
#
#
#
# Elastic Compliance Matrix: (Units=1/GPa)
#
#
# Indices 1 2 3 4 5 6 
#
# 1 5.905353 -5.896585 2.161803 0.000002 -1.646177 0.000002
# 2 -5.896585 5.714370 -2.138839 -0.000002 1.670038 -0.000002
# 3 2.161803 -2.138839 0.806876 0.000001 -0.620423 0.000001
# 4 0.000002 -0.000002 0.000001 0.068713 0.000000 -0.002713
# 5 -1.646177 1.670038 -0.620423 0.000000 0.506319 0.000000
# 6 0.000002 -0.000002 0.000001 -0.002713 0.000000 0.068497
#
#
# Mechanical properties :
#
#
# Convention : Reuss Voigt Hill
#
# Bulk Modulus (GPa) = 1.47198 6.91884 4.19541
# Shear Modulus (GPa) = 0.19965 15.87731 8.03848
#
# Velocity S-wave (km/s) = 0.32696 2.91572 2.07465
# Velocity P-wave (km/s) = 0.96473 3.87813 2.82582
#
# Compressibility (1/GPa) = 0.67935688
#
# Stress axis : x y z
#
# Youngs Moduli (GPa) = 0.16934 0.17500 1.23935
#
# Poissons Ratio (x) = 1.03189 -2.67923
# Poissons Ratio (y) = 0.99852 2.65077
# Poissons Ratio (z) = -0.36608 0.37429
#
# Static dielectric constant tensor:
#      x y z
#    x 1.645370 0.000000 0.024190 
#    y 0.000000 1.633510 0.000000 
#    z 0.024190 0.000000 1.689740 
# 
# From -- ./inp_files/293903.got.cif
#   From: 2010.05.17/outbox.ucp.g08.bks.cvg/sg12_147_cif.got.tgz:293903.got - 2010.06.11 11:47:21.
