data_PCOD9223590
_publ_section_title
;
Structure prediction by ZEFSAII (Michael W. Deem and Ramdas Pophale) SiO2 
 PCOD9223590
Probable space group: C 2/M
;
_chemical_formula_sum "Si O2"
_cell_formula_units_Z 28
_cell_length_a 30.000000
_cell_length_b 9.000000
_cell_length_c 18.000000
_cell_angle_alpha 90.000000
_cell_angle_beta 40.000000
_cell_angle_gamma 90.000000
_cell_volume 3123.947783
_symmetry_space_group_name_H-M "C 2/M"
_symmetry_group_IT_number 12
_symmetry_cell_setting 'monoclinic'
loop_
_space_group_symop_operation_xyz
x,y,z
-x,y,-z
-x,-y,-z
x,-y,z
1/2+x,1/2+y,z
1/2-x,1/2+y,-z
1/2-x,1/2-y,-z
1/2+x,1/2-y,z
loop_
_atom_site_type_symbol
_atom_site_label
_atom_site_fract_x
_atom_site_fract_y
_atom_site_fract_z
Si Si1 0.754685 0.336538 0.216914
Si Si2 0.417701 0.820521 0.342244
Si Si3 0.080378 0.670643 0.961983
Si Si4 0.943390 0.822193 0.853113
Si Si5 0.280154 0.175006 0.600680
Si Si6 0.297409 0.175813 0.000250
Si Si7 0.123375 0.180091 0.760515
O O1 0.726760 0.500000 0.271052
O O2 0.836857 0.338867 0.128775
O O3 0.720436 0.215727 0.312340
O O4 0.753394 0.308473 0.132010
O O5 0.490500 0.748166 0.272667
O O6 0.350308 0.768333 0.474183
O O7 0.402372 0.759050 0.280103
O O8 0.422891 0.000000 0.336517
O O9 0.054337 0.500000 0.994449
O O10 0.078880 0.755660 0.885888
O O11 0.052350 0.763503 0.067136
O O12 0.944493 0.000000 0.850035
O O13 0.870911 0.758269 0.915193
O O14 0.204973 0.225083 0.665936
O O15 0.280365 0.000000 0.589203
O O16 0.309822 0.000000 0.973191
O O17 0.250000 0.250000 0.000000
O O18 0.118795 0.000000 0.763834
#
# Coordination Sequence:
#
# PCOD9223590 Si02
#       7
#     8   8   8   8   8   8   8
#     4   8  16  30  51  77 104 131 164 203 249 299
#     4  11  22  35  49  70 102 141 178 216 259 305
#     4   9  17  32  51  72 100 135 170 212 261 309
#     4  11  22  36  53  76 104 136 171 211 258 310
#     4   9  19  33  51  73 101 137 178 217 255 298
#     4  10  20  36  59  87 111 134 162 201 251 307
#     4  10  19  32  50  75 101 132 178 225 261 301
#
# _framework density 8.9630179999999999
#
# number of rings (size 3 to 8) (size 9 to 14) (size 15 to 20)
#    0.000    2.286    0.000    4.286    0.000    6.286 
#    0.000    2.857    0.000    0.857    0.000    6.000 
#    0.000    0.000    0.000    0.000    0.000    0.000 
#
# Total GULP energy -156086.962112 kJ/mol
# GULP energy per Si atom -5574.534361 kJ/mol
# Density = 0.894262 g / cm^3
# Si number density = 8.963018 Si / 1000 Ang^3
#
#
#
# Elastic Constant Matrix: (Units=GPa)
#
#
# Indices 1 2 3 4 5 6 
#
# 1 64.3594 36.7815 33.3013 -0.0002 -8.4061 0.0008
# 2 36.7815 86.4029 41.7120 0.0047 -10.4064 -0.0024
# 3 33.3013 41.7120 92.9576 0.0051 -25.4466 -0.0026
# 4 -0.0002 0.0047 0.0051 24.3544 -0.0008 -0.9900
# 5 -8.4061 -10.4064 -25.4466 -0.0008 13.9146 0.0003
# 6 0.0008 -0.0024 -0.0026 -0.9900 0.0003 23.7269
#
#
#
# Elastic Compliance Matrix: (Units=1/GPa)
#
#
# Indices 1 2 3 4 5 6 
#
# 1 0.022045 -0.007094 -0.005048 0.000002 -0.001219 -0.000002
# 2 -0.007094 0.017090 -0.005610 -0.000002 -0.001764 0.000001
# 3 -0.005048 -0.005610 0.026232 -0.000003 0.040727 0.000002
# 4 0.000002 -0.000002 -0.000003 0.041130 -0.000003 0.001716
# 5 -0.001219 -0.001764 0.040727 -0.000003 0.144293 0.000002
# 6 -0.000002 0.000001 0.000002 0.001716 0.000002 0.042218
#
#
# Mechanical properties :
#
#
# Convention : Reuss Voigt Hill
#
# Bulk Modulus (GPa) = 33.48672 51.92328 42.70500
# Shear Modulus (GPa) = 14.77258 21.19417 17.98338
#
# Velocity S-wave (km/s) = 2.87380 3.44221 3.17077
# Velocity P-wave (km/s) = 5.45277 6.69526 6.10570
#
# Compressibility (1/GPa) = 0.02986259
#
# Stress axis : x y z
#
# Youngs Moduli (GPa) = 45.36215 58.51542 38.12139
#
# Poissons Ratio (x) = 0.41513 0.19242
# Poissons Ratio (y) = 0.32182 0.21385
# Poissons Ratio (z) = 0.22897 0.32826
#
# Static dielectric constant tensor:
#      x y z
#    x 1.512050 0.000000 -0.021960 
#    y 0.000000 1.607150 0.000000 
#    z -0.021960 0.000000 1.647960 
# 
# From -- ./inp_files/280966.got.cif
#   From: 2010.05.17/outbox.ucp.g08.bks.cvg/sg12_141_cif.got.tgz:280966.got - 2010.06.11 11:47:21.
