data_PCOD9223087
_publ_section_title
;
Structure prediction by ZEFSAII (Michael W. Deem and Ramdas Pophale) SiO2 
 PCOD9223087
Probable space group: C 2/M
;
_chemical_formula_sum "Si O2"
_cell_formula_units_Z 64
_cell_length_a 25.613165
_cell_length_b 7.312040
_cell_length_c 15.036839
_cell_angle_alpha 90.000000
_cell_angle_beta 68.766069
_cell_angle_gamma 90.000000
_cell_volume 2624.975661
_symmetry_space_group_name_H-M "C 2/M"
_symmetry_group_IT_number 12
_symmetry_cell_setting 'monoclinic'
loop_
_space_group_symop_operation_xyz
x,y,z
-x,y,-z
-x,-y,-z
x,-y,z
1/2+x,1/2+y,z
1/2-x,1/2+y,-z
1/2-x,1/2-y,-z
1/2+x,1/2-y,z
loop_
_atom_site_type_symbol
_atom_site_label
_atom_site_fract_x
_atom_site_fract_y
_atom_site_fract_z
Si Si1 0.989761 0.222163 0.607149
Si Si2 0.589146 0.722733 0.192584
Si Si3 0.290702 0.719877 0.844446
Si Si4 0.610745 0.276963 0.573995
Si Si5 0.198877 0.221817 0.667154
Si Si6 0.180030 0.209188 0.370635
Si Si7 0.669623 0.285477 0.882951
Si Si8 0.551086 0.723495 0.030309
O O1 0.046259 0.271483 0.625248
O O2 0.000000 0.284147 0.500000
O O3 0.936415 0.282496 0.697299
O O4 0.986280 0.000000 0.604998
O O5 0.589666 0.500000 0.193550
O O6 0.653684 0.779227 0.138035
O O7 0.550450 0.777775 0.134035
O O8 0.289840 0.500000 0.845550
O O9 0.304067 0.787122 0.735182
O O10 0.226866 0.771539 0.904698
O O11 0.613156 0.500000 0.570578
O O12 0.652909 0.218034 0.624710
O O13 0.633268 0.212620 0.464142
O O14 0.261843 0.287456 0.610499
O O15 0.182942 0.287077 0.776163
O O16 0.200608 0.000000 0.665772
O O17 0.163050 0.000000 0.362634
O O18 0.659774 0.500000 0.877533
O O19 0.611646 0.214040 0.957120
O O20 0.550010 0.500000 0.029892
O O21 0.500000 0.784117 0.000000
#
# Coordination Sequence:
#
# PCOD9223087 Si02
#       8
#     8   8   8   8   8   8   8   8
#     4   9  16  25  39  62  91 120 150 187 233 278
#     4   9  17  28  44  67  93 122 156 192 234 280
#     4   9  17  30  48  69  94 122 154 191 231 277
#     4   9  16  24  38  59  87 120 150 185 230 276
#     4   9  17  27  41  63  90 118 150 188 227 270
#     4   9  16  27  42  62  90 121 150 184 227 273
#     4   9  18  31  47  69  95 122 154 191 232 275
#     4   9  18  30  46  67  94 124 153 191 236 279
#
# _framework density 24.381177000000001
#
# number of rings (size 3 to 8) (size 9 to 14) (size 15 to 20)
#    0.000    3.000    0.000    1.125    1.750    3.500 
#    0.000    0.000    0.000    0.375    0.000    1.750 
#    0.000    6.500    0.000    0.000    0.000    0.000 
#
# Total GULP energy -178714.002130 kJ/mol
# GULP energy per Si atom -5584.812567 kJ/mol
# Density = 2.432568 g / cm^3
# Si number density = 24.381177 Si / 1000 Ang^3
#
#
#
# Elastic Constant Matrix: (Units=GPa)
#
#
# Indices 1 2 3 4 5 6 
#
# 1 160.5101 -9.8557 59.3789 0.0000 -5.6878 0.0000
# 2 -9.8557 97.8595 -1.6426 0.0000 -0.2609 0.0000
# 3 59.3789 -1.6426 103.1192 0.0000 -16.2638 0.0000
# 4 0.0000 0.0000 0.0000 -7.3648 0.0000 -3.9517
# 5 -5.6878 -0.2609 -16.2638 0.0000 42.0979 0.0000
# 6 0.0000 0.0000 0.0000 -3.9517 0.0000 10.6020
#
#
#
# Elastic Compliance Matrix: (Units=1/GPa)
#
#
# Indices 1 2 3 4 5 6 
#
# 1 0.007989 0.000724 -0.004704 0.000000 -0.000734 0.000000
# 2 0.000724 0.010288 -0.000242 0.000000 0.000068 0.000000
# 3 -0.004704 -0.000242 0.013100 0.000000 0.004424 0.000000
# 4 0.000000 0.000000 0.000000 -0.113151 0.000000 -0.042175
# 5 -0.000734 0.000068 0.004424 0.000000 0.025365 0.000000
# 6 0.000000 0.000000 0.000000 -0.042175 0.000000 0.078602
#
#
# Mechanical properties :
#
#
# Convention : Reuss Voigt Hill
#
# Bulk Modulus (GPa) = 43.60857 50.80555 47.20706
# Shear Modulus (GPa) = 130.60997 29.97422 80.29209
#
# Velocity S-wave (km/s) = 7.32709 3.51008 5.74487
# Velocity P-wave (km/s) = 9.46080 6.10826 7.96296
#
# Compressibility (1/GPa) = 0.02293127
#
# Stress axis : x y z
#
# Youngs Moduli (GPa) = 125.17327 97.20315 76.33392
#
# Poissons Ratio (x) = -0.07034 0.35911
# Poissons Ratio (y) = -0.09058 0.01848
# Poissons Ratio (z) = 0.58887 0.02353
#
# Static dielectric constant tensor:
#      x y z
#    x 1.915530 0.000000 0.017110 
#    y 0.000000 1.988820 0.000000 
#    z 0.017110 0.000000 1.927870 
# 
# From -- ./inp_files/232435.got.cif
#   From: 2010.05.17/outbox.cif.g08.bks.cpg/sg12_117_cif.got.tgz:232435.got - 2010.06.03 13:09:07.
