data_PCOD9223366
_publ_section_title
;
Structure prediction by ZEFSAII (Michael W. Deem and Ramdas Pophale) SiO2 
 PCOD9223366
Probable space group: C 2/M
;
_chemical_formula_sum "Si O2"
_cell_formula_units_Z 28
_cell_length_a 12.000000
_cell_length_b 30.000000
_cell_length_c 9.000000
_cell_angle_alpha 90.000000
_cell_angle_beta 60.000000
_cell_angle_gamma 90.000000
_cell_volume 2805.922308
_symmetry_space_group_name_H-M "C 2/M"
_symmetry_group_IT_number 12
_symmetry_cell_setting 'monoclinic'
loop_
_space_group_symop_operation_xyz
x,y,z
-x,y,-z
-x,-y,-z
x,-y,z
1/2+x,1/2+y,z
1/2-x,1/2+y,-z
1/2-x,1/2-y,-z
1/2+x,1/2-y,z
loop_
_atom_site_type_symbol
_atom_site_label
_atom_site_fract_x
_atom_site_fract_y
_atom_site_fract_z
Si Si1 0.894090 0.611258 0.945773
Si Si2 0.789538 0.680184 0.568793
Si Si3 0.174248 0.089095 0.542656
Si Si4 0.392177 0.391150 0.756884
Si Si5 0.508573 0.293026 0.672900
Si Si6 0.441653 0.199212 0.768511
Si Si7 0.049169 0.451774 0.634919
O O1 0.898483 0.664570 0.921439
O O2 0.961821 0.587079 0.762445
O O3 0.743881 0.598579 0.071101
O O4 0.000000 0.599545 0.000000
O O5 0.737258 0.629854 0.591063
O O6 0.659586 0.706615 0.614516
O O7 0.848594 0.690707 0.689693
O O8 0.910607 0.687520 0.377837
O O9 0.146895 0.104278 0.390858
O O10 0.295739 0.055543 0.459429
O O11 0.025678 0.080655 0.696599
O O12 0.440494 0.340300 0.750983
O O13 0.500000 0.285685 0.500000
O O14 0.441710 0.251709 0.799118
O O15 0.020843 0.500000 0.725930
O O16 0.000000 0.453661 0.500000
#
# Coordination Sequence:
#
# PCOD9223366 Si02
#       7
#     8   8   8   8   8   8   8
#     4  12  24  41  64  94 132 164 209 264 327 376
#     4  10  18  33  55  85 113 160 212 259 305 364
#     4  10  18  39  64  87 123 165 208 250 311 379
#     4  10  21  38  61  90 124 171 207 260 306 372
#     4  11  20  34  57  86 126 169 222 265 310 361
#     4  11  22  31  57  87 119 164 218 261 309 369
#     4  11  24  44  71 100 126 158 206 260 316 387
#
# _framework density 9.9788940000000004
#
# number of rings (size 3 to 8) (size 9 to 14) (size 15 to 20)
#    0.000    1.286    7.143    1.286    0.000    0.857 
#    0.000    8.571    0.000    1.714    0.000    0.000 
#    0.000    0.000    0.000    0.000    0.000    0.000 
#
# Total GULP energy -156078.254027 kJ/mol
# GULP energy per Si atom -5574.223358 kJ/mol
# Density = 0.995618 g / cm^3
# Si number density = 9.978894 Si / 1000 Ang^3
#
#
#
# Elastic Constant Matrix: (Units=GPa)
#
#
# Indices 1 2 3 4 5 6 
#
# 1 159.8966 17.4931 29.4051 0.0000 -32.1822 0.0000
# 2 17.4931 60.0162 7.6029 0.0000 -7.9201 0.0000
# 3 29.4051 7.6029 46.8428 0.0000 -24.2391 0.0000
# 4 0.0000 0.0000 0.0000 -3.3901 0.0000 -6.6103
# 5 -32.1822 -7.9201 -24.2391 0.0000 34.7319 0.0000
# 6 0.0000 0.0000 0.0000 -6.6103 0.0000 -62.2388
#
#
#
# Elastic Compliance Matrix: (Units=1/GPa)
#
#
# Indices 1 2 3 4 5 6 
#
# 1 0.007883 -0.001313 -0.001738 0.000000 0.005792 0.000000
# 2 -0.001313 0.017440 -0.000905 0.000000 0.002129 0.000000
# 3 -0.001738 -0.000905 0.033881 0.000000 0.021828 0.000000
# 4 0.000000 0.000000 0.000000 -0.372013 0.000000 0.039511
# 5 0.005792 0.002129 0.021828 0.000000 0.049878 0.000000
# 6 0.000000 0.000000 0.000000 0.039511 0.000000 -0.020264
#
#
# Mechanical properties :
#
#
# Convention : Reuss Voigt Hill
#
# Bulk Modulus (GPa) = 19.49621 41.75087 30.62354
# Shear Modulus (GPa) = -19.36608 7.97088 -5.69760
#
# Velocity S-wave (km/s) = -3.11843 2.00064 -1.69146
# Velocity P-wave (km/s) = 1.78218 5.12852 3.40041
#
# Compressibility (1/GPa) = 0.05129201
#
# Stress axis : x y z
#
# Youngs Moduli (GPa) = 126.85370 57.33787 29.51479
#
# Poissons Ratio (x) = 0.07529 0.05131
# Poissons Ratio (y) = 0.16658 0.02671
# Poissons Ratio (z) = 0.22053 0.05188
#
# Static dielectric constant tensor:
#      x y z
#    x 1.685990 0.000000 0.003190 
#    y 0.000000 1.747080 0.000000 
#    z 0.003190 0.000000 1.730250 
# 
# From -- ./inp_files/54601.got.cif
#   From: 2010.05.17/outbox.ucp.g08.bks.cvg/sg12_28_cif.got.tgz:54601.got - 2010.06.11 11:47:21.
