data_PCOD9223734
_publ_section_title
;
Structure prediction by ZEFSAII (Michael W. Deem and Ramdas Pophale) SiO2 
 PCOD9223734
Probable space group: C 2/M
;
_chemical_formula_sum "Si O2"
_cell_formula_units_Z 28
_cell_length_a 9.000000
_cell_length_b 21.000000
_cell_length_c 30.000000
_cell_angle_alpha 90.000000
_cell_angle_beta 30.000000
_cell_angle_gamma 90.000000
_cell_volume 2835.000000
_symmetry_space_group_name_H-M "C 2/M"
_symmetry_group_IT_number 12
_symmetry_cell_setting 'monoclinic'
loop_
_space_group_symop_operation_xyz
x,y,z
-x,y,-z
-x,-y,-z
x,-y,z
1/2+x,1/2+y,z
1/2-x,1/2+y,-z
1/2-x,1/2-y,-z
1/2+x,1/2-y,z
loop_
_atom_site_type_symbol
_atom_site_label
_atom_site_fract_x
_atom_site_fract_y
_atom_site_fract_z
Si Si1 0.453458 0.280301 0.060389
Si Si2 0.847790 0.748308 0.309052
Si Si3 0.031779 0.371949 0.213874
Si Si4 0.661092 0.073349 0.274355
Si Si5 0.210643 0.838929 0.154125
Si Si6 0.140652 0.428248 0.090898
Si Si7 0.343960 0.180261 0.402118
O O1 0.329867 0.331730 0.126301
O O2 0.244198 0.218243 0.110305
O O3 0.500000 0.307754 0.000000
O O4 0.750000 0.250000 0.000000
O O5 0.545305 0.788490 0.387769
O O6 0.927688 0.718691 0.335466
O O7 0.818526 0.686444 0.284085
O O8 0.092279 0.797768 0.227136
O O9 0.061471 0.416336 0.249034
O O10 0.998653 0.408773 0.175904
O O11 0.434285 0.108425 0.366702
O O12 0.965090 0.111700 0.202486
O O13 0.694885 0.000000 0.275540
O O14 0.501566 0.878448 0.091972
O O15 0.043433 0.500000 0.104624
O O16 0.500000 0.431340 0.000000
O O17 0.000000 0.186337 0.500000
#
# Coordination Sequence:
#
# PCOD9223734 Si02
#       7
#     8   8   8   8   8   8   8
#     4  11  20  31  51  74  97 124 160 211 258 292
#     4   9  19  33  54  79 101 130 163 202 254 304
#     4  10  19  34  52  72  98 129 168 208 247 296
#     4  10  21  36  53  73 100 137 173 202 241 298
#     4  10  20  35  52  73 100 132 170 209 251 299
#     4  11  22  34  49  70  99 135 173 212 250 289
#     4  10  19  33  54  80 107 129 158 203 252 302
#
# _framework density 9.8765429999999999
#
# number of rings (size 3 to 8) (size 9 to 14) (size 15 to 20)
#    0.000    1.857    0.000    5.143    0.000    4.857 
#    0.000    0.000    0.000    4.286    0.000    0.000 
#    0.000   20.571    0.000    0.000    0.000    0.000 
#
# Total GULP energy -156015.987108 kJ/mol
# GULP energy per Si atom -5571.999540 kJ/mol
# Density = 0.985406 g / cm^3
# Si number density = 9.876543 Si / 1000 Ang^3
#
#
#
# Elastic Constant Matrix: (Units=GPa)
#
#
# Indices 1 2 3 4 5 6 
#
# 1 23.2111 10.7737 -5.0270 0.0705 2.0058 -0.0387
# 2 10.7737 136.2039 18.1508 -0.1830 -2.2440 -0.0760
# 3 -5.0270 18.1508 40.6432 0.2300 -13.3453 -0.0659
# 4 0.0705 -0.1830 0.2300 7.1795 -0.1882 -4.3323
# 5 2.0058 -2.2440 -13.3453 -0.1882 17.4776 0.0256
# 6 -0.0387 -0.0760 -0.0659 -4.3323 0.0256 15.6981
#
#
#
# Elastic Compliance Matrix: (Units=1/GPa)
#
#
# Indices 1 2 3 4 5 6 
#
# 1 0.047028 -0.004784 0.007982 -0.000913 0.000074 -0.000126
# 2 -0.004784 0.008359 -0.005062 0.000444 -0.002238 0.000134
# 3 0.007982 -0.005062 0.036488 -0.000748 0.026287 -0.000101
# 4 -0.000913 0.000444 -0.000748 0.167206 0.001323 0.046139
# 5 0.000074 -0.002238 0.026287 0.001323 0.077005 0.000339
# 6 -0.000126 0.000134 -0.000101 0.046139 0.000339 0.076434
#
#
# Mechanical properties :
#
#
# Convention : Reuss Voigt Hill
#
# Bulk Modulus (GPa) = 11.34451 27.53922 19.44187
# Shear Modulus (GPa) = 11.22009 19.81510 15.51760
#
# Velocity S-wave (km/s) = 2.38590 3.17067 2.80586
# Velocity P-wave (km/s) = 3.65317 5.23223 4.51231
#
# Compressibility (1/GPa) = 0.08814833
#
# Stress axis : x y z
#
# Youngs Moduli (GPa) = 21.26382 119.63629 27.40654
#
# Poissons Ratio (x) = 0.57231 -0.21877
# Poissons Ratio (y) = 0.10172 0.13873
# Poissons Ratio (z) = -0.16974 0.60557
#
# Static dielectric constant tensor:
#      x y z
#    x 1.689290 -0.000080 0.011360 
#    y -0.000080 1.740330 0.000190 
#    z 0.011360 0.000190 1.721870 
# 
# From -- ./inp_files/257971.got.cif
#   From: 2010.05.17/outbox.ucp.g08.bks.cvg/sg12_129_cif.got.tgz:257971.got - 2010.06.11 11:47:21.
