data_PCOD9223985
_publ_section_title
;
Structure prediction by ZEFSAII (Michael W. Deem and Ramdas Pophale) SiO2 
 PCOD9223985
Probable space group: C 2/M
;
_chemical_formula_sum "Si O2"
_cell_formula_units_Z 32
_cell_length_a 30.000000
_cell_length_b 12.000000
_cell_length_c 9.000000
_cell_angle_alpha 90.000000
_cell_angle_beta 90.000000
_cell_angle_gamma 90.000000
_cell_volume 3240.000000
_symmetry_space_group_name_H-M "C 2/M"
_symmetry_group_IT_number 12
_symmetry_cell_setting 'monoclinic'
loop_
_space_group_symop_operation_xyz
x,y,z
-x,y,-z
-x,-y,-z
x,-y,z
1/2+x,1/2+y,z
1/2-x,1/2+y,-z
1/2-x,1/2-y,-z
1/2+x,1/2-y,z
loop_
_atom_site_type_symbol
_atom_site_label
_atom_site_fract_x
_atom_site_fract_y
_atom_site_fract_z
Si Si1 0.184061 0.750053 0.604082
Si Si2 0.612109 0.126317 0.094170
Si Si3 0.468173 0.873359 0.361833
Si Si4 0.545113 0.717964 0.916015
Si Si5 0.700508 0.266636 0.073699
Si Si6 0.882465 0.378292 0.564785
Si Si7 0.267962 0.374743 0.632059
Si Si8 0.862003 0.880242 0.145109
O O1 0.151096 0.717762 0.473968
O O2 0.215330 0.646813 0.643233
O O3 0.216664 0.842004 0.533782
O O4 0.155082 0.787550 0.741866
O O5 0.663029 0.168997 0.070146
O O6 0.600539 0.134078 0.268591
O O7 0.609952 0.000000 0.043749
O O8 0.574118 0.194608 0.011380
O O9 0.500000 0.846696 0.500000
O O10 0.469388 0.782832 0.232935
O O11 0.419920 0.876181 0.439018
O O12 0.478882 0.000000 0.309285
O O13 0.585260 0.630999 0.885174
O O14 0.500000 0.680528 0.000000
O O15 0.711023 0.297224 0.242304
O O16 0.750000 0.250000 0.000000
O O17 0.671138 0.363123 0.994219
O O18 0.860213 0.500000 0.559962
O O19 0.280264 0.500000 0.664300
O O20 0.853475 0.000000 0.214028
#
# Coordination Sequence:
#
# PCOD9223985 Si02
#       8
#     8   8   8   8   8   8   8   8
#     4  11  21  40  59  87 118 153 203 245 298 348
#     4  10  22  38  60  88 121 158 198 243 298 358
#     4  10  20  34  58  90 119 151 186 231 296 358
#     4  11  23  40  62  88 120 159 197 252 299 361
#     4  11  22  41  57  88 122 160 201 242 296 356
#     4  10  19  35  58  84 117 152 189 240 292 347
#     4  11  23  38  61  86 118 159 201 245 292 353
#     4  11  24  42  64  87 117 158 205 254 302 354
#
# _framework density 9.8765429999999999
#
# number of rings (size 3 to 8) (size 9 to 14) (size 15 to 20)
#    0.000    1.375    3.750    2.250    0.000    3.250 
#    0.000    0.000    0.000    0.375    0.000    0.000 
#    0.000    0.000    0.000    0.000    0.000    0.000 
#
# Total GULP energy -178219.869162 kJ/mol
# GULP energy per Si atom -5569.370911 kJ/mol
# Density = 0.985406 g / cm^3
# Si number density = 9.876543 Si / 1000 Ang^3
#
#
#
# Elastic Constant Matrix: (Units=GPa)
#
#
# Indices 1 2 3 4 5 6 
#
# 1 86.5026 1.3455 16.1851 0.0000 -7.7625 0.0000
# 2 1.3455 23.3305 6.3676 0.0000 -0.6847 0.0000
# 3 16.1851 6.3676 60.6783 0.0000 -7.2975 0.0000
# 4 0.0000 0.0000 0.0000 69.4891 0.0000 9.5197
# 5 -7.7625 -0.6847 -7.2975 0.0000 34.3374 0.0000
# 6 0.0000 0.0000 0.0000 9.5197 0.0000 6.5757
#
#
#
# Elastic Compliance Matrix: (Units=1/GPa)
#
#
# Indices 1 2 3 4 5 6 
#
# 1 0.012320 0.000184 -0.003048 0.000000 0.002141 0.000000
# 2 0.000184 0.044129 -0.004689 0.000000 -0.000075 0.000000
# 3 -0.003048 -0.004689 0.018155 0.000000 0.003076 0.000000
# 4 0.000000 0.000000 0.000000 0.017951 0.000000 -0.025988
# 5 0.002141 -0.000075 0.003076 0.000000 0.030259 0.000000
# 6 0.000000 0.000000 0.000000 -0.025988 0.000000 0.189699
#
#
# Mechanical properties :
#
#
# Convention : Reuss Voigt Hill
#
# Bulk Modulus (GPa) = 16.80705 24.25641 20.53173
# Shear Modulus (GPa) = 14.39049 31.85465 23.12257
#
# Velocity S-wave (km/s) = 2.70204 4.02013 3.42509
# Velocity P-wave (km/s) = 4.27337 5.81851 5.10474
#
# Compressibility (1/GPa) = 0.05949884
#
# Stress axis : x y z
#
# Youngs Moduli (GPa) = 81.16940 22.66069 55.08009
#
# Poissons Ratio (x) = -0.00417 0.16788
# Poissons Ratio (y) = -0.01495 0.25827
# Poissons Ratio (z) = 0.24741 0.10626
#
# Static dielectric constant tensor:
#      x y z
#    x 1.706090 0.000000 -0.020610 
#    y 0.000000 1.725250 0.000000 
#    z -0.020610 0.000000 1.716970 
# 
# From -- ./inp_files/110449.got.cif
#   From: 2010.05.17/outbox.ucp.g08.bks.cvg/sg12_56_cif.got.tgz:110449.got - 2010.06.11 11:47:21.
