data_PCOD9223621
_publ_section_title
;
Structure prediction by ZEFSAII (Michael W. Deem and Ramdas Pophale) SiO2 
 PCOD9223621
Probable space group: C 2/M
;
_chemical_formula_sum "Si O2"
_cell_formula_units_Z 32
_cell_length_a 30.000000
_cell_length_b 9.000000
_cell_length_c 15.000000
_cell_angle_alpha 90.000000
_cell_angle_beta 60.000000
_cell_angle_gamma 90.000000
_cell_volume 3507.402885
_symmetry_space_group_name_H-M "C 2/M"
_symmetry_group_IT_number 12
_symmetry_cell_setting 'monoclinic'
loop_
_space_group_symop_operation_xyz
x,y,z
-x,y,-z
-x,-y,-z
x,-y,z
1/2+x,1/2+y,z
1/2-x,1/2+y,-z
1/2-x,1/2-y,-z
1/2+x,1/2-y,z
loop_
_atom_site_type_symbol
_atom_site_label
_atom_site_fract_x
_atom_site_fract_y
_atom_site_fract_z
Si Si1 0.964835 0.329916 0.380958
Si Si2 0.106007 0.174533 0.413232
Si Si3 0.193388 0.322617 0.647952
Si Si4 0.614453 0.177543 0.876577
Si Si5 0.084313 0.825672 0.076230
Si Si6 0.026634 0.321485 0.826552
Si Si7 0.810289 0.176690 0.525468
Si Si8 0.088753 0.331008 0.250321
O O1 0.947805 0.500000 0.414829
O O2 0.942036 0.224619 0.478431
O O3 0.950496 0.286745 0.294095
O O4 0.026580 0.327652 0.320741
O O5 0.154774 0.207958 0.425767
O O6 0.109367 0.267202 0.320789
O O7 0.102968 0.000000 0.397021
O O8 0.192413 0.500000 0.639040
O O9 0.161575 0.285677 0.766168
O O10 0.169796 0.252840 0.583370
O O11 0.252006 0.271212 0.597212
O O12 0.563763 0.218763 0.870184
O O13 0.612060 0.000000 0.894080
O O14 0.618735 0.263366 0.963291
O O15 0.102875 0.768856 0.152706
O O16 0.028298 0.754782 0.114007
O O17 0.080039 0.000000 0.079175
O O18 0.019280 0.500000 0.835441
O O19 0.809860 0.000000 0.512344
O O20 0.104065 0.500000 0.218808
#
# Coordination Sequence:
#
# PCOD9223621 Si02
#       8
#     8   8   8   8   8   8   8   8
#     4   9  18  32  49  71  99 132 169 204 237 281
#     4  11  21  31  48  75 104 131 160 200 250 296
#     4   9  18  34  55  76 100 133 168 198 235 289
#     4  10  19  32  52  74  97 131 172 206 238 284
#     4  11  22  34  49  71 100 131 163 204 252 295
#     4   9  18  32  49  71 101 134 168 204 238 281
#     4   9  19  34  51  76 108 133 156 197 249 292
#     4  10  21  37  53  68  93 131 172 209 241 283
#
# _framework density 9.1235599999999994
#
# number of rings (size 3 to 8) (size 9 to 14) (size 15 to 20)
#    0.000    2.250    0.000    4.125    0.000    8.500 
#    0.000    0.000    0.000    0.750    0.000    0.000 
#    0.000    0.000    0.000    0.000    0.000    0.000 
#
# Total GULP energy -178496.763055 kJ/mol
# GULP energy per Si atom -5578.023845 kJ/mol
# Density = 0.910279 g / cm^3
# Si number density = 9.123560 Si / 1000 Ang^3
#
#
#
# Elastic Constant Matrix: (Units=GPa)
#
#
# Indices 1 2 3 4 5 6 
#
# 1 52.6713 25.4101 20.4365 0.0000 35.8232 0.0000
# 2 25.4101 -15.9543 22.4349 0.0000 7.0478 0.0000
# 3 20.4365 22.4349 75.5662 0.0000 3.0095 0.0000
# 4 0.0000 0.0000 0.0000 19.9466 0.0000 12.9558
# 5 35.8232 7.0478 3.0095 0.0000 41.0031 0.0000
# 6 0.0000 0.0000 0.0000 12.9558 0.0000 17.7086
#
#
#
# Elastic Compliance Matrix: (Units=1/GPa)
#
#
# Indices 1 2 3 4 5 6 
#
# 1 0.039097 0.023371 -0.016039 0.000000 -0.036998 0.000000
# 2 0.023371 -0.028507 0.002769 0.000000 -0.015722 0.000000
# 3 -0.016039 0.002769 0.016257 0.000000 0.012343 0.000000
# 4 0.000000 0.000000 0.000000 0.095529 0.000000 -0.069890
# 5 -0.036998 -0.015722 0.012343 0.000000 0.058509 0.000000
# 6 0.000000 0.000000 0.000000 -0.069890 0.000000 0.107602
#
#
# Mechanical properties :
#
#
# Convention : Reuss Voigt Hill
#
# Bulk Modulus (GPa) = 21.25383 27.64959 24.45171
# Shear Modulus (GPa) = 17.60770 18.66509 18.13640
#
# Velocity S-wave (km/s) = 3.10975 3.20176 3.15609
# Velocity P-wave (km/s) = 4.95652 5.37160 5.16823
#
# Compressibility (1/GPa) = 0.04705034
#
# Stress axis : x y z
#
# Youngs Moduli (GPa) = 25.57746 -35.07883 61.51065
#
# Poissons Ratio (x) = 0.81984 0.98656
# Poissons Ratio (y) = -0.59778 -0.17032
# Poissons Ratio (z) = 0.41023 0.09713
#
# Static dielectric constant tensor:
#      x y z
#    x 1.631650 0.000000 -0.010850 
#    y 0.000000 1.609080 0.000000 
#    z -0.010850 0.000000 1.641970 
# 
# From -- ./inp_files/249083.got.cif
#   From: 2010.05.17/outbox.ucp.g08.bks.cvg/sg12_125_cif.got.tgz:249083.got - 2010.06.11 11:47:21.
