data_PCOD9223190
_publ_section_title
;
Structure prediction by ZEFSAII (Michael W. Deem and Ramdas Pophale) SiO2 
 PCOD9223190
Probable space group: C 2/M
;
_chemical_formula_sum "Si O2"
_cell_formula_units_Z 28
_cell_length_a 27.000000
_cell_length_b 18.000000
_cell_length_c 9.000000
_cell_angle_alpha 90.000000
_cell_angle_beta 140.000000
_cell_angle_gamma 90.000000
_cell_volume 2811.553005
_symmetry_space_group_name_H-M "C 2/M"
_symmetry_group_IT_number 12
_symmetry_cell_setting 'monoclinic'
loop_
_space_group_symop_operation_xyz
x,y,z
-x,y,-z
-x,-y,-z
x,-y,z
1/2+x,1/2+y,z
1/2-x,1/2+y,-z
1/2-x,1/2-y,-z
1/2+x,1/2-y,z
loop_
_atom_site_type_symbol
_atom_site_label
_atom_site_fract_x
_atom_site_fract_y
_atom_site_fract_z
Si Si1 0.277919 0.358935 0.341874
Si Si2 0.879723 0.707621 0.567063
Si Si3 0.858618 0.149188 0.024582
Si Si4 0.172648 0.707754 0.874927
Si Si5 0.010485 0.179964 0.866360
Si Si6 0.717567 0.088673 0.521017
Si Si7 0.589699 0.581031 0.562828
O O1 0.320680 0.278049 0.458703
O O2 0.254974 0.393286 0.446470
O O3 0.336471 0.405684 0.373796
O O4 0.201834 0.349064 0.065406
O O5 0.868441 0.682852 0.369411
O O6 0.964367 0.743129 0.776018
O O7 0.857088 0.640620 0.623232
O O8 0.869481 0.225631 0.139630
O O9 0.889043 0.091185 0.216527
O O10 0.901368 0.170357 0.971007
O O11 0.775723 0.119949 0.781941
O O12 0.250000 0.750000 0.000000
O O13 0.969825 0.140932 0.633936
O O14 0.000000 0.140018 0.000000
O O15 0.706375 0.000000 0.510069
O O16 0.557223 0.500000 0.462109
#
# Coordination Sequence:
#
# PCOD9223190 Si02
#       7
#     8   8   8   8   8   8   8
#     4  10  19  35  58  86 115 152 200 248 292 347
#     4  10  20  40  59  85 117 158 205 248 288 350
#     4  12  21  37  59  88 120 153 205 245 295 354
#     4  10  17  34  61  86 109 147 202 257 290 334
#     4  11  25  38  57  87 118 160 205 242 292 350
#     4  12  24  36  60  94 126 158 193 247 311 359
#     4  11  22  37  55  82 127 165 191 235 296 365
#
# _framework density 9.9589090000000002
#
# number of rings (size 3 to 8) (size 9 to 14) (size 15 to 20)
#    0.000    1.143    7.143    3.429    2.000    2.000 
#    0.000    0.714    0.000    0.429    0.000    1.000 
#    0.000    0.000    0.000    0.000    0.000    0.000 
#
# Total GULP energy -155974.753099 kJ/mol
# GULP energy per Si atom -5570.526896 kJ/mol
# Density = 0.993624 g / cm^3
# Si number density = 9.958909 Si / 1000 Ang^3
#
#
#
# Elastic Constant Matrix: (Units=GPa)
#
#
# Indices 1 2 3 4 5 6 
#
# 1 86.4105 40.9197 -2.9396 0.0000 -20.1818 0.0000
# 2 40.9197 75.2325 11.9633 0.0000 9.6702 0.0000
# 3 -2.9396 11.9633 68.0755 0.0000 -18.9528 0.0000
# 4 0.0000 0.0000 0.0000 9.1226 0.0000 -8.2021
# 5 -20.1818 9.6702 -18.9528 0.0000 23.8748 0.0000
# 6 0.0000 0.0000 0.0000 -8.2021 0.0000 11.5343
#
#
#
# Elastic Compliance Matrix: (Units=1/GPa)
#
#
# Indices 1 2 3 4 5 6 
#
# 1 0.074631 -0.065395 0.050903 0.000000 0.129983 0.000000
# 2 -0.065395 0.072917 -0.050387 0.000000 -0.124813 0.000000
# 3 0.050903 -0.050387 0.055719 0.000000 0.107670 0.000000
# 4 0.000000 0.000000 0.000000 0.303943 0.000000 0.216136
# 5 0.129983 -0.124813 0.107670 0.000000 0.287790 0.000000
# 6 0.000000 0.000000 0.000000 0.216136 0.000000 0.240393
#
#
# Mechanical properties :
#
#
# Convention : Reuss Voigt Hill
#
# Bulk Modulus (GPa) = 13.60368 36.62282 25.11325
# Shear Modulus (GPa) = 4.20291 20.89134 12.54712
#
# Velocity S-wave (km/s) = 1.45420 3.24215 2.51259
# Velocity P-wave (km/s) = 3.10875 5.69581 4.58839
#
# Compressibility (1/GPa) = 0.07350953
#
# Stress axis : x y z
#
# Youngs Moduli (GPa) = 13.39933 13.71429 17.94726
#
# Poissons Ratio (x) = 0.89684 -0.91358
# Poissons Ratio (y) = 0.87625 0.90431
# Poissons Ratio (z) = -0.68207 0.69102
#
# Static dielectric constant tensor:
#      x y z
#    x 1.776670 0.000000 0.041850 
#    y 0.000000 1.647780 0.000000 
#    z 0.041850 0.000000 1.752400 
# 
# From -- ./inp_files/98162.got.cif
#   From: 2010.05.17/outbox.ucp.g08.bks.cvg/sg12_50_cif.got.tgz:98162.got - 2010.06.11 11:47:21.
