data_PCOD9224977
_publ_section_title
;
Structure prediction by ZEFSAII (Michael W. Deem and Ramdas Pophale) SiO2 
 PCOD9224977
Probable space group: C 2/M
;
_chemical_formula_sum "Si O2"
_cell_formula_units_Z 32
_cell_length_a 24.000000
_cell_length_b 9.000000
_cell_length_c 15.000000
_cell_angle_alpha 90.000000
_cell_angle_beta 90.000000
_cell_angle_gamma 90.000000
_cell_volume 3240.000000
_symmetry_space_group_name_H-M "C 2/M"
_symmetry_group_IT_number 12
_symmetry_cell_setting 'monoclinic'
loop_
_space_group_symop_operation_xyz
x,y,z
-x,y,-z
-x,-y,-z
x,-y,z
1/2+x,1/2+y,z
1/2-x,1/2+y,-z
1/2-x,1/2-y,-z
1/2+x,1/2-y,z
loop_
_atom_site_type_symbol
_atom_site_label
_atom_site_fract_x
_atom_site_fract_y
_atom_site_fract_z
Si Si1 0.861715 0.824271 0.576634
Si Si2 0.650466 0.827672 0.077486
Si Si3 0.583799 0.829852 0.261308
Si Si4 0.453453 0.176076 0.231903
Si Si5 0.125130 0.175373 0.904489
Si Si6 0.754246 0.321029 0.355031
Si Si7 0.741892 0.177489 0.852561
Si Si8 0.621529 0.178478 0.599650
O O1 0.892479 0.783622 0.667357
O O2 0.797993 0.765263 0.587804
O O3 0.892383 0.746535 0.495192
O O4 0.859767 0.000000 0.562931
O O5 0.618773 0.819710 0.170929
O O6 0.712033 0.760871 0.089331
O O7 0.653352 0.000000 0.049606
O O8 0.618629 0.730305 0.005175
O O9 0.519022 0.803710 0.242200
O O10 0.589749 0.000000 0.295629
O O11 0.426497 0.270869 0.153801
O O12 0.420955 0.217705 0.322299
O O13 0.442727 0.000000 0.215420
O O14 0.180490 0.260043 0.870062
O O15 0.133415 0.000000 0.898762
O O16 0.755432 0.500000 0.365048
O O17 0.743771 0.292082 0.250886
O O18 0.815898 0.266076 0.377888
O O19 0.743594 0.000000 0.866961
O O20 0.622715 0.000000 0.594210
#
# Coordination Sequence:
#
# PCOD9224977 Si02
#       8
#     8   8   8   8   8   8   8   8
#     4  11  22  37  59  90 125 157 194 245 304 356
#     4  11  23  40  62  91 123 157 199 247 300 356
#     4  10  23  42  64  88 115 156 208 253 297 351
#     4  10  22  43  66  86 115 158 206 255 298 347
#     4  12  25  40  61  92 124 157 197 243 302 362
#     4   9  18  34  59  88 117 155 193 236 295 355
#     4  11  20  38  64  90 122 158 199 242 297 359
#     4  10  20  38  62  87 117 156 200 243 297 358
#
# _framework density 9.8765429999999999
#
# number of rings (size 3 to 8) (size 9 to 14) (size 15 to 20)
#    0.000    1.500    2.500    3.000    0.000    2.500 
#    0.000    5.625    0.000    0.000    0.000    0.000 
#    0.000    0.000    0.000    0.000    0.000    0.000 
#
# Total GULP energy -178795.648739 kJ/mol
# GULP energy per Si atom -5587.364023 kJ/mol
# Density = 0.985406 g / cm^3
# Si number density = 9.876543 Si / 1000 Ang^3
#
#
#
# Elastic Constant Matrix: (Units=GPa)
#
#
# Indices 1 2 3 4 5 6 
#
# 1 59.3720 24.7163 8.0006 0.0000 3.7188 0.0000
# 2 24.7163 29.5033 5.0142 0.0000 -1.3974 0.0000
# 3 8.0006 5.0142 47.0452 0.0000 3.8145 0.0000
# 4 0.0000 0.0000 0.0000 17.5471 0.0000 5.9217
# 5 3.7188 -1.3974 3.8145 0.0000 -7.2497 0.0000
# 6 0.0000 0.0000 0.0000 5.9217 0.0000 24.7985
#
#
#
# Elastic Compliance Matrix: (Units=1/GPa)
#
#
# Indices 1 2 3 4 5 6 
#
# 1 0.024355 -0.019162 -0.003272 0.000000 0.014465 0.000000
# 2 -0.019162 0.049091 -0.000393 0.000000 -0.019498 0.000000
# 3 -0.003272 -0.000393 0.021085 0.000000 0.009491 0.000000
# 4 0.000000 0.000000 0.000000 0.061985 0.000000 -0.014802
# 5 0.014465 -0.019498 0.009491 0.000000 -0.121765 0.000000
# 6 0.000000 0.000000 0.000000 -0.014802 0.000000 0.043860
#
#
# Mechanical properties :
#
#
# Convention : Reuss Voigt Hill
#
# Bulk Modulus (GPa) = 20.45965 23.48697 21.97331
# Shear Modulus (GPa) = 35.57313 13.56513 24.56913
#
# Velocity S-wave (km/s) = 4.24829 2.62341 3.53060
# Velocity P-wave (km/s) = 5.86892 4.59265 5.26956
#
# Compressibility (1/GPa) = 0.04887668
#
# Stress axis : x y z
#
# Youngs Moduli (GPa) = 41.05936 20.37049 47.42726
#
# Poissons Ratio (x) = 0.39034 0.15520
# Poissons Ratio (y) = 0.78678 0.01862
# Poissons Ratio (z) = 0.13436 0.00800
#
# Static dielectric constant tensor:
#      x y z
#    x 1.677440 0.000000 0.007390 
#    y 0.000000 1.660980 0.000000 
#    z 0.007390 0.000000 1.717060 
# 
# From -- ./inp_files/238742.got.cif
#   From: 2010.05.17/outbox.ucp.g08.bks.cvg/sg12_120_cif.got.tgz:238742.got - 2010.06.11 11:47:21.
