data_PCOD9224335
_publ_section_title
;
Structure prediction by ZEFSAII (Michael W. Deem and Ramdas Pophale) SiO2 
 PCOD9224335
Probable space group: C 2/M
;
_chemical_formula_sum "Si O2"
_cell_formula_units_Z 20
_cell_length_a 27.000000
_cell_length_b 9.000000
_cell_length_c 27.000000
_cell_angle_alpha 90.000000
_cell_angle_beta 20.000000
_cell_angle_gamma 90.000000
_cell_volume 2243.994160
_symmetry_space_group_name_H-M "C 2/M"
_symmetry_group_IT_number 12
_symmetry_cell_setting 'monoclinic'
loop_
_space_group_symop_operation_xyz
x,y,z
-x,y,-z
-x,-y,-z
x,-y,z
1/2+x,1/2+y,z
1/2-x,1/2+y,-z
1/2-x,1/2-y,-z
1/2+x,1/2-y,z
loop_
_atom_site_type_symbol
_atom_site_label
_atom_site_fract_x
_atom_site_fract_y
_atom_site_fract_z
Si Si1 0.211510 0.178045 0.367893
Si Si2 0.671961 0.678649 0.842009
Si Si3 0.546197 0.321401 0.664199
Si Si4 0.889329 0.822530 0.714034
Si Si5 0.668434 0.323560 0.650551
O O1 0.249843 0.252612 0.279764
O O2 0.322113 0.238112 0.306207
O O3 0.045641 0.212160 0.541108
O O4 0.222562 0.000000 0.354103
O O5 0.682811 0.500000 0.831226
O O6 0.759000 0.740393 0.808198
O O7 0.500000 0.717201 0.000000
O O8 0.576506 0.500000 0.630405
O O9 0.416270 0.289658 0.747488
O O10 0.545324 0.291843 0.724294
O O11 0.681845 0.227671 0.516246
O O12 0.867063 0.000000 0.730123
O O13 0.668528 0.500000 0.659662
#
# Coordination Sequence:
#
# PCOD9224335 Si02
#       5
#     8   8   8   8   8
#     4  10  20  34  53  77 103 131 166 206 246 294
#     4  11  24  38  51  71  99 130 167 211 255 298
#     4   8  15  27  44  71 105 134 161 197 241 290
#     4   9  18  33  53  77 103 131 165 203 243 292
#     4   9  15  25  45  73 104 134 161 196 243 289
#
# _framework density 8.9126790000000007
#
# number of rings (size 3 to 8) (size 9 to 14) (size 15 to 20)
#    0.000    2.600    0.000    3.600    0.000    8.800 
#    0.000    0.000    0.000    1.200    0.000    0.000 
#    0.000    0.000    0.000    0.000    0.000    0.000 
#
# Total GULP energy -111402.064039 kJ/mol
# GULP energy per Si atom -5570.103202 kJ/mol
# Density = 0.889239 g / cm^3
# Si number density = 8.912679 Si / 1000 Ang^3
#
#
#
# Elastic Constant Matrix: (Units=GPa)
#
#
# Indices 1 2 3 4 5 6 
#
# 1 164.6638 44.7764 31.0307 -0.0014 -38.4693 0.0003
# 2 44.7764 56.5179 19.6586 -0.0121 -16.0887 0.0029
# 3 31.0307 19.6586 34.6169 -0.0114 -22.2366 0.0030
# 4 -0.0014 -0.0121 -0.0114 20.7951 0.0037 -4.6119
# 5 -38.4693 -16.0887 -22.2366 0.0037 23.1764 -0.0001
# 6 0.0003 0.0029 0.0030 -4.6119 -0.0001 39.5108
#
#
#
# Elastic Compliance Matrix: (Units=1/GPa)
#
#
# Indices 1 2 3 4 5 6 
#
# 1 0.011214 -0.005081 0.006579 -0.000003 0.021398 0.000000
# 2 -0.005081 0.025026 -0.010205 0.000009 -0.000852 0.000000
# 3 0.006579 -0.010205 0.081446 0.000024 0.081978 -0.000002
# 4 -0.000003 0.000009 0.000024 0.049366 0.000017 0.005762
# 5 0.021398 -0.000852 0.081978 0.000017 0.156727 -0.000004
# 6 0.000000 0.000000 -0.000002 0.005762 -0.000004 0.025982
#
#
# Mechanical properties :
#
#
# Convention : Reuss Voigt Hill
#
# Bulk Modulus (GPa) = 9.97297 49.63668 29.80482
# Shear Modulus (GPa) = 12.48129 27.38532 19.93331
#
# Velocity S-wave (km/s) = 2.64900 3.92383 3.34766
# Velocity P-wave (km/s) = 3.86823 6.95954 5.63020
#
# Compressibility (1/GPa) = 0.10027100
#
# Stress axis : x y z
#
# Youngs Moduli (GPa) = 89.17364 39.95835 12.27814
#
# Poissons Ratio (x) = 0.20304 -0.08077
# Poissons Ratio (y) = 0.45312 0.12529
# Poissons Ratio (z) = -0.58664 0.40776
#
# Static dielectric constant tensor:
#      x y z
#    x 1.670580 0.000000 -0.003090 
#    y 0.000000 1.593160 0.000000 
#    z -0.003090 0.000000 1.583300 
# 
# From -- ./inp_files/101004.got.cif
#   From: 2010.05.17/outbox.ucp.g08.bks.cvg/sg12_51_cif.got.tgz:101004.got - 2010.06.11 11:47:21.
