data_PCOD9224545
_publ_section_title
;
Structure prediction by ZEFSAII (Michael W. Deem and Ramdas Pophale) SiO2 
 PCOD9224545
Probable space group: C 2/M
;
_chemical_formula_sum "Si O2"
_cell_formula_units_Z 32
_cell_length_a 24.000000
_cell_length_b 18.000000
_cell_length_c 21.000000
_cell_angle_alpha 90.000000
_cell_angle_beta 20.000000
_cell_angle_gamma 90.000000
_cell_volume 3102.806740
_symmetry_space_group_name_H-M "C 2/M"
_symmetry_group_IT_number 12
_symmetry_cell_setting 'monoclinic'
loop_
_space_group_symop_operation_xyz
x,y,z
-x,y,-z
-x,-y,-z
x,-y,z
1/2+x,1/2+y,z
1/2-x,1/2+y,-z
1/2-x,1/2-y,-z
1/2+x,1/2-y,z
loop_
_atom_site_type_symbol
_atom_site_label
_atom_site_fract_x
_atom_site_fract_y
_atom_site_fract_z
Si Si1 0.329845 0.588778 0.438467
Si Si2 0.445683 0.911342 0.372905
Si Si3 0.653837 0.644736 0.923779
Si Si4 0.285162 0.332296 0.285619
Si Si5 0.803384 0.084245 0.990746
Si Si6 0.172257 0.169911 0.433710
Si Si7 0.865725 0.209887 0.702673
Si Si8 0.319125 0.085260 0.167972
O O1 0.332764 0.500000 0.450885
O O2 0.194618 0.597627 0.529255
O O3 0.275202 0.640408 0.555043
O O4 0.515597 0.612557 0.221249
O O5 0.370879 0.866721 0.512384
O O6 0.627171 0.883955 0.159267
O O7 0.456934 0.000000 0.374721
O O8 0.703156 0.633772 0.797461
O O9 0.701787 0.587415 0.926683
O O10 0.751124 0.719980 0.835875
O O11 0.457903 0.651302 0.133315
O O12 0.266834 0.242738 0.306732
O O13 0.803232 0.000000 0.967148
O O14 0.201173 0.102457 0.353946
O O15 0.982600 0.191094 0.635572
O O16 0.748046 0.141587 0.812145
O O17 0.000000 0.221206 0.500000
O O18 0.314105 0.000000 0.153133
O O19 0.500000 0.101969 0.000000
#
# Coordination Sequence:
#
# PCOD9224545 Si02
#       8
#     8   8   8   8   8   8   8   8
#     4  10  22  44  63  86 123 162 206 254 299 354
#     4  10  22  42  64  88 121 160 202 257 305 359
#     4  11  21  38  61  89 126 161 192 254 308 361
#     4  11  22  37  63  90 122 159 202 246 312 368
#     4  10  22  41  65  90 120 159 206 251 304 362
#     4  11  22  37  61  87 120 159 203 246 305 357
#     4  10  20  35  56  84 118 154 193 246 302 361
#     4  10  20  36  57  85 119 155 199 251 307 364
#
# _framework density 10.313243
#
# number of rings (size 3 to 8) (size 9 to 14) (size 15 to 20)
#    0.000    1.625    3.750    1.875    0.000    3.750 
#    4.500    3.750    0.000    0.000    0.000    0.000 
#    0.000    0.000    0.000    0.000    0.000    0.000 
#
# Total GULP energy -178373.184549 kJ/mol
# GULP energy per Si atom -5574.162017 kJ/mol
# Density = 1.028977 g / cm^3
# Si number density = 10.313243 Si / 1000 Ang^3
#
#
#
# Elastic Constant Matrix: (Units=GPa)
#
#
# Indices 1 2 3 4 5 6 
#
# 1 38.1112 1.8087 5.6771 0.0013 -7.7887 -0.0038
# 2 1.8087 21.0792 -6.5324 -0.0221 -2.6791 0.0154
# 3 5.6771 -6.5324 60.3903 0.0029 -29.3396 -0.0304
# 4 0.0013 -0.0221 0.0029 19.2052 -0.0086 -5.0286
# 5 -7.7887 -2.6791 -29.3396 -0.0086 32.2032 -0.0090
# 6 -0.0038 0.0154 -0.0304 -5.0286 -0.0090 20.5760
#
#
#
# Elastic Compliance Matrix: (Units=1/GPa)
#
#
# Indices 1 2 3 4 5 6 
#
# 1 0.027674 -0.001173 0.000854 0.000003 0.007374 0.000011
# 2 -0.001173 0.054209 0.014402 0.000069 0.017348 0.000005
# 3 0.000854 0.014402 0.033585 0.000042 0.032003 0.000063
# 4 0.000003 0.000069 0.000042 0.055629 0.000064 0.013595
# 5 0.007374 0.017348 0.032003 0.000064 0.063437 0.000079
# 6 0.000011 0.000005 0.000063 0.013595 0.000079 0.051923
#
#
# Mechanical properties :
#
#
# Convention : Reuss Voigt Hill
#
# Bulk Modulus (GPa) = 6.96212 13.49861 10.23037
# Shear Modulus (GPa) = 16.33088 22.30535 19.31811
#
# Velocity S-wave (km/s) = 2.81685 3.29202 3.06366
# Velocity P-wave (km/s) = 3.73660 4.58349 4.18154
#
# Compressibility (1/GPa) = 0.14363439
#
# Stress axis : x y z
#
# Youngs Moduli (GPa) = 36.13448 18.44718 29.77548
#
# Poissons Ratio (x) = 0.02163 -0.02543
# Poissons Ratio (y) = 0.04238 -0.42883
# Poissons Ratio (z) = -0.03086 -0.26568
#
# Static dielectric constant tensor:
#      x y z
#    x 1.769990 -0.000010 -0.006050 
#    y -0.000010 1.706250 0.000020 
#    z -0.006050 0.000020 1.754640 
# 
# From -- ./inp_files/326107.got.cif
#   From: 2010.05.17/outbox.ucp.g08.bks.cvg/sg12_164_cif.got.tgz:326107.got - 2010.06.11 11:47:21.
