data_PCOD9224848
_publ_section_title
;
Structure prediction by ZEFSAII (Michael W. Deem and Ramdas Pophale) SiO2 
 PCOD9224848
Probable space group: C 2/M
;
_chemical_formula_sum "Si O2"
_cell_formula_units_Z 32
_cell_length_a 18.000000
_cell_length_b 9.000000
_cell_length_c 30.000000
_cell_angle_alpha 90.000000
_cell_angle_beta 40.000000
_cell_angle_gamma 90.000000
_cell_volume 3123.947783
_symmetry_space_group_name_H-M "C 2/M"
_symmetry_group_IT_number 12
_symmetry_cell_setting 'monoclinic'
loop_
_space_group_symop_operation_xyz
x,y,z
-x,y,-z
-x,-y,-z
x,-y,z
1/2+x,1/2+y,z
1/2-x,1/2+y,-z
1/2-x,1/2-y,-z
1/2+x,1/2-y,z
loop_
_atom_site_type_symbol
_atom_site_label
_atom_site_fract_x
_atom_site_fract_y
_atom_site_fract_z
Si Si1 0.814190 0.325031 0.903737
Si Si2 0.898948 0.167720 0.378799
Si Si3 0.909732 0.676711 0.959770
Si Si4 0.469294 0.824141 0.426071
Si Si5 0.335235 0.180679 0.172526
Si Si6 0.669748 0.831017 0.426949
Si Si7 0.207922 0.177335 0.317178
Si Si8 0.889464 0.178985 0.780929
O O1 0.808254 0.500000 0.898531
O O2 0.872664 0.301690 0.925165
O O3 0.884532 0.248398 0.831977
O O4 0.685705 0.257003 0.966527
O O5 0.781156 0.158580 0.406526
O O6 0.882846 0.273612 0.427889
O O7 0.999013 0.221378 0.299213
O O8 0.930517 0.000000 0.379351
O O9 0.905059 0.500000 0.971434
O O10 0.041321 0.731447 0.902512
O O11 0.429194 0.775158 0.493658
O O12 0.587011 0.746086 0.356868
O O13 0.478791 0.000000 0.422125
O O14 0.306407 0.225164 0.236836
O O15 0.226957 0.223950 0.191836
O O16 0.340011 0.000000 0.170411
O O17 0.709335 0.736275 0.366689
O O18 0.640500 0.000000 0.425563
O O19 0.203729 0.000000 0.318579
O O20 0.890153 0.000000 0.784224
#
# Coordination Sequence:
#
# PCOD9224848 Si02
#       8
#     8   8   8   8   8   8   8   8
#     4  10  21  36  57  87 118 144 180 228 274 328
#     4  10  21  39  60  83 115 151 194 240 284 342
#     4   9  19  38  61  82 111 149 185 224 272 326
#     4  11  22  38  59  82 116 153 190 238 293 346
#     4   9  19  37  59  82 108 145 192 234 272 326
#     4  10  23  39  56  84 117 151 190 239 295 345
#     4  11  22  38  60  85 114 150 196 241 283 341
#     4  10  20  37  59  81 111 149 186 228 279 334
#
# _framework density 10.243449
#
# number of rings (size 3 to 8) (size 9 to 14) (size 15 to 20)
#    0.000    2.000    1.250    1.875    1.750    4.500 
#    0.000    4.375    0.000    0.000    0.000    0.000 
#    0.000    0.000    0.000    0.000    0.000    0.000 
#
# Total GULP energy -178557.056338 kJ/mol
# GULP energy per Si atom -5579.908011 kJ/mol
# Density = 1.022013 g / cm^3
# Si number density = 10.243449 Si / 1000 Ang^3
#
#
#
# Elastic Constant Matrix: (Units=GPa)
#
#
# Indices 1 2 3 4 5 6 
#
# 1 43.6733 26.7334 10.7877 -0.0001 4.9780 0.0006
# 2 26.7334 26.7256 13.9321 -0.0005 12.6367 0.0011
# 3 10.7877 13.9321 63.0919 0.0000 1.1315 0.0001
# 4 -0.0001 -0.0005 0.0000 24.5557 0.0000 5.2284
# 5 4.9780 12.6367 1.1315 0.0000 34.9628 -0.0001
# 6 0.0006 0.0011 0.0001 5.2284 -0.0001 18.5883
#
#
#
# Elastic Compliance Matrix: (Units=1/GPa)
#
#
# Indices 1 2 3 4 5 6 
#
# 1 0.068861 -0.081007 0.005768 -0.000002 0.019288 0.000003
# 2 -0.081007 0.147223 -0.017922 0.000005 -0.041097 -0.000007
# 3 0.005768 -0.017922 0.018731 -0.000001 0.005050 0.000001
# 4 -0.000002 0.000005 -0.000001 0.043318 -0.000001 -0.012184
# 5 0.019288 -0.041097 0.005050 -0.000001 0.040546 0.000002
# 6 0.000003 -0.000007 0.000001 -0.012184 0.000002 0.057224
#
#
# Mechanical properties :
#
#
# Convention : Reuss Voigt Hill
#
# Bulk Modulus (GPa) = 20.62204 26.26636 23.44420
# Shear Modulus (GPa) = 8.64469 21.09054 14.86761
#
# Velocity S-wave (km/s) = 2.05640 3.21201 2.69683
# Velocity P-wave (km/s) = 3.96563 5.15799 4.60060
#
# Compressibility (1/GPa) = 0.04849181
#
# Stress axis : x y z
#
# Youngs Moduli (GPa) = 14.52211 6.79240 53.38836
#
# Poissons Ratio (x) = 0.55023 -0.30796
# Poissons Ratio (y) = 1.17640 0.95684
# Poissons Ratio (z) = -0.08377 0.12174
#
# Static dielectric constant tensor:
#      x y z
#    x 1.830510 0.000000 -0.025380 
#    y 0.000000 1.701730 0.000000 
#    z -0.025380 0.000000 1.700860 
# 
# From -- ./inp_files/378206.got.cif
#   From: 2010.05.17/outbox.ucp.g08.bks.cvg/sg12_190_cif.got.tgz:378206.got - 2010.06.11 11:47:21.
