data_PCOD9224820
_publ_section_title
;
Structure prediction by ZEFSAII (Michael W. Deem and Ramdas Pophale) SiO2 
 PCOD9224820
Probable space group: C 2/M
;
_chemical_formula_sum "Si O2"
_cell_formula_units_Z 32
_cell_length_a 12.000000
_cell_length_b 15.000000
_cell_length_c 27.000000
_cell_angle_alpha 90.000000
_cell_angle_beta 40.000000
_cell_angle_gamma 90.000000
_cell_volume 3123.947783
_symmetry_space_group_name_H-M "C 2/M"
_symmetry_group_IT_number 12
_symmetry_cell_setting 'monoclinic'
loop_
_space_group_symop_operation_xyz
x,y,z
-x,y,-z
-x,-y,-z
x,-y,z
1/2+x,1/2+y,z
1/2-x,1/2+y,-z
1/2-x,1/2-y,-z
1/2+x,1/2-y,z
loop_
_atom_site_type_symbol
_atom_site_label
_atom_site_fract_x
_atom_site_fract_y
_atom_site_fract_z
Si Si1 0.007474 0.396263 0.360083
Si Si2 0.619054 0.393019 0.053394
Si Si3 0.599070 0.400964 0.351479
Si Si4 0.316863 0.605935 0.791731
Si Si5 0.398147 0.605183 0.229893
Si Si6 0.783897 0.339443 0.521153
Si Si7 0.484070 0.202033 0.947756
Si Si8 0.186904 0.197926 0.414816
O O1 0.006883 0.500000 0.346253
O O2 0.203105 0.359352 0.288115
O O3 0.940738 0.386261 0.439451
O O4 0.858756 0.348301 0.378273
O O5 0.611886 0.500000 0.041037
O O6 0.521116 0.388093 0.139821
O O7 0.531998 0.309597 0.053581
O O8 0.816114 0.355817 0.988292
O O9 0.652428 0.500000 0.350755
O O10 0.656366 0.388513 0.275823
O O11 0.390798 0.395216 0.422732
O O12 0.673112 0.325557 0.362228
O O13 0.291296 0.500000 0.812994
O O14 0.487124 0.639377 0.763351
O O15 0.152223 0.663334 0.863553
O O16 0.370499 0.500000 0.249430
O O17 0.750000 0.250000 0.500000
O O18 0.807740 0.299485 0.567718
O O19 0.500000 0.183834 0.000000
O O20 0.000000 0.162735 0.500000
#
# Coordination Sequence:
#
# PCOD9224820 Si02
#       8
#     8   8   8   8   8   8   8   8
#     4  10  20  36  62  92 122 164 218 265 326 390
#     4  10  22  41  66 100 140 171 211 269 322 386
#     4  11  23  42  66  92 124 166 217 272 326 377
#     4  10  22  41  66  99 130 166 223 281 322 386
#     4   9  19  39  63  91 128 168 209 268 330 384
#     4  10  21  37  54  88 122 162 208 266 318 380
#     4  11  22  40  71 102 128 175 221 255 326 394
#     4  11  22  39  62  89 122 167 216 269 322 386
#
# _framework density 10.243449
#
# number of rings (size 3 to 8) (size 9 to 14) (size 15 to 20)
#    0.000    1.750    3.750    1.125    0.000    4.250 
#    2.250    2.500    0.000    8.250    0.000    0.000 
#    0.000    0.000    0.000    0.000    0.000    0.000 
#
# Total GULP energy -178493.710428 kJ/mol
# GULP energy per Si atom -5577.928451 kJ/mol
# Density = 1.022013 g / cm^3
# Si number density = 10.243449 Si / 1000 Ang^3
#
#
#
# Elastic Constant Matrix: (Units=GPa)
#
#
# Indices 1 2 3 4 5 6 
#
# 1 96.2650 18.7823 42.2302 0.0002 -24.0815 -0.0004
# 2 18.7823 66.8343 17.6657 -0.0002 -9.4490 0.0003
# 3 42.2302 17.6657 98.3028 0.0012 -21.6902 -0.0012
# 4 0.0002 -0.0002 0.0012 107.0888 -0.0005 -96.6398
# 5 -24.0815 -9.4490 -21.6902 -0.0005 33.6734 0.0006
# 6 -0.0004 0.0003 -0.0012 -96.6398 0.0006 156.7418
#
#
#
# Elastic Compliance Matrix: (Units=1/GPa)
#
#
# Indices 1 2 3 4 5 6 
#
# 1 0.014396 -0.001922 -0.004297 0.000000 0.006988 0.000000
# 2 -0.001922 0.016233 -0.001620 0.000000 0.002137 0.000000
# 3 -0.004297 -0.001620 0.013442 0.000000 0.005131 0.000000
# 4 0.000000 0.000000 0.000000 0.021050 0.000000 0.012979
# 5 0.006988 0.002137 0.005131 0.000000 0.038599 0.000000
# 6 0.000000 0.000000 0.000000 0.012979 0.000000 0.014382
#
#
# Mechanical properties :
#
#
# Convention : Reuss Voigt Hill
#
# Bulk Modulus (GPa) = 35.22026 46.52871 40.87449
# Shear Modulus (GPa) = 34.90525 71.68240 53.29382
#
# Velocity S-wave (km/s) = 4.13217 5.92160 5.10589
# Velocity P-wave (km/s) = 6.32419 8.33754 7.39966
#
# Compressibility (1/GPa) = 0.02839275
#
# Stress axis : x y z
#
# Youngs Moduli (GPa) = 69.46240 61.60360 74.39430
#
# Poissons Ratio (x) = 0.11840 0.31969
# Poissons Ratio (y) = 0.13350 0.12052
# Poissons Ratio (z) = 0.29850 0.09980
#
# Static dielectric constant tensor:
#      x y z
#    x 1.954430 0.000000 -0.143420 
#    y 0.000000 1.752140 0.000000 
#    z -0.143420 0.000000 1.842960 
# 
# From -- ./inp_files/358411.got.cif
#   From: 2010.05.17/outbox.ucp.g08.bks.cvg/sg12_180_cif.got.tgz:358411.got - 2010.06.11 11:47:21.
