data_PCOD9224043
_publ_section_title
;
Structure prediction by ZEFSAII (Michael W. Deem and Ramdas Pophale) SiO2 
 PCOD9224043
Probable space group: C 2/M
;
_chemical_formula_sum "Si O2"
_cell_formula_units_Z 24
_cell_length_a 18.000000
_cell_length_b 30.000000
_cell_length_c 9.000000
_cell_angle_alpha 90.000000
_cell_angle_beta 150.000000
_cell_angle_gamma 90.000000
_cell_volume 2430.000000
_symmetry_space_group_name_H-M "C 2/M"
_symmetry_group_IT_number 12
_symmetry_cell_setting 'monoclinic'
loop_
_space_group_symop_operation_xyz
x,y,z
-x,y,-z
-x,-y,-z
x,-y,z
1/2+x,1/2+y,z
1/2-x,1/2+y,-z
1/2-x,1/2-y,-z
1/2+x,1/2-y,z
loop_
_atom_site_type_symbol
_atom_site_label
_atom_site_fract_x
_atom_site_fract_y
_atom_site_fract_z
Si Si1 0.171323 0.679953 0.303893
Si Si2 0.855586 0.231110 0.857069
Si Si3 0.426572 0.340984 0.223823
Si Si4 0.692304 0.403547 0.587108
Si Si5 0.893562 0.000000 0.548826
Si Si6 0.287958 0.500000 0.019723
Si Si7 0.339287 0.096134 0.158324
O O1 0.195770 0.717349 0.216164
O O2 0.226184 0.705329 0.545116
O O3 0.255333 0.633645 0.436495
O O4 0.000000 0.669060 0.000000
O O5 0.905778 0.199982 0.077260
O O6 0.000000 0.233569 0.000000
O O7 0.500000 0.322663 0.500000
O O8 0.537458 0.381842 0.373441
O O9 0.271790 0.365775 0.978797
O O10 0.665984 0.453794 0.488165
O O11 0.807986 0.404673 0.926013
O O12 0.844052 0.000000 0.288905
O O13 0.071170 0.000000 0.845367
O O14 0.202100 0.546508 0.855315
O O15 0.500000 0.106533 0.500000
#
# Coordination Sequence:
#
# PCOD9224043 Si02
#       7
#     8   8   8   8   4   4   8
#     4  10  22  37  60  83 109 148 201 237 281 338
#     4  10  20  39  63  82 108 155 199 235 278 347
#     4  10  20  36  58  85 117 151 191 235 289 341
#     4  10  19  36  56  82 113 153 194 232 285 345
#     4   9  16  30  57  80 107 152 196 229 277 345
#     4   9  15  30  52  79 108 150 196 230 274 349
#     4  10  20  31  51  84 119 148 184 240 293 337
#
# _framework density 9.8765429999999999
#
# number of rings (size 3 to 8) (size 9 to 14) (size 15 to 20)
#    0.000    2.167    3.333    0.250    2.333    0.000 
#    0.000    4.583    0.000    3.000    0.000    0.000 
#    0.000    0.000    0.000    0.000    0.000    0.000 
#
# Total GULP energy -133719.347520 kJ/mol
# GULP energy per Si atom -5571.639480 kJ/mol
# Density = 0.985406 g / cm^3
# Si number density = 9.876543 Si / 1000 Ang^3
#
#
#
# Elastic Constant Matrix: (Units=GPa)
#
#
# Indices 1 2 3 4 5 6 
#
# 1 17.9910 28.0635 16.2878 0.0000 3.0495 0.0000
# 2 28.0635 133.4310 16.3527 0.0000 -14.7838 0.0000
# 3 16.2878 16.3527 110.8676 0.0000 12.3741 0.0000
# 4 0.0000 0.0000 0.0000 20.6327 0.0000 -7.2199
# 5 3.0495 -14.7838 12.3741 0.0000 15.6430 0.0000
# 6 0.0000 0.0000 0.0000 -7.2199 0.0000 54.8724
#
#
#
# Elastic Compliance Matrix: (Units=1/GPa)
#
#
# Indices 1 2 3 4 5 6 
#
# 1 0.112136 -0.027207 -0.007844 0.000000 -0.041368 0.000000
# 2 -0.027207 0.015555 -0.000582 0.000000 0.020465 0.000000
# 3 -0.007844 -0.000582 0.011131 0.000000 -0.007826 0.000000
# 4 0.000000 0.000000 0.000000 0.050806 0.000000 0.006685
# 5 -0.041368 0.020465 -0.007826 0.000000 0.097523 0.000000
# 6 0.000000 0.000000 0.000000 0.006685 0.000000 0.019104
#
#
# Mechanical properties :
#
#
# Convention : Reuss Voigt Hill
#
# Bulk Modulus (GPa) = 14.80207 42.63306 28.71757
# Shear Modulus (GPa) = 12.49877 31.66863 22.08370
#
# Velocity S-wave (km/s) = 2.51818 4.00837 3.34726
# Velocity P-wave (km/s) = 3.99560 6.56145 5.43219
#
# Compressibility (1/GPa) = 0.06755812
#
# Stress axis : x y z
#
# Youngs Moduli (GPa) = 8.91773 64.28604 89.83633
#
# Poissons Ratio (x) = 1.74902 0.70468
# Poissons Ratio (y) = 0.24262 0.05224
# Poissons Ratio (z) = 0.06995 0.03738
#
# Static dielectric constant tensor:
#      x y z
#    x 1.856080 0.000000 0.033830 
#    y 0.000000 1.690420 0.000000 
#    z 0.033830 0.000000 1.704970 
# 
# From -- ./inp_files/80889.got.cif
#   From: 2010.05.17/outbox.ucp.g08.bks.cvg/sg12_41_cif.got.tgz:80889.got - 2010.06.11 11:47:21.
