data_PCOD9224018
_publ_section_title
;
Structure prediction by ZEFSAII (Michael W. Deem and Ramdas Pophale) SiO2 
 PCOD9224018
Probable space group: C 2/M
;
_chemical_formula_sum "Si O2"
_cell_formula_units_Z 32
_cell_length_a 15.000000
_cell_length_b 9.000000
_cell_length_c 30.000000
_cell_angle_alpha 90.000000
_cell_angle_beta 130.000000
_cell_angle_gamma 90.000000
_cell_volume 3102.479995
_symmetry_space_group_name_H-M "C 2/M"
_symmetry_group_IT_number 12
_symmetry_cell_setting 'monoclinic'
loop_
_space_group_symop_operation_xyz
x,y,z
-x,y,-z
-x,-y,-z
x,-y,z
1/2+x,1/2+y,z
1/2-x,1/2+y,-z
1/2-x,1/2-y,-z
1/2+x,1/2-y,z
loop_
_atom_site_type_symbol
_atom_site_label
_atom_site_fract_x
_atom_site_fract_y
_atom_site_fract_z
Si Si1 0.906689 0.321005 0.355876
Si Si2 0.371723 0.179396 0.054523
Si Si3 0.628729 0.178805 0.379471
Si Si4 0.534319 0.322366 0.258956
Si Si5 0.894981 0.819677 0.897471
Si Si6 0.121600 0.820804 0.559510
Si Si7 0.677210 0.678607 0.869034
Si Si8 0.199602 0.179290 0.229893
O O1 0.898122 0.500000 0.358104
O O2 0.863598 0.243287 0.386389
O O3 0.827429 0.277265 0.288045
O O4 0.039045 0.276595 0.388899
O O5 0.477660 0.247463 0.060010
O O6 0.383566 0.242007 0.108646
O O7 0.370428 0.000000 0.052559
O O8 0.250000 0.250000 0.000000
O O9 0.578296 0.241863 0.317067
O O10 0.761912 0.224539 0.429180
O O11 0.625078 0.000000 0.375366
O O12 0.547278 0.500000 0.269227
O O13 0.403030 0.293444 0.200206
O O14 0.614187 0.276882 0.242591
O O15 0.803479 0.750503 0.902585
O O16 0.843671 0.773381 0.832315
O O17 0.900197 0.000000 0.902530
O O18 0.000000 0.767238 0.500000
O O19 0.117672 0.000000 0.560102
O O20 0.682364 0.500000 0.877865
O O21 0.197170 0.000000 0.227217
#
# Coordination Sequence:
#
# PCOD9224018 Si02
#       8
#     8   8   8   8   8   8   8   8
#     4  10  20  36  58  83 112 147 191 236 285 346
#     4  12  26  45  67  92 122 163 209 256 306 357
#     4  10  21  36  56  84 114 148 191 241 292 352
#     4  10  19  35  60  88 120 156 191 236 292 351
#     4  11  22  41  66  94 127 163 201 248 303 359
#     4  10  22  39  55  76 111 150 190 242 299 348
#     4  11  23  41  63  93 128 162 201 247 299 363
#     4   9  17  33  58  86 119 153 184 233 297 352
#
# _framework density 10.314329000000001
#
# number of rings (size 3 to 8) (size 9 to 14) (size 15 to 20)
#    0.000    1.625    2.500    2.625    0.000    3.750 
#    0.000    3.750    0.000    0.000    0.000    0.000 
#    0.000    0.000    0.000    0.000    0.000    0.000 
#
# Total GULP energy -178732.951564 kJ/mol
# GULP energy per Si atom -5585.404736 kJ/mol
# Density = 1.029085 g / cm^3
# Si number density = 10.314329 Si / 1000 Ang^3
#
#
#
# Elastic Constant Matrix: (Units=GPa)
#
#
# Indices 1 2 3 4 5 6 
#
# 1 107.0893 20.2941 0.8319 0.0000 38.1715 0.0000
# 2 20.2941 55.3371 5.8082 0.0000 18.9386 0.0000
# 3 0.8319 5.8082 49.2560 0.0000 27.4365 0.0000
# 4 0.0000 0.0000 0.0000 26.2283 0.0000 -0.6612
# 5 38.1715 18.9386 27.4365 0.0000 36.6124 0.0000
# 6 0.0000 0.0000 0.0000 -0.6612 0.0000 25.9590
#
#
#
# Elastic Compliance Matrix: (Units=1/GPa)
#
#
# Indices 1 2 3 4 5 6 
#
# 1 0.025586 0.004492 0.026075 0.000000 -0.048539 0.000000
# 2 0.004492 0.023995 0.011358 0.000000 -0.025607 0.000000
# 3 0.026075 0.011358 0.063404 0.000000 -0.080575 0.000000
# 4 0.000000 0.000000 0.000000 0.038151 0.000000 0.000972
# 5 -0.048539 -0.025607 -0.080575 0.000000 0.151546 0.000000
# 6 0.000000 0.000000 0.000000 0.000972 0.000000 0.038547
#
#
# Mechanical properties :
#
#
# Convention : Reuss Voigt Hill
#
# Bulk Modulus (GPa) = 5.08036 29.50562 17.29299
# Shear Modulus (GPa) = 15.48035 30.07647 22.77841
#
# Velocity S-wave (km/s) = 2.74237 3.82251 3.32657
# Velocity P-wave (km/s) = 3.53491 5.81519 4.81207
#
# Compressibility (1/GPa) = 0.19683661
#
# Stress axis : x y z
#
# Youngs Moduli (GPa) = 39.08419 41.67479 15.77191
#
# Poissons Ratio (x) = -0.18721 -0.41126
# Poissons Ratio (y) = -0.17557 -0.17914
# Poissons Ratio (z) = -1.01914 -0.47335
#
# Static dielectric constant tensor:
#      x y z
#    x 1.768700 0.000000 0.034260 
#    y 0.000000 1.676910 0.000000 
#    z 0.034260 0.000000 1.761990 
# 
# From -- ./inp_files/375542.got.cif
#   From: 2010.05.17/outbox.ucp.g08.bks.cvg/sg12_188_cif.got.tgz:375542.got - 2010.06.11 11:47:21.
