data_PCOD9224245
_publ_section_title
;
Structure prediction by ZEFSAII (Michael W. Deem and Ramdas Pophale) SiO2 
 PCOD9224245
Probable space group: C 2/M
;
_chemical_formula_sum "Si O2"
_cell_formula_units_Z 32
_cell_length_a 21.000000
_cell_length_b 9.000000
_cell_length_c 21.000000
_cell_angle_alpha 90.000000
_cell_angle_beta 60.000000
_cell_angle_gamma 90.000000
_cell_volume 3437.254828
_symmetry_space_group_name_H-M "C 2/M"
_symmetry_group_IT_number 12
_symmetry_cell_setting 'monoclinic'
loop_
_space_group_symop_operation_xyz
x,y,z
-x,y,-z
-x,-y,-z
x,-y,z
1/2+x,1/2+y,z
1/2-x,1/2+y,-z
1/2-x,1/2-y,-z
1/2+x,1/2-y,z
loop_
_atom_site_type_symbol
_atom_site_label
_atom_site_fract_x
_atom_site_fract_y
_atom_site_fract_z
Si Si1 0.468625 0.679382 0.828268
Si Si2 0.976884 0.820627 0.584497
Si Si3 0.699249 0.821076 0.859643
Si Si4 0.433233 0.820474 0.983687
Si Si5 0.863290 0.821094 0.234318
Si Si6 0.361751 0.322620 0.464650
Si Si7 0.242596 0.821792 0.600838
Si Si8 0.628937 0.318964 0.247287
O O1 0.462273 0.500000 0.836117
O O2 0.555855 0.714857 0.778631
O O3 0.421319 0.724281 0.789236
O O4 0.443911 0.749264 0.908391
O O5 0.909835 0.770507 0.665509
O O6 0.000000 0.771084 0.500000
O O7 0.052759 0.786421 0.583834
O O8 0.967726 0.000000 0.583615
O O9 0.647120 0.780527 0.946211
O O10 0.653270 0.758138 0.823367
O O11 0.785457 0.772735 0.808661
O O12 0.700413 0.000000 0.857053
O O13 0.436645 0.000000 0.976152
O O14 0.500000 0.778390 0.000000
O O15 0.797392 0.777397 0.314628
O O16 0.860997 0.000000 0.227833
O O17 0.356841 0.500000 0.473874
O O18 0.320495 0.250713 0.545472
O O19 0.314522 0.278692 0.426689
O O20 0.250256 0.000000 0.595846
O O21 0.628633 0.500000 0.249404
#
# Coordination Sequence:
#
# PCOD9224245 Si02
#       8
#     8   8   8   8   8   8   8   8
#     4  10  20  35  58  82 106 142 182 222 266 318
#     4   9  17  29  49  77 105 133 172 221 263 300
#     4  10  21  36  56  79 108 142 177 220 267 316
#     4  10  20  36  55  81 114 143 173 215 271 324
#     4  10  20  33  52  77 106 141 178 218 268 318
#     4   9  17  30  49  73  98 129 172 217 260 309
#     4   9  18  31  47  70 103 135 165 212 267 312
#     4   9  19  35  53  79 112 141 178 226 272 313
#
# _framework density 9.3097549999999991
#
# number of rings (size 3 to 8) (size 9 to 14) (size 15 to 20)
#    0.000    2.500    1.250    0.750    1.750    4.750 
#    0.000    0.625    0.000    3.375    0.000    0.000 
#    0.000    0.000    0.000    0.000    0.000    0.000 
#
# Total GULP energy -178245.142986 kJ/mol
# GULP energy per Si atom -5570.160718 kJ/mol
# Density = 0.928857 g / cm^3
# Si number density = 9.309755 Si / 1000 Ang^3
#
#
#
# Elastic Constant Matrix: (Units=GPa)
#
#
# Indices 1 2 3 4 5 6 
#
# 1 77.8187 3.9734 22.9618 -0.0001 -13.6095 -0.0006
# 2 3.9734 -4.2418 10.3233 -0.0002 -3.0434 -0.0017
# 3 22.9618 10.3233 130.5639 0.0000 -14.9607 0.0000
# 4 -0.0001 -0.0002 0.0000 28.2523 0.0000 -1.1226
# 5 -13.6095 -3.0434 -14.9607 0.0000 38.9531 0.0000
# 6 -0.0006 -0.0017 0.0000 -1.1226 0.0000 18.2757
#
#
#
# Elastic Compliance Matrix: (Units=1/GPa)
#
#
# Indices 1 2 3 4 5 6 
#
# 1 0.014075 0.004398 -0.002322 0.000000 0.004369 0.000001
# 2 0.004398 -0.192765 0.013513 -0.000002 -0.008334 -0.000018
# 3 -0.002322 0.013513 0.007351 0.000000 0.003067 0.000001
# 4 0.000000 -0.000002 0.000000 0.035482 0.000000 0.002179
# 5 0.004369 -0.008334 0.003067 0.000000 0.027725 -0.000001
# 6 0.000001 -0.000018 0.000001 0.002179 -0.000001 0.054851
#
#
# Mechanical properties :
#
#
# Convention : Reuss Voigt Hill
#
# Bulk Modulus (GPa) = -7.13455 30.96198 11.91371
# Shear Modulus (GPa) = -38.11606 28.22172 -4.94717
#
# Velocity S-wave (km/s) = -4.52940 3.89743 -1.63179
# Velocity P-wave (km/s) = 5.58516 6.07603 1.69176
#
# Compressibility (1/GPa) = -0.14016297
#
# Stress axis : x y z
#
# Youngs Moduli (GPa) = 71.04678 -5.18766 136.04369
#
# Poissons Ratio (x) = 0.02281 0.31595
# Poissons Ratio (y) = -0.31244 -1.83835
# Poissons Ratio (z) = 0.16500 0.07010
#
# Static dielectric constant tensor:
#      x y z
#    x 1.660240 0.000000 -0.004000 
#    y 0.000000 1.617410 0.000000 
#    z -0.004000 0.000000 1.679560 
# 
# From -- ./inp_files/319884.got.cif
#   From: 2010.05.17/outbox.ucp.g08.bks.cvg/sg12_160_cif.got.tgz:319884.got - 2010.06.11 11:47:21.
