data_PCOD9224296
_publ_section_title
;
Structure prediction by ZEFSAII (Michael W. Deem and Ramdas Pophale) SiO2 
 PCOD9224296
Probable space group: C 2/M
;
_chemical_formula_sum "Si O2"
_cell_formula_units_Z 28
_cell_length_a 18.000000
_cell_length_b 21.000000
_cell_length_c 21.000000
_cell_angle_alpha 90.000000
_cell_angle_beta 160.000000
_cell_angle_gamma 90.000000
_cell_volume 2714.955898
_symmetry_space_group_name_H-M "C 2/M"
_symmetry_group_IT_number 12
_symmetry_cell_setting 'monoclinic'
loop_
_space_group_symop_operation_xyz
x,y,z
-x,y,-z
-x,-y,-z
x,-y,z
1/2+x,1/2+y,z
1/2-x,1/2+y,-z
1/2-x,1/2-y,-z
1/2+x,1/2-y,z
loop_
_atom_site_type_symbol
_atom_site_label
_atom_site_fract_x
_atom_site_fract_y
_atom_site_fract_z
Si Si1 0.154270 0.702320 0.475776
Si Si2 0.602575 0.927716 0.355263
Si Si3 0.464977 0.424528 0.545317
Si Si4 0.573472 0.696494 0.876971
Si Si5 0.670036 0.268007 0.084312
Si Si6 0.346600 0.878775 0.933702
Si Si7 0.221680 0.067871 0.956100
O O1 0.250000 0.750000 0.500000
O O2 0.137387 0.631107 0.431498
O O3 0.323374 0.713303 0.668686
O O4 0.916911 0.725499 0.303358
O O5 0.737333 0.917581 0.398170
O O6 0.654343 0.000000 0.420383
O O7 0.360567 0.929698 0.132015
O O8 0.500000 0.404135 0.500000
O O9 0.520978 0.500000 0.592265
O O10 0.614810 0.386079 0.714388
O O11 0.591634 0.633316 0.849628
O O12 0.750000 0.750000 0.000000
O O13 0.632533 0.684789 0.996430
O O14 0.618220 0.195235 0.021510
O O15 0.500000 0.284242 0.000000
O O16 0.365894 0.924608 0.008991
O O17 0.500000 0.898369 0.000000
O O18 0.105955 0.000000 0.859486
#
# Coordination Sequence:
#
# PCOD9224296 Si02
#       7
#     8   8   8   8   8   8   8
#     4  12  22  39  69  90 123 170 208 262 323 366
#     4  10  21  36  58  90 121 157 210 260 312 378
#     4  10  20  34  50  77 121 166 205 248 302 371
#     4  12  22  41  67  92 127 165 216 262 312 379
#     4  11  25  44  62  94 129 164 215 267 320 379
#     4  11  22  36  53  82 122 165 206 252 311 378
#     4  11  21  36  62  92 123 162 207 261 315 375
#
# _framework density 10.313243
#
# number of rings (size 3 to 8) (size 9 to 14) (size 15 to 20)
#    0.000    1.000    4.286    3.000    0.000    4.571 
#    5.143    0.000    0.000    1.714    0.000    2.000 
#    0.000    0.000    0.000    0.000    0.000    0.000 
#
# Total GULP energy -155926.753098 kJ/mol
# GULP energy per Si atom -5568.812611 kJ/mol
# Density = 1.028977 g / cm^3
# Si number density = 10.313243 Si / 1000 Ang^3
#
#
#
# Elastic Constant Matrix: (Units=GPa)
#
#
# Indices 1 2 3 4 5 6 
#
# 1 66.0607 32.4748 28.5293 0.0969 13.0341 -0.0125
# 2 32.4748 72.5331 10.6406 0.1769 -0.9806 -0.0252
# 3 28.5293 10.6406 110.6850 0.2477 4.2384 -0.0076
# 4 0.0969 0.1769 0.2477 10.5403 0.0061 -1.6244
# 5 13.0341 -0.9806 4.2384 0.0061 26.8974 -0.0288
# 6 -0.0125 -0.0252 -0.0076 -1.6244 -0.0288 19.9429
#
#
#
# Elastic Compliance Matrix: (Units=1/GPa)
#
#
# Indices 1 2 3 4 5 6 
#
# 1 0.024705 -0.010497 -0.004915 0.000069 -0.011580 -0.000011
# 2 -0.010497 0.018458 0.000715 -0.000232 0.005647 0.000006
# 3 -0.004915 0.000715 0.010203 -0.000209 0.000800 -0.000014
# 4 0.000069 -0.000232 -0.000209 0.096088 -0.000022 0.007826
# 5 -0.011580 0.005647 0.000800 -0.000022 0.042870 0.000060
# 6 -0.000011 0.000006 -0.000014 0.007826 0.000060 0.050781
#
#
# Mechanical properties :
#
#
# Convention : Reuss Voigt Hill
#
# Bulk Modulus (GPa) = 41.71426 43.61869 42.66647
# Shear Modulus (GPa) = 17.82601 23.31841 20.57221
#
# Velocity S-wave (km/s) = 2.94297 3.36595 3.16154
# Velocity P-wave (km/s) = 5.64053 6.02487 5.83586
#
# Compressibility (1/GPa) = 0.02397262
#
# Stress axis : x y z
#
# Youngs Moduli (GPa) = 40.47743 54.17589 98.01369
#
# Poissons Ratio (x) = 0.56867 0.48178
# Poissons Ratio (y) = 0.42488 -0.07011
# Poissons Ratio (z) = 0.19896 -0.03875
#
# Static dielectric constant tensor:
#      x y z
#    x 1.843550 0.001140 0.770070 
#    y 0.001140 1.762680 0.005990 
#    z 0.770070 0.005990 6.255320 
# 
# From -- ./inp_files/318061.got.cif
#   From: 2010.05.17/outbox.ucp.g08.bks.cvg/sg12_160_cif.got.tgz:318061.got - 2010.06.11 11:47:21.
