data_PCOD9224858
_publ_section_title
;
Structure prediction by ZEFSAII (Michael W. Deem and Ramdas Pophale) SiO2 
 PCOD9224858
Probable space group: C 2/M
;
_chemical_formula_sum "Si O2"
_cell_formula_units_Z 32
_cell_length_a 21.000000
_cell_length_b 9.000000
_cell_length_c 21.000000
_cell_angle_alpha 90.000000
_cell_angle_beta 120.000000
_cell_angle_gamma 90.000000
_cell_volume 3437.254828
_symmetry_space_group_name_H-M "C 2/M"
_symmetry_group_IT_number 12
_symmetry_cell_setting 'monoclinic'
loop_
_space_group_symop_operation_xyz
x,y,z
-x,y,-z
-x,-y,-z
x,-y,z
1/2+x,1/2+y,z
1/2-x,1/2+y,-z
1/2-x,1/2-y,-z
1/2+x,1/2-y,z
loop_
_atom_site_type_symbol
_atom_site_label
_atom_site_fract_x
_atom_site_fract_y
_atom_site_fract_z
Si Si1 0.444495 0.176455 0.192864
Si Si2 0.887387 0.179092 0.901597
Si Si3 0.269522 0.824176 0.757813
Si Si4 0.882490 0.324461 0.697663
Si Si5 0.479677 0.672444 0.563479
Si Si6 0.384926 0.177906 0.298501
Si Si7 0.328920 0.325124 0.545356
Si Si8 0.453859 0.677823 0.069180
O O1 0.531871 0.205913 0.245456
O O2 0.398241 0.221666 0.231464
O O3 0.422219 0.256292 0.117381
O O4 0.436952 0.000000 0.181908
O O5 0.814668 0.254524 0.838911
O O6 0.961121 0.225720 0.899747
O O7 0.880893 0.000000 0.893227
O O8 0.906932 0.218361 0.983782
O O9 0.325150 0.800412 0.726332
O O10 0.189591 0.749836 0.711769
O O11 0.259791 0.000000 0.760406
O O12 0.877366 0.500000 0.677010
O O13 0.858917 0.217756 0.629351
O O14 0.500000 0.674861 0.500000
O O15 0.483574 0.500000 0.587932
O O16 0.541049 0.767477 0.629943
O O17 0.395757 0.724324 0.532587
O O18 0.379743 0.000000 0.299936
O O19 0.318920 0.500000 0.531320
O O20 0.250000 0.250000 0.500000
O O21 0.455764 0.500000 0.073126
#
# Coordination Sequence:
#
# PCOD9224858 Si02
#       8
#     8   8   8   8   8   8   8   8
#     4  10  20  37  59  85 115 150 192 239 288 339
#     4   9  18  34  54  84 121 152 188 238 292 341
#     4  11  23  38  59  86 117 154 194 240 289 342
#     4  10  21  39  60  84 117 151 192 243 289 337
#     4  10  23  43  63  85 116 155 194 233 284 342
#     4  11  24  41  61  85 117 154 192 238 288 344
#     4  11  24  40  62  90 120 153 191 239 288 339
#     4   9  18  32  56  86 117 152 190 237 289 343
#
# _framework density 9.3097549999999991
#
# number of rings (size 3 to 8) (size 9 to 14) (size 15 to 20)
#    0.000    1.875    2.500    1.875    1.750    3.750 
#    0.000    1.875    0.000    0.000    0.000    0.000 
#    0.000    0.000    0.000    0.000    0.000    0.000 
#
# Total GULP energy -178545.419188 kJ/mol
# GULP energy per Si atom -5579.544350 kJ/mol
# Density = 0.928857 g / cm^3
# Si number density = 9.309755 Si / 1000 Ang^3
#
#
#
# Elastic Constant Matrix: (Units=GPa)
#
#
# Indices 1 2 3 4 5 6 
#
# 1 102.4499 37.9676 16.6382 0.0000 11.4136 0.0000
# 2 37.9676 24.6650 20.1716 0.0000 0.8755 0.0000
# 3 16.6382 20.1716 33.2931 0.0000 -0.9915 0.0000
# 4 0.0000 0.0000 0.0000 30.0775 0.0000 4.4629
# 5 11.4136 0.8755 -0.9915 0.0000 25.0742 0.0000
# 6 0.0000 0.0000 0.0000 4.4629 0.0000 29.1904
#
#
#
# Elastic Compliance Matrix: (Units=1/GPa)
#
#
# Indices 1 2 3 4 5 6 
#
# 1 0.034887 -0.076754 0.028709 0.000000 -0.012065 0.000000
# 2 -0.076754 0.249792 -0.112337 0.000000 0.021773 0.000000
# 3 0.028709 -0.112337 0.083578 0.000000 -0.005841 0.000000
# 4 0.000000 0.000000 0.000000 0.034019 0.000000 -0.005201
# 5 -0.012065 0.021773 -0.005841 0.000000 0.044382 0.000000
# 6 0.000000 0.000000 0.000000 -0.005201 0.000000 0.035053
#
#
# Mechanical properties :
#
#
# Convention : Reuss Voigt Hill
#
# Bulk Modulus (GPa) = 21.05576 34.44032 27.74804
# Shear Modulus (GPa) = 6.11018 22.57711 14.34365
#
# Velocity S-wave (km/s) = 1.81348 3.48595 2.77854
# Velocity P-wave (km/s) = 3.96459 5.89402 5.02282
#
# Compressibility (1/GPa) = 0.04749294
#
# Stress axis : x y z
#
# Youngs Moduli (GPa) = 28.66377 4.00333 11.96493
#
# Poissons Ratio (x) = 0.30727 -0.34350
# Poissons Ratio (y) = 2.20005 1.34411
# Poissons Ratio (z) = -0.82292 0.44972
#
# Static dielectric constant tensor:
#      x y z
#    x 1.644750 0.000000 -0.016080 
#    y 0.000000 1.629120 0.000000 
#    z -0.016080 0.000000 1.654680 
# 
# From -- ./inp_files/320020.got.cif
#   From: 2010.05.17/outbox.ucp.g08.bks.cvg/sg12_161_cif.got.tgz:320020.got - 2010.06.11 11:47:21.
