data_PCOD9224128
_publ_section_title
;
Structure prediction by ZEFSAII (Michael W. Deem and Ramdas Pophale) SiO2 
 PCOD9224128
Probable space group: C 2/M
;
_chemical_formula_sum "Si O2"
_cell_formula_units_Z 32
_cell_length_a 18.000000
_cell_length_b 9.000000
_cell_length_c 30.000000
_cell_angle_alpha 90.000000
_cell_angle_beta 40.000000
_cell_angle_gamma 90.000000
_cell_volume 3123.947783
_symmetry_space_group_name_H-M "C 2/M"
_symmetry_group_IT_number 12
_symmetry_cell_setting 'monoclinic'
loop_
_space_group_symop_operation_xyz
x,y,z
-x,y,-z
-x,-y,-z
x,-y,z
1/2+x,1/2+y,z
1/2-x,1/2+y,-z
1/2-x,1/2-y,-z
1/2+x,1/2-y,z
loop_
_atom_site_type_symbol
_atom_site_label
_atom_site_fract_x
_atom_site_fract_y
_atom_site_fract_z
Si Si1 0.039917 0.326405 0.202632
Si Si2 0.752828 0.165867 0.216870
Si Si3 0.373990 0.821335 0.565418
Si Si4 0.627906 0.821896 0.065838
Si Si5 0.298723 0.320055 0.433122
Si Si6 0.682384 0.668435 0.715845
Si Si7 0.048963 0.172802 0.288298
Si Si8 0.528707 0.676182 0.936592
O O1 0.060136 0.500000 0.196865
O O2 0.089409 0.272804 0.132904
O O3 0.085246 0.246237 0.225227
O O4 0.905076 0.285369 0.263803
O O5 0.829689 0.165221 0.225890
O O6 0.655565 0.286003 0.269931
O O7 0.836883 0.194038 0.137083
O O8 0.701351 0.000000 0.236661
O O9 0.500000 0.756182 0.500000
O O10 0.284293 0.773972 0.569033
O O11 0.312022 0.796442 0.640906
O O12 0.383372 0.000000 0.556696
O O13 0.542174 0.767453 0.066937
O O14 0.633297 0.000000 0.063372
O O15 0.750000 0.750000 0.000000
O O16 0.298247 0.500000 0.436618
O O17 0.250000 0.250000 0.500000
O O18 0.428466 0.269194 0.362645
O O19 0.655813 0.500000 0.711125
O O20 0.035582 0.000000 0.287769
O O21 0.501641 0.500000 0.944207
O O22 0.500000 0.720406 0.000000
#
# Coordination Sequence:
#
# PCOD9224128 Si02
#       8
#     8   8   8   8   8   8   8   8
#     4  11  23  40  63  89 119 154 200 254 302 354
#     4  10  22  38  61  91 120 157 201 247 299 357
#     4   9  18  34  58  85 113 150 196 242 288 348
#     4  11  25  42  63  91 122 159 203 250 303 360
#     4  10  22  39  59  85 120 157 198 246 298 358
#     4  10  19  37  63  87 115 152 198 246 298 356
#     4  11  24  41  61  87 123 163 201 248 302 359
#     4  10  22  41  63  88 123 160 197 247 300 354
#
# _framework density 10.243449
#
# number of rings (size 3 to 8) (size 9 to 14) (size 15 to 20)
#    0.000    1.750    2.500    1.125    3.500    3.750 
#    0.000    0.000    0.000    0.750    0.000    0.000 
#    0.000    0.000    0.000    0.000    0.000    0.000 
#
# Total GULP energy -178419.310881 kJ/mol
# GULP energy per Si atom -5575.603465 kJ/mol
# Density = 1.022013 g / cm^3
# Si number density = 10.243449 Si / 1000 Ang^3
#
#
#
# Elastic Constant Matrix: (Units=GPa)
#
#
# Indices 1 2 3 4 5 6 
#
# 1 49.0376 28.1995 35.6426 -0.0001 9.5841 -0.0002
# 2 28.1995 19.6266 37.4791 0.0001 1.5941 -0.0007
# 3 35.6426 37.4791 113.8683 -0.0002 12.7020 -0.0003
# 4 -0.0001 0.0001 -0.0002 20.0775 0.0001 0.7935
# 5 9.5841 1.5941 12.7020 0.0001 28.7741 0.0001
# 6 -0.0002 -0.0007 -0.0003 0.7935 0.0001 28.2318
#
#
#
# Elastic Compliance Matrix: (Units=1/GPa)
#
#
# Indices 1 2 3 4 5 6 
#
# 1 -0.233829 0.564106 -0.123777 -0.000006 0.101273 0.000010
# 2 0.564106 -1.218965 0.250398 0.000013 -0.230898 -0.000022
# 3 -0.123777 0.250398 -0.039908 -0.000003 0.044973 0.000005
# 4 -0.000006 0.000013 -0.000003 0.049862 0.000002 -0.001402
# 5 0.101273 -0.230898 0.044973 0.000002 -0.006040 -0.000004
# 6 0.000010 -0.000022 0.000005 -0.001402 -0.000004 0.035461
#
#
# Mechanical properties :
#
#
# Convention : Reuss Voigt Hill
#
# Bulk Modulus (GPa) = -8.98896 42.79722 16.90413
# Shear Modulus (GPa) = -1.76557 20.83076 9.53260
#
# Velocity S-wave (km/s) = -0.92934 3.19217 2.15943
# Velocity P-wave (km/s) = 2.35558 5.87554 3.80613
#
# Compressibility (1/GPa) = -0.11124762
#
# Stress axis : x y z
#
# Youngs Moduli (GPa) = -4.27663 -0.82037 -25.05787
#
# Poissons Ratio (x) = 0.46277 -3.10159
# Poissons Ratio (y) = 2.41247 6.27445
# Poissons Ratio (z) = -0.52935 0.20542
#
# Static dielectric constant tensor:
#      x y z
#    x 1.850160 0.000000 0.005030 
#    y 0.000000 1.712750 0.000000 
#    z 0.005030 0.000000 1.758070 
# 
# From -- ./inp_files/378109.got.cif
#   From: 2010.05.17/outbox.ucp.g08.bks.cvg/sg12_190_cif.got.tgz:378109.got - 2010.06.11 11:47:21.
