data_PCOD9224370
_publ_section_title
;
Structure prediction by ZEFSAII (Michael W. Deem and Ramdas Pophale) SiO2 
 PCOD9224370
Probable space group: C 2/M
;
_chemical_formula_sum "Si O2"
_cell_formula_units_Z 20
_cell_length_a 21.000000
_cell_length_b 9.000000
_cell_length_c 15.000000
_cell_angle_alpha 90.000000
_cell_angle_beta 130.000000
_cell_angle_gamma 90.000000
_cell_volume 2171.735996
_symmetry_space_group_name_H-M "C 2/M"
_symmetry_group_IT_number 12
_symmetry_cell_setting 'monoclinic'
loop_
_space_group_symop_operation_xyz
x,y,z
-x,y,-z
-x,-y,-z
x,-y,z
1/2+x,1/2+y,z
1/2-x,1/2+y,-z
1/2-x,1/2-y,-z
1/2+x,1/2-y,z
loop_
_atom_site_type_symbol
_atom_site_label
_atom_site_fract_x
_atom_site_fract_y
_atom_site_fract_z
Si Si1 0.285971 0.171143 0.394252
Si Si2 0.044459 0.822971 0.788735
Si Si3 0.131545 0.671114 0.335737
Si Si4 0.702451 0.323071 0.040182
Si Si5 0.337360 0.321973 0.271768
O O1 0.195241 0.244074 0.327567
O O2 0.327354 0.174247 0.528998
O O3 0.344955 0.258045 0.377854
O O4 0.277845 0.000000 0.358121
O O5 0.093989 0.776725 0.741781
O O6 0.958508 0.743295 0.731935
O O7 0.030880 0.000000 0.768031
O O8 0.106894 0.798582 0.928296
O O9 0.124513 0.500000 0.301012
O O10 0.716577 0.500000 0.056556
O O11 0.747434 0.243275 0.162038
O O12 0.750000 0.250000 0.000000
O O13 0.335678 0.500000 0.270267
#
# Coordination Sequence:
#
# PCOD9224370 Si02
#       5
#     8   8   8   8   8
#     4  10  21  37  55  75 103 138 173 213 262 311
#     4   9  19  34  53  78 107 138 170 209 257 305
#     4  10  21  36  55  77 102 136 175 214 258 309
#     4   9  17  31  51  76 106 139 172 208 256 307
#     4  10  20  34  54  80 107 137 174 214 257 304
#
# _framework density 9.2092229999999997
#
# number of rings (size 3 to 8) (size 9 to 14) (size 15 to 20)
#    0.000    2.400    0.000    3.600    0.000    8.000 
#    0.000    5.000    0.000    6.000    0.000    0.000 
#    0.000    0.000    0.000    0.000    0.000    0.000 
#
# Total GULP energy -111425.571385 kJ/mol
# GULP energy per Si atom -5571.278569 kJ/mol
# Density = 0.918826 g / cm^3
# Si number density = 9.209223 Si / 1000 Ang^3
#
#
#
# Elastic Constant Matrix: (Units=GPa)
#
#
# Indices 1 2 3 4 5 6 
#
# 1 44.1620 15.4522 2.4794 0.0000 28.4056 0.0000
# 2 15.4522 64.7704 12.4968 0.0000 26.6162 0.0000
# 3 2.4794 12.4968 12.8215 0.0000 14.0946 0.0000
# 4 0.0000 0.0000 0.0000 30.5923 0.0000 0.3407
# 5 28.4056 26.6162 14.0946 0.0000 34.6072 0.0000
# 6 0.0000 0.0000 0.0000 0.3407 0.0000 33.0568
#
#
#
# Elastic Compliance Matrix: (Units=1/GPa)
#
#
# Indices 1 2 3 4 5 6 
#
# 1 0.114097 0.011089 0.143863 0.000000 -0.160772 0.000000
# 2 0.011089 0.023850 0.008654 0.000000 -0.030970 0.000000
# 3 0.143863 0.008654 0.323862 0.000000 -0.256639 0.000000
# 4 0.000000 0.000000 0.000000 0.032692 0.000000 -0.000337
# 5 -0.160772 -0.030970 -0.256639 0.000000 0.289198 0.000000
# 6 0.000000 0.000000 0.000000 -0.000337 0.000000 0.030254
#
#
# Mechanical properties :
#
#
# Convention : Reuss Voigt Hill
#
# Bulk Modulus (GPa) = 1.26739 20.29007 10.77873
# Shear Modulus (GPa) = 6.66890 25.73962 16.20426
#
# Velocity S-wave (km/s) = 1.90490 3.74236 2.96933
# Velocity P-wave (km/s) = 2.35112 5.45103 4.19771
#
# Compressibility (1/GPa) = 0.78902231
#
# Stress axis : x y z
#
# Youngs Moduli (GPa) = 8.76444 41.92805 3.08774
#
# Poissons Ratio (x) = -0.46495 -0.44421
# Poissons Ratio (y) = -0.09719 -0.02672
# Poissons Ratio (z) = -1.26088 -0.36285
#
# Static dielectric constant tensor:
#      x y z
#    x 1.578040 0.000000 0.010350 
#    y 0.000000 1.629050 0.000000 
#    z 0.010350 0.000000 1.680240 
# 
# From -- ./inp_files/211457.got.cif
#   From: 2010.05.17/outbox.ucp.g08.bks.cvg/sg12_106_cif.got.tgz:211457.got - 2010.06.11 11:47:21.
