data_PCOD9224239
_publ_section_title
;
Structure prediction by ZEFSAII (Michael W. Deem and Ramdas Pophale) SiO2 
 PCOD9224239
Probable space group: C 2/M
;
_chemical_formula_sum "Si O2"
_cell_formula_units_Z 28
_cell_length_a 15.000000
_cell_length_b 9.000000
_cell_length_c 30.000000
_cell_angle_alpha 90.000000
_cell_angle_beta 130.000000
_cell_angle_gamma 90.000000
_cell_volume 3102.479995
_symmetry_space_group_name_H-M "C 2/M"
_symmetry_group_IT_number 12
_symmetry_cell_setting 'monoclinic'
loop_
_space_group_symop_operation_xyz
x,y,z
-x,y,-z
-x,-y,-z
x,-y,z
1/2+x,1/2+y,z
1/2-x,1/2+y,-z
1/2-x,1/2-y,-z
1/2+x,1/2-y,z
loop_
_atom_site_type_symbol
_atom_site_label
_atom_site_fract_x
_atom_site_fract_y
_atom_site_fract_z
Si Si1 0.833721 0.179785 0.655851
Si Si2 0.164933 0.321359 0.137513
Si Si3 0.151779 0.321526 0.437557
Si Si4 0.385887 0.178786 0.352379
Si Si5 0.690026 0.177821 0.043976
Si Si6 0.567636 0.323635 0.920178
Si Si7 0.903237 0.821144 0.260491
O O1 0.829769 0.255657 0.606068
O O2 0.723708 0.224177 0.651622
O O3 0.966048 0.216497 0.714777
O O4 0.827400 0.000000 0.648925
O O5 0.157323 0.500000 0.138216
O O6 0.153519 0.280664 0.081860
O O7 0.292986 0.275968 0.195246
O O8 0.056692 0.250482 0.128706
O O9 0.162799 0.500000 0.440224
O O10 0.250000 0.250000 0.500000
O O11 0.018765 0.286927 0.410930
O O12 0.382008 0.251696 0.302336
O O13 0.378900 0.000000 0.345716
O O14 0.827448 0.208097 0.080577
O O15 0.672831 0.000000 0.032631
O O16 0.617871 0.261308 0.982961
O O17 0.553216 0.500000 0.917944
O O18 0.900852 0.000000 0.263518
#
# Coordination Sequence:
#
# PCOD9224239 Si02
#       7
#     8   8   8   8   8   8   8
#     4   9  18  35  56  75  99 135 172 206 247 295
#     4  10  20  34  51  72  99 132 165 199 247 303
#     4  10  20  34  52  78 109 137 168 208 250 294
#     4   9  19  35  55  76 101 134 169 207 252 295
#     4   9  19  35  52  70  98 133 164 199 249 306
#     4  10  20  33  51  75  99 126 164 208 250 296
#     4   9  19  34  52  74  99 128 167 209 246 293
#
# _framework density 9.0250380000000003
#
# number of rings (size 3 to 8) (size 9 to 14) (size 15 to 20)
#    0.000    2.571    0.000    1.286    0.000    6.286 
#    0.000    5.714    0.000    0.000    0.000    0.000 
#    0.000    0.000    0.000    0.000    0.000    0.000 
#
# Total GULP energy -156092.559459 kJ/mol
# GULP energy per Si atom -5574.734266 kJ/mol
# Density = 0.900450 g / cm^3
# Si number density = 9.025038 Si / 1000 Ang^3
#
#
#
# Elastic Constant Matrix: (Units=GPa)
#
#
# Indices 1 2 3 4 5 6 
#
# 1 138.8308 25.3686 23.8850 0.0000 27.9097 0.0000
# 2 25.3686 16.8965 11.2545 0.0000 9.0735 0.0000
# 3 23.8850 11.2545 36.8892 0.0000 22.5936 0.0000
# 4 0.0000 0.0000 0.0000 25.9680 0.0000 4.6384
# 5 27.9097 9.0735 22.5936 0.0000 25.6290 0.0000
# 6 0.0000 0.0000 0.0000 4.6384 0.0000 29.8622
#
#
#
# Elastic Compliance Matrix: (Units=1/GPa)
#
#
# Indices 1 2 3 4 5 6 
#
# 1 0.011147 -0.013337 0.003031 0.000000 -0.010089 0.000000
# 2 -0.013337 0.092529 -0.018315 0.000000 -0.002089 0.000000
# 3 0.003031 -0.018315 0.062564 0.000000 -0.051971 0.000000
# 4 0.000000 0.000000 0.000000 0.039608 0.000000 -0.006152
# 5 -0.010089 -0.002089 -0.051971 0.000000 0.096560 0.000000
# 6 0.000000 0.000000 0.000000 -0.006152 0.000000 0.034443
#
#
# Mechanical properties :
#
#
# Convention : Reuss Voigt Hill
#
# Bulk Modulus (GPa) = 9.17447 34.84809 22.01128
# Shear Modulus (GPa) = 11.61638 25.09906 18.35772
#
# Velocity S-wave (km/s) = 2.53961 3.73302 3.19257
# Velocity P-wave (km/s) = 3.70045 6.15864 5.08046
#
# Compressibility (1/GPa) = 0.10899806
#
# Stress axis : x y z
#
# Youngs Moduli (GPa) = 89.71132 10.80739 15.98356
#
# Poissons Ratio (x) = 0.14414 -0.04844
# Poissons Ratio (y) = 1.19648 0.29274
# Poissons Ratio (z) = -0.27190 0.19794
#
# Static dielectric constant tensor:
#      x y z
#    x 1.620860 0.000000 0.030080 
#    y 0.000000 1.600450 0.000000 
#    z 0.030080 0.000000 1.624890 
# 
# From -- ./inp_files/337908.got.cif
#   From: 2010.05.17/outbox.ucp.g08.bks.cvg/sg12_169_cif.got.tgz:337908.got - 2010.06.11 11:47:21.
