data_PCOD9224620
_publ_section_title
;
Structure prediction by ZEFSAII (Michael W. Deem and Ramdas Pophale) SiO2 
 PCOD9224620
Probable space group: C 2/M
;
_chemical_formula_sum "Si O2"
_cell_formula_units_Z 32
_cell_length_a 30.000000
_cell_length_b 9.000000
_cell_length_c 18.000000
_cell_angle_alpha 90.000000
_cell_angle_beta 40.000000
_cell_angle_gamma 90.000000
_cell_volume 3123.947783
_symmetry_space_group_name_H-M "C 2/M"
_symmetry_group_IT_number 12
_symmetry_cell_setting 'monoclinic'
loop_
_space_group_symop_operation_xyz
x,y,z
-x,y,-z
-x,-y,-z
x,-y,z
1/2+x,1/2+y,z
1/2-x,1/2+y,-z
1/2-x,1/2-y,-z
1/2+x,1/2-y,z
loop_
_atom_site_type_symbol
_atom_site_label
_atom_site_fract_x
_atom_site_fract_y
_atom_site_fract_z
Si Si1 0.445838 0.177663 0.836483
Si Si2 0.847305 0.176458 0.355984
Si Si3 0.490868 0.319366 0.378945
Si Si4 0.248491 0.324547 0.796026
Si Si5 0.731418 0.322048 0.401362
Si Si6 0.905757 0.826610 0.624508
Si Si7 0.001152 0.823890 0.910354
Si Si8 0.696746 0.322115 0.008164
O O1 0.505151 0.238474 0.704834
O O2 0.454476 0.234739 0.910417
O O3 0.378980 0.253012 0.883815
O O4 0.442154 0.000000 0.840446
O O5 0.795707 0.268696 0.369348
O O6 0.832984 0.218957 0.461032
O O7 0.922883 0.194439 0.223586
O O8 0.830471 0.000000 0.372378
O O9 0.492109 0.500000 0.364788
O O10 0.427004 0.276406 0.514473
O O11 0.552769 0.270136 0.357000
O O12 0.225849 0.500000 0.826010
O O13 0.256106 0.272269 0.700267
O O14 0.324789 0.317173 0.733881
O O15 0.208715 0.224539 0.906421
O O16 0.727873 0.500000 0.398666
O O17 0.924503 0.000000 0.599528
O O18 0.983112 0.000000 0.931163
O O19 0.000000 0.780074 0.000000
O O20 0.697604 0.500000 0.015665
O O21 0.750000 0.250000 0.000000
#
# Coordination Sequence:
#
# PCOD9224620 Si02
#       8
#     8   8   8   8   8   8   8   8
#     4  12  26  42  62  92 126 164 207 254 310 371
#     4   9  19  37  60  86 120 159 203 251 302 361
#     4   9  17  34  60  88 118 159 203 245 292 357
#     4  10  20  35  58  89 122 158 202 250 303 368
#     4   9  19  34  57  88 121 160 200 247 304 364
#     4   8  16  31  57  89 120 155 198 241 295 358
#     4  10  23  42  65  92 122 161 210 261 311 367
#     4  12  26  45  67  91 123 164 209 260 313 367
#
# _framework density 10.243449
#
# number of rings (size 3 to 8) (size 9 to 14) (size 15 to 20)
#    0.000    2.125    0.000    3.750    3.500    2.250 
#    0.000    1.875    0.000    0.000    0.000    0.000 
#    0.000    0.000    0.000    0.000    0.000    0.000 
#
# Total GULP energy -178294.058425 kJ/mol
# GULP energy per Si atom -5571.689326 kJ/mol
# Density = 1.022013 g / cm^3
# Si number density = 10.243449 Si / 1000 Ang^3
#
#
#
# Elastic Constant Matrix: (Units=GPa)
#
#
# Indices 1 2 3 4 5 6 
#
# 1 72.6182 33.4972 35.8778 -0.0004 22.5698 0.0004
# 2 33.4972 78.2795 36.3908 -0.0038 9.8423 0.0029
# 3 35.8778 36.3908 104.7875 -0.0052 26.5239 0.0018
# 4 -0.0004 -0.0038 -0.0052 23.3812 0.0013 11.0674
# 5 22.5698 9.8423 26.5239 0.0013 44.5942 0.0002
# 6 0.0004 0.0029 0.0018 11.0674 0.0002 31.0114
#
#
#
# Elastic Compliance Matrix: (Units=1/GPa)
#
#
# Indices 1 2 3 4 5 6 
#
# 1 0.020437 -0.006481 -0.002932 -0.000002 -0.007169 0.000001
# 2 -0.006481 0.017292 -0.004297 0.000003 0.002020 -0.000002
# 3 -0.002932 -0.004297 0.013448 0.000003 -0.005567 -0.000001
# 4 -0.000002 0.000003 0.000003 0.051463 -0.000003 -0.018366
# 5 -0.007169 0.002020 -0.005567 -0.000003 0.028918 0.000001
# 6 0.000001 -0.000002 -0.000001 -0.018366 0.000001 0.038801
#
#
# Mechanical properties :
#
#
# Convention : Reuss Voigt Hill
#
# Bulk Modulus (GPa) = 42.09342 51.91299 47.00321
# Shear Modulus (GPa) = 24.30743 29.79200 27.04971
#
# Velocity S-wave (km/s) = 3.44828 3.81753 3.63759
# Velocity P-wave (km/s) = 6.03699 6.69522 6.37461
#
# Compressibility (1/GPa) = 0.02375668
#
# Stress axis : x y z
#
# Youngs Moduli (GPa) = 48.93113 57.83057 74.35836
#
# Poissons Ratio (x) = 0.37479 0.21801
# Poissons Ratio (y) = 0.31712 0.31955
# Poissons Ratio (z) = 0.14346 0.24852
#
# Static dielectric constant tensor:
#      x y z
#    x 1.729880 0.000000 0.015440 
#    y 0.000000 1.692400 0.000010 
#    z 0.015440 0.000010 1.563330 
# 
# From -- ./inp_files/295664.got.cif
#   From: 2010.05.17/outbox.ucp.g08.bks.cvg/sg12_148_cif.got.tgz:295664.got - 2010.06.11 11:47:21.
