data_PCOD9224339
_publ_section_title
;
Structure prediction by ZEFSAII (Michael W. Deem and Ramdas Pophale) SiO2 
 PCOD9224339
Probable space group: C 2/M
;
_chemical_formula_sum "Si O2"
_cell_formula_units_Z 24
_cell_length_a 18.000000
_cell_length_b 9.000000
_cell_length_c 30.000000
_cell_angle_alpha 90.000000
_cell_angle_beta 30.000000
_cell_angle_gamma 90.000000
_cell_volume 2430.000000
_symmetry_space_group_name_H-M "C 2/M"
_symmetry_group_IT_number 12
_symmetry_cell_setting 'monoclinic'
loop_
_space_group_symop_operation_xyz
x,y,z
-x,y,-z
-x,-y,-z
x,-y,z
1/2+x,1/2+y,z
1/2-x,1/2+y,-z
1/2-x,1/2-y,-z
1/2+x,1/2-y,z
loop_
_atom_site_type_symbol
_atom_site_label
_atom_site_fract_x
_atom_site_fract_y
_atom_site_fract_z
Si Si1 0.917728 0.334687 0.751611
Si Si2 0.627377 0.830963 0.800945
Si Si3 0.015520 0.829561 0.369421
Si Si4 0.874332 0.674316 0.527187
Si Si5 0.411886 0.325459 0.270615
Si Si6 0.565938 0.668930 0.919519
O O1 0.969120 0.500000 0.736177
O O2 0.002746 0.271254 0.664535
O O3 0.743738 0.340150 0.831761
O O4 0.942925 0.225096 0.779170
O O5 0.806933 0.825488 0.713330
O O6 0.592220 0.735667 0.776363
O O7 0.545232 0.768028 0.886946
O O8 0.585161 0.000000 0.815238
O O9 0.927187 0.765559 0.457121
O O10 0.974351 0.000000 0.381473
O O11 0.856934 0.500000 0.523815
O O12 0.725488 0.732136 0.628062
O O13 0.000000 0.681600 0.500000
O O14 0.395186 0.500000 0.277905
O O15 0.508775 0.500000 0.942884
O O16 0.500000 0.727218 0.000000
#
# Coordination Sequence:
#
# PCOD9224339 Si02
#       6
#     8   8   8   8   8   8
#     4  10  21  37  57  80 111 143 176 222 274 324
#     4  10  20  34  55  83 112 142 179 221 269 322
#     4  10  20  34  54  79 108 144 186 227 267 317
#     4  10  20  34  53  77 106 144 190 230 266 310
#     4  11  22  36  55  79 111 147 183 225 270 317
#     4   9  19  38  63  86 107 137 177 219 267 326
#
# _framework density 9.8765429999999999
#
# number of rings (size 3 to 8) (size 9 to 14) (size 15 to 20)
#    0.000    2.000    1.667    2.000    0.000    4.667 
#    0.000    0.833    0.000    0.000    0.000    0.000 
#    0.000    0.000    0.000    0.000    0.000    0.000 
#
# Total GULP energy -133906.931062 kJ/mol
# GULP energy per Si atom -5579.455461 kJ/mol
# Density = 0.985406 g / cm^3
# Si number density = 9.876543 Si / 1000 Ang^3
#
#
#
# Elastic Constant Matrix: (Units=GPa)
#
#
# Indices 1 2 3 4 5 6 
#
# 1 52.1621 34.3168 23.5431 0.0000 21.8342 -0.0003
# 2 34.3168 50.0670 58.1300 0.0001 36.3208 -0.0006
# 3 23.5431 58.1300 56.7165 -0.0001 41.9472 0.0000
# 4 0.0000 0.0001 -0.0001 1.8146 0.0000 -8.4159
# 5 21.8342 36.3208 41.9472 0.0000 26.9948 0.0000
# 6 -0.0003 -0.0006 0.0000 -8.4159 0.0000 10.8621
#
#
#
# Elastic Compliance Matrix: (Units=1/GPa)
#
#
# Indices 1 2 3 4 5 6 
#
# 1 0.023866 -0.044504 -0.038170 0.000002 0.099887 0.000000
# 2 -0.044504 0.733912 0.201218 -0.000043 -1.264135 0.000003
# 3 -0.038170 0.201218 -0.031105 -0.000010 -0.191527 0.000002
# 4 0.000002 -0.000043 -0.000010 -0.212492 0.000071 -0.164639
# 5 0.099887 -1.264135 -0.191527 0.000071 1.954724 -0.000007
# 6 0.000000 0.000003 0.000002 -0.164639 -0.000007 -0.035498
#
#
# Mechanical properties :
#
#
# Convention : Reuss Voigt Hill
#
# Bulk Modulus (GPa) = 1.03760 43.43613 22.23687
# Shear Modulus (GPa) = 1.98604 10.79801 6.39202
#
# Velocity S-wave (km/s) = 1.00380 2.34059 1.80083
# Velocity P-wave (km/s) = 1.36745 5.41680 3.95042
#
# Compressibility (1/GPa) = 0.96376310
#
# Stress axis : x y z
#
# Youngs Moduli (GPa) = 41.90030 1.36256 -32.14948
#
# Poissons Ratio (x) = 0.06064 -1.22714
# Poissons Ratio (y) = 1.86473 6.46906
# Poissons Ratio (z) = 1.59932 -0.27417
#
# Static dielectric constant tensor:
#      x y z
#    x 1.733980 0.000000 -0.041150 
#    y 0.000000 1.680770 0.000000 
#    z -0.041150 0.000000 1.679290 
# 
# From -- ./inp_files/221707.got.cif
#   From: 2010.05.17/outbox.ucp.g08.bks.cvg/sg12_111_cif.got.tgz:221707.got - 2010.06.11 11:47:21.
