data_PCOD9224046
_publ_section_title
;
Structure prediction by ZEFSAII (Michael W. Deem and Ramdas Pophale) SiO2 
 PCOD9224046
Probable space group: C 2/M
;
_chemical_formula_sum "Si O2"
_cell_formula_units_Z 32
_cell_length_a 12.000000
_cell_length_b 18.000000
_cell_length_c 30.000000
_cell_angle_alpha 90.000000
_cell_angle_beta 150.000000
_cell_angle_gamma 90.000000
_cell_volume 3240.000000
_symmetry_space_group_name_H-M "C 2/M"
_symmetry_group_IT_number 12
_symmetry_cell_setting 'monoclinic'
loop_
_space_group_symop_operation_xyz
x,y,z
-x,y,-z
-x,-y,-z
x,-y,z
1/2+x,1/2+y,z
1/2-x,1/2+y,-z
1/2-x,1/2-y,-z
1/2+x,1/2-y,z
loop_
_atom_site_type_symbol
_atom_site_label
_atom_site_fract_x
_atom_site_fract_y
_atom_site_fract_z
Si Si1 0.762523 0.170933 0.198426
Si Si2 0.259615 0.160214 0.600722
Si Si3 0.041328 0.801757 0.377334
Si Si4 0.902758 0.413530 0.016490
Si Si5 0.589013 0.913864 0.481280
Si Si6 0.503104 0.301717 0.857524
Si Si7 0.610332 0.759372 0.269171
Si Si8 0.157241 0.415992 0.693076
O O1 0.599657 0.112281 0.118592
O O2 0.626241 0.249366 0.152455
O O3 0.867331 0.156630 0.283693
O O4 0.986493 0.190884 0.249486
O O5 0.311702 0.241059 0.597334
O O6 0.362588 0.172539 0.686409
O O7 0.418047 0.100212 0.632589
O O8 0.000000 0.144888 0.500000
O O9 0.205310 0.859130 0.457419
O O10 0.872668 0.753362 0.348610
O O11 0.834599 0.500000 0.002118
O O12 0.707500 0.350297 0.947242
O O13 0.000000 0.412575 0.000000
O O14 0.500000 0.896336 0.500000
O O15 0.395508 0.908247 0.377646
O O16 0.663595 0.000000 0.507133
O O17 0.531797 0.241762 0.826517
O O18 0.332460 0.360474 0.776317
O O19 0.232960 0.500000 0.727370
#
# Coordination Sequence:
#
# PCOD9224046 Si02
#       8
#     8   8   8   8   8   8   8   8
#     4  10  21  39  60  88 115 153 192 243 291 346
#     4  11  22  34  57  87 114 157 200 246 286 333
#     4  10  21  35  59  83 112 155 201 245 283 343
#     4  11  23  37  61  93 120 151 186 235 302 355
#     4  10  23  37  54  84 122 163 197 241 301 349
#     4  11  21  40  62  87 118 154 196 239 289 348
#     4  10  19  36  56  85 117 145 199 239 288 338
#     4  11  23  39  57  84 120 156 196 239 292 350
#
# _framework density 9.8765429999999999
#
# number of rings (size 3 to 8) (size 9 to 14) (size 15 to 20)
#    0.000    1.500    5.000    1.875    5.250    1.750 
#    0.000    0.625    0.000    0.750    0.000    3.500 
#    0.000    0.000    0.000    0.000    0.000    0.000 
#
# Total GULP energy -178175.788028 kJ/mol
# GULP energy per Si atom -5567.993376 kJ/mol
# Density = 0.985406 g / cm^3
# Si number density = 9.876543 Si / 1000 Ang^3
#
#
#
# Elastic Constant Matrix: (Units=GPa)
#
#
# Indices 1 2 3 4 5 6 
#
# 1 52.5785 15.2729 14.2641 0.0001 3.9391 0.0000
# 2 15.2729 77.9678 23.8244 0.0001 -0.6136 0.0000
# 3 14.2641 23.8244 87.1978 0.0007 4.3364 0.0002
# 4 0.0001 0.0001 0.0007 35.9349 0.0003 0.4501
# 5 3.9391 -0.6136 4.3364 0.0003 23.7010 0.0001
# 6 0.0000 0.0000 0.0002 0.4501 0.0001 8.9665
#
#
#
# Elastic Compliance Matrix: (Units=1/GPa)
#
#
# Indices 1 2 3 4 5 6 
#
# 1 0.020874 -0.003402 -0.002329 0.000000 -0.003131 0.000000
# 2 -0.003402 0.014576 -0.003505 0.000000 0.001584 0.000000
# 3 -0.002329 -0.003505 0.012910 0.000000 -0.002066 0.000000
# 4 0.000000 0.000000 0.000000 0.027846 0.000000 -0.001398
# 5 -0.003131 0.001584 -0.002066 0.000000 0.043132 0.000000
# 6 0.000000 0.000000 0.000000 -0.001398 0.000000 0.111596
#
#
# Mechanical properties :
#
#
# Convention : Reuss Voigt Hill
#
# Bulk Modulus (GPa) = 33.45922 36.05188 34.75555
# Shear Modulus (GPa) = 19.27772 24.67931 21.97851
#
# Velocity S-wave (km/s) = 3.12738 3.53851 3.33928
# Velocity P-wave (km/s) = 5.47871 5.91486 5.70096
#
# Compressibility (1/GPa) = 0.02988713
#
# Stress axis : x y z
#
# Youngs Moduli (GPa) = 47.90683 68.60805 77.46228
#
# Poissons Ratio (x) = 0.23339 0.18045
# Poissons Ratio (y) = 0.16297 0.27148
# Poissons Ratio (z) = 0.11160 0.24045
#
# Static dielectric constant tensor:
#      x y z
#    x 1.855730 0.000000 -0.031760 
#    y 0.000000 1.689110 0.000000 
#    z -0.031760 0.000000 1.679350 
# 
# From -- ./inp_files/374479.got.cif
#   From: 2010.05.17/outbox.ucp.g08.bks.cvg/sg12_188_cif.got.tgz:374479.got - 2010.06.11 11:47:21.
