data_PCOD9224233
_publ_section_title
;
Structure prediction by ZEFSAII (Michael W. Deem and Ramdas Pophale) SiO2 
 PCOD9224233
Probable space group: C 2/M
;
_chemical_formula_sum "Si O2"
_cell_formula_units_Z 28
_cell_length_a 15.000000
_cell_length_b 9.000000
_cell_length_c 30.000000
_cell_angle_alpha 90.000000
_cell_angle_beta 50.000000
_cell_angle_gamma 90.000000
_cell_volume 3102.479995
_symmetry_space_group_name_H-M "C 2/M"
_symmetry_group_IT_number 12
_symmetry_cell_setting 'monoclinic'
loop_
_space_group_symop_operation_xyz
x,y,z
-x,y,-z
-x,-y,-z
x,-y,z
1/2+x,1/2+y,z
1/2-x,1/2+y,-z
1/2-x,1/2-y,-z
1/2+x,1/2-y,z
loop_
_atom_site_type_symbol
_atom_site_label
_atom_site_fract_x
_atom_site_fract_y
_atom_site_fract_z
Si Si1 0.189786 0.667342 0.560610
Si Si2 0.270455 0.679779 0.772346
Si Si3 0.398384 0.669445 0.564486
Si Si4 0.116907 0.680125 0.907215
Si Si5 0.757084 0.177907 0.314948
Si Si6 0.345747 0.819770 0.002708
Si Si7 0.539773 0.322542 0.679760
O O1 0.157347 0.500000 0.557825
O O2 0.250000 0.750000 0.500000
O O3 0.288297 0.660651 0.567071
O O4 0.083945 0.748488 0.619677
O O5 0.261299 0.500000 0.771974
O O6 0.193838 0.727984 0.839891
O O7 0.233733 0.750679 0.736911
O O8 0.407301 0.717479 0.734032
O O9 0.500000 0.732930 0.500000
O O10 0.432768 0.500000 0.566359
O O11 0.353776 0.758590 0.621748
O O12 0.119045 0.500000 0.906902
O O13 0.979961 0.721507 0.947172
O O14 0.164319 0.724320 0.941328
O O15 0.870384 0.214528 0.309090
O O16 0.748317 0.000000 0.314396
O O17 0.336483 0.000000 0.003346
O O18 0.250000 0.750000 0.000000
O O19 0.545708 0.500000 0.671755
#
# Coordination Sequence:
#
# PCOD9224233 Si02
#       7
#     8   8   8   8   8   8   8
#     4  10  20  33  51  74 100 128 164 214 268 321
#     4  10  20  36  58  77 102 147 189 217 259 323
#     4   9  19  35  53  72  95 130 173 213 259 325
#     4   8  17  34  54  79 110 146 186 220 256 317
#     4  10  21  36  52  77 108 134 169 224 279 318
#     4   9  17  33  57  83 113 146 182 222 264 310
#     4   9  20  37  53  71 101 138 175 215 264 324
#
# _framework density 9.0250380000000003
#
# number of rings (size 3 to 8) (size 9 to 14) (size 15 to 20)
#    0.000    2.714    0.000    1.714    2.000    3.143 
#    0.000    4.286    0.000    0.000    0.000    0.000 
#    0.000    0.000    0.000    0.000    0.000    0.000 
#
# Total GULP energy -156102.978281 kJ/mol
# GULP energy per Si atom -5575.106367 kJ/mol
# Density = 0.900450 g / cm^3
# Si number density = 9.025038 Si / 1000 Ang^3
#
#
#
# Elastic Constant Matrix: (Units=GPa)
#
#
# Indices 1 2 3 4 5 6 
#
# 1 114.9070 39.3449 78.8794 0.0000 8.1111 -0.0001
# 2 39.3449 41.0113 53.3933 0.0000 6.1102 -0.0001
# 3 78.8794 53.3933 209.4897 0.0000 12.3529 0.0000
# 4 0.0000 0.0000 0.0000 22.4499 0.0000 5.2649
# 5 8.1111 6.1102 12.3529 0.0000 28.4965 0.0000
# 6 -0.0001 -0.0001 0.0000 5.2649 0.0000 28.7252
#
#
#
# Elastic Compliance Matrix: (Units=1/GPa)
#
#
# Indices 1 2 3 4 5 6 
#
# 1 0.013961 -0.009727 -0.002736 0.000000 -0.000702 0.000000
# 2 -0.009727 0.043695 -0.007271 0.000000 -0.003449 0.000000
# 3 -0.002736 -0.007271 0.007716 0.000000 -0.001007 0.000000
# 4 0.000000 0.000000 0.000000 0.046544 0.000000 -0.008531
# 5 -0.000702 -0.003449 -0.001007 0.000000 0.036468 0.000000
# 6 0.000000 0.000000 0.000000 -0.008531 0.000000 0.036376
#
#
# Mechanical properties :
#
#
# Convention : Reuss Voigt Hill
#
# Bulk Modulus (GPa) = 38.60341 78.73816 58.67079
# Shear Modulus (GPa) = 21.47181 28.85368 25.16274
#
# Velocity S-wave (km/s) = 3.45275 4.00251 3.73775
# Velocity P-wave (km/s) = 6.10972 8.06702 7.15561
#
# Compressibility (1/GPa) = 0.02590444
#
# Stress axis : x y z
#
# Youngs Moduli (GPa) = 71.62741 22.88595 129.59508
#
# Poissons Ratio (x) = 0.22261 0.35461
# Poissons Ratio (y) = 0.69671 0.94227
# Poissons Ratio (z) = 0.19599 0.16640
#
# Static dielectric constant tensor:
#      x y z
#    x 1.632740 0.000000 -0.014040 
#    y 0.000000 1.627890 0.000000 
#    z -0.014040 0.000000 1.612070 
# 
# From -- ./inp_files/309031.got.cif
#   From: 2010.05.17/outbox.ucp.g08.bks.cvg/sg12_155_cif.got.tgz:309031.got - 2010.06.11 11:47:21.
