data_PCOD9224157
_publ_section_title
;
Structure prediction by ZEFSAII (Michael W. Deem and Ramdas Pophale) SiO2 
 PCOD9224157
Probable space group: C 2/M
;
_chemical_formula_sum "Si O2"
_cell_formula_units_Z 32
_cell_length_a 30.000000
_cell_length_b 9.000000
_cell_length_c 18.000000
_cell_angle_alpha 90.000000
_cell_angle_beta 40.000000
_cell_angle_gamma 90.000000
_cell_volume 3123.947783
_symmetry_space_group_name_H-M "C 2/M"
_symmetry_group_IT_number 12
_symmetry_cell_setting 'monoclinic'
loop_
_space_group_symop_operation_xyz
x,y,z
-x,y,-z
-x,-y,-z
x,-y,z
1/2+x,1/2+y,z
1/2-x,1/2+y,-z
1/2-x,1/2-y,-z
1/2+x,1/2-y,z
loop_
_atom_site_type_symbol
_atom_site_label
_atom_site_fract_x
_atom_site_fract_y
_atom_site_fract_z
Si Si1 0.663731 0.829909 0.932452
Si Si2 0.677294 0.832351 0.090633
Si Si3 0.445645 0.168070 0.502699
Si Si4 0.214701 0.676796 0.305667
Si Si5 0.481386 0.181026 0.944617
Si Si6 0.543035 0.329066 0.274856
Si Si7 0.054166 0.323237 0.712182
Si Si8 0.211100 0.679732 0.478905
O O1 0.731266 0.744692 0.820034
O O2 0.671159 0.000000 0.897329
O O3 0.658276 0.833350 0.027930
O O4 0.593008 0.766444 0.988941
O O5 0.613099 0.751305 0.211372
O O6 0.683672 0.000000 0.110606
O O7 0.750000 0.750000 0.000000
O O8 0.500000 0.156251 0.500000
O O9 0.365109 0.205591 0.616036
O O10 0.480561 0.296194 0.410253
O O11 0.445928 0.000000 0.467024
O O12 0.222038 0.500000 0.296362
O O13 0.231451 0.727049 0.369140
O O14 0.544703 0.215283 0.809737
O O15 0.476654 0.000000 0.952981
O O16 0.500000 0.241252 0.000000
O O17 0.557822 0.500000 0.244733
O O18 0.510434 0.253611 0.244336
O O19 0.046200 0.500000 0.713848
O O20 0.129444 0.281515 0.587584
O O21 0.216970 0.500000 0.476496
O O22 0.250000 0.750000 0.500000
#
# Coordination Sequence:
#
# PCOD9224157 Si02
#       8
#     8   8   8   8   8   8   8   8
#     4  10  22  39  61  88 120 155 196 249 298 351
#     4  11  24  43  64  90 123 162 205 250 301 360
#     4  10  22  42  66  89 116 160 206 245 300 364
#     4  10  22  40  59  85 122 159 198 245 300 361
#     4   9  18  34  60  89 113 149 200 246 295 354
#     4  12  24  39  63  93 123 158 200 254 306 356
#     4  10  19  39  64  84 116 159 203 252 298 358
#     4  10  22  38  60  87 119 159 201 247 299 358
#
# _framework density 10.243449
#
# number of rings (size 3 to 8) (size 9 to 14) (size 15 to 20)
#    0.000    1.750    2.500    1.500    3.500    2.750 
#    0.000    0.000    0.000    0.750    0.000    0.000 
#    0.000    0.000    0.000    0.000    0.000    0.000 
#
# Total GULP energy -178356.636490 kJ/mol
# GULP energy per Si atom -5573.644890 kJ/mol
# Density = 1.022013 g / cm^3
# Si number density = 10.243449 Si / 1000 Ang^3
#
#
#
# Elastic Constant Matrix: (Units=GPa)
#
#
# Indices 1 2 3 4 5 6 
#
# 1 60.9064 8.0358 -1.7324 0.0008 -8.8327 -0.0007
# 2 8.0358 22.6541 15.7547 0.0071 -18.5498 -0.0032
# 3 -1.7324 15.7547 67.6039 0.0006 -10.7722 0.0000
# 4 0.0008 0.0071 0.0006 25.1715 -0.0007 -2.6317
# 5 -8.8327 -18.5498 -10.7722 -0.0007 32.8611 0.0004
# 6 -0.0007 -0.0032 0.0000 -2.6317 0.0004 25.4624
#
#
#
# Elastic Compliance Matrix: (Units=1/GPa)
#
#
# Indices 1 2 3 4 5 6 
#
# 1 0.017579 -0.006145 0.002198 0.000001 0.001976 0.000000
# 2 -0.006145 0.095412 -0.014850 -0.000024 0.047339 0.000009
# 3 0.002198 -0.014850 0.018008 0.000004 -0.001889 -0.000001
# 4 0.000001 -0.000024 0.000004 0.040161 -0.000011 0.004151
# 5 0.001976 0.047339 -0.001889 -0.000011 0.057066 0.000004
# 6 0.000000 0.000009 -0.000001 0.004151 0.000004 0.039703
#
#
# Mechanical properties :
#
#
# Convention : Reuss Voigt Hill
#
# Bulk Modulus (GPa) = 10.70624 21.69786 16.20205
# Shear Modulus (GPa) = 14.85188 25.30609 20.07899
#
# Velocity S-wave (km/s) = 2.69540 3.51840 3.13403
# Velocity P-wave (km/s) = 3.86318 5.20765 4.58496
#
# Compressibility (1/GPa) = 0.09340344
#
# Stress axis : x y z
#
# Youngs Moduli (GPa) = 56.88751 10.48088 55.53077
#
# Poissons Ratio (x) = 0.06441 -0.12203
# Poissons Ratio (y) = 0.34960 0.82461
# Poissons Ratio (z) = -0.12501 0.15564
#
# Static dielectric constant tensor:
#      x y z
#    x 1.768240 0.000000 0.080390 
#    y 0.000000 1.711360 0.000000 
#    z 0.080390 0.000000 1.753710 
# 
# From -- ./inp_files/295603.got.cif
#   From: 2010.05.17/outbox.ucp.g08.bks.cvg/sg12_148_cif.got.tgz:295603.got - 2010.06.11 11:47:21.
