data_PCOD9224214
_publ_section_title
;
Structure prediction by ZEFSAII (Michael W. Deem and Ramdas Pophale) SiO2 
 PCOD9224214
Probable space group: C 2/M
;
_chemical_formula_sum "Si O2"
_cell_formula_units_Z 32
_cell_length_a 30.000000
_cell_length_b 9.000000
_cell_length_c 15.000000
_cell_angle_alpha 90.000000
_cell_angle_beta 80.000000
_cell_angle_gamma 90.000000
_cell_volume 3988.471400
_symmetry_space_group_name_H-M "C 2/M"
_symmetry_group_IT_number 12
_symmetry_cell_setting 'monoclinic'
loop_
_space_group_symop_operation_xyz
x,y,z
-x,y,-z
-x,-y,-z
x,-y,z
1/2+x,1/2+y,z
1/2-x,1/2+y,-z
1/2-x,1/2-y,-z
1/2+x,1/2-y,z
loop_
_atom_site_type_symbol
_atom_site_label
_atom_site_fract_x
_atom_site_fract_y
_atom_site_fract_z
Si Si1 0.622064 0.177035 0.230767
Si Si2 0.818272 0.825600 0.639317
Si Si3 0.789078 0.673510 0.297590
Si Si4 0.560966 0.179442 0.562963
Si Si5 0.347623 0.323151 0.428900
Si Si6 0.222297 0.826377 0.877146
Si Si7 0.813176 0.826670 0.915308
Si Si8 0.039578 0.319893 0.369028
O O1 0.654969 0.225686 0.300041
O O2 0.641384 0.255658 0.137316
O O3 0.572539 0.227622 0.279227
O O4 0.622995 0.000000 0.220269
O O5 0.764785 0.810093 0.670791
O O6 0.830560 0.784704 0.534173
O O7 0.830070 0.000000 0.649528
O O8 0.800164 0.500000 0.295423
O O9 0.814807 0.755949 0.367056
O O10 0.799409 0.743952 0.198411
O O11 0.602675 0.254718 0.596192
O O12 0.512421 0.224822 0.618995
O O13 0.559019 0.224807 0.459067
O O14 0.564939 0.000000 0.564843
O O15 0.348711 0.500000 0.421133
O O16 0.270896 0.755271 0.883597
O O17 0.228472 0.000000 0.855016
O O18 0.193344 0.811230 0.977091
O O19 0.810604 0.000000 0.892480
O O20 0.039784 0.500000 0.370731
#
# Coordination Sequence:
#
# PCOD9224214 Si02
#       8
#     8   8   8   8   8   8   8   8
#     4  11  19  29  50  76  99 130 167 200 242 290
#     4  10  21  34  46  67 100 134 167 204 239 282
#     4  11  22  35  51  69  95 133 172 206 245 287
#     4   9  16  32  51  68  95 129 166 203 244 287
#     4  11  22  34  48  70 100 132 170 207 243 287
#     4  10  20  34  51  71  95 128 166 204 242 285
#     4  10  20  33  49  71 101 130 159 198 247 295
#     4   8  16  29  49  73  96 126 163 204 243 290
#
# _framework density 8.0231239999999993
#
# number of rings (size 3 to 8) (size 9 to 14) (size 15 to 20)
#    0.000    2.000    2.500    3.000    0.000    2.500 
#    0.000    2.500    0.000    0.000    0.000    0.875 
#    0.000    7.000    0.000    0.000    0.000    0.000 
#
# Total GULP energy -178498.149322 kJ/mol
# GULP energy per Si atom -5578.067166 kJ/mol
# Density = 0.800486 g / cm^3
# Si number density = 8.023124 Si / 1000 Ang^3
#
#
#
# Elastic Constant Matrix: (Units=GPa)
#
#
# Indices 1 2 3 4 5 6 
#
# 1 24.0342 24.0278 23.5692 0.0000 -15.0184 0.0000
# 2 24.0278 44.6559 28.2236 0.0000 -7.9250 0.0000
# 3 23.5692 28.2236 51.9883 0.0000 -15.9172 0.0000
# 4 0.0000 0.0000 0.0000 24.9725 0.0000 1.7124
# 5 -15.0184 -7.9250 -15.9172 0.0000 24.5830 0.0000
# 6 0.0000 0.0000 0.0000 1.7124 0.0000 19.0894
#
#
#
# Elastic Compliance Matrix: (Units=1/GPa)
#
#
# Indices 1 2 3 4 5 6 
#
# 1 0.174357 -0.068511 -0.019958 0.000000 0.071511 0.000000
# 2 -0.068511 0.061041 -0.011061 0.000000 -0.029339 0.000000
# 3 -0.019958 -0.011061 0.036748 0.000000 0.008035 0.000000
# 4 0.000000 0.000000 0.000000 0.040292 0.000000 -0.003614
# 5 0.071511 -0.029339 0.008035 0.000000 0.080111 0.000000
# 6 0.000000 0.000000 0.000000 -0.003614 0.000000 0.052709
#
#
# Mechanical properties :
#
#
# Convention : Reuss Voigt Hill
#
# Bulk Modulus (GPa) = 13.68238 30.25773 21.97005
# Shear Modulus (GPa) = 7.47743 16.71951 12.09847
#
# Velocity S-wave (km/s) = 2.16103 3.23144 2.74884
# Velocity P-wave (km/s) = 3.84344 5.72891 4.87814
#
# Compressibility (1/GPa) = 0.07308672
#
# Stress axis : x y z
#
# Youngs Moduli (GPa) = 5.73537 16.38248 27.21226
#
# Poissons Ratio (x) = 1.12237 0.54309
# Poissons Ratio (y) = 0.39293 0.30100
# Poissons Ratio (z) = 0.11446 0.18121
#
# Static dielectric constant tensor:
#      x y z
#    x 1.523890 0.000000 -0.032260 
#    y 0.000000 1.542810 0.000000 
#    z -0.032260 0.000000 1.546080 
# 
# From -- ./inp_files/248328.got.cif
#   From: 2010.05.17/outbox.ucp.g08.bks.cvg/sg12_125_cif.got.tgz:248328.got - 2010.06.11 11:47:21.
