data_PCOD9224991
_publ_section_title
;
Structure prediction by ZEFSAII (Michael W. Deem and Ramdas Pophale) SiO2 
 PCOD9224991
Probable space group: C 2/M
;
_chemical_formula_sum "Si O2"
_cell_formula_units_Z 32
_cell_length_a 21.000000
_cell_length_b 9.000000
_cell_length_c 18.000000
_cell_angle_alpha 90.000000
_cell_angle_beta 90.000000
_cell_angle_gamma 90.000000
_cell_volume 3402.000000
_symmetry_space_group_name_H-M "C 2/M"
_symmetry_group_IT_number 12
_symmetry_cell_setting 'monoclinic'
loop_
_space_group_symop_operation_xyz
x,y,z
-x,y,-z
-x,-y,-z
x,-y,z
1/2+x,1/2+y,z
1/2-x,1/2+y,-z
1/2-x,1/2-y,-z
1/2+x,1/2-y,z
loop_
_atom_site_type_symbol
_atom_site_label
_atom_site_fract_x
_atom_site_fract_y
_atom_site_fract_z
Si Si1 0.527628 0.827864 0.777682
Si Si2 0.560777 0.827440 0.951640
Si Si3 0.838053 0.327982 0.299649
Si Si4 0.315649 0.828185 0.475848
Si Si5 0.403937 0.321880 0.718982
Si Si6 0.790868 0.318919 0.065994
Si Si7 0.062451 0.821063 0.451998
Si Si8 0.226776 0.677749 0.214233
O O1 0.542728 0.823110 0.864976
O O2 0.591416 0.786557 0.730735
O O3 0.466263 0.726781 0.764531
O O4 0.512734 0.000000 0.757747
O O5 0.634753 0.771939 0.949576
O O6 0.566168 0.000000 0.976446
O O7 0.500000 0.765283 0.000000
O O8 0.827362 0.500000 0.273196
O O9 0.829318 0.328470 0.387868
O O10 0.783682 0.218701 0.270520
O O11 0.250000 0.750000 0.500000
O O12 0.374760 0.741226 0.509824
O O13 0.314060 0.000000 0.500841
O O14 0.393689 0.500000 0.720490
O O15 0.426282 0.279165 0.634723
O O16 0.339823 0.244763 0.752496
O O17 0.789798 0.500000 0.068953
O O18 0.755516 0.254558 0.139540
O O19 0.750000 0.250000 0.000000
O O20 0.000000 0.770349 0.500000
O O21 0.060983 0.000000 0.453896
O O22 0.219617 0.500000 0.204114
#
# Coordination Sequence:
#
# PCOD9224991 Si02
#       8
#     8   8   8   8   8   8   8   8
#     4  10  20  38  63  89 120 159 201 245 301 365
#     4   9  19  37  63  92 123 159 196 239 293 354
#     4  10  21  40  62  87 120 160 199 251 313 367
#     4  11  23  37  59  88 120 156 202 253 308 367
#     4  11  24  40  60  89 125 163 203 258 316 366
#     4  11  23  42  66  94 130 167 203 250 306 365
#     4  10  22  41  62  86 122 163 203 252 316 377
#     4  12  25  41  63  90 122 165 214 259 304 364
#
# _framework density 9.4062319999999993
#
# number of rings (size 3 to 8) (size 9 to 14) (size 15 to 20)
#    0.000    1.500    1.250    3.750    1.750    5.750 
#    0.000    0.000    0.000    1.875    0.000    0.000 
#    0.000    0.000    0.000    0.000    0.000    0.000 
#
# Total GULP energy -178411.713817 kJ/mol
# GULP energy per Si atom -5575.366057 kJ/mol
# Density = 0.938482 g / cm^3
# Si number density = 9.406232 Si / 1000 Ang^3
#
#
#
# Elastic Constant Matrix: (Units=GPa)
#
#
# Indices 1 2 3 4 5 6 
#
# 1 182.8813 37.8346 53.8221 0.0000 -34.2220 0.0000
# 2 37.8346 45.2547 22.2310 0.0000 -10.4811 0.0000
# 3 53.8221 22.2310 85.4523 0.0000 -17.5275 0.0000
# 4 0.0000 0.0000 0.0000 25.0251 0.0000 -1.4647
# 5 -34.2220 -10.4811 -17.5275 0.0000 44.0083 0.0000
# 6 0.0000 0.0000 0.0000 -1.4647 0.0000 36.3760
#
#
#
# Elastic Compliance Matrix: (Units=1/GPa)
#
#
# Indices 1 2 3 4 5 6 
#
# 1 0.008009 -0.004240 -0.003126 0.000000 0.003973 0.000000
# 2 -0.004240 0.028149 -0.004306 0.000000 0.001692 0.000000
# 3 -0.003126 -0.004306 0.015336 0.000000 0.002651 0.000000
# 4 0.000000 0.000000 0.000000 0.040054 0.000000 0.001613
# 5 0.003973 0.001692 0.002651 0.000000 0.027271 0.000000
# 6 0.000000 0.000000 0.000000 0.001613 0.000000 0.027556
#
#
# Mechanical properties :
#
#
# Convention : Reuss Voigt Hill
#
# Bulk Modulus (GPa) = 35.52448 60.15152 47.83800
# Shear Modulus (GPa) = 27.91730 34.39527 31.15629
#
# Velocity S-wave (km/s) = 3.85642 4.28053 4.07400
# Velocity P-wave (km/s) = 6.22526 7.51494 6.90029
#
# Compressibility (1/GPa) = 0.02814960
#
# Stress axis : x y z
#
# Youngs Moduli (GPa) = 124.86520 35.52564 65.20810
#
# Poissons Ratio (x) = 0.15061 0.20387
# Poissons Ratio (y) = 0.52938 0.28076
# Poissons Ratio (z) = 0.39038 0.15296
#
# Static dielectric constant tensor:
#      x y z
#    x 1.653180 0.000000 0.128600 
#    y 0.000000 1.650110 0.000000 
#    z 0.128600 0.000000 2.492950 
# 
# From -- ./inp_files/281266.got.cif
#   From: 2010.05.17/outbox.ucp.g08.bks.cvg/sg12_141_cif.got.tgz:281266.got - 2010.06.11 11:47:21.
