data_PCOD9224189
_publ_section_title
;
Structure prediction by ZEFSAII (Michael W. Deem and Ramdas Pophale) SiO2 
 PCOD9224189
Probable space group: C 2/M
;
_chemical_formula_sum "Si O2"
_cell_formula_units_Z 24
_cell_length_a 24.000000
_cell_length_b 9.000000
_cell_length_c 12.000000
_cell_angle_alpha 90.000000
_cell_angle_beta 80.000000
_cell_angle_gamma 90.000000
_cell_volume 2552.621696
_symmetry_space_group_name_H-M "C 2/M"
_symmetry_group_IT_number 12
_symmetry_cell_setting 'monoclinic'
loop_
_space_group_symop_operation_xyz
x,y,z
-x,y,-z
-x,-y,-z
x,-y,z
1/2+x,1/2+y,z
1/2-x,1/2+y,-z
1/2-x,1/2-y,-z
1/2+x,1/2-y,z
loop_
_atom_site_type_symbol
_atom_site_label
_atom_site_fract_x
_atom_site_fract_y
_atom_site_fract_z
Si Si1 0.166790 0.175967 0.484154
Si Si2 0.703146 0.179322 0.940444
Si Si3 0.943259 0.673670 0.448865
Si Si4 0.279843 0.178408 0.320426
Si Si5 0.474944 0.819003 0.192081
Si Si6 0.419918 0.819684 0.977652
O O1 0.106099 0.237604 0.474127
O O2 0.215909 0.215835 0.379737
O O3 0.182006 0.248073 0.598036
O O4 0.166627 0.000000 0.495444
O O5 0.707143 0.225036 0.809646
O O6 0.706731 0.000000 0.940403
O O7 0.750000 0.250000 0.000000
O O8 0.643765 0.226549 0.013298
O O9 0.926665 0.500000 0.446901
O O10 0.954191 0.731817 0.319452
O O11 0.000000 0.682450 0.500000
O O12 0.287322 0.000000 0.324273
O O13 0.537671 0.770501 0.133551
O O14 0.474145 0.000000 0.197918
O O15 0.438994 0.775539 0.095785
O O16 0.422694 0.000000 0.977246
#
# Coordination Sequence:
#
# PCOD9224189 Si02
#       6
#     8   8   8   8   8   8
#     4  10  20  34  54  77 100 131 172 215 255 297
#     4  10  20  33  50  74 104 135 163 198 247 300
#     4  10  20  32  48  72 102 134 165 202 250 301
#     4   9  19  36  55  75 101 133 169 210 256 302
#     4   8  14  27  47  70  92 117 157 204 243 281
#     4   8  14  26  47  70  90 118 158 201 240 281
#
# _framework density 9.4020980000000005
#
# number of rings (size 3 to 8) (size 9 to 14) (size 15 to 20)
#    0.000    2.833    0.000    2.500    0.000    5.667 
#    0.000    1.667    0.000    1.000    0.000    3.500 
#    0.000    0.000    0.000    0.000    0.000    0.000 
#
# Total GULP energy -133719.104061 kJ/mol
# GULP energy per Si atom -5571.629336 kJ/mol
# Density = 0.938070 g / cm^3
# Si number density = 9.402098 Si / 1000 Ang^3
#
#
#
# Elastic Constant Matrix: (Units=GPa)
#
#
# Indices 1 2 3 4 5 6 
#
# 1 99.3365 17.5020 3.6760 0.0000 -23.9720 0.0000
# 2 17.5020 -3.1810 4.2404 0.0000 -5.8195 0.0000
# 3 3.6760 4.2404 -3.8150 0.0000 -18.2474 0.0000
# 4 0.0000 0.0000 0.0000 14.2932 0.0000 1.1208
# 5 -23.9720 -5.8195 -18.2474 0.0000 7.1359 0.0000
# 6 0.0000 0.0000 0.0000 1.1208 0.0000 25.0713
#
#
#
# Elastic Compliance Matrix: (Units=1/GPa)
#
#
# Indices 1 2 3 4 5 6 
#
# 1 0.009753 0.017330 -0.014787 0.000000 0.009083 0.000000
# 2 0.017330 -0.145146 0.010814 0.000000 -0.032499 0.000000
# 3 -0.014787 0.010814 -0.005210 0.000000 -0.054179 0.000000
# 4 0.000000 0.000000 0.000000 0.070209 0.000000 -0.003139
# 5 0.009083 -0.032499 -0.054179 0.000000 0.005605 0.000000
# 6 0.000000 0.000000 0.000000 -0.003139 0.000000 0.040027
#
#
# Mechanical properties :
#
#
# Convention : Reuss Voigt Hill
#
# Bulk Modulus (GPa) = -8.78042 15.90859 3.56409
# Shear Modulus (GPa) = -55.90331 13.76155 -21.07088
#
# Velocity S-wave (km/s) = -5.45836 2.70818 -3.35108
# Velocity P-wave (km/s) = 6.66367 4.27288 3.61573
#
# Compressibility (1/GPa) = -0.11388977
#
# Stress axis : x y z
#
# Youngs Moduli (GPa) = 102.53637 -6.88960 -191.93563
#
# Poissons Ratio (x) = 0.11940 -2.83815
# Poissons Ratio (y) = -1.77699 2.07554
# Poissons Ratio (z) = 1.51621 0.07450
#
# Static dielectric constant tensor:
#      x y z
#    x 1.692010 0.000000 -0.022670 
#    y 0.000000 1.643720 0.000000 
#    z -0.022670 0.000000 1.615900 
# 
# From -- ./inp_files/172113.got.cif
#   From: 2010.05.17/outbox.ucp.g08.bks.cvg/sg12_87_cif.got.tgz:172113.got - 2010.06.11 11:47:21.
