data_PCOD9224948
_publ_section_title
;
Structure prediction by ZEFSAII (Michael W. Deem and Ramdas Pophale) SiO2 
 PCOD9224948
Probable space group: C 2/M
;
_chemical_formula_sum "Si O2"
_cell_formula_units_Z 28
_cell_length_a 18.000000
_cell_length_b 9.000000
_cell_length_c 18.000000
_cell_angle_alpha 90.000000
_cell_angle_beta 110.000000
_cell_angle_gamma 90.000000
_cell_volume 2740.143682
_symmetry_space_group_name_H-M "C 2/M"
_symmetry_group_IT_number 12
_symmetry_cell_setting 'monoclinic'
loop_
_space_group_symop_operation_xyz
x,y,z
-x,y,-z
-x,-y,-z
x,-y,z
1/2+x,1/2+y,z
1/2-x,1/2+y,-z
1/2-x,1/2-y,-z
1/2+x,1/2-y,z
loop_
_atom_site_type_symbol
_atom_site_label
_atom_site_fract_x
_atom_site_fract_y
_atom_site_fract_z
Si Si1 0.694898 0.829218 0.039047
Si Si2 0.448052 0.667759 0.057446
Si Si3 0.413491 0.323643 0.480689
Si Si4 0.686700 0.330673 0.187847
Si Si5 0.206193 0.665439 0.648055
Si Si6 0.375785 0.323068 0.629350
Si Si7 0.954321 0.674000 0.786209
O O1 0.697026 0.720366 0.109143
O O2 0.713056 0.000000 0.061424
O O3 0.750000 0.750000 0.000000
O O4 0.608493 0.806407 0.976520
O O5 0.413811 0.500000 0.053776
O O6 0.492131 0.715007 0.147430
O O7 0.500000 0.661011 0.000000
O O8 0.500000 0.259414 0.500000
O O9 0.419227 0.500000 0.488200
O O10 0.358445 0.282176 0.394591
O O11 0.375963 0.271970 0.544874
O O12 0.653847 0.500000 0.183646
O O13 0.769109 0.331746 0.258397
O O14 0.630457 0.207663 0.204839
O O15 0.179227 0.500000 0.618059
O O16 0.288405 0.694380 0.633172
O O17 0.393501 0.500000 0.641077
O O18 0.439858 0.232059 0.698166
O O19 0.974595 0.500000 0.797122
#
# Coordination Sequence:
#
# PCOD9224948 Si02
#       7
#     8   8   8   8   8   8   8
#     4  12  25  41  61  87 120 158 201 244 292 349
#     4  11  22  38  63  88 118 158 196 241 298 348
#     4  10  21  37  57  83 115 150 185 230 285 346
#     4  10  20  38  60  85 118 154 193 240 295 347
#     4   9  19  35  59  85 109 146 188 234 285 336
#     4   9  19  37  58  81 114 150 189 235 286 345
#     4  11  21  34  58  91 118 147 194 248 293 342
#
# _framework density 10.218442
#
# number of rings (size 3 to 8) (size 9 to 14) (size 15 to 20)
#    0.000    1.714    1.429    4.714    0.000    4.286 
#    2.571    0.000    0.000    0.000    0.000    0.000 
#    0.000    0.000    0.000    0.000    0.000    0.000 
#
# Total GULP energy -155889.485355 kJ/mol
# GULP energy per Si atom -5567.481620 kJ/mol
# Density = 1.019518 g / cm^3
# Si number density = 10.218442 Si / 1000 Ang^3
#
#
#
# Elastic Constant Matrix: (Units=GPa)
#
#
# Indices 1 2 3 4 5 6 
#
# 1 -13.6409 -2.0434 -9.1602 0.0000 30.0463 0.0000
# 2 -2.0434 42.4691 -10.4623 0.0000 26.4353 0.0000
# 3 -9.1602 -10.4623 4.1804 0.0000 65.4326 0.0000
# 4 0.0000 0.0000 0.0000 4.9197 0.0000 7.3082
# 5 30.0463 26.4353 65.4326 0.0000 -35.3098 0.0000
# 6 0.0000 0.0000 0.0000 7.3082 0.0000 13.4443
#
#
#
# Elastic Compliance Matrix: (Units=1/GPa)
#
#
# Indices 1 2 3 4 5 6 
#
# 1 -0.164502 0.020107 0.054832 0.000000 -0.023318 0.000000
# 2 0.020107 0.017373 -0.012793 0.000000 0.006410 0.000000
# 3 0.054832 -0.012793 -0.008434 0.000000 0.021452 0.000000
# 4 0.000000 0.000000 0.000000 1.055977 0.000000 -0.574019
# 5 -0.023318 0.006410 0.021452 0.000000 -0.003610 0.000000
# 6 0.000000 0.000000 0.000000 -0.574019 0.000000 0.386412
#
#
# Mechanical properties :
#
#
# Convention : Reuss Voigt Hill
#
# Bulk Modulus (GPa) = -31.97935 -1.14702 -16.56319
# Shear Modulus (GPa) = 4.35351 0.25580 2.30465
#
# Velocity S-wave (km/s) = 1.46111 0.35417 1.06308
# Velocity P-wave (km/s) = 3.58265 0.62867 2.57202
#
# Compressibility (1/GPa) = -0.03127018
#
# Stress axis : x y z
#
# Youngs Moduli (GPa) = -6.07894 57.56210 -118.57072
#
# Poissons Ratio (x) = -1.15742 6.50149
# Poissons Ratio (y) = 0.12223 -1.51685
# Poissons Ratio (z) = 0.33332 0.73638
#
# Static dielectric constant tensor:
#      x y z
#    x 1.748000 0.000000 0.055800 
#    y 0.000000 1.676960 0.000000 
#    z 0.055800 0.000000 1.706450 
# 
# From -- ./inp_files/275561.got.cif
#   From: 2010.05.17/outbox.ucp.g08.bks.cvg/sg12_138_cif.got.tgz:275561.got - 2010.06.11 11:47:21.
