data_PCOD9224304
_publ_section_title
;
Structure prediction by ZEFSAII (Michael W. Deem and Ramdas Pophale) SiO2 
 PCOD9224304
Probable space group: C 2/M
;
_chemical_formula_sum "Si O2"
_cell_formula_units_Z 28
_cell_length_a 15.000000
_cell_length_b 15.000000
_cell_length_c 15.000000
_cell_angle_alpha 90.000000
_cell_angle_beta 80.000000
_cell_angle_gamma 90.000000
_cell_volume 3323.726166
_symmetry_space_group_name_H-M "C 2/M"
_symmetry_group_IT_number 12
_symmetry_cell_setting 'monoclinic'
loop_
_space_group_symop_operation_xyz
x,y,z
-x,y,-z
-x,-y,-z
x,-y,z
1/2+x,1/2+y,z
1/2-x,1/2+y,-z
1/2-x,1/2-y,-z
1/2+x,1/2-y,z
loop_
_atom_site_type_symbol
_atom_site_label
_atom_site_fract_x
_atom_site_fract_y
_atom_site_fract_z
Si Si1 0.218857 0.288345 0.806377
Si Si2 0.034387 0.273323 0.593145
Si Si3 0.900678 0.306138 0.777246
Si Si4 0.268745 0.599361 0.257767
Si Si5 0.541969 0.106845 0.893601
Si Si6 0.659342 0.398191 0.557570
Si Si7 0.799615 0.393723 0.372582
O O1 0.322114 0.265513 0.822498
O O2 0.183274 0.187222 0.791966
O O3 0.140644 0.344008 0.871090
O O4 0.229186 0.342204 0.712010
O O5 0.083734 0.177482 0.577770
O O6 0.108193 0.346417 0.611330
O O7 0.000000 0.295742 0.500000
O O8 0.956764 0.270996 0.682210
O O9 0.835268 0.385400 0.752912
O O10 0.972250 0.343712 0.837222
O O11 0.299265 0.500000 0.225181
O O12 0.282223 0.606300 0.361541
O O13 0.550410 0.000000 0.870891
O O14 0.500000 0.113577 0.000000
O O15 0.623865 0.500000 0.557087
O O16 0.724205 0.381327 0.462153
O O17 0.811300 0.500000 0.355981
#
# Coordination Sequence:
#
# PCOD9224304 Si02
#       7
#     8   8   8   8   8   8   8
#     4  10  21  38  60  86 119 153 190 246 307 345
#     4  12  21  33  54  81 121 155 200 243 291 346
#     4  10  21  36  60  89 118 155 195 244 295 347
#     4   9  18  34  57  82 112 151 195 236 288 346
#     4  11  23  41  66  93 121 154 195 246 300 355
#     4  10  20  34  51  75 114 163 204 242 290 345
#     4  11  21  34  54  80 116 157 198 247 295 340
#
# _framework density 8.4242799999999995
#
# number of rings (size 3 to 8) (size 9 to 14) (size 15 to 20)
#    0.857    0.714    2.857    3.000    0.000    1.714 
#    0.000    1.429    0.000    2.143    0.000    0.000 
#    0.000    0.000    0.000    0.000    0.000    0.000 
#
# Total GULP energy -155940.548012 kJ/mol
# GULP energy per Si atom -5569.305286 kJ/mol
# Density = 0.840511 g / cm^3
# Si number density = 8.424280 Si / 1000 Ang^3
#
#
#
# Elastic Constant Matrix: (Units=GPa)
#
#
# Indices 1 2 3 4 5 6 
#
# 1 83.2990 46.2729 34.9002 0.0000 -9.0757 0.0000
# 2 46.2729 122.3464 29.3876 0.0000 -16.1212 0.0000
# 3 34.9002 29.3876 71.8695 0.0000 -13.2268 0.0000
# 4 0.0000 0.0000 0.0000 21.9072 0.0000 -4.6034
# 5 -9.0757 -16.1212 -13.2268 0.0000 26.9706 0.0000
# 6 0.0000 0.0000 0.0000 -4.6034 0.0000 21.5295
#
#
#
# Elastic Compliance Matrix: (Units=1/GPa)
#
#
# Indices 1 2 3 4 5 6 
#
# 1 0.017525 -0.005116 -0.006481 0.000000 -0.000339 0.000000
# 2 -0.005116 0.010959 -0.001218 0.000000 0.004231 0.000000
# 3 -0.006481 -0.001218 0.018713 0.000000 0.006268 0.000000
# 4 0.000000 0.000000 0.000000 0.047794 0.000000 0.010219
# 5 -0.000339 0.004231 0.006268 0.000000 0.042567 0.000000
# 6 0.000000 0.000000 0.000000 0.010219 0.000000 0.048633
#
#
# Mechanical properties :
#
#
# Convention : Reuss Voigt Hill
#
# Bulk Modulus (GPa) = 46.36680 55.40404 50.88542
# Shear Modulus (GPa) = 22.83002 25.21171 24.02086
#
# Velocity S-wave (km/s) = 3.68504 3.87249 3.77993
# Velocity P-wave (km/s) = 6.75911 7.27667 7.02266
#
# Compressibility (1/GPa) = 0.02156716
#
# Stress axis : x y z
#
# Youngs Moduli (GPa) = 57.05996 91.25214 53.43944
#
# Poissons Ratio (x) = 0.46688 0.34633
# Poissons Ratio (y) = 0.29194 0.06508
# Poissons Ratio (z) = 0.36979 0.11112
#
# Static dielectric constant tensor:
#      x y z
#    x 1.575960 0.000000 0.005030 
#    y 0.000000 1.582770 0.000000 
#    z 0.005030 0.000000 1.560880 
# 
# From -- ./inp_files/214185.got.cif
#   From: 2010.05.17/outbox.ucp.g08.bks.cvg/sg12_108_cif.got.tgz:214185.got - 2010.06.11 11:47:21.
