data_PCOD9224976
_publ_section_title
;
Structure prediction by ZEFSAII (Michael W. Deem and Ramdas Pophale) SiO2 
 PCOD9224976
Probable space group: C 2/M
;
_chemical_formula_sum "Si O2"
_cell_formula_units_Z 24
_cell_length_a 18.000000
_cell_length_b 9.000000
_cell_length_c 30.000000
_cell_angle_alpha 90.000000
_cell_angle_beta 30.000000
_cell_angle_gamma 90.000000
_cell_volume 2430.000000
_symmetry_space_group_name_H-M "C 2/M"
_symmetry_group_IT_number 12
_symmetry_cell_setting 'monoclinic'
loop_
_space_group_symop_operation_xyz
x,y,z
-x,y,-z
-x,-y,-z
x,-y,z
1/2+x,1/2+y,z
1/2-x,1/2+y,-z
1/2-x,1/2-y,-z
1/2+x,1/2-y,z
loop_
_atom_site_type_symbol
_atom_site_label
_atom_site_fract_x
_atom_site_fract_y
_atom_site_fract_z
Si Si1 0.601409 0.321728 0.905046
Si Si2 0.414854 0.678361 0.911645
Si Si3 0.849564 0.327629 0.275575
Si Si4 0.590292 0.332942 0.279573
Si Si5 0.540891 0.330001 0.408765
Si Si6 0.702754 0.830204 0.594114
O O1 0.620381 0.500000 0.898564
O O2 0.507223 0.289943 0.909115
O O3 0.766399 0.251598 0.815004
O O4 0.500000 0.273648 0.000000
O O5 0.400584 0.500000 0.914728
O O6 0.517927 0.743172 0.818284
O O7 0.250000 0.750000 0.000000
O O8 0.849142 0.500000 0.259182
O O9 0.684418 0.256272 0.356469
O O10 0.858951 0.335634 0.323596
O O11 0.590484 0.500000 0.261226
O O12 0.600439 0.337293 0.327581
O O13 0.426422 0.263719 0.360842
O O14 0.530040 0.500000 0.432302
O O15 0.372644 0.271485 0.501443
O O16 0.706916 0.000000 0.574213
#
# Coordination Sequence:
#
# PCOD9224976 Si02
#       6
#     8   8   8   8   8   8
#     4  10  23  43  64  85 112 151 197 238 285 349
#     4  11  24  41  63  89 118 151 190 239 293 349
#     4  10  20  38  62  86 117 155 198 242 285 338
#     4  11  22  37  59  88 122 153 189 243 296 341
#     4   9  18  36  60  86 115 154 200 240 284 339
#     4  10  21  36  59  87 118 159 200 236 279 343
#
# _framework density 9.8765429999999999
#
# number of rings (size 3 to 8) (size 9 to 14) (size 15 to 20)
#    0.000    1.833    1.667    2.000    2.333    3.667 
#    0.000    1.667    0.000    2.000    0.000    0.000 
#    0.000    0.000    0.000    0.000    0.000    0.000 
#
# Total GULP energy -133694.503578 kJ/mol
# GULP energy per Si atom -5570.604316 kJ/mol
# Density = 0.985406 g / cm^3
# Si number density = 9.876543 Si / 1000 Ang^3
#
#
#
# Elastic Constant Matrix: (Units=GPa)
#
#
# Indices 1 2 3 4 5 6 
#
# 1 20.3385 5.5964 -3.7486 0.0000 -0.4866 0.0000
# 2 5.5964 42.8510 20.9818 0.0000 -7.9967 0.0000
# 3 -3.7486 20.9818 132.7328 -0.0002 -4.0939 0.0000
# 4 0.0000 0.0000 -0.0002 28.7000 0.0000 -0.7639
# 5 -0.4866 -7.9967 -4.0939 0.0000 40.7683 0.0001
# 6 0.0000 0.0000 0.0000 -0.7639 0.0001 16.4882
#
#
#
# Elastic Compliance Matrix: (Units=1/GPa)
#
#
# Indices 1 2 3 4 5 6 
#
# 1 0.051932 -0.008264 0.002751 0.000000 -0.000725 0.000000
# 2 -0.008264 0.027490 -0.004429 0.000000 0.004849 0.000000
# 3 0.002751 -0.004429 0.008312 0.000000 -0.000001 0.000000
# 4 0.000000 0.000000 0.000000 0.034886 0.000000 0.001616
# 5 -0.000725 0.004849 -0.000001 0.000000 0.025471 0.000000
# 6 0.000000 0.000000 0.000000 0.001616 0.000000 0.060724
#
#
# Mechanical properties :
#
#
# Convention : Reuss Voigt Hill
#
# Bulk Modulus (GPa) = 14.73908 26.84238 20.79073
# Shear Modulus (GPa) = 19.89524 28.73082 24.31303
#
# Velocity S-wave (km/s) = 3.17708 3.81793 3.51215
# Velocity P-wave (km/s) = 4.57562 5.74925 5.19568
#
# Compressibility (1/GPa) = 0.06784684
#
# Stress axis : x y z
#
# Youngs Moduli (GPa) = 19.25611 36.37731 120.31171
#
# Poissons Ratio (x) = 0.30064 -0.33094
# Poissons Ratio (y) = 0.15914 0.53290
# Poissons Ratio (z) = -0.05297 0.16113
#
# Static dielectric constant tensor:
#      x y z
#    x 1.823100 0.000000 0.009510 
#    y 0.000000 1.718170 0.000000 
#    z 0.009510 0.000000 1.648660 
# 
# From -- ./inp_files/244747.got.cif
#   From: 2010.05.17/outbox.ucp.g08.bks.cvg/sg12_123_cif.got.tgz:244747.got - 2010.06.11 11:47:21.
