data_PCOD9224383
_publ_section_title
;
Structure prediction by ZEFSAII (Michael W. Deem and Ramdas Pophale) SiO2 
 PCOD9224383
Probable space group: C 2/M
;
_chemical_formula_sum "Si O2"
_cell_formula_units_Z 32
_cell_length_a 30.000000
_cell_length_b 9.000000
_cell_length_c 18.000000
_cell_angle_alpha 90.000000
_cell_angle_beta 140.000000
_cell_angle_gamma 90.000000
_cell_volume 3123.947783
_symmetry_space_group_name_H-M "C 2/M"
_symmetry_group_IT_number 12
_symmetry_cell_setting 'monoclinic'
loop_
_space_group_symop_operation_xyz
x,y,z
-x,y,-z
-x,-y,-z
x,-y,z
1/2+x,1/2+y,z
1/2-x,1/2+y,-z
1/2-x,1/2-y,-z
1/2+x,1/2-y,z
loop_
_atom_site_type_symbol
_atom_site_label
_atom_site_fract_x
_atom_site_fract_y
_atom_site_fract_z
Si Si1 0.775518 0.327031 0.637888
Si Si2 0.519320 0.172250 0.267261
Si Si3 0.714761 0.673349 0.201893
Si Si4 0.009238 0.826963 0.403555
Si Si5 0.635780 0.174890 0.791714
Si Si6 0.139543 0.325173 0.969123
Si Si7 0.846781 0.171681 0.330392
Si Si8 0.643713 0.330897 0.383391
O O1 0.791728 0.500000 0.641893
O O2 0.804982 0.279754 0.755124
O O3 0.692051 0.316143 0.518561
O O4 0.805570 0.206715 0.619544
O O5 0.533593 0.289670 0.351542
O O6 0.443912 0.197582 0.135614
O O7 0.583400 0.210578 0.297545
O O8 0.520525 0.000000 0.293803
O O9 0.701577 0.500000 0.197957
O O10 0.796938 0.707437 0.302985
O O11 0.678684 0.727125 0.079666
O O12 0.073499 0.808209 0.541743
O O13 0.945877 0.710689 0.325844
O O14 0.985898 0.000000 0.380304
O O15 0.655688 0.205111 0.902546
O O16 0.666496 0.292120 0.773209
O O17 0.649519 0.000000 0.793617
O O18 0.153706 0.500000 0.000816
O O19 0.828411 0.000000 0.323975
O O20 0.618465 0.500000 0.346798
#
# Coordination Sequence:
#
# PCOD9224383 Si02
#       8
#     8   8   8   8   8   8   8   8
#     4  10  21  38  59  84 118 153 180 218 273 327
#     4  10  20  35  58  85 112 147 187 227 274 327
#     4  12  25  39  58  82 108 143 188 234 277 323
#     4  10  20  34  54  82 115 149 183 223 275 331
#     4  10  21  37  58  83 110 143 184 231 280 328
#     4   9  21  41  59  77 107 146 186 228 277 330
#     4  11  23  37  55  80 112 149 185 225 277 335
#     4  10  20  35  59  90 119 147 181 221 268 325
#
# _framework density 10.243449
#
# number of rings (size 3 to 8) (size 9 to 14) (size 15 to 20)
#    0.000    1.750    0.000    5.250    0.000   11.500 
#    0.000    0.625    0.000    3.750    0.000    0.000 
#    0.000    0.000    0.000    0.000    0.000    0.000 
#
# Total GULP energy -178379.237408 kJ/mol
# GULP energy per Si atom -5574.351169 kJ/mol
# Density = 1.022013 g / cm^3
# Si number density = 10.243449 Si / 1000 Ang^3
#
#
#
# Elastic Constant Matrix: (Units=GPa)
#
#
# Indices 1 2 3 4 5 6 
#
# 1 15.2254 1.6190 9.3491 0.0000 0.3232 0.0000
# 2 1.6190 90.6623 33.4289 0.0000 -9.4560 0.0000
# 3 9.3491 33.4289 75.2055 0.0000 -27.0901 0.0000
# 4 0.0000 0.0000 0.0000 34.8981 0.0000 0.4036
# 5 0.3232 -9.4560 -27.0901 0.0000 19.8981 0.0000
# 6 0.0000 0.0000 0.0000 0.4036 0.0000 31.3450
#
#
#
# Elastic Compliance Matrix: (Units=1/GPa)
#
#
# Indices 1 2 3 4 5 6 
#
# 1 0.079625 0.003685 -0.022315 0.000000 -0.029923 0.000000
# 2 0.003685 0.013478 -0.008170 0.000000 -0.004778 0.000000
# 3 -0.022315 -0.008170 0.036176 0.000000 0.045731 0.000000
# 4 0.000000 0.000000 0.000000 0.028659 0.000000 -0.000369
# 5 -0.029923 -0.004778 0.045731 0.000000 0.110731 0.000000
# 6 0.000000 0.000000 0.000000 -0.000369 0.000000 0.031908
#
#
# Mechanical properties :
#
#
# Convention : Reuss Voigt Hill
#
# Bulk Modulus (GPa) = 13.21381 29.98747 21.60064
# Shear Modulus (GPa) = 13.17856 26.34132 19.75994
#
# Velocity S-wave (km/s) = 2.53902 3.58965 3.10903
# Velocity P-wave (km/s) = 3.88065 5.64357 4.84300
#
# Compressibility (1/GPa) = 0.07567841
#
# Stress axis : x y z
#
# Youngs Moduli (GPa) = 12.55879 74.19303 27.64300
#
# Poissons Ratio (x) = -0.27341 0.61686
# Poissons Ratio (y) = -0.04628 0.22586
# Poissons Ratio (z) = 0.28025 0.60619
#
# Static dielectric constant tensor:
#      x y z
#    x 1.932060 0.000000 -0.002400 
#    y 0.000000 1.653290 0.000000 
#    z -0.002400 0.000000 1.697550 
# 
# From -- ./inp_files/295718.got.cif
#   From: 2010.05.17/outbox.ucp.g08.bks.cvg/sg12_148_cif.got.tgz:295718.got - 2010.06.11 11:47:21.
