data_PCOD9224273
_publ_section_title
;
Structure prediction by ZEFSAII (Michael W. Deem and Ramdas Pophale) SiO2 
 PCOD9224273
Probable space group: C 2/M
;
_chemical_formula_sum "Si O2"
_cell_formula_units_Z 32
_cell_length_a 15.000000
_cell_length_b 18.000000
_cell_length_c 24.000000
_cell_angle_alpha 90.000000
_cell_angle_beta 150.000000
_cell_angle_gamma 90.000000
_cell_volume 3240.000000
_symmetry_space_group_name_H-M "C 2/M"
_symmetry_group_IT_number 12
_symmetry_cell_setting 'monoclinic'
loop_
_space_group_symop_operation_xyz
x,y,z
-x,y,-z
-x,-y,-z
x,-y,z
1/2+x,1/2+y,z
1/2-x,1/2+y,-z
1/2-x,1/2-y,-z
1/2+x,1/2-y,z
loop_
_atom_site_type_symbol
_atom_site_label
_atom_site_fract_x
_atom_site_fract_y
_atom_site_fract_z
Si Si1 0.964102 0.587028 0.621609
Si Si2 0.540685 0.698590 0.145662
Si Si3 0.468746 0.862500 0.076235
Si Si4 0.660948 0.146690 0.620560
Si Si5 0.224067 0.670752 0.835141
Si Si6 0.270919 0.656537 0.155403
Si Si7 0.859964 0.084128 0.626862
Si Si8 0.724741 0.417269 0.025353
O O1 0.977243 0.500000 0.643955
O O2 0.766077 0.604532 0.493099
O O3 0.084572 0.602212 0.631984
O O4 0.040106 0.640945 0.709719
O O5 0.452093 0.777648 0.088283
O O6 0.688757 0.700420 0.273649
O O7 0.637019 0.672477 0.140761
O O8 0.398564 0.634802 0.079496
O O9 0.662009 0.862694 0.152474
O O10 0.417445 0.912922 0.100382
O O11 0.336049 0.879728 0.953256
O O12 0.500000 0.185340 0.500000
O O13 0.744615 0.091943 0.620549
O O14 0.228165 0.755663 0.856268
O O15 0.271005 0.617927 0.911418
O O16 0.470758 0.633862 0.272696
O O17 0.918282 0.000000 0.651013
O O18 0.655175 0.500000 0.989336
#
# Coordination Sequence:
#
# PCOD9224273 Si02
#       8
#     8   8   8   8   8   8   8   8
#     4   9  18  34  53  78 117 148 171 221 283 334
#     4  10  20  36  57  79 113 147 182 219 277 337
#     4  10  22  39  56  77 111 149 181 228 285 319
#     4   9  18  31  53  84 113 140 174 222 277 331
#     4  10  21  36  56  82 109 147 183 226 277 329
#     4  10  21  38  59  78 106 146 190 233 272 324
#     4  10  20  33  54  82 109 145 187 225 272 328
#     4  12  24  35  56  87 114 145 186 227 273 335
#
# _framework density 9.8765429999999999
#
# number of rings (size 3 to 8) (size 9 to 14) (size 15 to 20)
#    0.000    2.000    1.250    2.250    1.750    7.500 
#    0.000    1.250    0.000    0.000    0.000    2.625 
#    0.000    0.000    0.000    0.000    0.000    0.000 
#
# Total GULP energy -178360.708915 kJ/mol
# GULP energy per Si atom -5573.772154 kJ/mol
# Density = 0.985406 g / cm^3
# Si number density = 9.876543 Si / 1000 Ang^3
#
#
#
# Elastic Constant Matrix: (Units=GPa)
#
#
# Indices 1 2 3 4 5 6 
#
# 1 24.8950 12.8891 17.6065 0.0000 -2.5856 0.0001
# 2 12.8891 15.3551 20.1672 0.0005 6.4193 0.0028
# 3 17.6065 20.1672 60.2630 0.0011 -7.0637 0.0075
# 4 0.0000 0.0005 0.0011 60.5051 0.0001 30.0138
# 5 -2.5856 6.4193 -7.0637 0.0001 19.0348 0.0007
# 6 0.0001 0.0028 0.0075 30.0138 0.0007 -28.1695
#
#
#
# Elastic Compliance Matrix: (Units=1/GPa)
#
#
# Indices 1 2 3 4 5 6 
#
# 1 0.129716 -0.215220 0.046732 0.000002 0.107543 -0.000003
# 2 -0.215220 0.585974 -0.167077 -0.000003 -0.288850 0.000002
# 3 0.046732 -0.167077 0.069213 -0.000001 0.088377 0.000003
# 4 0.000002 -0.000003 -0.000001 0.010813 0.000000 0.011521
# 5 0.107543 -0.288850 0.088377 0.000000 0.197352 0.000001
# 6 -0.000003 0.000002 0.000003 0.011521 0.000001 -0.023225
#
#
# Mechanical properties :
#
#
# Convention : Reuss Voigt Hill
#
# Bulk Modulus (GPa) = 8.78946 22.42653 15.60800
# Shear Modulus (GPa) = 2.97815 13.59744 8.28779
#
# Velocity S-wave (km/s) = 1.22921 2.62653 2.05056
# Velocity P-wave (km/s) = 2.54439 4.53611 3.67765
#
# Compressibility (1/GPa) = 0.11377258
#
# Stress axis : x y z
#
# Youngs Moduli (GPa) = 7.70915 1.70656 14.44824
#
# Poissons Ratio (x) = 0.36729 -0.67519
# Poissons Ratio (y) = 1.65917 2.41396
# Poissons Ratio (z) = -0.36026 0.28513
#
# Static dielectric constant tensor:
#      x y z
#    x 1.741340 0.000000 0.056900 
#    y 0.000000 1.679270 0.000000 
#    z 0.056900 0.000000 1.772940 
# 
# From -- ./inp_files/340852.got.cif
#   From: 2010.05.17/outbox.ucp.g08.bks.cvg/sg12_171_cif.got.tgz:340852.got - 2010.06.11 11:47:21.
