data_PCOD9224299
_publ_section_title
;
Structure prediction by ZEFSAII (Michael W. Deem and Ramdas Pophale) SiO2 
 PCOD9224299
Probable space group: C 2/M
;
_chemical_formula_sum "Si O2"
_cell_formula_units_Z 28
_cell_length_a 18.000000
_cell_length_b 9.000000
_cell_length_c 24.000000
_cell_angle_alpha 90.000000
_cell_angle_beta 130.000000
_cell_angle_gamma 90.000000
_cell_volume 2978.380795
_symmetry_space_group_name_H-M "C 2/M"
_symmetry_group_IT_number 12
_symmetry_cell_setting 'monoclinic'
loop_
_space_group_symop_operation_xyz
x,y,z
-x,y,-z
-x,-y,-z
x,-y,z
1/2+x,1/2+y,z
1/2-x,1/2+y,-z
1/2-x,1/2-y,-z
1/2+x,1/2-y,z
loop_
_atom_site_type_symbol
_atom_site_label
_atom_site_fract_x
_atom_site_fract_y
_atom_site_fract_z
Si Si1 0.636283 0.320622 0.326880
Si Si2 0.899083 0.178794 0.048612
Si Si3 0.891904 0.819768 0.812102
Si Si4 0.685772 0.821027 0.518773
Si Si5 0.484548 0.320166 0.621477
Si Si6 0.305061 0.320901 0.237821
Si Si7 0.772096 0.822050 0.095526
O O1 0.631405 0.500000 0.324181
O O2 0.601852 0.271096 0.249702
O O3 0.748463 0.282583 0.395542
O O4 0.568039 0.274677 0.345545
O O5 0.846181 0.218625 0.081640
O O6 0.011213 0.225369 0.107659
O O7 0.896616 0.000000 0.041877
O O8 0.831576 0.248885 0.968503
O O9 0.792574 0.754252 0.787590
O O10 0.888129 0.000000 0.811507
O O11 0.750000 0.750000 0.500000
O O12 0.579064 0.753634 0.458209
O O13 0.682711 0.000000 0.512229
O O14 0.477734 0.500000 0.613593
O O15 0.597197 0.278188 0.681919
O O16 0.296756 0.500000 0.237797
O O17 0.312789 0.283037 0.175849
O O18 0.760784 0.000000 0.088237
#
# Coordination Sequence:
#
# PCOD9224299 Si02
#       7
#     8   8   8   8   8   8   8
#     4   8  15  30  52  73  93 124 164 201 238 284
#     4   9  18  33  54  77  97 122 161 205 244 283
#     4  10  20  34  51  71  98 131 165 200 239 287
#     4   9  16  28  49  76 101 125 160 204 247 290
#     4   9  17  32  53  73  96 127 165 206 244 286
#     4  10  21  35  50  71 100 133 165 198 242 293
#     4   9  18  34  55  75  97 127 162 200 243 291
#
# _framework density 9.4010809999999996
#
# number of rings (size 3 to 8) (size 9 to 14) (size 15 to 20)
#    0.000    2.857    0.000    2.143    0.000    5.714 
#    0.000    7.143    0.000   11.143    0.000    0.000 
#    0.000    0.000    0.000    0.000    0.000    0.000 
#
# Total GULP energy -156055.170517 kJ/mol
# GULP energy per Si atom -5573.398947 kJ/mol
# Density = 0.937968 g / cm^3
# Si number density = 9.401081 Si / 1000 Ang^3
#
#
#
# Elastic Constant Matrix: (Units=GPa)
#
#
# Indices 1 2 3 4 5 6 
#
# 1 42.9477 8.9945 15.1876 0.0000 33.1572 0.0000
# 2 8.9945 17.9252 19.0281 0.0000 13.7677 0.0000
# 3 15.1876 19.0281 87.6436 0.0000 45.9176 0.0000
# 4 0.0000 0.0000 0.0000 31.2116 0.0000 6.8662
# 5 33.1572 13.7677 45.9176 0.0000 38.4416 0.0000
# 6 0.0000 0.0000 0.0000 6.8662 0.0000 25.7203
#
#
#
# Elastic Compliance Matrix: (Units=1/GPa)
#
#
# Indices 1 2 3 4 5 6 
#
# 1 -0.256194 -0.019180 -0.189236 0.000000 0.453884 0.000000
# 2 -0.019180 0.076745 -0.020324 0.000000 0.013334 0.000000
# 3 -0.189236 -0.020324 -0.108801 0.000000 0.300462 0.000000
# 4 0.000000 0.000000 0.000000 0.034038 0.000000 -0.009087
# 5 0.453884 0.013334 0.300462 0.000000 -0.729148 0.000000
# 6 0.000000 0.000000 0.000000 -0.009087 0.000000 0.041306
#
#
# Mechanical properties :
#
#
# Convention : Reuss Voigt Hill
#
# Bulk Modulus (GPa) = -1.34097 26.10411 12.38157
# Shear Modulus (GPa) = -6.81987 26.09511 9.63762
#
# Velocity S-wave (km/s) = -1.90658 3.72947 2.26648
# Velocity P-wave (km/s) = 2.35828 5.69727 3.66725
#
# Compressibility (1/GPa) = -0.74573115
#
# Stress axis : x y z
#
# Youngs Moduli (GPa) = -3.90329 13.03021 -9.19105
#
# Poissons Ratio (x) = 0.24992 -1.73928
# Poissons Ratio (y) = -0.07486 -0.18680
# Poissons Ratio (z) = -0.73864 0.26483
#
# Static dielectric constant tensor:
#      x y z
#    x 1.659160 0.000000 0.002430 
#    y 0.000000 1.632240 0.000000 
#    z 0.002430 0.000000 1.673710 
# 
# From -- ./inp_files/342586.got.cif
#   From: 2010.05.17/outbox.ucp.g08.bks.cvg/sg12_172_cif.got.tgz:342586.got - 2010.06.11 11:47:21.
