data_PCOD9224815
_publ_section_title
;
Structure prediction by ZEFSAII (Michael W. Deem and Ramdas Pophale) SiO2 
 PCOD9224815
Probable space group: C 2/M
;
_chemical_formula_sum "Si O2"
_cell_formula_units_Z 28
_cell_length_a 21.000000
_cell_length_b 9.000000
_cell_length_c 30.000000
_cell_angle_alpha 90.000000
_cell_angle_beta 30.000000
_cell_angle_gamma 90.000000
_cell_volume 2835.000000
_symmetry_space_group_name_H-M "C 2/M"
_symmetry_group_IT_number 12
_symmetry_cell_setting 'monoclinic'
loop_
_space_group_symop_operation_xyz
x,y,z
-x,y,-z
-x,-y,-z
x,-y,z
1/2+x,1/2+y,z
1/2-x,1/2+y,-z
1/2-x,1/2-y,-z
1/2+x,1/2-y,z
loop_
_atom_site_type_symbol
_atom_site_label
_atom_site_fract_x
_atom_site_fract_y
_atom_site_fract_z
Si Si1 0.579347 0.319101 0.995250
Si Si2 0.772738 0.676772 0.678801
Si Si3 0.650822 0.173605 0.134307
Si Si4 0.557135 0.670928 0.352172
Si Si5 0.978910 0.177276 0.868851
Si Si6 0.562906 0.174432 0.661738
Si Si7 0.809974 0.828009 0.563837
O O1 0.574612 0.500000 0.995753
O O2 0.528796 0.274469 0.074813
O O3 0.500000 0.265771 0.000000
O O4 0.727530 0.274573 0.910384
O O5 0.791094 0.500000 0.669015
O O6 0.832067 0.744799 0.687932
O O7 0.622493 0.710003 0.766963
O O8 0.826550 0.742777 0.600163
O O9 0.618846 0.253173 0.107243
O O10 0.530214 0.185936 0.239595
O O11 0.673146 0.000000 0.110505
O O12 0.593623 0.500000 0.321579
O O13 0.503079 0.743880 0.339752
O O14 0.439569 0.673234 0.457867
O O15 0.960014 0.000000 0.879674
O O16 0.698841 0.230923 0.598048
O O17 0.577550 0.000000 0.640749
O O18 0.775950 0.000000 0.595001
#
# Coordination Sequence:
#
# PCOD9224815 Si02
#       7
#     8   8   8   8   8   8   8
#     4   9  19  35  59  88 116 148 186 228 277 335
#     4  11  23  37  58  86 116 152 194 239 285 337
#     4  10  20  36  62  87 112 152 191 229 279 336
#     4  11  24  38  57  83 115 154 192 238 294 342
#     4  10  21  37  59  86 116 150 189 234 278 332
#     4  10  21  37  59  86 115 148 192 238 283 343
#     4  10  21  40  60  82 114 151 192 239 290 343
#
# _framework density 9.8765429999999999
#
# number of rings (size 3 to 8) (size 9 to 14) (size 15 to 20)
#    0.000    1.857    1.429    2.143    2.000    4.571 
#    0.000    0.000    0.000    0.857    0.000    0.000 
#    0.000    0.000    0.000    0.000    0.000    0.000 
#
# Total GULP energy -156228.493811 kJ/mol
# GULP energy per Si atom -5579.589065 kJ/mol
# Density = 0.985406 g / cm^3
# Si number density = 9.876543 Si / 1000 Ang^3
#
#
#
# Elastic Constant Matrix: (Units=GPa)
#
#
# Indices 1 2 3 4 5 6 
#
# 1 154.1753 38.4230 2.9225 -0.0001 -19.1965 -0.0002
# 2 38.4230 34.2691 11.0428 0.0023 -9.1329 0.0009
# 3 2.9225 11.0428 36.5625 -0.0012 -9.3646 0.0002
# 4 -0.0001 0.0023 -0.0012 -0.7128 -0.0012 0.1116
# 5 -19.1965 -9.1329 -9.3646 -0.0012 28.2332 0.0015
# 6 -0.0002 0.0009 0.0002 0.1116 0.0015 40.1927
#
#
#
# Elastic Compliance Matrix: (Units=1/GPa)
#
#
# Indices 1 2 3 4 5 6 
#
# 1 0.009649 -0.010845 0.003591 -0.000050 0.004244 0.000000
# 2 -0.010845 0.046208 -0.012184 0.000166 0.003532 -0.000002
# 3 0.003591 -0.012184 0.033178 -0.000111 0.009505 0.000000
# 4 -0.000050 0.000166 -0.000111 -1.402219 -0.000078 0.003893
# 5 0.004244 0.003532 0.009505 -0.000078 0.042600 -0.000002
# 6 0.000000 -0.000002 0.000000 0.003893 -0.000002 0.024869
#
#
# Mechanical properties :
#
#
# Convention : Reuss Voigt Hill
#
# Bulk Modulus (GPa) = 19.93689 36.64262 28.28975
# Shear Modulus (GPa) = -4.20126 25.05052 10.42463
#
# Velocity S-wave (km/s) = -1.45997 3.56502 2.29977
# Velocity P-wave (km/s) = 2.69684 5.96124 4.62652
#
# Compressibility (1/GPa) = 0.05015827
#
# Stress axis : x y z
#
# Youngs Moduli (GPa) = 103.63550 21.64126 30.14057
#
# Poissons Ratio (x) = 0.23470 -0.10824
# Poissons Ratio (y) = 1.12393 0.36725
# Poissons Ratio (z) = -0.37217 0.26369
#
# Static dielectric constant tensor:
#      x y z
#    x 1.661200 0.000000 -0.020280 
#    y 0.000000 1.692880 0.000000 
#    z -0.020280 0.000000 1.750090 
# 
# From -- ./inp_files/275491.got.cif
#   From: 2010.05.17/outbox.ucp.g08.bks.cvg/sg12_138_cif.got.tgz:275491.got - 2010.06.11 11:47:21.
