data_PCOD9224496
_publ_section_title
;
Structure prediction by ZEFSAII (Michael W. Deem and Ramdas Pophale) SiO2 
 PCOD9224496
Probable space group: C 2/M
;
_chemical_formula_sum "Si O2"
_cell_formula_units_Z 28
_cell_length_a 15.000000
_cell_length_b 9.000000
_cell_length_c 24.000000
_cell_angle_alpha 90.000000
_cell_angle_beta 120.000000
_cell_angle_gamma 90.000000
_cell_volume 2805.922308
_symmetry_space_group_name_H-M "C 2/M"
_symmetry_group_IT_number 12
_symmetry_cell_setting 'monoclinic'
loop_
_space_group_symop_operation_xyz
x,y,z
-x,y,-z
-x,-y,-z
x,-y,z
1/2+x,1/2+y,z
1/2-x,1/2+y,-z
1/2-x,1/2-y,-z
1/2+x,1/2-y,z
loop_
_atom_site_type_symbol
_atom_site_label
_atom_site_fract_x
_atom_site_fract_y
_atom_site_fract_z
Si Si1 0.658165 0.178978 0.041101
Si Si2 0.919924 0.674413 0.866795
Si Si3 0.383177 0.676022 0.091425
Si Si4 0.287347 0.670068 0.648823
Si Si5 0.773634 0.669852 0.239342
Si Si6 0.014688 0.821166 0.678869
Si Si7 0.923644 0.177490 0.429384
O O1 0.585700 0.219588 0.069845
O O2 0.778669 0.212886 0.091673
O O3 0.650233 0.000000 0.030042
O O4 0.634946 0.261422 0.976540
O O5 0.938148 0.500000 0.870228
O O6 0.807647 0.717768 0.811728
O O7 0.007874 0.754411 0.858672
O O8 0.393249 0.500000 0.093859
O O9 0.281023 0.500000 0.626696
O O10 0.261587 0.668591 0.706720
O O11 0.402523 0.721531 0.668184
O O12 0.190965 0.762380 0.596333
O O13 0.763661 0.500000 0.215671
O O14 0.888542 0.731282 0.266341
O O15 0.029286 0.790921 0.617200
O O16 0.027431 0.000000 0.691794
O O17 0.000000 0.237136 0.500000
O O18 0.918446 0.000000 0.431613
#
# Coordination Sequence:
#
# PCOD9224496 Si02
#       7
#     8   8   8   8   8   8   8
#     4   9  20  37  54  74 103 136 166 200 249 308
#     4  11  22  36  54  75 102 136 169 203 253 309
#     4  10  20  35  55  78 103 131 166 208 250 295
#     4   9  19  35  54  74 100 137 173 207 251 301
#     4  10  21  36  52  74 101 128 169 218 254 291
#     4   9  18  35  55  73 100 138 172 203 251 306
#     4   9  18  32  51  78 109 136 167 209 250 293
#
# _framework density 9.9788940000000004
#
# number of rings (size 3 to 8) (size 9 to 14) (size 15 to 20)
#    0.000    2.429    0.000    1.714    0.000    6.571 
#    0.000    5.714    0.000    0.000    0.000    0.000 
#    0.000    0.000    0.000    0.000    0.000    0.000 
#
# Total GULP energy -156092.821772 kJ/mol
# GULP energy per Si atom -5574.743635 kJ/mol
# Density = 0.995618 g / cm^3
# Si number density = 9.978894 Si / 1000 Ang^3
#
#
#
# Elastic Constant Matrix: (Units=GPa)
#
#
# Indices 1 2 3 4 5 6 
#
# 1 157.2444 31.5692 10.3943 0.0000 31.7044 0.0000
# 2 31.5692 -11.1183 -8.9904 0.0000 -3.0043 0.0000
# 3 10.3943 -8.9904 21.5892 0.0000 16.2586 0.0000
# 4 0.0000 0.0000 0.0000 20.2553 0.0000 10.4368
# 5 31.7044 -3.0043 16.2586 0.0000 19.7949 0.0000
# 6 0.0000 0.0000 0.0000 10.4368 0.0000 34.1536
#
#
#
# Elastic Compliance Matrix: (Units=1/GPa)
#
#
# Indices 1 2 3 4 5 6 
#
# 1 0.009000 0.012896 0.027314 0.000000 -0.034892 0.000000
# 2 0.012896 -0.041255 -0.008175 0.000000 -0.020202 0.000000
# 3 0.027314 -0.008175 0.166853 0.000000 -0.182034 0.000000
# 4 0.000000 0.000000 0.000000 0.058596 0.000000 -0.017906
# 5 -0.034892 -0.020202 -0.182034 0.000000 0.252852 0.000000
# 6 0.000000 0.000000 0.000000 -0.017906 0.000000 0.034751
#
#
# Mechanical properties :
#
#
# Convention : Reuss Voigt Hill
#
# Bulk Modulus (GPa) = 5.03351 25.96241 15.49796
# Shear Modulus (GPa) = 10.35307 23.82356 17.08832
#
# Velocity S-wave (km/s) = 2.28008 3.45874 2.92930
# Velocity P-wave (km/s) = 3.07558 5.38400 4.38444
#
# Compressibility (1/GPa) = 0.19866839
#
# Stress axis : x y z
#
# Youngs Moduli (GPa) = 111.11100 -24.23934 5.99331
#
# Poissons Ratio (x) = 0.31260 -0.16370
# Poissons Ratio (y) = -1.43291 0.04900
# Poissons Ratio (z) = -3.03492 -0.19816
#
# Static dielectric constant tensor:
#      x y z
#    x 1.687570 0.000000 0.031490 
#    y 0.000000 1.680780 0.000000 
#    z 0.031490 0.000000 1.800420 
# 
# From -- ./inp_files/308925.got.cif
#   From: 2010.05.17/outbox.ucp.g08.bks.cvg/sg12_155_cif.got.tgz:308925.got - 2010.06.11 11:47:21.
