data_PCOD9224614
_publ_section_title
;
Structure prediction by ZEFSAII (Michael W. Deem and Ramdas Pophale) SiO2 
 PCOD9224614
Probable space group: C 2/M
;
_chemical_formula_sum "Si O2"
_cell_formula_units_Z 32
_cell_length_a 30.000000
_cell_length_b 9.000000
_cell_length_c 18.000000
_cell_angle_alpha 90.000000
_cell_angle_beta 140.000000
_cell_angle_gamma 90.000000
_cell_volume 3123.947783
_symmetry_space_group_name_H-M "C 2/M"
_symmetry_group_IT_number 12
_symmetry_cell_setting 'monoclinic'
loop_
_space_group_symop_operation_xyz
x,y,z
-x,y,-z
-x,-y,-z
x,-y,z
1/2+x,1/2+y,z
1/2-x,1/2+y,-z
1/2-x,1/2-y,-z
1/2+x,1/2-y,z
loop_
_atom_site_type_symbol
_atom_site_label
_atom_site_fract_x
_atom_site_fract_y
_atom_site_fract_z
Si Si1 0.473103 0.827503 0.291505
Si Si2 0.398902 0.326546 0.060587
Si Si3 0.245162 0.677068 0.912600
Si Si4 0.217447 0.174038 0.570787
Si Si5 0.854754 0.676428 0.661867
Si Si6 0.607512 0.676006 0.678920
Si Si7 0.994882 0.329137 0.081590
Si Si8 0.885133 0.328192 0.461558
O O1 0.439492 0.765505 0.174708
O O2 0.441381 0.737673 0.319269
O O3 0.556079 0.815700 0.400007
O O4 0.455182 0.000000 0.278399
O O5 0.409657 0.500000 0.088829
O O6 0.433387 0.276257 0.028785
O O7 0.317674 0.296911 0.964039
O O8 0.233892 0.500000 0.904793
O O9 0.182574 0.754539 0.790839
O O10 0.250000 0.750000 0.000000
O O11 0.174997 0.228309 0.444022
O O12 0.298255 0.196478 0.655430
O O13 0.186699 0.266276 0.599487
O O14 0.205119 0.000000 0.567634
O O15 0.853050 0.500000 0.639694
O O16 0.931795 0.713703 0.787271
O O17 0.609355 0.500000 0.683646
O O18 0.587795 0.734753 0.573096
O O19 0.980426 0.500000 0.086174
O O20 0.000000 0.326568 0.000000
O O21 0.879571 0.500000 0.432875
#
# Coordination Sequence:
#
# PCOD9224614 Si02
#       8
#     8   8   8   8   8   8   8   8
#     4  11  23  40  63  87 119 161 202 246 300 363
#     4  11  24  40  63  94 123 156 203 254 305 361
#     4  11  23  41  64  90 122 160 203 252 303 360
#     4  10  20  35  58  87 116 152 198 248 297 353
#     4   9  19  37  59  84 116 153 196 244 299 361
#     4  12  25  40  61  89 120 158 201 252 304 357
#     4  10  22  40  61  86 119 159 201 247 301 363
#     4  11  24  40  58  86 123 161 200 244 302 368
#
# _framework density 10.243449
#
# number of rings (size 3 to 8) (size 9 to 14) (size 15 to 20)
#    0.000    1.375    1.250    4.125    0.000   10.250 
#    0.000    1.250    0.000    0.000    0.000    0.000 
#    0.000    0.000    0.000    0.000    0.000    0.000 
#
# Total GULP energy -178885.510381 kJ/mol
# GULP energy per Si atom -5590.172199 kJ/mol
# Density = 1.022013 g / cm^3
# Si number density = 10.243449 Si / 1000 Ang^3
#
#
#
# Elastic Constant Matrix: (Units=GPa)
#
#
# Indices 1 2 3 4 5 6 
#
# 1 86.5360 55.6026 9.8413 0.0000 12.9069 0.0000
# 2 55.6026 94.3270 32.1831 0.0000 26.6476 0.0000
# 3 9.8413 32.1831 48.0579 0.0000 8.6246 0.0000
# 4 0.0000 0.0000 0.0000 20.9294 0.0000 -5.5724
# 5 12.9069 26.6476 8.6246 0.0000 19.0655 0.0000
# 6 0.0000 0.0000 0.0000 -5.5724 0.0000 35.3552
#
#
#
# Elastic Compliance Matrix: (Units=1/GPa)
#
#
# Indices 1 2 3 4 5 6 
#
# 1 0.019695 -0.014692 0.004912 0.000000 0.004980 0.000000
# 2 -0.014692 0.031835 -0.013180 0.000000 -0.028586 0.000000
# 3 0.004912 -0.013180 0.028210 0.000000 0.002335 0.000000
# 4 0.000000 0.000000 0.000000 0.049873 0.000000 0.007861
# 5 0.004980 -0.028586 0.002335 0.000000 0.087978 0.000000
# 6 0.000000 0.000000 0.000000 0.007861 0.000000 0.029523
#
#
# Mechanical properties :
#
#
# Convention : Reuss Voigt Hill
#
# Bulk Modulus (GPa) = 29.56937 47.13052 38.34994
# Shear Modulus (GPa) = 16.43087 23.82293 20.12690
#
# Velocity S-wave (km/s) = 2.83507 3.41374 3.13777
# Velocity P-wave (km/s) = 5.01811 6.21235 5.64689
#
# Compressibility (1/GPa) = 0.03381878
#
# Stress axis : x y z
#
# Youngs Moduli (GPa) = 50.77479 31.41244 35.44903
#
# Poissons Ratio (x) = 0.46152 -0.17413
# Poissons Ratio (y) = 0.74600 0.46721
# Poissons Ratio (z) = -0.24942 0.41401
#
# Static dielectric constant tensor:
#      x y z
#    x 1.856180 0.000000 -0.100660 
#    y 0.000000 1.690630 0.000000 
#    z -0.100660 0.000000 1.762280 
# 
# From -- ./inp_files/295783.got.cif
#   From: 2010.05.17/outbox.ucp.g08.bks.cvg/sg12_148_cif.got.tgz:295783.got - 2010.06.11 11:47:21.
