data_PCOD9224808
_publ_section_title
;
Structure prediction by ZEFSAII (Michael W. Deem and Ramdas Pophale) SiO2 
 PCOD9224808
Probable space group: C 2/M
;
_chemical_formula_sum "Si O2"
_cell_formula_units_Z 28
_cell_length_a 9.000000
_cell_length_b 21.000000
_cell_length_c 30.000000
_cell_angle_alpha 90.000000
_cell_angle_beta 30.000000
_cell_angle_gamma 90.000000
_cell_volume 2835.000000
_symmetry_space_group_name_H-M "C 2/M"
_symmetry_group_IT_number 12
_symmetry_cell_setting 'monoclinic'
loop_
_space_group_symop_operation_xyz
x,y,z
-x,y,-z
-x,-y,-z
x,-y,z
1/2+x,1/2+y,z
1/2-x,1/2+y,-z
1/2-x,1/2-y,-z
1/2+x,1/2-y,z
loop_
_atom_site_type_symbol
_atom_site_label
_atom_site_fract_x
_atom_site_fract_y
_atom_site_fract_z
Si Si1 0.172084 0.698534 0.106807
Si Si2 0.432005 0.076342 0.633228
Si Si3 0.548914 0.923425 0.705827
Si Si4 0.242671 0.424822 0.803828
Si Si5 0.415957 0.673280 0.131037
Si Si6 0.361042 0.931834 0.987773
Si Si7 0.721534 0.577340 0.541242
O O1 0.209644 0.707462 0.149193
O O2 0.970598 0.633688 0.156270
O O3 0.057480 0.766904 0.119398
O O4 0.500000 0.688586 0.000000
O O5 0.537655 0.088448 0.655747
O O6 0.671141 0.099501 0.535305
O O7 0.089342 0.094427 0.711624
O O8 0.424728 0.000000 0.630648
O O9 0.283521 0.879786 0.792872
O O10 0.876926 0.905156 0.639585
O O11 0.502226 0.000000 0.725439
O O12 0.207903 0.500000 0.795518
O O13 0.134251 0.428634 0.882973
O O14 0.659168 0.630496 0.041537
O O15 0.201402 0.000000 0.019707
O O16 0.500000 0.934674 0.000000
O O17 0.714279 0.500000 0.544465
O O18 0.000000 0.596699 0.500000
#
# Coordination Sequence:
#
# PCOD9224808 Si02
#       7
#     8   8   8   8   8   8   8
#     4  12  27  44  61  86 120 170 210 257 308 367
#     4   9  18  34  60  92 127 162 198 246 302 365
#     4  10  21  38  64  96 125 161 207 254 307 362
#     4  10  22  38  61  92 122 159 206 255 311 359
#     4  12  26  41  62  87 123 163 213 253 305 369
#     4  10  20  36  61  91 125 160 200 255 306 357
#     4   9  18  33  57  94 133 161 195 249 308 367
#
# _framework density 9.8765429999999999
#
# number of rings (size 3 to 8) (size 9 to 14) (size 15 to 20)
#    0.000    1.714    1.429    2.571    6.000    5.429 
#    0.000    0.000    0.000    0.857    0.000    0.000 
#    0.000    0.000    0.000    0.000    0.000    0.000 
#
# Total GULP energy -155871.916846 kJ/mol
# GULP energy per Si atom -5566.854173 kJ/mol
# Density = 0.985406 g / cm^3
# Si number density = 9.876543 Si / 1000 Ang^3
#
#
#
# Elastic Constant Matrix: (Units=GPa)
#
#
# Indices 1 2 3 4 5 6 
#
# 1 56.3613 24.8534 1.2199 0.0458 -5.7347 0.1190
# 2 24.8534 90.7487 17.4752 0.0787 -11.7356 0.1432
# 3 1.2199 17.4752 59.8717 -0.1275 -17.0423 0.0271
# 4 0.0458 0.0787 -0.1275 8.2960 0.0444 -19.7700
# 5 -5.7347 -11.7356 -17.0423 0.0444 30.5855 -0.0553
# 6 0.1190 0.1432 0.0271 -19.7700 -0.0553 25.3529
#
#
#
# Elastic Compliance Matrix: (Units=1/GPa)
#
#
# Indices 1 2 3 4 5 6 
#
# 1 0.020468 -0.005633 0.002026 0.000218 0.002805 0.000110
# 2 -0.005633 0.013473 -0.003145 0.000298 0.002361 0.000191
# 3 0.002026 -0.003145 0.020612 -0.000351 0.010658 -0.000264
# 4 0.000218 0.000298 -0.000351 -0.140423 -0.000035 -0.109503
# 5 0.002805 0.002361 0.010658 -0.000035 0.040066 0.000023
# 6 0.000110 0.000191 -0.000264 -0.109503 0.000023 -0.045948
#
#
# Mechanical properties :
#
#
# Convention : Reuss Voigt Hill
#
# Bulk Modulus (GPa) = 24.36158 32.67541 28.51850
# Shear Modulus (GPa) = -77.44229 23.74243 -26.84993
#
# Velocity S-wave (km/s) = -6.26820 3.47069 -3.69084
# Velocity P-wave (km/s) = 6.32671 5.71303 1.92203
#
# Compressibility (1/GPa) = 0.04104823
#
# Stress axis : x y z
#
# Youngs Moduli (GPa) = 48.85690 74.22471 48.51455
#
# Poissons Ratio (x) = 0.41813 -0.09829
# Poissons Ratio (y) = 0.27523 0.15258
# Poissons Ratio (z) = -0.09899 0.23344
#
# Static dielectric constant tensor:
#      x y z
#    x 1.798160 0.000070 0.004140 
#    y 0.000070 1.728680 0.000040 
#    z 0.004140 0.000040 1.737290 
# 
# From -- ./inp_files/373132.got.cif
#   From: 2010.05.17/outbox.ucp.g08.bks.cvg/sg12_187_cif.got.tgz:373132.got - 2010.06.11 11:47:21.
