data_PCOD9224248
_publ_section_title
;
Structure prediction by ZEFSAII (Michael W. Deem and Ramdas Pophale) SiO2 
 PCOD9224248
Probable space group: C 2/M
;
_chemical_formula_sum "Si O2"
_cell_formula_units_Z 24
_cell_length_a 30.000000
_cell_length_b 9.000000
_cell_length_c 9.000000
_cell_angle_alpha 90.000000
_cell_angle_beta 90.000000
_cell_angle_gamma 90.000000
_cell_volume 2430.000000
_symmetry_space_group_name_H-M "C 2/M"
_symmetry_group_IT_number 12
_symmetry_cell_setting 'monoclinic'
loop_
_space_group_symop_operation_xyz
x,y,z
-x,y,-z
-x,-y,-z
x,-y,z
1/2+x,1/2+y,z
1/2-x,1/2+y,-z
1/2-x,1/2-y,-z
1/2+x,1/2-y,z
loop_
_atom_site_type_symbol
_atom_site_label
_atom_site_fract_x
_atom_site_fract_y
_atom_site_fract_z
Si Si1 0.593866 0.819303 0.624311
Si Si2 0.175571 0.178131 0.760395
Si Si3 0.071768 0.329897 0.296362
Si Si4 0.142387 0.823362 0.092909
Si Si5 0.238741 0.821855 0.160019
Si Si6 0.021457 0.671642 0.852442
O O1 0.642186 0.752184 0.646451
O O2 0.577466 0.770714 0.462442
O O3 0.562755 0.764796 0.760935
O O4 0.593293 0.000000 0.630004
O O5 0.224434 0.246216 0.738508
O O6 0.176919 0.000000 0.753486
O O7 0.155690 0.220651 0.924464
O O8 0.087761 0.500000 0.295720
O O9 0.099866 0.249511 0.168510
O O10 0.019777 0.331513 0.259619
O O11 0.186915 0.789949 0.188924
O O12 0.136135 0.000000 0.090491
O O13 0.244187 0.000000 0.152620
O O14 0.250000 0.750000 0.000000
O O15 0.033733 0.500000 0.893729
O O16 0.000000 0.742683 0.000000
#
# Coordination Sequence:
#
# PCOD9224248 Si02
#       6
#     8   8   8   8   8   8
#     4  10  20  34  52  76 107 139 172 213 260 310
#     4  10  20  34  53  78 105 136 177 220 262 308
#     4  10  20  33  52  78 106 138 174 211 256 312
#     4   9  19  34  52  76 105 135 170 214 259 306
#     4   9  17  31  52  78 106 136 173 217 263 307
#     4   9  17  31  53  79 104 133 171 214 259 307
#
# _framework density 9.8765429999999999
#
# number of rings (size 3 to 8) (size 9 to 14) (size 15 to 20)
#    0.000    2.500    0.000    3.500    0.000    8.000 
#    0.000    1.667    0.000    5.000    0.000    0.000 
#    0.000    0.000    0.000    0.000    0.000    0.000 
#
# Total GULP energy -133707.488589 kJ/mol
# GULP energy per Si atom -5571.145358 kJ/mol
# Density = 0.985406 g / cm^3
# Si number density = 9.876543 Si / 1000 Ang^3
#
#
#
# Elastic Constant Matrix: (Units=GPa)
#
#
# Indices 1 2 3 4 5 6 
#
# 1 52.7801 4.5893 -12.3023 0.0000 12.7617 0.0000
# 2 4.5893 8.9977 -0.3877 0.0000 -1.7149 0.0000
# 3 -12.3023 -0.3877 30.2701 0.0000 22.1345 0.0000
# 4 0.0000 0.0000 0.0000 14.3264 0.0000 1.5314
# 5 12.7617 -1.7149 22.1345 0.0000 20.9067 0.0000
# 6 0.0000 0.0000 0.0000 1.5314 0.0000 15.7127
#
#
#
# Elastic Compliance Matrix: (Units=1/GPa)
#
#
# Indices 1 2 3 4 5 6 
#
# 1 -0.014993 0.019318 -0.060652 0.000000 0.074951 0.000000
# 2 0.019318 0.091947 0.053746 0.000000 -0.061152 0.000000
# 3 -0.060652 0.053746 -0.093976 0.000000 0.140926 0.000000
# 4 0.000000 0.000000 0.000000 0.070536 0.000000 -0.006875
# 5 0.074951 -0.061152 0.140926 0.000000 -0.152138 0.000000
# 6 0.000000 0.000000 0.000000 -0.006875 0.000000 0.064313
#
#
# Mechanical properties :
#
#
# Convention : Reuss Voigt Hill
#
# Bulk Modulus (GPa) = 128.16346 8.42737 68.29541
# Shear Modulus (GPa) = -88.44430 16.86574 -35.78928
#
# Velocity S-wave (km/s) = -6.69867 2.92520 -4.26118
# Velocity P-wave (km/s) = 2.27906 3.96039 3.23101
#
# Compressibility (1/GPa) = 0.00780254
#
# Stress axis : x y z
#
# Youngs Moduli (GPa) = -66.69913 10.87578 -10.64104
#
# Poissons Ratio (x) = -0.21010 -0.64540
# Poissons Ratio (y) = 1.28852 0.57191
# Poissons Ratio (z) = -4.04545 -0.58453
#
# Static dielectric constant tensor:
#      x y z
#    x 1.011590 0.000000 -0.996130 
#    y 0.000000 1.673810 0.000000 
#    z -0.996130 0.000000 0.147800 
# 
# From -- ./inp_files/108559.got.cif
#   From: 2010.05.17/outbox.ucp.g08.bks.cvg/sg12_55_cif.got.tgz:108559.got - 2010.06.11 11:47:21.
