data_PCOD9224629
_publ_section_title
;
Structure prediction by ZEFSAII (Michael W. Deem and Ramdas Pophale) SiO2 
 PCOD9224629
Probable space group: C 2/M
;
_chemical_formula_sum "Si O2"
_cell_formula_units_Z 32
_cell_length_a 21.000000
_cell_length_b 12.000000
_cell_length_c 21.000000
_cell_angle_alpha 90.000000
_cell_angle_beta 40.000000
_cell_angle_gamma 90.000000
_cell_volume 3401.632030
_symmetry_space_group_name_H-M "C 2/M"
_symmetry_group_IT_number 12
_symmetry_cell_setting 'monoclinic'
loop_
_space_group_symop_operation_xyz
x,y,z
-x,y,-z
-x,-y,-z
x,-y,z
1/2+x,1/2+y,z
1/2-x,1/2+y,-z
1/2-x,1/2-y,-z
1/2+x,1/2-y,z
loop_
_atom_site_type_symbol
_atom_site_label
_atom_site_fract_x
_atom_site_fract_y
_atom_site_fract_z
Si Si1 0.426364 0.869534 0.199841
Si Si2 0.881797 0.869980 0.085524
Si Si3 0.637229 0.220560 0.017940
Si Si4 0.343285 0.872125 0.392527
Si Si5 0.425427 0.367761 0.671203
Si Si6 0.145705 0.777835 0.492780
Si Si7 0.345765 0.625534 0.872769
Si Si8 0.256941 0.253853 0.715207
O O1 0.527953 0.827733 0.092518
O O2 0.406830 0.820723 0.285655
O O3 0.328372 0.844427 0.234560
O O4 0.435299 0.000000 0.201014
O O5 0.811313 0.840083 0.199316
O O6 0.875460 0.000000 0.077765
O O7 0.840924 0.801892 0.057178
O O8 0.000000 0.843914 0.000000
O O9 0.634126 0.288249 0.086355
O O10 0.727577 0.134334 0.950980
O O11 0.229888 0.862499 0.454500
O O12 0.358259 0.811052 0.447351
O O13 0.369797 0.000000 0.380583
O O14 0.414845 0.500000 0.666906
O O15 0.536945 0.330242 0.568279
O O16 0.403190 0.349420 0.763260
O O17 0.342204 0.301003 0.695717
O O18 0.189122 0.729388 0.393395
O O19 0.371711 0.500000 0.872826
#
# Coordination Sequence:
#
# PCOD9224629 Si02
#       8
#     8   8   8   8   8   8   8   8
#     4  10  20  35  59  86 114 148 189 238 295 348
#     4  11  23  41  62  85 116 156 196 237 290 348
#     4  11  20  38  60  83 119 149 193 239 291 344
#     4   9  19  37  58  85 115 149 191 239 293 347
#     4  11  22  38  59  87 120 154 193 240 294 346
#     4  10  21  36  60  85 117 152 194 242 289 342
#     4  10  22  36  57  87 116 151 193 238 289 347
#     4  11  22  39  57  86 116 152 197 240 286 344
#
# _framework density 9.4072490000000002
#
# number of rings (size 3 to 8) (size 9 to 14) (size 15 to 20)
#    0.000    1.625    2.500    2.625    0.000    2.500 
#    0.000    1.250    0.000    1.500    0.000    0.000 
#    0.000    0.000    0.000    0.000    0.000    0.000 
#
# Total GULP energy -178399.733492 kJ/mol
# GULP energy per Si atom -5574.991672 kJ/mol
# Density = 0.938584 g / cm^3
# Si number density = 9.407249 Si / 1000 Ang^3
#
#
#
# Elastic Constant Matrix: (Units=GPa)
#
#
# Indices 1 2 3 4 5 6 
#
# 1 30.0347 -9.8849 -18.8867 0.0000 -14.4684 0.0000
# 2 -9.8849 13.1093 -23.5827 0.0000 -6.9080 0.0000
# 3 -18.8867 -23.5827 48.2866 0.0000 -24.3318 0.0000
# 4 0.0000 0.0000 0.0000 20.3134 0.0000 -2.0419
# 5 -14.4684 -6.9080 -24.3318 0.0000 28.6977 0.0000
# 6 0.0000 0.0000 0.0000 -2.0419 0.0000 -0.9930
#
#
#
# Elastic Compliance Matrix: (Units=1/GPa)
#
#
# Indices 1 2 3 4 5 6 
#
# 1 0.010364 -0.024243 -0.014132 0.000000 -0.012592 0.000000
# 2 -0.024243 0.006436 -0.020457 0.000000 -0.028018 0.000000
# 3 -0.014132 -0.020457 -0.001537 0.000000 -0.013352 0.000000
# 4 0.000000 0.000000 0.000000 0.040796 0.000000 -0.083888
# 5 -0.012592 -0.028018 -0.013352 0.000000 0.010432 0.000000
# 6 0.000000 0.000000 0.000000 -0.083888 0.000000 -0.834544
#
#
# Mechanical properties :
#
#
# Convention : Reuss Voigt Hill
#
# Bulk Modulus (GPa) = -9.76555 -1.47534 -5.62045
# Shear Modulus (GPa) = -7.30436 19.18927 5.94246
#
# Velocity S-wave (km/s) = -1.97249 3.19708 1.77913
# Velocity P-wave (km/s) = 3.22325 3.58366 1.10753
#
# Compressibility (1/GPa) = -0.10240076
#
# Stress axis : x y z
#
# Youngs Moduli (GPa) = 96.49122 155.36744 -650.52657
#
# Poissons Ratio (x) = 3.76654 -9.19305
# Poissons Ratio (y) = 2.33922 -13.30799
# Poissons Ratio (z) = 1.36358 3.17839
#
# Static dielectric constant tensor:
#      x y z
#    x 1.657650 0.000000 0.016780 
#    y 0.000000 1.640300 0.000000 
#    z 0.016780 0.000000 1.664410 
# 
# From -- ./inp_files/321237.got.cif
#   From: 2010.05.17/outbox.ucp.g08.bks.cvg/sg12_161_cif.got.tgz:321237.got - 2010.06.11 11:47:21.
