data_PCOD9224003
_publ_section_title
;
Structure prediction by ZEFSAII (Michael W. Deem and Ramdas Pophale) SiO2 
 PCOD9224003
Probable space group: C 2/M
;
_chemical_formula_sum "Si O2"
_cell_formula_units_Z 32
_cell_length_a 30.000000
_cell_length_b 9.000000
_cell_length_c 12.000000
_cell_angle_alpha 90.000000
_cell_angle_beta 90.000000
_cell_angle_gamma 90.000000
_cell_volume 3240.000000
_symmetry_space_group_name_H-M "C 2/M"
_symmetry_group_IT_number 12
_symmetry_cell_setting 'monoclinic'
loop_
_space_group_symop_operation_xyz
x,y,z
-x,y,-z
-x,-y,-z
x,-y,z
1/2+x,1/2+y,z
1/2-x,1/2+y,-z
1/2-x,1/2-y,-z
1/2+x,1/2-y,z
loop_
_atom_site_type_symbol
_atom_site_label
_atom_site_fract_x
_atom_site_fract_y
_atom_site_fract_z
Si Si1 0.322779 0.177613 0.729458
Si Si2 0.408965 0.672139 0.746410
Si Si3 0.332113 0.827872 0.244735
Si Si4 0.999429 0.173283 0.876028
Si Si5 0.068272 0.670954 0.714327
Si Si6 0.298404 0.821127 0.489053
Si Si7 0.052064 0.178661 0.489180
Si Si8 0.258039 0.324164 0.117509
O O1 0.366714 0.237783 0.786549
O O2 0.323852 0.227808 0.600690
O O3 0.278404 0.229049 0.791825
O O4 0.322733 0.000000 0.730341
O O5 0.396100 0.500000 0.731810
O O6 0.449602 0.679076 0.830624
O O7 0.427482 0.729203 0.627578
O O8 0.384436 0.821496 0.225220
O O9 0.320791 0.783145 0.372007
O O10 0.305558 0.722843 0.163477
O O11 0.317563 0.000000 0.230963
O O12 0.030882 0.254089 0.788726
O O13 0.013403 0.000000 0.880340
O O14 0.000000 0.236425 0.000000
O O15 0.057052 0.500000 0.692678
O O16 0.074288 0.751845 0.596765
O O17 0.250000 0.750000 0.500000
O O18 0.294724 0.000000 0.492636
O O19 0.000000 0.218463 0.500000
O O20 0.054778 0.000000 0.492458
O O21 0.254027 0.500000 0.107601
O O22 0.250000 0.250000 0.000000
#
# Coordination Sequence:
#
# PCOD9224003 Si02
#       8
#     8   8   8   8   8   8   8   8
#     4  10  22  39  59  87 121 153 187 237 296 349
#     4  10  21  37  60  89 117 152 195 239 290 347
#     4  10  22  39  60  88 123 156 190 240 294 348
#     4  10  22  42  63  83 114 155 201 249 293 344
#     4  11  23  38  60  90 122 155 194 241 296 353
#     4  10  19  35  59  86 119 152 188 235 287 347
#     4  10  19  36  60  86 122 157 191 240 291 348
#     4  11  24  42  63  86 116 156 201 246 293 346
#
# _framework density 9.8765429999999999
#
# number of rings (size 3 to 8) (size 9 to 14) (size 15 to 20)
#    0.000    1.750    2.500    1.500    0.000    6.000 
#    0.000    2.500    0.000    0.000    0.000    0.000 
#    0.000    0.000    0.000    0.000    0.000    0.000 
#
# Total GULP energy -178582.415718 kJ/mol
# GULP energy per Si atom -5580.700491 kJ/mol
# Density = 0.985406 g / cm^3
# Si number density = 9.876543 Si / 1000 Ang^3
#
#
#
# Elastic Constant Matrix: (Units=GPa)
#
#
# Indices 1 2 3 4 5 6 
#
# 1 35.0397 19.2216 -10.9597 0.0000 21.3151 0.0000
# 2 19.2216 -11.3054 7.0307 0.0000 13.1376 0.0000
# 3 -10.9597 7.0307 55.6563 0.0000 30.4570 0.0000
# 4 0.0000 0.0000 0.0000 5.8427 0.0000 5.2954
# 5 21.3151 13.1376 30.4570 0.0000 -14.9603 0.0000
# 6 0.0000 0.0000 0.0000 5.2954 0.0000 23.9609
#
#
#
# Elastic Compliance Matrix: (Units=1/GPa)
#
#
# Indices 1 2 3 4 5 6 
#
# 1 0.006990 0.021143 -0.007996 0.000000 0.012247 0.000000
# 2 0.021143 -0.041703 0.006143 0.000000 0.006009 0.000000
# 3 -0.007996 0.006143 0.008940 0.000000 0.012202 0.000000
# 4 0.000000 0.000000 0.000000 0.214020 0.000000 -0.047298
# 5 0.012247 0.006009 0.012202 0.000000 -0.019277 0.000000
# 6 0.000000 0.000000 0.000000 -0.047298 0.000000 0.052188
#
#
# Mechanical properties :
#
#
# Convention : Reuss Voigt Hill
#
# Bulk Modulus (GPa) = 78.08527 12.21952 45.15240
# Shear Modulus (GPa) = 26.76000 7.24189 17.00094
#
# Velocity S-wave (km/s) = 3.68465 1.91681 2.93691
# Velocity P-wave (km/s) = 7.59728 3.33143 5.86588
#
# Compressibility (1/GPa) = 0.01280651
#
# Stress axis : x y z
#
# Youngs Moduli (GPa) = 143.06491 -23.97922 111.86175
#
# Poissons Ratio (x) = 0.50699 0.89448
# Poissons Ratio (y) = -3.02481 -0.68719
# Poissons Ratio (z) = 1.14399 0.14731
#
# Static dielectric constant tensor:
#      x y z
#    x 1.696960 0.000000 0.031360 
#    y 0.000000 1.690990 0.000000 
#    z 0.031360 0.000000 1.701870 
# 
# From -- ./inp_files/187441.got.cif
#   From: 2010.05.17/outbox.ucp.g08.bks.cvg/sg12_94_cif.got.tgz:187441.got - 2010.06.11 11:47:21.
