data_PCOD9224591
_publ_section_title
;
Structure prediction by ZEFSAII (Michael W. Deem and Ramdas Pophale) SiO2 
 PCOD9224591
Probable space group: C 2/M
;
_chemical_formula_sum "Si O2"
_cell_formula_units_Z 24
_cell_length_a 15.000000
_cell_length_b 15.000000
_cell_length_c 12.000000
_cell_angle_alpha 90.000000
_cell_angle_beta 80.000000
_cell_angle_gamma 90.000000
_cell_volume 2658.980933
_symmetry_space_group_name_H-M "C 2/M"
_symmetry_group_IT_number 12
_symmetry_cell_setting 'monoclinic'
loop_
_space_group_symop_operation_xyz
x,y,z
-x,y,-z
-x,-y,-z
x,-y,z
1/2+x,1/2+y,z
1/2-x,1/2+y,-z
1/2-x,1/2-y,-z
1/2+x,1/2-y,z
loop_
_atom_site_type_symbol
_atom_site_label
_atom_site_fract_x
_atom_site_fract_y
_atom_site_fract_z
Si Si1 0.884777 0.396746 0.198432
Si Si2 0.391605 0.244138 0.553038
Si Si3 0.419091 0.402186 0.927087
Si Si4 0.763332 0.392169 0.443928
Si Si5 0.570496 0.788902 0.198153
Si Si6 0.780884 0.352180 0.991558
O O1 0.915853 0.500000 0.190595
O O2 0.810632 0.387316 0.312291
O O3 0.833196 0.376647 0.093970
O O4 0.970741 0.332375 0.202923
O O5 0.500000 0.251709 0.500000
O O6 0.330318 0.333264 0.539472
O O7 0.335638 0.162613 0.505992
O O8 0.396827 0.223071 0.682860
O O9 0.428503 0.500000 0.867640
O O10 0.428574 0.311466 0.853767
O O11 0.316130 0.400775 0.998087
O O12 0.500000 0.397997 0.000000
O O13 0.752760 0.500000 0.472277
O O14 0.642998 0.852981 0.120499
O O15 0.750000 0.250000 0.000000
#
# Coordination Sequence:
#
# PCOD9224591 Si02
#       6
#     8   8   8   8   8   8
#     4  11  22  38  63  91 121 158 203 252 311 375
#     4  11  23  42  66  92 124 166 214 257 311 372
#     4  10  21  38  59  86 124 166 203 243 306 378
#     4  10  23  43  66  92 124 164 210 260 312 370
#     4  11  22  38  62  90 123 158 201 256 311 363
#     4  10  20  35  57  87 120 155 193 246 305 363
#
# _framework density 9.026014
#
# number of rings (size 3 to 8) (size 9 to 14) (size 15 to 20)
#    0.000    1.500    1.667    5.000    0.000    5.333 
#    0.000    0.000    0.000    0.000    0.000    0.000 
#    0.000    0.000    0.000    0.000    0.000    0.000 
#
# Total GULP energy -133728.404715 kJ/mol
# GULP energy per Si atom -5572.016863 kJ/mol
# Density = 0.900547 g / cm^3
# Si number density = 9.026014 Si / 1000 Ang^3
#
#
#
# Elastic Constant Matrix: (Units=GPa)
#
#
# Indices 1 2 3 4 5 6 
#
# 1 165.4749 61.7123 50.3873 0.0000 7.9504 0.0000
# 2 61.7123 152.1227 45.9222 0.0000 1.7210 0.0000
# 3 50.3873 45.9222 107.1191 0.0000 16.1141 0.0000
# 4 0.0000 0.0000 0.0000 25.8634 0.0000 -1.8918
# 5 7.9504 1.7210 16.1141 0.0000 28.0832 0.0000
# 6 0.0000 0.0000 0.0000 -1.8918 0.0000 18.0349
#
#
#
# Elastic Compliance Matrix: (Units=1/GPa)
#
#
# Indices 1 2 3 4 5 6 
#
# 1 0.007723 -0.002362 -0.002532 0.000000 -0.000589 0.000000
# 2 -0.002362 0.008334 -0.002720 0.000000 0.001719 0.000000
# 3 -0.002532 -0.002720 0.012651 0.000000 -0.006376 0.000000
# 4 0.000000 0.000000 0.000000 0.038964 0.000000 0.004087
# 5 -0.000589 0.001719 -0.006376 0.000000 0.039328 0.000000
# 6 0.000000 0.000000 0.000000 0.004087 0.000000 0.055877
#
#
# Mechanical properties :
#
#
# Convention : Reuss Voigt Hill
#
# Bulk Modulus (GPa) = 74.18059 82.30668 78.24364
# Shear Modulus (GPa) = 27.38247 32.17597 29.77922
#
# Velocity S-wave (km/s) = 3.89892 4.22643 4.06597
# Velocity P-wave (km/s) = 7.83905 8.33727 8.09199
#
# Compressibility (1/GPa) = 0.01348061
#
# Stress axis : x y z
#
# Youngs Moduli (GPa) = 129.47684 119.99589 79.04209
#
# Poissons Ratio (x) = 0.28346 0.20011
# Poissons Ratio (y) = 0.30586 0.21500
# Poissons Ratio (z) = 0.32779 0.32639
#
# Static dielectric constant tensor:
#      x y z
#    x 1.616380 0.000000 -0.026990 
#    y 0.000000 1.636830 0.000000 
#    z -0.026990 0.000000 1.639520 
# 
# From -- ./inp_files/142876.got.cif
#   From: 2010.05.17/outbox.ucp.g08.bks.cvg/sg12_72_cif.got.tgz:142876.got - 2010.06.11 11:47:21.
