data_PCOD9224994
_publ_section_title
;
Structure prediction by ZEFSAII (Michael W. Deem and Ramdas Pophale) SiO2 
 PCOD9224994
Probable space group: C 2/M
;
_chemical_formula_sum "Si O2"
_cell_formula_units_Z 24
_cell_length_a 24.000000
_cell_length_b 9.000000
_cell_length_c 24.000000
_cell_angle_alpha 90.000000
_cell_angle_beta 150.000000
_cell_angle_gamma 90.000000
_cell_volume 2592.000000
_symmetry_space_group_name_H-M "C 2/M"
_symmetry_group_IT_number 12
_symmetry_cell_setting 'monoclinic'
loop_
_space_group_symop_operation_xyz
x,y,z
-x,y,-z
-x,-y,-z
x,-y,z
1/2+x,1/2+y,z
1/2-x,1/2+y,-z
1/2-x,1/2-y,-z
1/2+x,1/2-y,z
loop_
_atom_site_type_symbol
_atom_site_label
_atom_site_fract_x
_atom_site_fract_y
_atom_site_fract_z
Si Si1 0.738549 0.822661 0.271436
Si Si2 0.541008 0.681549 0.172330
Si Si3 0.852058 0.176891 0.255449
Si Si4 0.205043 0.319118 0.019575
Si Si5 0.081352 0.671724 0.495173
Si Si6 0.785287 0.831700 0.585498
O O1 0.627396 0.742371 0.199545
O O2 0.761038 0.796597 0.225512
O O3 0.852591 0.762426 0.399608
O O4 0.728848 0.000000 0.273091
O O5 0.535805 0.500000 0.164319
O O6 0.609484 0.724907 0.287871
O O7 0.416825 0.751112 0.068854
O O8 0.794759 0.215135 0.146632
O O9 0.966796 0.259374 0.372189
O O10 0.876070 0.000000 0.275842
O O11 0.196410 0.500000 0.007815
O O12 0.250000 0.250000 0.000000
O O13 0.062659 0.500000 0.495865
O O14 0.176691 0.670375 0.530507
O O15 0.750000 0.750000 0.500000
O O16 0.813321 0.000000 0.594979
#
# Coordination Sequence:
#
# PCOD9224994 Si02
#       6
#     8   8   8   8   8   8
#     4  10  20  38  63  90 120 157 198 243 297 355
#     4  10  22  41  61  87 120 154 196 248 299 350
#     4  10  23  40  60  87 120 160 203 243 293 355
#     4  11  25  44  63  86 118 159 203 249 296 350
#     4  10  21  36  56  89 125 155 194 245 298 352
#     4   9  20  35  54  82 114 150 192 238 289 346
#
# _framework density 9.2592590000000001
#
# number of rings (size 3 to 8) (size 9 to 14) (size 15 to 20)
#    0.000    2.000    0.000    3.500    2.333    9.333 
#    0.000    3.333    0.000    0.000    0.000    0.000 
#    0.000    0.000    0.000    0.000    0.000    0.000 
#
# Total GULP energy -133867.158280 kJ/mol
# GULP energy per Si atom -5577.798262 kJ/mol
# Density = 0.923818 g / cm^3
# Si number density = 9.259259 Si / 1000 Ang^3
#
#
#
# Elastic Constant Matrix: (Units=GPa)
#
#
# Indices 1 2 3 4 5 6 
#
# 1 87.2830 46.3586 65.6363 0.0000 -10.5899 0.0000
# 2 46.3586 88.6349 48.7274 0.0000 1.2351 0.0000
# 3 65.6363 48.7274 121.5521 0.0000 14.7211 0.0000
# 4 0.0000 0.0000 0.0000 38.1204 0.0000 6.6768
# 5 -10.5899 1.2351 14.7211 0.0000 39.5547 0.0000
# 6 0.0000 0.0000 0.0000 6.6768 0.0000 33.8339
#
#
#
# Elastic Compliance Matrix: (Units=1/GPa)
#
#
# Indices 1 2 3 4 5 6 
#
# 1 0.026219 -0.006794 -0.012891 0.000000 0.012029 0.000000
# 2 -0.006794 0.016354 -0.002728 0.000000 -0.001314 0.000000
# 3 -0.012891 -0.002728 0.017477 0.000000 -0.009871 0.000000
# 4 0.000000 0.000000 0.000000 0.027172 0.000000 -0.005362
# 5 0.012029 -0.001314 -0.009871 0.000000 0.032217 0.000000
# 6 0.000000 0.000000 0.000000 -0.005362 0.000000 0.030614
#
#
# Mechanical properties :
#
#
# Convention : Reuss Voigt Hill
#
# Bulk Modulus (GPa) = 65.68838 68.76829 67.22834
# Shear Modulus (GPa) = 25.00580 31.41832 28.21206
#
# Velocity S-wave (km/s) = 3.67865 4.12344 3.90738
# Velocity P-wave (km/s) = 7.32066 7.73859 7.53252
#
# Compressibility (1/GPa) = 0.01522339
#
# Stress axis : x y z
#
# Youngs Moduli (GPa) = 38.14014 61.14812 57.21793
#
# Poissons Ratio (x) = 0.41544 0.73761
# Poissons Ratio (y) = 0.25912 0.15609
# Poissons Ratio (z) = 0.49167 0.16681
#
# Static dielectric constant tensor:
#      x y z
#    x 1.670390 0.000000 -0.025820 
#    y 0.000000 1.650410 0.000000 
#    z -0.025820 0.000000 1.621660 
# 
# From -- ./inp_files/348884.got.cif
#   From: 2010.05.17/outbox.ucp.g08.bks.cvg/sg12_175_cif.got.tgz:348884.got - 2010.06.11 11:47:21.
