data_PCOD9224466
_publ_section_title
;
Structure prediction by ZEFSAII (Michael W. Deem and Ramdas Pophale) SiO2 
 PCOD9224466
Probable space group: C 2/M
;
_chemical_formula_sum "Si O2"
_cell_formula_units_Z 32
_cell_length_a 21.000000
_cell_length_b 15.000000
_cell_length_c 30.000000
_cell_angle_alpha 90.000000
_cell_angle_beta 160.000000
_cell_angle_gamma 90.000000
_cell_volume 3232.090354
_symmetry_space_group_name_H-M "C 2/M"
_symmetry_group_IT_number 12
_symmetry_cell_setting 'monoclinic'
loop_
_space_group_symop_operation_xyz
x,y,z
-x,y,-z
-x,-y,-z
x,-y,z
1/2+x,1/2+y,z
1/2-x,1/2+y,-z
1/2-x,1/2-y,-z
1/2+x,1/2-y,z
loop_
_atom_site_type_symbol
_atom_site_label
_atom_site_fract_x
_atom_site_fract_y
_atom_site_fract_z
Si Si1 0.382223 0.735267 0.715473
Si Si2 0.879551 0.095975 0.465842
Si Si3 0.707043 0.401529 0.828850
Si Si4 0.242342 0.598866 0.239398
Si Si5 0.760114 0.716203 0.106367
Si Si6 0.369454 0.703820 0.810389
Si Si7 0.784323 0.897057 0.572855
Si Si8 0.374242 0.108580 0.271609
O O1 0.255154 0.822228 0.627714
O O2 0.581823 0.768527 0.827429
O O3 0.367089 0.693038 0.755065
O O4 0.305281 0.664272 0.629570
O O5 0.000000 0.093071 0.500000
O O6 0.035396 0.105822 0.606214
O O7 0.783715 0.000000 0.408784
O O8 0.739139 0.500000 0.870211
O O9 0.790983 0.401216 0.835023
O O10 0.779454 0.316891 0.902821
O O11 0.482116 0.389022 0.677719
O O12 0.187194 0.500000 0.221078
O O13 0.159104 0.689003 0.204113
O O14 0.813607 0.657907 0.185584
O O15 0.573151 0.678435 0.962030
O O16 0.226607 0.653633 0.750898
O O17 0.596589 0.875295 0.422723
O O18 0.766404 0.000000 0.574594
O O19 0.341927 0.000000 0.249177
#
# Coordination Sequence:
#
# PCOD9224466 Si02
#       8
#     8   8   8   8   8   8   8   8
#     4  11  24  39  65  90 125 165 203 250 312 367
#     4  10  20  35  56  89 125 153 188 242 310 374
#     4   9  19  37  61  91 121 150 186 246 315 367
#     4  10  20  34  60  92 121 151 189 245 311 368
#     4  11  25  41  61  88 123 167 212 252 295 363
#     4  12  24  42  59  87 127 167 212 250 295 362
#     4   9  21  40  63  93 122 150 199 258 315 367
#     4  11  25  43  65  91 121 163 213 264 311 360
#
# _framework density 9.9007129999999997
#
# number of rings (size 3 to 8) (size 9 to 14) (size 15 to 20)
#    0.000    1.625    2.500    1.500    1.750    3.500 
#    0.000    2.500    0.000    4.500    0.000    0.000 
#    0.000    0.000    0.000    0.000    0.000    0.000 
#
# Total GULP energy -178498.410029 kJ/mol
# GULP energy per Si atom -5578.075313 kJ/mol
# Density = 0.987818 g / cm^3
# Si number density = 9.900713 Si / 1000 Ang^3
#
#
#
# Elastic Constant Matrix: (Units=GPa)
#
#
# Indices 1 2 3 4 5 6 
#
# 1 71.8521 20.3324 4.3231 0.0627 -11.7350 0.0019
# 2 20.3324 75.1905 18.7975 0.0484 -8.5591 -0.0018
# 3 4.3231 18.7975 71.7931 0.0498 -11.3462 -0.0203
# 4 0.0627 0.0484 0.0498 6.3278 0.0100 -1.6910
# 5 -11.7350 -8.5591 -11.3462 0.0100 21.3797 0.0004
# 6 0.0019 -0.0018 -0.0203 -1.6910 0.0004 23.0507
#
#
#
# Elastic Compliance Matrix: (Units=1/GPa)
#
#
# Indices 1 2 3 4 5 6 
#
# 1 0.016232 -0.003793 0.001292 -0.000158 0.008077 -0.000012
# 2 -0.003793 0.015448 -0.003458 -0.000058 0.002267 -0.000006
# 3 0.001292 -0.003458 0.015991 -0.000123 0.007812 0.000005
# 4 -0.000158 -0.000058 -0.000123 0.161196 -0.000251 0.011826
# 5 0.008077 0.002267 0.007812 -0.000251 0.056260 -0.000013
# 6 -0.000012 -0.000006 0.000005 0.011826 -0.000013 0.044250
#
#
# Mechanical properties :
#
#
# Convention : Reuss Voigt Hill
#
# Bulk Modulus (GPa) = 27.96883 33.97131 30.97007
# Shear Modulus (GPa) = 15.00542 21.84382 18.42462
#
# Velocity S-wave (km/s) = 2.75579 3.32496 3.05367
# Velocity P-wave (km/s) = 4.92759 5.65100 5.30165
#
# Compressibility (1/GPa) = 0.03575408
#
# Stress axis : x y z
#
# Youngs Moduli (GPa) = 61.60544 64.73407 62.53480
#
# Poissons Ratio (x) = 0.24553 -0.08081
# Poissons Ratio (y) = 0.23367 0.21624
# Poissons Ratio (z) = -0.07961 0.22384
#
# Static dielectric constant tensor:
#      x y z
#    x 1.703540 0.000000 -0.001960 
#    y 0.000000 1.708600 -0.000010 
#    z -0.001960 -0.000010 1.743540 
# 
# From -- ./inp_files/381517.got.cif
#   From: 2010.05.17/outbox.ucp.g08.bks.cvg/sg12_191_cif.got.tgz:381517.got - 2010.06.11 11:47:21.
