data_PCOD9224921
_publ_section_title
;
Structure prediction by ZEFSAII (Michael W. Deem and Ramdas Pophale) SiO2 
 PCOD9224921
Probable space group: C 2/M
;
_chemical_formula_sum "Si O2"
_cell_formula_units_Z 32
_cell_length_a 15.000000
_cell_length_b 18.000000
_cell_length_c 24.000000
_cell_angle_alpha 90.000000
_cell_angle_beta 150.000000
_cell_angle_gamma 90.000000
_cell_volume 3240.000000
_symmetry_space_group_name_H-M "C 2/M"
_symmetry_group_IT_number 12
_symmetry_cell_setting 'monoclinic'
loop_
_space_group_symop_operation_xyz
x,y,z
-x,y,-z
-x,-y,-z
x,-y,z
1/2+x,1/2+y,z
1/2-x,1/2+y,-z
1/2-x,1/2-y,-z
1/2+x,1/2-y,z
loop_
_atom_site_type_symbol
_atom_site_label
_atom_site_fract_x
_atom_site_fract_y
_atom_site_fract_z
Si Si1 0.153627 0.157012 0.735504
Si Si2 0.327194 0.412503 0.132144
Si Si3 0.540199 0.089318 0.764236
Si Si4 0.009300 0.410953 0.878164
Si Si5 0.109274 0.916258 0.189968
Si Si6 0.216312 0.090573 0.503736
Si Si7 0.015603 0.587261 0.447089
Si Si8 0.841330 0.194699 0.873413
O O1 0.145196 0.127417 0.794470
O O2 0.318036 0.116197 0.794836
O O3 0.220470 0.241855 0.779107
O O4 0.970453 0.135010 0.604033
O O5 0.295730 0.500000 0.126760
O O6 0.504140 0.406618 0.190495
O O7 0.163666 0.384516 0.004681
O O8 0.532351 0.108259 0.825599
O O9 0.351621 0.103565 0.629411
O O10 0.701506 0.137772 0.826470
O O11 0.573504 0.000000 0.775676
O O12 0.017038 0.500000 0.884789
O O13 0.320702 0.910247 0.314277
O O14 0.057705 0.853928 0.118472
O O15 0.067920 0.000000 0.147410
O O16 0.334894 0.114551 0.514330
O O17 0.183130 0.000000 0.484114
O O18 0.061522 0.500000 0.479593
O O19 0.000000 0.621804 0.500000
O O20 0.000000 0.223181 0.000000
#
# Coordination Sequence:
#
# PCOD9224921 Si02
#       8
#     8   8   8   8   8   8   8   8
#     4  12  25  39  58  88 127 170 209 247 305 369
#     4  10  20  37  63  92 119 155 209 267 316 359
#     4  10  22  42  66  93 121 158 210 260 311 365
#     4  10  21  39  63  88 119 161 213 266 303 353
#     4  10  20  37  62  92 120 151 199 257 313 368
#     4  10  20  38  64  90 122 161 205 259 307 361
#     4   9  16  30  56  89 120 148 187 245 309 364
#     4  12  25  40  61  89 127 169 202 249 312 374
#
# _framework density 9.8765429999999999
#
# number of rings (size 3 to 8) (size 9 to 14) (size 15 to 20)
#    0.000    1.625    1.250    4.125    0.000    7.000 
#    0.000    4.375    0.000    0.000    0.000    0.000 
#    0.000    0.000    0.000    0.000    0.000    0.000 
#
# Total GULP energy -178636.650515 kJ/mol
# GULP energy per Si atom -5582.395329 kJ/mol
# Density = 0.985406 g / cm^3
# Si number density = 9.876543 Si / 1000 Ang^3
#
#
#
# Elastic Constant Matrix: (Units=GPa)
#
#
# Indices 1 2 3 4 5 6 
#
# 1 57.2670 11.0680 7.3491 0.0001 -2.6947 0.0002
# 2 11.0680 30.5019 20.6804 0.0002 -7.7239 -0.0001
# 3 7.3491 20.6804 88.2098 0.0004 7.5645 0.0000
# 4 0.0001 0.0002 0.0004 21.0630 0.0000 -7.9978
# 5 -2.6947 -7.7239 7.5645 0.0000 36.0006 -0.0001
# 6 0.0002 -0.0001 0.0000 -7.9978 -0.0001 7.5793
#
#
#
# Elastic Compliance Matrix: (Units=1/GPa)
#
#
# Indices 1 2 3 4 5 6 
#
# 1 0.018779 -0.006870 0.000053 0.000000 -0.000079 -0.000001
# 2 -0.006870 0.045800 -0.011165 0.000000 0.011658 0.000001
# 3 0.000053 -0.011165 0.014415 0.000000 -0.005420 -0.000001
# 4 0.000000 0.000000 0.000000 0.079216 0.000000 0.083590
# 5 -0.000079 0.011658 -0.005420 0.000000 0.031411 0.000001
# 6 -0.000001 0.000001 -0.000001 0.083590 0.000001 0.220143
#
#
# Mechanical properties :
#
#
# Convention : Reuss Voigt Hill
#
# Bulk Modulus (GPa) = 23.24007 28.24152 25.74080
# Shear Modulus (GPa) = 10.86786 22.05399 16.46092
#
# Velocity S-wave (km/s) = 2.34815 3.34501 2.88988
# Velocity P-wave (km/s) = 4.37522 5.40806 4.91882
#
# Compressibility (1/GPa) = 0.04302913
#
# Stress axis : x y z
#
# Youngs Moduli (GPa) = 53.24994 21.83414 69.37421
#
# Poissons Ratio (x) = 0.15001 -0.00367
# Poissons Ratio (y) = 0.36585 0.77456
# Poissons Ratio (z) = -0.00282 0.24378
#
# Static dielectric constant tensor:
#      x y z
#    x 1.713480 0.000000 -0.027920 
#    y 0.000000 1.705850 0.000000 
#    z -0.027920 0.000000 1.693390 
# 
# From -- ./inp_files/340842.got.cif
#   From: 2010.05.17/outbox.ucp.g08.bks.cvg/sg12_171_cif.got.tgz:340842.got - 2010.06.11 11:47:21.
