data_PCOD9224796
_publ_section_title
;
Structure prediction by ZEFSAII (Michael W. Deem and Ramdas Pophale) SiO2 
 PCOD9224796
Probable space group: C 2/M
;
_chemical_formula_sum "Si O2"
_cell_formula_units_Z 24
_cell_length_a 18.000000
_cell_length_b 18.000000
_cell_length_c 15.000000
_cell_angle_alpha 90.000000
_cell_angle_beta 150.000000
_cell_angle_gamma 90.000000
_cell_volume 2430.000000
_symmetry_space_group_name_H-M "C 2/M"
_symmetry_group_IT_number 12
_symmetry_cell_setting 'monoclinic'
loop_
_space_group_symop_operation_xyz
x,y,z
-x,y,-z
-x,-y,-z
x,-y,z
1/2+x,1/2+y,z
1/2-x,1/2+y,-z
1/2-x,1/2-y,-z
1/2+x,1/2-y,z
loop_
_atom_site_type_symbol
_atom_site_label
_atom_site_fract_x
_atom_site_fract_y
_atom_site_fract_z
Si Si1 0.833538 0.000000 0.862550
Si Si2 0.430090 0.000000 0.534089
Si Si3 0.600284 0.583271 0.691422
Si Si4 0.402513 0.342109 0.988727
Si Si5 0.085512 0.646911 0.350840
Si Si6 0.916146 0.821901 0.640751
Si Si7 0.389788 0.175261 0.970899
O O1 0.813969 0.078926 0.894900
O O2 0.738523 0.000000 0.673825
O O3 0.000000 0.000000 0.000000
O O4 0.500000 0.000000 0.500000
O O5 0.448645 0.923156 0.615300
O O6 0.500000 0.579470 0.500000
O O7 0.621616 0.500000 0.749922
O O8 0.516398 0.634407 0.675163
O O9 0.754884 0.619110 0.823195
O O10 0.500000 0.343353 0.000000
O O11 0.507992 0.334612 0.184031
O O12 0.326518 0.260474 0.909141
O O13 0.086833 0.733440 0.388377
O O14 0.251476 0.643353 0.480885
O O15 0.973330 0.653022 0.150005
O O16 0.500000 0.171522 0.000000
#
# Coordination Sequence:
#
# PCOD9224796 Si02
#       7
#     4   4   8   8   8   8   8
#     4  10  20  36  60  91 127 170 210 257 310 383
#     4  12  28  42  61 101 140 174 211 265 339 399
#     4  11  26  42  62  95 124 166 225 277 331 385
#     4   9  19  36  64  98 127 167 219 259 320 393
#     4  10  23  43  67  99 131 175 219 265 337 398
#     4  10  22  42  69  95 130 174 222 273 324 393
#     4  10  22  43  68  94 129 174 218 273 336 392
#
# _framework density 9.8765429999999999
#
# number of rings (size 3 to 8) (size 9 to 14) (size 15 to 20)
#    0.000    1.833    0.000    3.000    3.500   10.333 
#    0.000    0.000    0.000    0.000    0.000    0.000 
#    0.000    0.000    0.000    0.000    0.000    0.000 
#
# Total GULP energy -133679.382686 kJ/mol
# GULP energy per Si atom -5569.974279 kJ/mol
# Density = 0.985406 g / cm^3
# Si number density = 9.876543 Si / 1000 Ang^3
#
#
#
# Elastic Constant Matrix: (Units=GPa)
#
#
# Indices 1 2 3 4 5 6 
#
# 1 96.8876 55.2765 15.9932 0.0000 1.7791 0.0000
# 2 55.2765 179.1057 46.8560 0.0000 2.1263 0.0000
# 3 15.9932 46.8560 77.4296 0.0000 -5.0027 0.0000
# 4 0.0000 0.0000 0.0000 31.8395 0.0000 -5.2487
# 5 1.7791 2.1263 -5.0027 0.0000 31.7163 0.0000
# 6 0.0000 0.0000 0.0000 -5.2487 0.0000 36.0227
#
#
#
# Elastic Compliance Matrix: (Units=1/GPa)
#
#
# Indices 1 2 3 4 5 6 
#
# 1 0.012541 -0.003776 -0.000338 0.000000 -0.000504 0.000000
# 2 -0.003776 0.007808 -0.004006 0.000000 -0.000943 0.000000
# 3 -0.000338 -0.004006 0.015586 0.000000 0.002746 0.000000
# 4 0.000000 0.000000 0.000000 0.032180 0.000000 0.004689
# 5 -0.000504 -0.000943 0.002746 0.000000 0.032054 0.000000
# 6 0.000000 0.000000 0.000000 0.004689 0.000000 0.028443
#
#
# Mechanical properties :
#
#
# Convention : Reuss Voigt Hill
#
# Bulk Modulus (GPa) = 50.77346 65.51937 58.14641
# Shear Modulus (GPa) = 33.02139 35.60221 34.31180
#
# Velocity S-wave (km/s) = 4.09309 4.25003 4.17230
# Velocity P-wave (km/s) = 6.93525 7.57132 7.26025
#
# Compressibility (1/GPa) = 0.01969533
#
# Stress axis : x y z
#
# Youngs Moduli (GPa) = 79.74160 128.07649 64.15902
#
# Poissons Ratio (x) = 0.48361 0.02167
# Poissons Ratio (y) = 0.30110 0.25701
# Poissons Ratio (z) = 0.02694 0.51306
#
# Static dielectric constant tensor:
#      x y z
#    x 1.678060 0.000000 0.038350 
#    y 0.000000 1.755460 0.000000 
#    z 0.038350 0.000000 1.824050 
# 
# From -- ./inp_files/226961.got.cif
#   From: 2010.05.17/outbox.ucp.g08.bks.cvg/sg12_114_cif.got.tgz:226961.got - 2010.06.11 11:47:21.
