data_PCOD9224780
_publ_section_title
;
Structure prediction by ZEFSAII (Michael W. Deem and Ramdas Pophale) SiO2 
 PCOD9224780
Probable space group: C 2/M
;
_chemical_formula_sum "Si O2"
_cell_formula_units_Z 20
_cell_length_a 30.000000
_cell_length_b 9.000000
_cell_length_c 21.000000
_cell_angle_alpha 90.000000
_cell_angle_beta 160.000000
_cell_angle_gamma 90.000000
_cell_volume 1939.254213
_symmetry_space_group_name_H-M "C 2/M"
_symmetry_group_IT_number 12
_symmetry_cell_setting 'monoclinic'
loop_
_space_group_symop_operation_xyz
x,y,z
-x,y,-z
-x,-y,-z
x,-y,z
1/2+x,1/2+y,z
1/2-x,1/2+y,-z
1/2-x,1/2-y,-z
1/2+x,1/2-y,z
loop_
_atom_site_type_symbol
_atom_site_label
_atom_site_fract_x
_atom_site_fract_y
_atom_site_fract_z
Si Si1 0.031250 0.174923 0.221364
Si Si2 0.661172 0.172296 0.599827
Si Si3 0.634747 0.824222 0.805147
Si Si4 0.246558 0.674569 0.152128
Si Si5 0.767184 0.171305 0.608712
O O1 0.093018 0.203159 0.234375
O O2 0.152963 0.224893 0.428151
O O3 0.003216 0.000000 0.191386
O O4 0.900212 0.266472 0.056293
O O5 0.515314 0.207532 0.378737
O O6 0.707597 0.282557 0.716149
O O7 0.760554 0.179487 0.675045
O O8 0.657443 0.000000 0.618282
O O9 0.656962 0.762576 0.764635
O O10 0.652556 0.000000 0.832430
O O11 0.750000 0.750000 0.000000
O O12 0.252565 0.500000 0.147866
O O13 0.734802 0.000000 0.546659
#
# Coordination Sequence:
#
# PCOD9224780 Si02
#       5
#     8   8   8   8   8
#     4  10  20  36  60  87 117 153 193 238 288 345
#     4  10  22  40  60  84 116 151 188 235 293 350
#     4  11  23  40  64  90 117 150 189 235 288 348
#     4  12  25  39  57  83 118 156 196 241 285 336
#     4   9  19  37  61  88 117 150 190 238 292 349
#
# _framework density 10.313243
#
# number of rings (size 3 to 8) (size 9 to 14) (size 15 to 20)
#    0.000    1.600    0.000    4.800    0.000    8.000 
#    0.000    4.000    0.000    0.000    0.000    0.000 
#    0.000    0.000    0.000    0.000    0.000    0.000 
#
# Total GULP energy -111726.453778 kJ/mol
# GULP energy per Si atom -5586.322689 kJ/mol
# Density = 1.028977 g / cm^3
# Si number density = 10.313243 Si / 1000 Ang^3
#
#
#
# Elastic Constant Matrix: (Units=GPa)
#
#
# Indices 1 2 3 4 5 6 
#
# 1 67.6173 3.4405 -20.0254 0.0000 9.0632 0.0000
# 2 3.4405 23.9743 -1.3053 0.0000 -2.1314 0.0000
# 3 -20.0254 -1.3053 5.6994 0.0000 -0.8742 0.0000
# 4 0.0000 0.0000 0.0000 36.7751 0.0000 -6.8304
# 5 9.0632 -2.1314 -0.8742 0.0000 25.6038 0.0000
# 6 0.0000 0.0000 0.0000 -6.8304 0.0000 22.0767
#
#
#
# Elastic Compliance Matrix: (Units=1/GPa)
#
#
# Indices 1 2 3 4 5 6 
#
# 1 -0.239866 -0.006107 -0.835628 0.000000 0.055867 0.000000
# 2 -0.006107 0.042467 -0.010916 0.000000 0.005324 0.000000
# 3 -0.835628 -0.010916 -2.732196 0.000000 0.201596 0.000000
# 4 0.000000 0.000000 0.000000 0.028850 0.000000 0.008926
# 5 0.055867 0.005324 0.201596 0.000000 0.026608 0.000000
# 6 0.000000 0.000000 0.000000 0.008926 0.000000 0.048058
#
#
# Mechanical properties :
#
#
# Convention : Reuss Voigt Hill
#
# Bulk Modulus (GPa) = -0.21575 6.83451 3.30938
# Shear Modulus (GPa) = -1.87565 24.56988 11.34711
#
# Velocity S-wave (km/s) = -0.95463 3.45509 2.34802
# Velocity P-wave (km/s) = 1.14888 4.38606 2.99313
#
# Compressibility (1/GPa) = -4.63489701
#
# Stress axis : x y z
#
# Youngs Moduli (GPa) = -4.16899 23.54781 -0.36601
#
# Poissons Ratio (x) = 0.14381 -0.30584
# Poissons Ratio (y) = -0.02546 -0.00400
# Poissons Ratio (z) = -3.48372 0.25704
#
# Static dielectric constant tensor:
#      x y z
#    x 1.828630 0.000000 -0.017940 
#    y 0.000000 1.716170 0.000000 
#    z -0.017940 0.000000 1.692320 
# 
# From -- ./inp_files/151668.got.cif
#   From: 2010.05.17/outbox.ucp.g08.bks.cvg/sg12_76_cif.got.tgz:151668.got - 2010.06.11 11:47:21.
