data_PCOD9224446
_publ_section_title
;
Structure prediction by ZEFSAII (Michael W. Deem and Ramdas Pophale) SiO2 
 PCOD9224446
Probable space group: C 2/M
;
_chemical_formula_sum "Si O2"
_cell_formula_units_Z 28
_cell_length_a 9.000000
_cell_length_b 18.000000
_cell_length_c 27.000000
_cell_angle_alpha 90.000000
_cell_angle_beta 140.000000
_cell_angle_gamma 90.000000
_cell_volume 2811.553005
_symmetry_space_group_name_H-M "C 2/M"
_symmetry_group_IT_number 12
_symmetry_cell_setting 'monoclinic'
loop_
_space_group_symop_operation_xyz
x,y,z
-x,y,-z
-x,-y,-z
x,-y,z
1/2+x,1/2+y,z
1/2-x,1/2+y,-z
1/2-x,1/2-y,-z
1/2+x,1/2-y,z
loop_
_atom_site_type_symbol
_atom_site_label
_atom_site_fract_x
_atom_site_fract_y
_atom_site_fract_z
Si Si1 0.786026 0.584046 0.119058
Si Si2 0.721577 0.370571 0.302810
Si Si3 0.785161 0.332850 0.813386
Si Si4 0.981850 0.582043 0.713346
Si Si5 0.238000 0.082264 0.416891
Si Si6 0.144435 0.200932 0.664601
Si Si7 0.493149 0.730282 0.945181
O O1 0.721448 0.500000 0.089567
O O2 0.888936 0.582494 0.200931
O O3 0.586563 0.645572 0.069463
O O4 0.992286 0.614452 0.136369
O O5 0.446950 0.367248 0.223874
O O6 0.848581 0.405752 0.288925
O O7 0.741999 0.414815 0.358689
O O8 0.827363 0.287784 0.339442
O O9 0.726153 0.306729 0.742704
O O10 0.840569 0.264857 0.863191
O O11 0.871763 0.500000 0.680622
O O12 0.811285 0.651900 0.672734
O O13 0.500000 0.088286 0.500000
O O14 0.092704 0.153817 0.397734
O O15 0.146812 0.000000 0.408797
O O16 0.500000 0.768927 0.000000
O O17 0.750000 0.750000 0.000000
#
# Coordination Sequence:
#
# PCOD9224446 Si02
#       7
#     8   8   8   8   8   8   8
#     4  10  22  40  60  84 115 153 195 242 291 349
#     4  11  21  35  62  88 118 146 194 248 281 337
#     4  10  21  39  59  88 114 154 198 232 289 355
#     4  10  20  34  57  87 116 144 187 243 293 338
#     4  10  22  40  59  82 118 161 197 232 289 357
#     4  10  20  37  61  84 116 153 193 239 287 349
#     4  12  24  39  61  86 114 159 195 242 292 358
#
# _framework density 9.9589090000000002
#
# number of rings (size 3 to 8) (size 9 to 14) (size 15 to 20)
#    0.000    1.571    1.429    5.143    2.000    4.857 
#    0.000    0.714    0.000    3.429    0.000    0.000 
#    0.000    0.000    0.000    0.000    0.000    0.000 
#
# Total GULP energy -155966.253273 kJ/mol
# GULP energy per Si atom -5570.223331 kJ/mol
# Density = 0.993624 g / cm^3
# Si number density = 9.958909 Si / 1000 Ang^3
#
#
#
# Elastic Constant Matrix: (Units=GPa)
#
#
# Indices 1 2 3 4 5 6 
#
# 1 99.9571 17.8821 18.3165 0.0000 36.4666 0.0000
# 2 17.8821 86.0273 73.6467 -0.0001 31.1560 0.0000
# 3 18.3165 73.6467 26.8707 0.0002 27.5508 0.0001
# 4 0.0000 -0.0001 0.0002 35.1103 0.0002 -3.5835
# 5 36.4666 31.1560 27.5508 0.0002 -4.0884 0.0001
# 6 0.0000 0.0000 0.0001 -3.5835 0.0001 19.6999
#
#
#
# Elastic Compliance Matrix: (Units=1/GPa)
#
#
# Indices 1 2 3 4 5 6 
#
# 1 0.006436 -0.006623 0.000841 0.000000 0.012605 0.000000
# 2 -0.006623 -0.011372 0.023404 0.000000 0.011976 0.000000
# 3 0.000841 0.023404 -0.027570 0.000000 0.000066 0.000000
# 4 0.000000 0.000000 0.000000 0.029021 0.000000 0.005279
# 5 0.012605 0.011976 0.000066 0.000000 -0.040457 0.000000
# 6 0.000000 0.000000 0.000000 0.005279 0.000000 0.051722
#
#
# Mechanical properties :
#
#
# Convention : Reuss Voigt Hill
#
# Bulk Modulus (GPa) = 365.24501 48.06064 206.65283
# Shear Modulus (GPa) = -188.31191 17.01168 -85.65011
#
# Velocity S-wave (km/s) = -9.73395 2.92566 -6.56469
# Velocity P-wave (km/s) = 7.57900 5.96611 6.82040
#
# Compressibility (1/GPa) = 0.00273789
#
# Stress axis : x y z
#
# Youngs Moduli (GPa) = 155.36759 -87.93546 -36.27100
#
# Poissons Ratio (x) = -0.58242 0.03051
# Poissons Ratio (y) = 1.02904 0.84888
# Poissons Ratio (z) = -0.13071 2.05803
#
# Static dielectric constant tensor:
#      x y z
#    x 1.710280 0.000000 0.029450 
#    y 0.000000 1.703390 0.000000 
#    z 0.029450 0.000000 1.667230 
# 
# From -- ./inp_files/257180.got.cif
#   From: 2010.05.17/outbox.ucp.g08.bks.cvg/sg12_129_cif.got.tgz:257180.got - 2010.06.11 11:47:21.
