data_PCOD9224364
_publ_section_title
;
Structure prediction by ZEFSAII (Michael W. Deem and Ramdas Pophale) SiO2 
 PCOD9224364
Probable space group: C 2/M
;
_chemical_formula_sum "Si O2"
_cell_formula_units_Z 28
_cell_length_a 27.000000
_cell_length_b 9.000000
_cell_length_c 15.000000
_cell_angle_alpha 90.000000
_cell_angle_beta 120.000000
_cell_angle_gamma 90.000000
_cell_volume 3156.662597
_symmetry_space_group_name_H-M "C 2/M"
_symmetry_group_IT_number 12
_symmetry_cell_setting 'monoclinic'
loop_
_space_group_symop_operation_xyz
x,y,z
-x,y,-z
-x,-y,-z
x,-y,z
1/2+x,1/2+y,z
1/2-x,1/2+y,-z
1/2-x,1/2-y,-z
1/2+x,1/2-y,z
loop_
_atom_site_type_symbol
_atom_site_label
_atom_site_fract_x
_atom_site_fract_y
_atom_site_fract_z
Si Si1 0.630093 0.820065 0.938113
Si Si2 0.704615 0.171357 0.836437
Si Si3 0.700683 0.179069 0.391882
Si Si4 0.307982 0.821750 0.827664
Si Si5 0.968062 0.176807 0.270859
Si Si6 0.913183 0.322130 0.595662
Si Si7 0.410692 0.171341 0.383987
O O1 0.681501 0.782057 0.913802
O O2 0.574678 0.748376 0.840978
O O3 0.624685 0.000000 0.929623
O O4 0.643711 0.776809 0.053553
O O5 0.751476 0.270576 0.829798
O O6 0.650209 0.173039 0.720968
O O7 0.724863 0.000000 0.861431
O O8 0.750000 0.250000 0.500000
O O9 0.695110 0.227477 0.280796
O O10 0.642016 0.209378 0.393105
O O11 0.709632 0.000000 0.398302
O O12 0.311113 0.000000 0.826263
O O13 0.949594 0.230229 0.353876
O O14 0.032030 0.236983 0.317512
O O15 0.964746 0.000000 0.262301
O O16 0.923023 0.500000 0.607923
O O17 0.905539 0.284221 0.483143
O O18 0.431645 0.000000 0.400143
#
# Coordination Sequence:
#
# PCOD9224364 Si02
#       7
#     8   8   8   8   8   8   8
#     4   9  19  36  54  74 105 142 176 211 256 314
#     4   9  17  30  51  79 109 140 172 208 258 315
#     4  10  22  39  58  81 107 137 174 214 256 304
#     4  10  20  34  54  79 105 136 177 220 258 300
#     4  11  22  34  52  80 108 133 170 221 268 307
#     4  10  20  36  56  75 103 144 180 209 253 314
#     4   9  18  33  53  77 106 142 177 207 252 317
#
# _framework density 8.8701279999999993
#
# number of rings (size 3 to 8) (size 9 to 14) (size 15 to 20)
#    0.000    2.286    0.000    3.857    0.000    7.429 
#    0.000    0.714    0.000    4.286    0.000    0.000 
#    0.000    0.000    0.000    0.000    0.000    0.000 
#
# Total GULP energy -156032.084655 kJ/mol
# GULP energy per Si atom -5572.574452 kJ/mol
# Density = 0.884994 g / cm^3
# Si number density = 8.870128 Si / 1000 Ang^3
#
#
#
# Elastic Constant Matrix: (Units=GPa)
#
#
# Indices 1 2 3 4 5 6 
#
# 1 100.2629 39.9273 72.4251 0.0000 -3.5659 0.0000
# 2 39.9273 35.2962 41.0933 0.0000 0.8576 0.0000
# 3 72.4251 41.0933 169.8536 0.0000 -20.6947 0.0000
# 4 0.0000 0.0000 0.0000 23.0869 0.0000 2.2576
# 5 -3.5659 0.8576 -20.6947 0.0000 28.7169 0.0000
# 6 0.0000 0.0000 0.0000 2.2576 0.0000 26.5685
#
#
#
# Elastic Compliance Matrix: (Units=1/GPa)
#
#
# Indices 1 2 3 4 5 6 
#
# 1 0.020169 -0.017809 -0.004299 0.000000 -0.000062 0.000000
# 2 -0.017809 0.057319 -0.007402 0.000000 -0.009257 0.000000
# 3 -0.004299 -0.007402 0.010385 0.000000 0.007171 0.000000
# 4 0.000000 0.000000 0.000000 0.043677 0.000000 -0.003711
# 5 -0.000062 -0.009257 0.007171 0.000000 0.040259 0.000000
# 6 0.000000 0.000000 0.000000 -0.003711 0.000000 0.037954
#
#
# Mechanical properties :
#
#
# Convention : Reuss Voigt Hill
#
# Bulk Modulus (GPa) = 34.65688 68.03379 51.34533
# Shear Modulus (GPa) = 17.95977 25.80560 21.88268
#
# Velocity S-wave (km/s) = 3.18523 3.81811 3.51594
# Velocity P-wave (km/s) = 5.75376 7.60726 6.74449
#
# Compressibility (1/GPa) = 0.02885430
#
# Stress axis : x y z
#
# Youngs Moduli (GPa) = 49.58167 17.44618 96.29339
#
# Poissons Ratio (x) = 0.31069 0.41396
# Poissons Ratio (y) = 0.88298 0.71274
# Poissons Ratio (z) = 0.21315 0.12913
#
# Static dielectric constant tensor:
#      x y z
#    x 1.610770 0.000000 0.017290 
#    y 0.000000 1.603740 0.000000 
#    z 0.017290 0.000000 1.626150 
# 
# From -- ./inp_files/244327.got.cif
#   From: 2010.05.17/outbox.ucp.g08.bks.cvg/sg12_123_cif.got.tgz:244327.got - 2010.06.11 11:47:21.
