data_PCOD9224928
_publ_section_title
;
Structure prediction by ZEFSAII (Michael W. Deem and Ramdas Pophale) SiO2 
 PCOD9224928
Probable space group: C 2/M
;
_chemical_formula_sum "Si O2"
_cell_formula_units_Z 32
_cell_length_a 24.000000
_cell_length_b 18.000000
_cell_length_c 21.000000
_cell_angle_alpha 90.000000
_cell_angle_beta 160.000000
_cell_angle_gamma 90.000000
_cell_volume 3102.806740
_symmetry_space_group_name_H-M "C 2/M"
_symmetry_group_IT_number 12
_symmetry_cell_setting 'monoclinic'
loop_
_space_group_symop_operation_xyz
x,y,z
-x,y,-z
-x,-y,-z
x,-y,z
1/2+x,1/2+y,z
1/2-x,1/2+y,-z
1/2-x,1/2-y,-z
1/2+x,1/2-y,z
loop_
_atom_site_type_symbol
_atom_site_label
_atom_site_fract_x
_atom_site_fract_y
_atom_site_fract_z
Si Si1 0.761588 0.662765 0.897364
Si Si2 0.818692 0.914023 0.822563
Si Si3 0.080150 0.412659 0.182497
Si Si4 0.711410 0.587386 0.467721
Si Si5 0.931028 0.085254 0.498189
Si Si6 0.710408 0.162042 0.832958
Si Si7 0.115309 0.587301 0.474627
Si Si8 0.648262 0.411548 0.896344
O O1 0.577287 0.634892 0.683433
O O2 0.759807 0.752001 0.893608
O O3 0.771361 0.629903 0.979987
O O4 0.905520 0.630317 0.005092
O O5 0.735947 0.864732 0.788059
O O6 0.722744 0.914264 0.653458
O O7 0.827062 0.000000 0.854555
O O8 0.000000 0.888224 0.000000
O O9 0.043655 0.500000 0.129606
O O10 0.158405 0.405451 0.336531
O O11 0.239228 0.392326 0.306985
O O12 0.681372 0.500000 0.424024
O O13 0.782930 0.614570 0.477478
O O14 0.539554 0.615344 0.310340
O O15 0.000000 0.081562 0.500000
O O16 0.938857 0.000000 0.532371
O O17 0.530569 0.142593 0.664916
O O18 0.815345 0.109661 0.991900
O O19 0.061541 0.500000 0.405299
O O20 0.662946 0.500000 0.901147
#
# Coordination Sequence:
#
# PCOD9224928 Si02
#       8
#     8   8   8   8   8   8   8   8
#     4  12  25  42  61  98 134 169 205 263 332 398
#     4  10  21  41  65  89 121 169 226 269 308 370
#     4  10  20  40  69  96 124 166 219 267 320 383
#     4   9  18  35  64  97 119 152 210 271 322 364
#     4  10  22  43  69  95 122 164 224 277 318 378
#     4  12  25  39  56  94 133 169 210 260 329 393
#     4  10  20  37  63  92 123 166 219 266 310 375
#     4  11  21  40  67  90 124 169 219 271 316 374
#
# _framework density 10.313243
#
# number of rings (size 3 to 8) (size 9 to 14) (size 15 to 20)
#    0.000    1.500    1.250    4.500    0.000    5.500 
#    6.750    3.125    0.000    0.000    0.000    0.000 
#    0.000    0.000    0.000    0.000    0.000    0.000 
#
# Total GULP energy -178417.708715 kJ/mol
# GULP energy per Si atom -5575.553397 kJ/mol
# Density = 1.028977 g / cm^3
# Si number density = 10.313243 Si / 1000 Ang^3
#
#
#
# Elastic Constant Matrix: (Units=GPa)
#
#
# Indices 1 2 3 4 5 6 
#
# 1 160.9446 43.5734 33.8048 0.0133 27.7151 0.0109
# 2 43.5734 61.1514 21.8982 0.0143 13.4123 0.0084
# 3 33.8048 21.8982 74.0226 0.0099 32.1586 0.0058
# 4 0.0133 0.0143 0.0099 18.3172 -0.0001 -0.3241
# 5 27.7151 13.4123 32.1586 -0.0001 47.6858 -0.0050
# 6 0.0109 0.0084 0.0058 -0.3241 -0.0050 6.5222
#
#
#
# Elastic Compliance Matrix: (Units=1/GPa)
#
#
# Indices 1 2 3 4 5 6 
#
# 1 0.008230 -0.004867 -0.001181 -0.000002 -0.002618 -0.000008
# 2 -0.004867 0.021321 -0.003831 -0.000011 -0.000585 -0.000017
# 3 -0.001181 -0.003831 0.020390 -0.000008 -0.011986 -0.000021
# 4 -0.000002 -0.000011 -0.000008 0.054642 0.000010 0.002716
# 5 -0.002618 -0.000585 -0.011986 0.000010 0.030740 0.000040
# 6 -0.000008 -0.000017 -0.000021 0.002716 0.000040 0.153457
#
#
# Mechanical properties :
#
#
# Convention : Reuss Voigt Hill
#
# Bulk Modulus (GPa) = 33.13229 54.96347 44.04788
# Shear Modulus (GPa) = 15.69380 27.62786 21.66083
#
# Velocity S-wave (km/s) = 2.76136 3.66380 3.24411
# Velocity P-wave (km/s) = 5.12490 6.67853 5.95262
#
# Compressibility (1/GPa) = 0.03018204
#
# Stress axis : x y z
#
# Youngs Moduli (GPa) = 121.50822 46.90242 49.04476
#
# Poissons Ratio (x) = 0.22827 0.05794
# Poissons Ratio (y) = 0.59138 0.18787
# Poissons Ratio (z) = 0.14356 0.17967
#
# Static dielectric constant tensor:
#      x y z
#    x 1.771720 0.000000 -0.052690 
#    y 0.000000 1.707550 0.000000 
#    z -0.052690 0.000000 1.859470 
# 
# From -- ./inp_files/326124.got.cif
#   From: 2010.05.17/outbox.ucp.g08.bks.cvg/sg12_164_cif.got.tgz:326124.got - 2010.06.11 11:47:21.
