data_PCOD9224891
_publ_section_title
;
Structure prediction by ZEFSAII (Michael W. Deem and Ramdas Pophale) SiO2 
 PCOD9224891
Probable space group: C 2/M
;
_chemical_formula_sum "Si O2"
_cell_formula_units_Z 20
_cell_length_a 24.000000
_cell_length_b 9.000000
_cell_length_c 9.000000
_cell_angle_alpha 90.000000
_cell_angle_beta 90.000000
_cell_angle_gamma 90.000000
_cell_volume 1944.000000
_symmetry_space_group_name_H-M "C 2/M"
_symmetry_group_IT_number 12
_symmetry_cell_setting 'monoclinic'
loop_
_space_group_symop_operation_xyz
x,y,z
-x,y,-z
-x,-y,-z
x,-y,z
1/2+x,1/2+y,z
1/2-x,1/2+y,-z
1/2-x,1/2-y,-z
1/2+x,1/2-y,z
loop_
_atom_site_type_symbol
_atom_site_label
_atom_site_fract_x
_atom_site_fract_y
_atom_site_fract_z
Si Si1 0.580366 0.675341 0.819308
Si Si2 0.222476 0.327765 0.297802
Si Si3 0.980921 0.678294 0.663559
Si Si4 0.670807 0.827316 0.621792
Si Si5 0.615391 0.825790 0.121685
O O1 0.574265 0.500000 0.816638
O O2 0.522811 0.755485 0.783108
O O3 0.622160 0.729162 0.689810
O O4 0.601133 0.729924 0.979080
O O5 0.242282 0.500000 0.305755
O O6 0.273501 0.216084 0.289554
O O7 0.188584 0.300667 0.451303
O O8 0.179645 0.312284 0.164653
O O9 0.985190 0.500000 0.658868
O O10 0.920452 0.714044 0.730971
O O11 0.000000 0.732560 0.500000
O O12 0.655410 0.000000 0.636926
O O13 0.603521 0.000000 0.089395
#
# Coordination Sequence:
#
# PCOD9224891 Si02
#       5
#     8   8   8   8   8
#     4  12  25  38  55  83 119 154 190 234 281 331
#     4   9  19  37  61  88 114 144 188 238 285 335
#     4  10  21  40  65  88 111 145 189 233 282 342
#     4  10  20  37  61  86 114 150 191 234 283 339
#     4  10  21  38  60  84 114 151 188 230 283 342
#
# _framework density 10.288066000000001
#
# number of rings (size 3 to 8) (size 9 to 14) (size 15 to 20)
#    0.000    1.800    0.000    4.200    0.000    9.200 
#    0.000    2.000    0.000    0.000    0.000    0.000 
#    0.000    0.000    0.000    0.000    0.000    0.000 
#
# Total GULP energy -111698.168994 kJ/mol
# GULP energy per Si atom -5584.908450 kJ/mol
# Density = 1.026465 g / cm^3
# Si number density = 10.288066 Si / 1000 Ang^3
#
#
#
# Elastic Constant Matrix: (Units=GPa)
#
#
# Indices 1 2 3 4 5 6 
#
# 1 38.4694 -28.6680 -18.1202 0.0000 13.1582 0.0000
# 2 -28.6680 -114.1579 -3.9476 0.0000 4.0013 0.0000
# 3 -18.1202 -3.9476 13.1011 0.0000 18.3732 0.0000
# 4 0.0000 0.0000 0.0000 21.1952 0.0000 -2.1822
# 5 13.1582 4.0013 18.3732 0.0000 18.2350 0.0000
# 6 0.0000 0.0000 0.0000 -2.1822 0.0000 17.9707
#
#
#
# Elastic Compliance Matrix: (Units=1/GPa)
#
#
# Indices 1 2 3 4 5 6 
#
# 1 0.004694 0.000669 -0.028207 0.000000 0.024887 0.000000
# 2 0.000669 -0.009588 0.010260 0.000000 -0.008716 0.000000
# 3 -0.028207 0.010260 -0.036364 0.000000 0.054742 0.000000
# 4 0.000000 0.000000 0.000000 0.047778 0.000000 0.005802
# 5 0.024887 -0.008716 0.054742 0.000000 -0.016363 0.000000
# 6 0.000000 0.000000 0.000000 0.005802 0.000000 0.056351
#
#
# Mechanical properties :
#
#
# Convention : Reuss Voigt Hill
#
# Bulk Modulus (GPa) = -13.19000 -18.22878 -15.70939
# Shear Modulus (GPa) = 89.61685 10.69006 50.15346
#
# Velocity S-wave (km/s) = 6.60669 2.28181 4.94242
# Velocity P-wave (km/s) = 7.19538 1.39148 4.99186
#
# Compressibility (1/GPa) = -0.07581501
#
# Stress axis : x y z
#
# Youngs Moduli (GPa) = 213.02002 -104.29656 -27.49955
#
# Poissons Ratio (x) = 0.06975 -0.77568
# Poissons Ratio (y) = -0.14247 0.28214
# Poissons Ratio (z) = 6.00869 1.07006
#
# Static dielectric constant tensor:
#      x y z
#    x 1.819100 0.000000 0.002540 
#    y 0.000000 1.691520 0.000000 
#    z 0.002540 0.000000 1.720890 
# 
# From -- ./inp_files/92720.got.cif
#   From: 2010.05.17/outbox.ucp.g08.bks.cvg/sg12_47_cif.got.tgz:92720.got - 2010.06.11 11:47:21.
