data_PCOD9224036
_publ_section_title
;
Structure prediction by ZEFSAII (Michael W. Deem and Ramdas Pophale) SiO2 
 PCOD9224036
Probable space group: C 2/M
;
_chemical_formula_sum "Si O2"
_cell_formula_units_Z 24
_cell_length_a 15.000000
_cell_length_b 30.000000
_cell_length_c 6.000000
_cell_angle_alpha 90.000000
_cell_angle_beta 60.000000
_cell_angle_gamma 90.000000
_cell_volume 2338.268590
_symmetry_space_group_name_H-M "C 2/M"
_symmetry_group_IT_number 12
_symmetry_cell_setting 'monoclinic'
loop_
_space_group_symop_operation_xyz
x,y,z
-x,y,-z
-x,-y,-z
x,-y,z
1/2+x,1/2+y,z
1/2-x,1/2+y,-z
1/2-x,1/2-y,-z
1/2+x,1/2-y,z
loop_
_atom_site_type_symbol
_atom_site_label
_atom_site_fract_x
_atom_site_fract_y
_atom_site_fract_z
Si Si1 0.391397 0.918049 0.655759
Si Si2 0.104116 0.864202 0.008528
Si Si3 0.555090 0.266797 0.184787
Si Si4 0.399714 0.832629 0.962570
Si Si5 0.260721 0.112630 0.440787
Si Si6 0.187573 0.947902 0.162306
O O1 0.500000 0.942074 0.500000
O O2 0.408436 0.870349 0.760099
O O3 0.356094 0.908748 0.449423
O O4 0.299146 0.942591 0.901086
O O5 0.106258 0.816149 0.126769
O O6 0.117634 0.909593 0.133781
O O7 0.194261 0.865038 0.715314
O O8 0.000000 0.867370 0.000000
O O9 0.500000 0.264467 0.500000
O O10 0.611427 0.218521 0.102873
O O11 0.500000 0.267741 0.000000
O O12 0.500000 0.834352 0.000000
O O13 0.301302 0.850204 0.221807
O O14 0.202372 0.072562 0.389786
O O15 0.155955 0.000000 0.195005
#
# Coordination Sequence:
#
# PCOD9224036 Si02
#       6
#     8   8   8   8   8   8
#     4  10  19  37  64  93 133 173 212 260 325 393
#     4  10  24  44  68  89 128 173 221 279 336 383
#     4  10  23  39  67 101 136 177 224 273 324 396
#     4  10  19  35  65  97 136 174 215 255 320 392
#     4  10  22  39  62  96 130 174 214 275 320 401
#     4  10  24  42  63  94 125 164 222 282 340 402
#
# _framework density 10.264004999999999
#
# number of rings (size 3 to 8) (size 9 to 14) (size 15 to 20)
#    0.000    2.000    1.667    0.500    7.000    4.000 
#    0.000    9.167    0.000    0.000    0.000    0.000 
#    0.000    0.000    0.000    0.000    0.000    0.000 
#
# Total GULP energy -133686.593078 kJ/mol
# GULP energy per Si atom -5570.274712 kJ/mol
# Density = 1.024064 g / cm^3
# Si number density = 10.264005 Si / 1000 Ang^3
#
#
#
# Elastic Constant Matrix: (Units=GPa)
#
#
# Indices 1 2 3 4 5 6 
#
# 1 56.9521 9.4022 -5.5394 0.0000 13.6566 0.0000
# 2 9.4022 180.3112 26.9583 0.0000 17.4314 0.0000
# 3 -5.5394 26.9583 67.7837 0.0000 24.3174 0.0000
# 4 0.0000 0.0000 0.0000 26.0959 0.0000 6.9767
# 5 13.6566 17.4314 24.3174 0.0000 24.2789 0.0000
# 6 0.0000 0.0000 0.0000 6.9767 0.0000 34.3342
#
#
#
# Elastic Compliance Matrix: (Units=1/GPa)
#
#
# Indices 1 2 3 4 5 6 
#
# 1 0.024583 -0.000564 0.011002 0.000000 -0.024442 0.000000
# 2 -0.000564 0.006047 -0.001572 0.000000 -0.002450 0.000000
# 3 0.011002 -0.001572 0.028239 0.000000 -0.033343 0.000000
# 4 0.000000 0.000000 0.000000 0.040522 0.000000 -0.008234
# 5 -0.024442 -0.002450 -0.033343 0.000000 0.090091 0.000000
# 6 0.000000 0.000000 0.000000 -0.008234 0.000000 0.030799
#
#
# Mechanical properties :
#
#
# Convention : Reuss Voigt Hill
#
# Bulk Modulus (GPa) = 13.05485 40.74325 26.89905
# Shear Modulus (GPa) = 21.92192 35.22354 28.57273
#
# Velocity S-wave (km/s) = 3.27142 4.14681 3.73485
# Velocity P-wave (km/s) = 4.54345 6.54360 5.63301
#
# Compressibility (1/GPa) = 0.07659990
#
# Stress axis : x y z
#
# Youngs Moduli (GPa) = 40.67914 165.36384 35.41197
#
# Poissons Ratio (x) = 0.09324 -0.38959
# Poissons Ratio (y) = 0.02294 0.05568
# Poissons Ratio (z) = -0.44754 0.26000
#
# Static dielectric constant tensor:
#      x y z
#    x -0.365700 0.000000 0.920000 
#    y 0.000000 1.697420 0.000000 
#    z 0.920000 0.000000 1.370440 
# 
# From -- ./inp_files/13048.got.cif
#   From: 2010.05.17/outbox.ucp.g08.bks.cvg/sg12_7_cif.got.tgz:13048.got - 2010.06.11 11:47:21.
