data_PCOD9224221
_publ_section_title
;
Structure prediction by ZEFSAII (Michael W. Deem and Ramdas Pophale) SiO2 
 PCOD9224221
Probable space group: C 2/M
;
_chemical_formula_sum "Si O2"
_cell_formula_units_Z 32
_cell_length_a 21.000000
_cell_length_b 9.000000
_cell_length_c 24.000000
_cell_angle_alpha 90.000000
_cell_angle_beta 50.000000
_cell_angle_gamma 90.000000
_cell_volume 3474.777594
_symmetry_space_group_name_H-M "C 2/M"
_symmetry_group_IT_number 12
_symmetry_cell_setting 'monoclinic'
loop_
_space_group_symop_operation_xyz
x,y,z
-x,y,-z
-x,-y,-z
x,-y,z
1/2+x,1/2+y,z
1/2-x,1/2+y,-z
1/2-x,1/2-y,-z
1/2+x,1/2-y,z
loop_
_atom_site_type_symbol
_atom_site_label
_atom_site_fract_x
_atom_site_fract_y
_atom_site_fract_z
Si Si1 0.760567 0.329389 0.906078
Si Si2 0.192963 0.328126 0.837246
Si Si3 0.157944 0.820594 0.558192
Si Si4 0.180583 0.177878 0.671945
Si Si5 0.878730 0.173516 0.919872
Si Si6 0.563072 0.321892 0.840512
Si Si7 0.004160 0.179902 0.563550
Si Si8 0.818301 0.174547 0.663593
O O1 0.770083 0.500000 0.884309
O O2 0.735394 0.232416 0.868140
O O3 0.842068 0.267954 0.890257
O O4 0.686623 0.318640 0.992971
O O5 0.172966 0.500000 0.854118
O O6 0.110600 0.240097 0.866960
O O7 0.257064 0.309538 0.750189
O O8 0.250000 0.750000 0.500000
O O9 0.143031 0.787542 0.632287
O O10 0.083041 0.770176 0.557849
O O11 0.164596 0.000000 0.548021
O O12 0.115055 0.223737 0.756416
O O13 0.269909 0.248310 0.639106
O O14 0.191135 0.000000 0.668638
O O15 0.968524 0.227059 0.888515
O O16 0.884976 0.000000 0.899631
O O17 0.564415 0.500000 0.842281
O O18 0.909700 0.226134 0.632396
O O19 0.000000 0.220022 0.500000
O O20 0.008664 0.000000 0.564042
O O21 0.826303 0.000000 0.644352
#
# Coordination Sequence:
#
# PCOD9224221 Si02
#       8
#     8   8   8   8   8   8   8   8
#     4  10  20  34  52  74 102 134 168 208 253 300
#     4  10  20  33  51  76 104 133 167 206 248 298
#     4  10  20  33  50  73  99 128 163 200 241 289
#     4   9  18  32  51  74  99 127 159 200 248 294
#     4   9  19  35  54  75  99 131 170 210 253 300
#     4   9  18  34  54  74  99 131 166 207 256 304
#     4   9  17  30  50  74  97 125 163 203 241 284
#     4   9  18  33  53  74  97 128 164 202 242 288
#
# _framework density 9.2092220000000005
#
# number of rings (size 3 to 8) (size 9 to 14) (size 15 to 20)
#    0.000    2.625    0.000    1.500    0.000    4.500 
#    0.000    6.875    0.000    3.750    0.000    0.000 
#    0.000    0.000    0.000    0.000    0.000    0.000 
#
# Total GULP energy -178197.438560 kJ/mol
# GULP energy per Si atom -5568.669955 kJ/mol
# Density = 0.918826 g / cm^3
# Si number density = 9.209222 Si / 1000 Ang^3
#
#
#
# Elastic Constant Matrix: (Units=GPa)
#
#
# Indices 1 2 3 4 5 6 
#
# 1 159.6999 18.2906 20.2439 0.0000 -17.4452 0.0003
# 2 18.2906 12.4958 16.7869 -0.0001 0.8154 0.0007
# 3 20.2439 16.7869 -3.6719 0.0000 -8.8463 0.0001
# 4 0.0000 -0.0001 0.0000 15.4428 0.0000 0.0980
# 5 -17.4452 0.8154 -8.8463 0.0000 34.1229 0.0000
# 6 0.0003 0.0007 0.0001 0.0980 0.0000 35.3525
#
#
#
# Elastic Compliance Matrix: (Units=1/GPa)
#
#
# Indices 1 2 3 4 5 6 
#
# 1 0.007936 -0.008274 -0.002661 0.000000 0.003565 0.000000
# 2 -0.008274 0.025043 0.049555 0.000000 0.008019 0.000000
# 3 -0.002661 0.049555 -0.033443 0.000000 -0.011215 -0.000001
# 4 0.000000 0.000000 0.000000 0.064756 0.000000 -0.000180
# 5 0.003565 0.008019 -0.011215 0.000000 0.028029 0.000000
# 6 0.000000 0.000000 -0.000001 -0.000180 0.000000 0.028287
#
#
# Mechanical properties :
#
#
# Convention : Reuss Voigt Hill
#
# Bulk Modulus (GPa) = 13.02509 31.01852 22.02181
# Shear Modulus (GPa) = 72.50388 24.53047 48.51718
#
# Velocity S-wave (km/s) = 6.28095 3.65340 5.13798
# Velocity P-wave (km/s) = 7.72577 5.88847 6.86883
#
# Compressibility (1/GPa) = 0.07677489
#
# Stress axis : x y z
#
# Youngs Moduli (GPa) = 126.00549 39.93173 -29.90188
#
# Poissons Ratio (x) = 0.33039 -0.07958
# Poissons Ratio (y) = 1.04256 1.48178
# Poissons Ratio (z) = 0.33534 -1.97880
#
# Static dielectric constant tensor:
#      x y z
#    x 1.619670 0.000000 -0.009930 
#    y 0.000000 1.625750 0.000000 
#    z -0.009930 0.000000 1.682790 
# 
# From -- ./inp_files/346039.got.cif
#   From: 2010.05.17/outbox.ucp.g08.bks.cvg/sg12_174_cif.got.tgz:346039.got - 2010.06.11 11:47:21.
