data_PCOD9224048
_publ_section_title
;
Structure prediction by ZEFSAII (Michael W. Deem and Ramdas Pophale) SiO2 
 PCOD9224048
Probable space group: C 2/M
;
_chemical_formula_sum "Si O2"
_cell_formula_units_Z 28
_cell_length_a 21.000000
_cell_length_b 9.000000
_cell_length_c 30.000000
_cell_angle_alpha 90.000000
_cell_angle_beta 150.000000
_cell_angle_gamma 90.000000
_cell_volume 2835.000000
_symmetry_space_group_name_H-M "C 2/M"
_symmetry_group_IT_number 12
_symmetry_cell_setting 'monoclinic'
loop_
_space_group_symop_operation_xyz
x,y,z
-x,y,-z
-x,-y,-z
x,-y,z
1/2+x,1/2+y,z
1/2-x,1/2+y,-z
1/2-x,1/2-y,-z
1/2+x,1/2-y,z
loop_
_atom_site_type_symbol
_atom_site_label
_atom_site_fract_x
_atom_site_fract_y
_atom_site_fract_z
Si Si1 0.032017 0.180755 0.746274
Si Si2 0.007023 0.680330 0.056237
Si Si3 0.743872 0.320479 0.947173
Si Si4 0.479597 0.179746 0.351563
Si Si5 0.642062 0.170612 0.589407
Si Si6 0.244869 0.331666 0.552297
Si Si7 0.251116 0.320842 0.265849
O O1 0.119373 0.221913 0.841741
O O2 0.080595 0.257333 0.730651
O O3 0.883720 0.229320 0.651375
O O4 0.037438 0.000000 0.746807
O O5 0.012909 0.500000 0.058409
O O6 0.130489 0.725181 0.161330
O O7 0.000000 0.730638 0.000000
O O8 0.874047 0.720229 0.999806
O O9 0.741387 0.500000 0.949811
O O10 0.750000 0.250000 0.000000
O O11 0.628179 0.230392 0.450592
O O12 0.383460 0.249211 0.328965
O O13 0.479920 0.000000 0.352988
O O14 0.500000 0.237364 0.500000
O O15 0.680581 0.160230 0.561581
O O16 0.745444 0.259272 0.681430
O O17 0.633185 0.000000 0.601627
O O18 0.267805 0.500000 0.549174
O O19 0.257012 0.500000 0.268786
#
# Coordination Sequence:
#
# PCOD9224048 Si02
#       7
#     8   8   8   8   8   8   8
#     4  10  21  38  60  84 111 149 193 233 278 338
#     4   9  19  38  61  84 114 153 193 239 295 346
#     4  10  22  40  62  87 118 154 194 242 295 347
#     4  11  21  37  58  84 117 151 184 229 287 342
#     4  10  19  36  57  78 113 155 186 226 284 341
#     4   9  19  35  56  82 114 151 187 223 279 344
#     4  11  22  35  57  86 113 147 193 238 279 335
#
# _framework density 9.8765429999999999
#
# number of rings (size 3 to 8) (size 9 to 14) (size 15 to 20)
#    0.000    2.000    1.429    2.143    2.000    3.143 
#    0.000    2.143    0.000    3.000    0.000    0.000 
#    0.000    0.000    0.000    0.000    0.000    0.000 
#
# Total GULP energy -155921.949036 kJ/mol
# GULP energy per Si atom -5568.641037 kJ/mol
# Density = 0.985406 g / cm^3
# Si number density = 9.876543 Si / 1000 Ang^3
#
#
#
# Elastic Constant Matrix: (Units=GPa)
#
#
# Indices 1 2 3 4 5 6 
#
# 1 68.4893 13.0965 48.5333 0.0000 -16.4743 0.0000
# 2 13.0965 25.6839 28.8019 0.0000 -10.2470 0.0002
# 3 48.5333 28.8019 203.1045 0.0002 -25.0649 0.0000
# 4 0.0000 0.0000 0.0002 27.3479 0.0000 -6.9029
# 5 -16.4743 -10.2470 -25.0649 0.0000 41.7186 0.0000
# 6 0.0000 0.0002 0.0000 -6.9029 0.0000 24.2137
#
#
#
# Elastic Compliance Matrix: (Units=1/GPa)
#
#
# Indices 1 2 3 4 5 6 
#
# 1 0.018832 -0.004052 -0.003381 0.000000 0.004410 0.000000
# 2 -0.004052 0.049795 -0.005164 0.000000 0.007528 0.000000
# 3 -0.003381 -0.005164 0.006635 0.000000 0.001382 0.000000
# 4 0.000000 0.000000 0.000000 0.039401 0.000000 0.011233
# 5 0.004410 0.007528 0.001382 0.000000 0.028391 0.000000
# 6 0.000000 0.000000 0.000000 0.011233 0.000000 0.044501
#
#
# Mechanical properties :
#
#
# Convention : Reuss Voigt Hill
#
# Bulk Modulus (GPa) = 19.97277 53.12679 36.54978
# Shear Modulus (GPa) = 21.79224 32.44578 27.11901
#
# Velocity S-wave (km/s) = 3.32510 4.05726 3.70929
# Velocity P-wave (km/s) = 4.98747 6.99302 6.07360
#
# Compressibility (1/GPa) = 0.05006817
#
# Stress axis : x y z
#
# Youngs Moduli (GPa) = 53.09976 20.08216 150.72714
#
# Poissons Ratio (x) = 0.08136 0.50967
# Poissons Ratio (y) = 0.21514 0.77839
# Poissons Ratio (z) = 0.17955 0.10371
#
# Static dielectric constant tensor:
#      x y z
#    x 1.804530 0.000000 0.022840 
#    y 0.000000 1.706200 0.000000 
#    z 0.022840 0.000000 1.691810 
# 
# From -- ./inp_files/380762.got.cif
#   From: 2010.05.17/outbox.ucp.g08.bks.cvg/sg12_191_cif.got.tgz:380762.got - 2010.06.11 11:47:21.
