data_PCOD9224661
_publ_section_title
;
Structure prediction by ZEFSAII (Michael W. Deem and Ramdas Pophale) SiO2 
 PCOD9224661
Probable space group: C 2/M
;
_chemical_formula_sum "Si O2"
_cell_formula_units_Z 32
_cell_length_a 9.000000
_cell_length_b 30.000000
_cell_length_c 12.000000
_cell_angle_alpha 90.000000
_cell_angle_beta 90.000000
_cell_angle_gamma 90.000000
_cell_volume 3240.000000
_symmetry_space_group_name_H-M "C 2/M"
_symmetry_group_IT_number 12
_symmetry_cell_setting 'monoclinic'
loop_
_space_group_symop_operation_xyz
x,y,z
-x,y,-z
-x,-y,-z
x,-y,z
1/2+x,1/2+y,z
1/2-x,1/2+y,-z
1/2-x,1/2-y,-z
1/2+x,1/2-y,z
loop_
_atom_site_type_symbol
_atom_site_label
_atom_site_fract_x
_atom_site_fract_y
_atom_site_fract_z
Si Si1 0.843956 0.611137 0.550258
Si Si2 0.367275 0.123817 0.919162
Si Si3 0.343946 0.950134 0.751942
Si Si4 0.502677 0.549495 0.262049
Si Si5 0.829840 0.949955 0.958139
Si Si6 0.025263 0.771050 0.365283
Si Si7 0.717688 0.809950 0.276730
Si Si8 0.099640 0.866052 0.393177
O O1 0.849261 0.566880 0.625022
O O2 0.793619 0.650437 0.632798
O O3 0.739944 0.608911 0.443292
O O4 0.000000 0.623333 0.500000
O O5 0.421719 0.086701 0.828988
O O6 0.301378 0.164342 0.842824
O O7 0.500000 0.139011 0.000000
O O8 0.256787 0.092986 0.994749
O O9 0.167470 0.950292 0.783493
O O10 0.401954 0.000000 0.764757
O O11 0.513868 0.500000 0.318269
O O12 0.636722 0.551566 0.173636
O O13 0.514063 0.596595 0.323941
O O14 0.766824 0.000000 0.984631
O O15 0.000000 0.949100 0.000000
O O16 0.095457 0.727594 0.307320
O O17 0.126755 0.816037 0.348686
O O18 0.000000 0.762606 0.500000
O O19 0.873657 0.785682 0.303332
O O20 0.000000 0.856139 0.500000
#
# Coordination Sequence:
#
# PCOD9224661 Si02
#       8
#     8   8   8   8   8   8   8   8
#     4  11  23  37  57  90 131 166 202 253 309 379
#     4  11  24  43  64  91 127 167 211 267 327 374
#     4  10  20  37  60  88 126 168 209 257 312 366
#     4  10  20  35  62  95 124 161 215 264 302 368
#     4  10  20  37  64  93 120 163 220 266 305 362
#     4  11  22  40  69  97 123 161 204 258 312 391
#     4  11  24  43  65  94 125 159 209 267 321 376
#     4  11  20  37  60  93 126 166 209 243 315 378
#
# _framework density 9.8765429999999999
#
# number of rings (size 3 to 8) (size 9 to 14) (size 15 to 20)
#    0.000    1.375    5.000    1.875    1.750    4.000 
#    0.000    1.875    0.000    0.000    0.000    0.000 
#    0.000    0.000    0.000    0.000    0.000    0.000 
#
# Total GULP energy -178216.408699 kJ/mol
# GULP energy per Si atom -5569.262772 kJ/mol
# Density = 0.985406 g / cm^3
# Si number density = 9.876543 Si / 1000 Ang^3
#
#
#
# Elastic Constant Matrix: (Units=GPa)
#
#
# Indices 1 2 3 4 5 6 
#
# 1 43.4491 3.1138 35.4064 0.0000 13.4957 0.0000
# 2 3.1138 120.3914 48.4676 0.0000 2.4099 0.0000
# 3 35.4064 48.4676 64.4422 0.0000 9.3268 0.0000
# 4 0.0000 0.0000 0.0000 28.7549 0.0000 -8.5975
# 5 13.4957 2.4099 9.3268 0.0000 24.8920 0.0000
# 6 0.0000 0.0000 0.0000 -8.5975 0.0000 25.3740
#
#
#
# Elastic Compliance Matrix: (Units=1/GPa)
#
#
# Indices 1 2 3 4 5 6 
#
# 1 0.065553 0.017272 -0.046122 0.000000 -0.019931 0.000000
# 2 0.017272 0.016593 -0.021550 0.000000 -0.002896 0.000000
# 3 -0.046122 -0.021550 0.056193 0.000000 0.006037 0.000000
# 4 0.000000 0.000000 0.000000 0.038697 0.000000 0.013112
# 5 -0.019931 -0.002896 0.006037 0.000000 0.048998 0.000000
# 6 0.000000 0.000000 0.000000 0.013112 0.000000 0.043853
#
#
# Mechanical properties :
#
#
# Convention : Reuss Voigt Hill
#
# Bulk Modulus (GPa) = 26.64000 44.69538 35.66769
# Shear Modulus (GPa) = 13.04795 25.22386 19.13590
#
# Velocity S-wave (km/s) = 2.57291 3.57733 3.11586
# Velocity P-wave (km/s) = 4.72676 6.30391 5.57142
#
# Compressibility (1/GPa) = 0.03753754
#
# Stress axis : x y z
#
# Youngs Moduli (GPa) = 15.25479 60.26517 17.79578
#
# Poissons Ratio (x) = -1.04087 0.82078
# Poissons Ratio (y) = -0.26347 0.38351
# Poissons Ratio (z) = 0.70358 1.29874
#
# Static dielectric constant tensor:
#      x y z
#    x 1.576680 0.000000 -0.154620 
#    y 0.000000 1.706290 0.000000 
#    z -0.154620 0.000000 1.582270 
# 
# From -- ./inp_files/125753.got.cif
#   From: 2010.05.17/outbox.ucp.g08.bks.cvg/sg12_63_cif.got.tgz:125753.got - 2010.06.11 11:47:21.
