data_PCOD9224420
_publ_section_title
;
Structure prediction by ZEFSAII (Michael W. Deem and Ramdas Pophale) SiO2 
 PCOD9224420
Probable space group: C 2/M
;
_chemical_formula_sum "Si O2"
_cell_formula_units_Z 32
_cell_length_a 15.000000
_cell_length_b 9.000000
_cell_length_c 30.000000
_cell_angle_alpha 90.000000
_cell_angle_beta 50.000000
_cell_angle_gamma 90.000000
_cell_volume 3102.479995
_symmetry_space_group_name_H-M "C 2/M"
_symmetry_group_IT_number 12
_symmetry_cell_setting 'monoclinic'
loop_
_space_group_symop_operation_xyz
x,y,z
-x,y,-z
-x,-y,-z
x,-y,z
1/2+x,1/2+y,z
1/2-x,1/2+y,-z
1/2-x,1/2-y,-z
1/2+x,1/2-y,z
loop_
_atom_site_type_symbol
_atom_site_label
_atom_site_fract_x
_atom_site_fract_y
_atom_site_fract_z
Si Si1 0.205137 0.826596 0.081429
Si Si2 0.731772 0.821356 0.242690
Si Si3 0.433013 0.329264 0.563203
Si Si4 0.184605 0.178063 0.878115
Si Si5 0.150998 0.833014 0.558541
Si Si6 0.075942 0.822913 0.036404
Si Si7 0.469757 0.828655 0.326093
Si Si8 0.710236 0.826993 0.687937
O O1 0.212020 0.735548 0.124324
O O2 0.098042 0.805143 0.082301
O O3 0.214910 0.000000 0.087715
O O4 0.321417 0.769906 0.018813
O O5 0.794095 0.767889 0.178390
O O6 0.598769 0.766256 0.286733
O O7 0.792681 0.766718 0.266995
O O8 0.728592 0.000000 0.241961
O O9 0.500000 0.256414 0.500000
O O10 0.403286 0.500000 0.558504
O O11 0.530804 0.333458 0.569621
O O12 0.314525 0.268598 0.622308
O O13 0.054221 0.222406 0.934379
O O14 0.184439 0.000000 0.879022
O O15 0.250000 0.750000 0.500000
O O16 0.119964 0.753520 0.613758
O O17 0.189315 0.000000 0.553787
O O18 0.091904 0.000000 0.021194
O O19 0.413584 0.823619 0.295864
O O20 0.474173 0.000000 0.339476
O O21 0.739816 0.000000 0.687840
#
# Coordination Sequence:
#
# PCOD9224420 Si02
#       8
#     8   8   8   8   8   8   8   8
#     4  10  20  34  55  85 115 144 187 240 281 320
#     4  10  22  39  57  81 113 147 186 236 279 323
#     4   9  17  31  52  77 105 137 174 214 262 325
#     4  10  21  37  56  78 111 154 191 223 278 342
#     4  11  21  34  55  82 112 144 179 221 273 333
#     4   9  19  36  56  79 113 154 188 223 280 343
#     4  10  21  38  59  81 110 144 180 226 280 329
#     4  10  20  37  59  80 106 145 185 222 274 336
#
# _framework density 10.314329000000001
#
# number of rings (size 3 to 8) (size 9 to 14) (size 15 to 20)
#    0.000    2.125    1.250    1.875    0.000    6.500 
#    0.000    0.000    0.000    1.875    0.000    0.000 
#    0.000    0.000    0.000    0.000    0.000    0.000 
#
# Total GULP energy -178404.467900 kJ/mol
# GULP energy per Si atom -5575.139622 kJ/mol
# Density = 1.029085 g / cm^3
# Si number density = 10.314329 Si / 1000 Ang^3
#
#
#
# Elastic Constant Matrix: (Units=GPa)
#
#
# Indices 1 2 3 4 5 6 
#
# 1 43.1981 18.2809 1.1301 0.0000 8.4753 0.0000
# 2 18.2809 5.6611 17.0815 0.0000 -6.8540 0.0000
# 3 1.1301 17.0815 50.6462 0.0000 21.4270 0.0000
# 4 0.0000 0.0000 0.0000 17.7198 0.0000 10.5127
# 5 8.4753 -6.8540 21.4270 0.0000 18.5732 0.0000
# 6 0.0000 0.0000 0.0000 10.5127 0.0000 18.6478
#
#
#
# Elastic Compliance Matrix: (Units=1/GPa)
#
#
# Indices 1 2 3 4 5 6 
#
# 1 0.012712 0.018045 -0.013152 0.000000 0.016031 0.000000
# 2 0.018045 -0.022112 0.027330 0.000000 -0.047923 0.000000
# 3 -0.013152 0.027330 0.007842 0.000000 0.007040 0.000000
# 4 0.000000 0.000000 0.000000 0.084794 0.000000 -0.047803
# 5 0.016031 -0.047923 0.007040 0.000000 0.020720 0.000000
# 6 0.000000 0.000000 0.000000 -0.047803 0.000000 0.080575
#
#
# Mechanical properties :
#
#
# Convention : Reuss Voigt Hill
#
# Bulk Modulus (GPa) = 15.90132 19.16561 17.53347
# Shear Modulus (GPa) = 35.44899 15.18902 25.31900
#
# Velocity S-wave (km/s) = 4.14990 2.71644 3.50719
# Velocity P-wave (km/s) = 5.53961 4.37603 4.99184
#
# Compressibility (1/GPa) = 0.06288784
#
# Stress axis : x y z
#
# Youngs Moduli (GPa) = 78.66764 -45.22486 127.51124
#
# Poissons Ratio (x) = 0.81607 1.67703
# Poissons Ratio (y) = -1.41954 -3.48488
# Poissons Ratio (z) = 1.03464 1.23599
#
# Static dielectric constant tensor:
#      x y z
#    x 1.732310 0.000000 0.061590 
#    y 0.000000 1.729350 0.000000 
#    z 0.061590 0.000000 1.738280 
# 
# From -- ./inp_files/375480.got.cif
#   From: 2010.05.17/outbox.ucp.g08.bks.cvg/sg12_188_cif.got.tgz:375480.got - 2010.06.11 11:47:21.
