data_PCOD9224281
_publ_section_title
;
Structure prediction by ZEFSAII (Michael W. Deem and Ramdas Pophale) SiO2 
 PCOD9224281
Probable space group: C 2/M
;
_chemical_formula_sum "Si O2"
_cell_formula_units_Z 32
_cell_length_a 30.000000
_cell_length_b 9.000000
_cell_length_c 15.000000
_cell_angle_alpha 90.000000
_cell_angle_beta 130.000000
_cell_angle_gamma 90.000000
_cell_volume 3102.479995
_symmetry_space_group_name_H-M "C 2/M"
_symmetry_group_IT_number 12
_symmetry_cell_setting 'monoclinic'
loop_
_space_group_symop_operation_xyz
x,y,z
-x,y,-z
-x,-y,-z
x,-y,z
1/2+x,1/2+y,z
1/2-x,1/2+y,-z
1/2-x,1/2-y,-z
1/2+x,1/2-y,z
loop_
_atom_site_type_symbol
_atom_site_label
_atom_site_fract_x
_atom_site_fract_y
_atom_site_fract_z
Si Si1 0.752871 0.326553 0.860784
Si Si2 0.456107 0.674274 0.743589
Si Si3 0.737831 0.177156 0.655432
Si Si4 0.138478 0.824340 0.230461
Si Si5 0.137290 0.331656 0.893480
Si Si6 0.563262 0.169923 0.978368
Si Si7 0.613661 0.670452 0.696428
Si Si8 0.395600 0.821029 0.503457
O O1 0.767711 0.500000 0.859187
O O2 0.757396 0.224222 0.779970
O O3 0.684417 0.324125 0.793139
O O4 0.798273 0.277514 0.994836
O O5 0.468021 0.500000 0.743564
O O6 0.396926 0.689781 0.724230
O O7 0.506431 0.741981 0.871482
O O8 0.442331 0.757209 0.633280
O O9 0.794508 0.228915 0.673014
O O10 0.671114 0.230786 0.557082
O O11 0.733986 0.000000 0.642181
O O12 0.140114 0.000000 0.208880
O O13 0.100761 0.742358 0.105895
O O14 0.143731 0.500000 0.866322
O O15 0.103900 0.333453 0.943673
O O16 0.099693 0.241063 0.773814
O O17 0.548007 0.000000 0.981980
O O18 0.595193 0.500000 0.664696
O O19 0.595031 0.760564 0.584947
O O20 0.397241 0.000000 0.506119
#
# Coordination Sequence:
#
# PCOD9224281 Si02
#       8
#     8   8   8   8   8   8   8   8
#     4   9  17  31  50  79 117 151 184 225 277 334
#     4  11  24  41  60  82 112 152 194 239 287 337
#     4   9  18  33  56  85 116 150 186 228 281 338
#     4  10  21  38  60  87 118 149 185 233 290 342
#     4  10  20  34  53  81 116 149 185 231 282 333
#     4  11  23  39  60  86 116 150 191 238 284 334
#     4  10  20  33  55  84 114 150 189 228 277 338
#     4  10  21  39  60  83 115 152 192 236 280 333
#
# _framework density 10.314329000000001
#
# number of rings (size 3 to 8) (size 9 to 14) (size 15 to 20)
#    0.000    2.000    1.250    2.250    0.000    5.500 
#    0.000    0.625    0.000    3.750    0.000    0.000 
#    0.000    0.000    0.000    0.000    0.000    0.000 
#
# Total GULP energy -178516.893902 kJ/mol
# GULP energy per Si atom -5578.652934 kJ/mol
# Density = 1.029085 g / cm^3
# Si number density = 10.314329 Si / 1000 Ang^3
#
#
#
# Elastic Constant Matrix: (Units=GPa)
#
#
# Indices 1 2 3 4 5 6 
#
# 1 23.6563 1.1578 -7.4546 0.0000 -6.5872 0.0000
# 2 1.1578 52.6682 21.2819 0.0000 -9.2280 0.0000
# 3 -7.4546 21.2819 58.2032 0.0000 -7.0195 0.0000
# 4 0.0000 0.0000 0.0000 31.8938 0.0000 -1.5060
# 5 -6.5872 -9.2280 -7.0195 0.0000 20.0161 0.0000
# 6 0.0000 0.0000 0.0000 -1.5060 0.0000 19.1329
#
#
#
# Elastic Compliance Matrix: (Units=1/GPa)
#
#
# Indices 1 2 3 4 5 6 
#
# 1 0.050660 -0.001526 0.009369 0.000000 0.019254 0.000000
# 2 -0.001526 0.023536 -0.007887 0.000000 0.007583 0.000000
# 3 0.009369 -0.007887 0.022134 0.000000 0.007209 0.000000
# 4 0.000000 0.000000 0.000000 0.031471 0.000000 0.002477
# 5 0.019254 0.007583 0.007209 0.000000 0.062320 0.000000
# 6 0.000000 0.000000 0.000000 0.002477 0.000000 0.052461
#
#
# Mechanical properties :
#
#
# Convention : Reuss Voigt Hill
#
# Bulk Modulus (GPa) = 10.39043 18.27754 14.33398
# Shear Modulus (GPa) = 18.19828 22.17807 20.18818
#
# Velocity S-wave (km/s) = 2.97338 3.28244 3.13173
# Velocity P-wave (km/s) = 4.10315 4.82135 4.47667
#
# Compressibility (1/GPa) = 0.09624244
#
# Stress axis : x y z
#
# Youngs Moduli (GPa) = 19.73934 42.48864 45.17868
#
# Poissons Ratio (x) = 0.06483 -0.42326
# Poissons Ratio (y) = 0.03012 0.35631
# Poissons Ratio (z) = -0.18493 0.33509
#
# Static dielectric constant tensor:
#      x y z
#    x 1.833730 0.000000 0.013300 
#    y 0.000000 1.729640 0.000000 
#    z 0.013300 0.000000 1.688510 
# 
# From -- ./inp_files/250041.got.cif
#   From: 2010.05.17/outbox.ucp.g08.bks.cvg/sg12_126_cif.got.tgz:250041.got - 2010.06.11 11:47:21.
