data_PCOD9224192
_publ_section_title
;
Structure prediction by ZEFSAII (Michael W. Deem and Ramdas Pophale) SiO2 
 PCOD9224192
Probable space group: C 2/M
;
_chemical_formula_sum "Si O2"
_cell_formula_units_Z 28
_cell_length_a 9.000000
_cell_length_b 24.000000
_cell_length_c 18.000000
_cell_angle_alpha 90.000000
_cell_angle_beta 130.000000
_cell_angle_gamma 90.000000
_cell_volume 2978.380795
_symmetry_space_group_name_H-M "C 2/M"
_symmetry_group_IT_number 12
_symmetry_cell_setting 'monoclinic'
loop_
_space_group_symop_operation_xyz
x,y,z
-x,y,-z
-x,-y,-z
x,-y,z
1/2+x,1/2+y,z
1/2-x,1/2+y,-z
1/2-x,1/2-y,-z
1/2+x,1/2-y,z
loop_
_atom_site_type_symbol
_atom_site_label
_atom_site_fract_x
_atom_site_fract_y
_atom_site_fract_z
Si Si1 0.438187 0.765230 0.110647
Si Si2 0.981167 0.932912 0.730827
Si Si3 0.952109 0.564159 0.364760
Si Si4 0.627297 0.567051 0.471449
Si Si5 0.123782 0.436213 0.827265
Si Si6 0.609164 0.119746 0.111973
Si Si7 0.846103 0.173574 0.883635
O O1 0.566799 0.814557 0.114541
O O2 0.348185 0.793159 0.154911
O O3 0.559198 0.708044 0.153218
O O4 0.250000 0.750000 0.000000
O O5 0.166949 0.899342 0.820902
O O6 0.765874 0.914383 0.689264
O O7 0.977317 0.924907 0.640607
O O8 0.002556 0.000000 0.753521
O O9 0.939312 0.500000 0.387496
O O10 0.986747 0.563779 0.287124
O O11 0.150361 0.589068 0.461412
O O12 0.500000 0.588076 0.500000
O O13 0.647030 0.500000 0.488120
O O14 0.187678 0.500000 0.861293
O O15 0.293500 0.391358 0.866694
O O16 0.994325 0.414061 0.853874
O O17 0.500000 0.106733 0.000000
O O18 0.000000 0.179544 0.000000
#
# Coordination Sequence:
#
# PCOD9224192 Si02
#       7
#     8   8   8   8   8   8   8
#     4   9  18  34  53  72  93 126 178 231 268 301
#     4  10  20  32  48  74 106 141 180 220 269 323
#     4   9  18  32  49  72 104 139 178 223 265 313
#     4   9  16  29  51  74  99 136 179 223 267 312
#     4  10  21  34  48  72 106 140 173 210 263 326
#     4  11  22  35  52  73 103 144 184 223 263 315
#     4   9  18  32  51  71  95 129 172 222 266 308
#
# _framework density 9.4010809999999996
#
# number of rings (size 3 to 8) (size 9 to 14) (size 15 to 20)
#    0.000    2.429    0.000    3.000    0.000   10.000 
#    0.000    1.429    0.000    0.000    0.000    1.000 
#    0.000    5.143    0.000    0.286    0.000    0.000 
#
# Total GULP energy -155997.446145 kJ/mol
# GULP energy per Si atom -5571.337362 kJ/mol
# Density = 0.937968 g / cm^3
# Si number density = 9.401081 Si / 1000 Ang^3
#
#
#
# Elastic Constant Matrix: (Units=GPa)
#
#
# Indices 1 2 3 4 5 6 
#
# 1 83.7496 27.1256 39.3620 0.0000 17.2394 0.0000
# 2 27.1256 97.6177 16.3185 0.0000 14.0656 0.0000
# 3 39.3620 16.3185 81.7990 0.0000 19.2135 0.0000
# 4 0.0000 0.0000 0.0000 2.7146 0.0000 5.4735
# 5 17.2394 14.0656 19.2135 0.0000 36.3922 0.0000
# 6 0.0000 0.0000 0.0000 5.4735 0.0000 26.4106
#
#
#
# Elastic Compliance Matrix: (Units=1/GPa)
#
#
# Indices 1 2 3 4 5 6 
#
# 1 0.016739 -0.003071 -0.006688 0.000000 -0.003212 0.000000
# 2 -0.003071 0.011543 -0.000136 0.000000 -0.002935 0.000000
# 3 -0.006688 -0.000136 0.016797 0.000000 -0.005647 0.000000
# 4 0.000000 0.000000 0.000000 0.632826 0.000000 -0.131150
# 5 -0.003212 -0.002935 -0.005647 0.000000 0.033116 0.000000
# 6 0.000000 0.000000 0.000000 -0.131150 0.000000 0.065044
#
#
# Mechanical properties :
#
#
# Convention : Reuss Voigt Hill
#
# Bulk Modulus (GPa) = 39.54075 47.64207 43.59141
# Shear Modulus (GPa) = 6.21671 25.12748 15.67210
#
# Velocity S-wave (km/s) = 1.82032 3.65967 2.89022
# Velocity P-wave (km/s) = 5.04912 6.57656 5.86280
#
# Compressibility (1/GPa) = 0.02529036
#
# Stress axis : x y z
#
# Youngs Moduli (GPa) = 59.73925 86.63328 59.53443
#
# Poissons Ratio (x) = 0.26602 0.39817
# Poissons Ratio (y) = 0.18344 0.00808
# Poissons Ratio (z) = 0.39954 0.01176
#
# Static dielectric constant tensor:
#      x y z
#    x 1.716080 0.000000 -0.002980 
#    y 0.000000 1.668030 0.000000 
#    z -0.002980 0.000000 1.673710 
# 
# From -- ./inp_files/259266.got.cif
#   From: 2010.05.17/outbox.ucp.g08.bks.cvg/sg12_130_cif.got.tgz:259266.got - 2010.06.11 11:47:21.
