data_PCOD9224270
_publ_section_title
;
Structure prediction by ZEFSAII (Michael W. Deem and Ramdas Pophale) SiO2 
 PCOD9224270
Probable space group: C 2/M
;
_chemical_formula_sum "Si O2"
_cell_formula_units_Z 28
_cell_length_a 27.000000
_cell_length_b 9.000000
_cell_length_c 18.000000
_cell_angle_alpha 90.000000
_cell_angle_beta 40.000000
_cell_angle_gamma 90.000000
_cell_volume 2811.553005
_symmetry_space_group_name_H-M "C 2/M"
_symmetry_group_IT_number 12
_symmetry_cell_setting 'monoclinic'
loop_
_space_group_symop_operation_xyz
x,y,z
-x,y,-z
-x,-y,-z
x,-y,z
1/2+x,1/2+y,z
1/2-x,1/2+y,-z
1/2-x,1/2-y,-z
1/2+x,1/2-y,z
loop_
_atom_site_type_symbol
_atom_site_label
_atom_site_fract_x
_atom_site_fract_y
_atom_site_fract_z
Si Si1 0.562262 0.678589 0.259538
Si Si2 0.881999 0.173471 0.439205
Si Si3 0.118664 0.825884 0.732320
Si Si4 0.188814 0.178259 0.226948
Si Si5 0.348115 0.178791 0.980355
Si Si6 0.242173 0.675658 0.319605
Si Si7 0.528105 0.822474 0.047019
O O1 0.568824 0.500000 0.247674
O O2 0.471678 0.711737 0.352584
O O3 0.607171 0.724090 0.283938
O O4 0.609222 0.748476 0.137623
O O5 0.856926 0.180890 0.381692
O O6 0.827652 0.282807 0.546135
O O7 0.871602 0.000000 0.474529
O O8 0.180650 0.776048 0.723331
O O9 0.042745 0.725727 0.820853
O O10 0.099867 0.000000 0.768597
O O11 0.217919 0.248343 0.270316
O O12 0.186701 0.000000 0.239648
O O13 0.258091 0.214173 0.090154
O O14 0.393322 0.228078 0.003878
O O15 0.355499 0.000000 0.966990
O O16 0.249460 0.500000 0.299867
O O17 0.533864 0.000000 0.033543
O O18 0.500000 0.760566 0.000000
#
# Coordination Sequence:
#
# PCOD9224270 Si02
#       7
#     8   8   8   8   8   8   8
#     4  10  21  38  62  87 113 151 195 234 282 342
#     4  10  21  39  61  84 113 150 191 237 287 343
#     4  10  21  38  58  83 114 148 191 235 283 340
#     4  10  22  40  60  84 116 155 193 232 283 343
#     4  10  20  35  57  86 118 151 190 234 282 335
#     4  11  24  39  58  86 115 149 193 241 290 337
#     4  10  20  33  53  83 118 155 189 225 277 338
#
# _framework density 9.9589090000000002
#
# number of rings (size 3 to 8) (size 9 to 14) (size 15 to 20)
#    0.000    1.857    1.429    2.143    0.000    5.429 
#    0.000    2.857    0.000    0.000    0.000    0.000 
#    0.000    0.000    0.000    0.000    0.000    0.000 
#
# Total GULP energy -156143.965487 kJ/mol
# GULP energy per Si atom -5576.570196 kJ/mol
# Density = 0.993624 g / cm^3
# Si number density = 9.958909 Si / 1000 Ang^3
#
#
#
# Elastic Constant Matrix: (Units=GPa)
#
#
# Indices 1 2 3 4 5 6 
#
# 1 133.6226 9.2544 2.3872 0.0024 -8.2101 0.0005
# 2 9.2544 -15.6748 -7.9993 -0.0003 0.6040 0.0038
# 3 2.3872 -7.9993 11.5527 -0.0008 -1.0216 0.0019
# 4 0.0024 -0.0003 -0.0008 28.4406 0.0034 7.9156
# 5 -8.2101 0.6040 -1.0216 0.0034 25.2847 -0.0022
# 6 0.0005 0.0038 0.0019 7.9156 -0.0022 21.3318
#
#
#
# Elastic Compliance Matrix: (Units=1/GPa)
#
#
# Indices 1 2 3 4 5 6 
#
# 1 0.007344 0.003765 0.001297 -0.000001 0.002347 0.000000
# 2 0.003765 -0.045209 -0.031992 -0.000005 0.001010 0.000013
# 3 0.001297 -0.031992 0.064475 0.000001 0.003790 0.000000
# 4 -0.000001 -0.000005 0.000001 0.039211 -0.000007 -0.014550
# 5 0.002347 0.001010 0.003790 -0.000007 0.040441 0.000006
# 6 0.000000 0.000013 0.000000 -0.014550 0.000006 0.052278
#
#
# Mechanical properties :
#
#
# Convention : Reuss Voigt Hill
#
# Bulk Modulus (GPa) = -36.69646 15.19834 -10.74906
# Shear Modulus (GPa) = 24.59216 23.40197 23.99706
#
# Velocity S-wave (km/s) = 3.51762 3.43144 3.47479
# Velocity P-wave (km/s) = 1.40206 4.83185 3.26963
#
# Compressibility (1/GPa) = -0.02725059
#
# Stress axis : x y z
#
# Youngs Moduli (GPa) = 136.16405 -22.11959 15.50984
#
# Poissons Ratio (x) = 0.08327 -0.02011
# Poissons Ratio (y) = -0.51261 0.49619
# Poissons Ratio (z) = -0.17657 -0.70765
#
# Static dielectric constant tensor:
#      x y z
#    x 1.736380 0.000000 0.027080 
#    y 0.000000 1.668490 0.000000 
#    z 0.027080 0.000000 1.736650 
# 
# From -- ./inp_files/288149.got.cif
#   From: 2010.05.17/outbox.ucp.g08.bks.cvg/sg12_145_cif.got.tgz:288149.got - 2010.06.11 11:47:21.
