data_PCOD9224489
_publ_section_title
;
Structure prediction by ZEFSAII (Michael W. Deem and Ramdas Pophale) SiO2 
 PCOD9224489
Probable space group: C 2/M
;
_chemical_formula_sum "Si O2"
_cell_formula_units_Z 28
_cell_length_a 30.000000
_cell_length_b 9.000000
_cell_length_c 21.000000
_cell_angle_alpha 90.000000
_cell_angle_beta 150.000000
_cell_angle_gamma 90.000000
_cell_volume 2835.000000
_symmetry_space_group_name_H-M "C 2/M"
_symmetry_group_IT_number 12
_symmetry_cell_setting 'monoclinic'
loop_
_space_group_symop_operation_xyz
x,y,z
-x,y,-z
-x,-y,-z
x,-y,z
1/2+x,1/2+y,z
1/2-x,1/2+y,-z
1/2-x,1/2-y,-z
1/2+x,1/2-y,z
loop_
_atom_site_type_symbol
_atom_site_label
_atom_site_fract_x
_atom_site_fract_y
_atom_site_fract_z
Si Si1 0.635970 0.827179 0.308106
Si Si2 0.476410 0.326658 0.045434
Si Si3 0.207280 0.176216 0.855284
Si Si4 0.779449 0.828821 0.376298
Si Si5 0.267940 0.672948 0.807337
Si Si6 0.068591 0.169686 0.340602
Si Si7 0.389126 0.823488 0.153468
O O1 0.540214 0.786283 0.160258
O O2 0.708105 0.794028 0.343289
O O3 0.636905 0.727344 0.371790
O O4 0.643403 0.000000 0.334043
O O5 0.494439 0.500000 0.085082
O O6 0.500000 0.313909 0.000000
O O7 0.373802 0.294456 0.934317
O O8 0.215632 0.231299 0.794105
O O9 0.130917 0.252569 0.802628
O O10 0.197330 0.000000 0.847113
O O11 0.303009 0.218730 0.004756
O O12 0.768195 0.713966 0.306319
O O13 0.877208 0.822908 0.526979
O O14 0.761467 0.000000 0.333305
O O15 0.258066 0.500000 0.810419
O O16 0.979351 0.264177 0.234378
O O17 0.044659 0.000000 0.297749
O O18 0.392054 0.000000 0.161942
#
# Coordination Sequence:
#
# PCOD9224489 Si02
#       7
#     8   8   8   8   8   8   8
#     4  11  22  36  57  84 113 151 196 241 285 333
#     4  10  20  35  54  81 115 150 187 230 282 337
#     4  10  21  38  62  89 119 150 181 227 287 344
#     4  10  23  40  56  79 114 155 196 237 283 337
#     4  11  22  36  58  85 116 153 192 235 284 337
#     4  11  23  39  59  82 113 153 193 236 287 339
#     4  10  21  39  63  91 117 144 186 235 283 336
#
# _framework density 9.8765429999999999
#
# number of rings (size 3 to 8) (size 9 to 14) (size 15 to 20)
#    0.000    1.571    1.429    3.429    0.000    7.143 
#    0.000    0.714    0.000    4.286    0.000    0.000 
#    0.000    0.000    0.000    0.000    0.000    0.000 
#
# Total GULP energy -156380.883321 kJ/mol
# GULP energy per Si atom -5585.031547 kJ/mol
# Density = 0.985406 g / cm^3
# Si number density = 9.876543 Si / 1000 Ang^3
#
#
#
# Elastic Constant Matrix: (Units=GPa)
#
#
# Indices 1 2 3 4 5 6 
#
# 1 67.0367 21.5945 3.3509 0.0000 2.9287 0.0000
# 2 21.5945 17.3537 8.5365 0.0000 -1.6233 0.0000
# 3 3.3509 8.5365 27.7939 0.0000 -11.7024 0.0000
# 4 0.0000 0.0000 0.0000 -126.5959 0.0000 -113.2776
# 5 2.9287 -1.6233 -11.7024 0.0000 8.5238 0.0000
# 6 0.0000 0.0000 0.0000 -113.2776 0.0000 -53.3115
#
#
#
# Elastic Compliance Matrix: (Units=1/GPa)
#
#
# Indices 1 2 3 4 5 6 
#
# 1 0.026905 -0.035844 0.002367 0.000000 -0.012821 0.000000
# 2 -0.035844 0.121002 -0.042551 0.000000 -0.023059 0.000000
# 3 0.002367 -0.042551 0.106668 0.000000 0.137528 0.000000
# 4 0.000000 0.000000 0.000000 0.008764 0.000000 -0.018623
# 5 -0.012821 -0.023059 0.137528 0.000000 0.306145 0.000000
# 6 0.000000 0.000000 0.000000 -0.018623 0.000000 0.020812
#
#
# Mechanical properties :
#
#
# Convention : Reuss Voigt Hill
#
# Bulk Modulus (GPa) = 9.75439 19.90535 14.82987
# Shear Modulus (GPa) = 6.43893 -29.02989 -11.29548
#
# Velocity S-wave (km/s) = 1.80743 -3.83774 -2.39390
# Velocity P-wave (km/s) = 3.05034 3.08849 0.34217
#
# Compressibility (1/GPa) = 0.10251790
#
# Stress axis : x y z
#
# Youngs Moduli (GPa) = 37.16730 8.26432 9.37492
#
# Poissons Ratio (x) = 0.29622 -0.02219
# Poissons Ratio (y) = 1.33222 0.39892
# Poissons Ratio (z) = -0.08797 0.35166
#
# Static dielectric constant tensor:
#      x y z
#    x 1.686930 0.000000 -0.043160 
#    y 0.000000 1.662990 0.000000 
#    z -0.043160 0.000000 1.706750 
# 
# From -- ./inp_files/238268.got.cif
#   From: 2010.05.17/outbox.ucp.g08.bks.cvg/sg12_120_cif.got.tgz:238268.got - 2010.06.11 11:47:21.
