data_PCOD9224019
_publ_section_title
;
Structure prediction by ZEFSAII (Michael W. Deem and Ramdas Pophale) SiO2 
 PCOD9224019
Probable space group: C 2/M
;
_chemical_formula_sum "Si O2"
_cell_formula_units_Z 28
_cell_length_a 24.000000
_cell_length_b 9.000000
_cell_length_c 18.000000
_cell_angle_alpha 90.000000
_cell_angle_beta 130.000000
_cell_angle_gamma 90.000000
_cell_volume 2978.380795
_symmetry_space_group_name_H-M "C 2/M"
_symmetry_group_IT_number 12
_symmetry_cell_setting 'monoclinic'
loop_
_space_group_symop_operation_xyz
x,y,z
-x,y,-z
-x,-y,-z
x,-y,z
1/2+x,1/2+y,z
1/2-x,1/2+y,-z
1/2-x,1/2-y,-z
1/2+x,1/2-y,z
loop_
_atom_site_type_symbol
_atom_site_label
_atom_site_fract_x
_atom_site_fract_y
_atom_site_fract_z
Si Si1 0.480096 0.826390 0.404681
Si Si2 0.859574 0.674771 0.528670
Si Si3 0.233506 0.679977 0.313811
Si Si4 0.706646 0.177971 0.115242
Si Si5 0.565086 0.178500 0.899461
Si Si6 0.095406 0.819910 0.275513
Si Si7 0.647529 0.821779 0.814442
O O1 0.500000 0.751744 0.500000
O O2 0.557818 0.826512 0.431104
O O3 0.412357 0.767574 0.298296
O O4 0.460139 0.000000 0.401634
O O5 0.838672 0.500000 0.523433
O O6 0.800704 0.747628 0.420146
O O7 0.873051 0.763719 0.617158
O O8 0.235027 0.500000 0.326094
O O9 0.229640 0.708344 0.221158
O O10 0.157805 0.751961 0.276273
O O11 0.773251 0.249349 0.126174
O O12 0.708066 0.000000 0.106492
O O13 0.624598 0.222709 0.015555
O O14 0.485338 0.256507 0.818095
O O15 0.610204 0.204136 0.862146
O O16 0.551360 0.000000 0.895312
O O17 0.092955 0.000000 0.271974
O O18 0.655446 0.000000 0.812966
#
# Coordination Sequence:
#
# PCOD9224019 Si02
#       7
#     8   8   8   8   8   8   8
#     4   9  17  30  53  86 120 155 192 234 289 350
#     4  11  21  39  64  89 122 159 200 247 296 360
#     4  11  24  42  61  87 123 161 202 249 305 361
#     4  10  23  40  61  89 123 161 201 251 304 355
#     4  10  21  41  64  88 120 162 206 245 300 363
#     4  12  25  41  63  91 120 156 203 254 305 357
#     4  10  19  35  60  88 121 160 200 244 295 361
#
# _framework density 9.4010809999999996
#
# number of rings (size 3 to 8) (size 9 to 14) (size 15 to 20)
#    0.000    1.571    1.429    3.857    0.000    4.000 
#    0.000    2.857    0.000    3.000    0.000    0.000 
#    0.000    0.000    0.000    0.000    0.000    0.000 
#
# Total GULP energy -156024.635214 kJ/mol
# GULP energy per Si atom -5572.308401 kJ/mol
# Density = 0.937968 g / cm^3
# Si number density = 9.401081 Si / 1000 Ang^3
#
#
#
# Elastic Constant Matrix: (Units=GPa)
#
#
# Indices 1 2 3 4 5 6 
#
# 1 59.7605 26.1437 28.6684 0.0000 15.2588 0.0000
# 2 26.1437 83.4451 43.1441 0.0000 9.2449 0.0000
# 3 28.6684 43.1441 166.5155 0.0000 28.0375 0.0000
# 4 0.0000 0.0000 0.0000 34.6278 0.0000 10.5925
# 5 15.2588 9.2449 28.0375 0.0000 39.8436 0.0000
# 6 0.0000 0.0000 0.0000 10.5925 0.0000 26.3694
#
#
#
# Elastic Compliance Matrix: (Units=1/GPa)
#
#
# Indices 1 2 3 4 5 6 
#
# 1 0.021199 -0.005326 -0.001260 0.000000 -0.005996 0.000000
# 2 -0.005326 0.015197 -0.003143 0.000000 0.000725 0.000000
# 3 -0.001260 -0.003143 0.007751 0.000000 -0.004242 0.000000
# 4 0.000000 0.000000 0.000000 0.032924 0.000000 -0.013225
# 5 -0.005996 0.000725 -0.004242 0.000000 0.030212 0.000000
# 6 0.000000 0.000000 0.000000 -0.013225 0.000000 0.043235
#
#
# Mechanical properties :
#
#
# Convention : Reuss Voigt Hill
#
# Bulk Modulus (GPa) = 40.50303 56.18150 48.34226
# Shear Modulus (GPa) = 28.05750 34.28582 31.17166
#
# Velocity S-wave (km/s) = 3.86715 4.27488 4.07612
# Velocity P-wave (km/s) = 6.44424 7.36963 6.92242
#
# Compressibility (1/GPa) = 0.02468951
#
# Stress axis : x y z
#
# Youngs Moduli (GPa) = 47.17221 65.80193 129.01509
#
# Poissons Ratio (x) = 0.35045 0.16259
# Poissons Ratio (y) = 0.25123 0.40546
# Poissons Ratio (z) = 0.05945 0.20680
#
# Static dielectric constant tensor:
#      x y z
#    x 1.704080 0.000000 -0.053080 
#    y 0.000000 1.646510 0.000000 
#    z -0.053080 0.000000 1.686430 
# 
# From -- ./inp_files/288418.got.cif
#   From: 2010.05.17/outbox.ucp.g08.bks.cvg/sg12_145_cif.got.tgz:288418.got - 2010.06.11 11:47:21.
