data_PCOD9224282
_publ_section_title
;
Structure prediction by ZEFSAII (Michael W. Deem and Ramdas Pophale) SiO2 
 PCOD9224282
Probable space group: C 2/M
;
_chemical_formula_sum "Si O2"
_cell_formula_units_Z 28
_cell_length_a 30.000000
_cell_length_b 9.000000
_cell_length_c 21.000000
_cell_angle_alpha 90.000000
_cell_angle_beta 30.000000
_cell_angle_gamma 90.000000
_cell_volume 2835.000000
_symmetry_space_group_name_H-M "C 2/M"
_symmetry_group_IT_number 12
_symmetry_cell_setting 'monoclinic'
loop_
_space_group_symop_operation_xyz
x,y,z
-x,y,-z
-x,-y,-z
x,-y,z
1/2+x,1/2+y,z
1/2-x,1/2+y,-z
1/2-x,1/2-y,-z
1/2+x,1/2-y,z
loop_
_atom_site_type_symbol
_atom_site_label
_atom_site_fract_x
_atom_site_fract_y
_atom_site_fract_z
Si Si1 0.019634 0.823045 0.275364
Si Si2 0.567361 0.678141 0.359888
Si Si3 0.799614 0.328020 0.719940
Si Si4 0.662668 0.823327 0.472143
Si Si5 0.627307 0.168184 0.896657
Si Si6 0.498519 0.171225 0.826174
Si Si7 0.151702 0.322321 0.722695
O O1 0.054030 0.770829 0.302980
O O2 0.917895 0.767947 0.399114
O O3 0.052430 0.755608 0.167531
O O4 0.027993 0.000000 0.263447
O O5 0.500000 0.732226 0.500000
O O6 0.559093 0.500000 0.368560
O O7 0.661280 0.728680 0.272331
O O8 0.813673 0.500000 0.717612
O O9 0.842808 0.295645 0.597362
O O10 0.698049 0.288971 0.831552
O O11 0.755691 0.762567 0.383452
O O12 0.655522 0.000000 0.490978
O O13 0.604374 0.196136 0.850943
O O14 0.667560 0.000000 0.846833
O O15 0.554102 0.168279 0.041877
O O16 0.593799 0.230308 0.734070
O O17 0.509283 0.000000 0.791875
O O18 0.165212 0.500000 0.698234
#
# Coordination Sequence:
#
# PCOD9224282 Si02
#       7
#     8   8   8   8   8   8   8
#     4  11  23  37  55  79 109 145 181 220 270 326
#     4  10  20  36  58  81 106 139 181 222 266 324
#     4  10  20  33  55  86 113 137 173 225 276 316
#     4  10  20  34  53  81 113 142 176 221 272 322
#     4   9  18  35  59  82 108 143 183 222 263 316
#     4  10  21  37  56  80 110 145 182 224 269 314
#     4   9  18  34  58  83 107 140 184 225 264 315
#
# _framework density 9.8765429999999999
#
# number of rings (size 3 to 8) (size 9 to 14) (size 15 to 20)
#    0.000    2.143    1.429    1.714    0.000    6.000 
#    0.000    0.714    0.000    4.286    0.000    0.000 
#    0.000    0.000    0.000    0.000    0.000    0.000 
#
# Total GULP energy -155955.499395 kJ/mol
# GULP energy per Si atom -5569.839264 kJ/mol
# Density = 0.985406 g / cm^3
# Si number density = 9.876543 Si / 1000 Ang^3
#
#
#
# Elastic Constant Matrix: (Units=GPa)
#
#
# Indices 1 2 3 4 5 6 
#
# 1 139.0420 28.0191 7.1447 0.0009 18.3060 -0.0004
# 2 28.0191 7.1962 -0.4393 0.0022 9.4343 -0.0011
# 3 7.1447 -0.4393 18.5752 -0.0024 8.2546 -0.0015
# 4 0.0009 0.0022 -0.0024 15.0626 -0.0014 6.4939
# 5 18.3060 9.4343 8.2546 -0.0014 15.1554 0.0008
# 6 -0.0004 -0.0011 -0.0015 6.4939 0.0008 28.2492
#
#
#
# Elastic Compliance Matrix: (Units=1/GPa)
#
#
# Indices 1 2 3 4 5 6 
#
# 1 0.002581 0.045131 0.018398 -0.000010 -0.041232 0.000006
# 2 0.045131 -0.338728 -0.125137 0.000065 0.224504 -0.000040
# 3 0.018398 -0.125137 0.025143 0.000030 0.041981 -0.000011
# 4 -0.000010 0.000065 0.000030 0.073693 -0.000036 -0.016941
# 5 -0.041232 0.224504 0.041981 -0.000036 -0.046833 0.000020
# 6 0.000006 -0.000040 -0.000011 -0.016941 0.000020 0.039294
#
#
# Mechanical properties :
#
#
# Convention : Reuss Voigt Hill
#
# Bulk Modulus (GPa) = -2.30298 26.02916 11.86309
# Shear Modulus (GPa) = -18.77048 20.36602 0.79777
#
# Velocity S-wave (km/s) = -3.08597 3.21445 0.63620
# Velocity P-wave (km/s) = 3.72371 5.19449 2.56094
#
# Compressibility (1/GPa) = -0.43421927
#
# Stress axis : x y z
#
# Youngs Moduli (GPa) = 387.51092 -2.95222 39.77184
#
# Poissons Ratio (x) = 0.13324 -0.73171
# Poissons Ratio (y) = -17.48891 4.97691
# Poissons Ratio (z) = -7.12934 -0.36943
#
# Static dielectric constant tensor:
#      x y z
#    x 1.699740 0.000000 0.030520 
#    y 0.000000 1.673650 0.000000 
#    z 0.030520 0.000000 1.802210 
# 
# From -- ./inp_files/238314.got.cif
#   From: 2010.05.17/outbox.ucp.g08.bks.cvg/sg12_120_cif.got.tgz:238314.got - 2010.06.11 11:47:21.
