data_PCOD9224625
_publ_section_title
;
Structure prediction by ZEFSAII (Michael W. Deem and Ramdas Pophale) SiO2 
 PCOD9224625
Probable space group: C 2/M
;
_chemical_formula_sum "Si O2"
_cell_formula_units_Z 32
_cell_length_a 30.000000
_cell_length_b 9.000000
_cell_length_c 12.000000
_cell_angle_alpha 90.000000
_cell_angle_beta 90.000000
_cell_angle_gamma 90.000000
_cell_volume 3240.000000
_symmetry_space_group_name_H-M "C 2/M"
_symmetry_group_IT_number 12
_symmetry_cell_setting 'monoclinic'
loop_
_space_group_symop_operation_xyz
x,y,z
-x,y,-z
-x,-y,-z
x,-y,z
1/2+x,1/2+y,z
1/2-x,1/2+y,-z
1/2-x,1/2-y,-z
1/2+x,1/2-y,z
loop_
_atom_site_type_symbol
_atom_site_label
_atom_site_fract_x
_atom_site_fract_y
_atom_site_fract_z
Si Si1 0.330001 0.325334 0.054843
Si Si2 0.093525 0.177443 0.766896
Si Si3 0.334200 0.178855 0.817144
Si Si4 0.393535 0.820830 0.473887
Si Si5 0.236933 0.175996 0.761760
Si Si6 0.293833 0.175848 0.450121
Si Si7 0.574300 0.819201 0.293832
Si Si8 0.993713 0.679129 0.130930
O O1 0.335819 0.500000 0.028593
O O2 0.366241 0.284516 0.148798
O O3 0.282489 0.306781 0.114827
O O4 0.334576 0.231996 0.943898
O O5 0.096830 0.248823 0.644825
O O6 0.049363 0.238124 0.824580
O O7 0.093367 0.000000 0.755220
O O8 0.288080 0.225729 0.759447
O O9 0.378771 0.231452 0.757226
O O10 0.333875 0.000000 0.814221
O O11 0.341737 0.784933 0.501909
O O12 0.425244 0.773969 0.576289
O O13 0.396384 0.000000 0.462732
O O14 0.207322 0.268919 0.676853
O O15 0.233734 0.000000 0.733145
O O16 0.250000 0.250000 0.500000
O O17 0.289239 0.000000 0.458419
O O18 0.534799 0.775418 0.210810
O O19 0.574434 0.000000 0.294327
O O20 0.988404 0.500000 0.140706
O O21 0.000000 0.711898 0.000000
#
# Coordination Sequence:
#
# PCOD9224625 Si02
#       8
#     8   8   8   8   8   8   8   8
#     4  10  21  36  54  80 118 155 187 236 295 348
#     4  11  23  39  60  86 120 156 191 241 298 347
#     4  10  20  35  59  85 113 151 194 242 290 345
#     4  10  21  39  61  84 113 153 200 240 285 348
#     4  10  20  36  55  80 116 153 192 240 291 344
#     4  11  22  35  56  83 114 156 202 246 289 346
#     4   9  19  37  59  85 114 145 188 244 295 335
#     4  10  21  39  64  90 116 149 193 241 289 351
#
# _framework density 9.8765429999999999
#
# number of rings (size 3 to 8) (size 9 to 14) (size 15 to 20)
#    0.000    1.875    1.250    2.625    0.000    6.250 
#    0.000    4.375    0.000    0.000    0.000    0.000 
#    0.000    0.000    0.000    0.000    0.000    0.000 
#
# Total GULP energy -178627.805307 kJ/mol
# GULP energy per Si atom -5582.118916 kJ/mol
# Density = 0.985406 g / cm^3
# Si number density = 9.876543 Si / 1000 Ang^3
#
#
#
# Elastic Constant Matrix: (Units=GPa)
#
#
# Indices 1 2 3 4 5 6 
#
# 1 85.8189 18.4223 24.2754 0.0000 10.9767 0.0000
# 2 18.4223 2.4031 17.5149 0.0000 5.3261 0.0000
# 3 24.2754 17.5149 84.6034 0.0000 14.5201 0.0000
# 4 0.0000 0.0000 0.0000 27.8162 0.0000 -3.0257
# 5 10.9767 5.3261 14.5201 0.0000 29.0410 0.0000
# 6 0.0000 0.0000 0.0000 -3.0257 0.0000 22.3455
#
#
#
# Elastic Compliance Matrix: (Units=1/GPa)
#
#
# Indices 1 2 3 4 5 6 
#
# 1 0.005207 0.046753 -0.010243 0.000000 -0.005421 0.000000
# 2 0.046753 -0.281605 0.042719 0.000000 0.012616 0.000000
# 3 -0.010243 0.042719 0.007214 0.000000 -0.007570 0.000000
# 4 0.000000 0.000000 0.000000 0.036488 0.000000 0.004941
# 5 -0.005421 0.012616 -0.007570 0.000000 0.037954 0.000000
# 6 0.000000 0.000000 0.000000 0.004941 0.000000 0.045421
#
#
# Mechanical properties :
#
#
# Convention : Reuss Voigt Hill
#
# Bulk Modulus (GPa) = -9.03136 32.58340 11.77602
# Shear Modulus (GPa) = -14.50585 23.34806 4.42110
#
# Velocity S-wave (km/s) = -2.71284 3.44175 1.49768
# Velocity P-wave (km/s) = 3.79404 5.68554 2.99421
#
# Compressibility (1/GPa) = -0.11072527
#
# Stress axis : x y z
#
# Youngs Moduli (GPa) = 192.05559 -3.55107 138.61404
#
# Poissons Ratio (x) = 0.16602 1.41977
# Poissons Ratio (y) = -8.97927 -5.92139
# Poissons Ratio (z) = 1.96715 0.15170
#
# Static dielectric constant tensor:
#      x y z
#    x 1.718200 0.000000 -0.010870 
#    y 0.000000 1.659830 0.000000 
#    z -0.010870 0.000000 1.705650 
# 
# From -- ./inp_files/187503.got.cif
#   From: 2010.05.17/outbox.ucp.g08.bks.cvg/sg12_94_cif.got.tgz:187503.got - 2010.06.11 11:47:21.
