data_PCOD9224125
_publ_section_title
;
Structure prediction by ZEFSAII (Michael W. Deem and Ramdas Pophale) SiO2 
 PCOD9224125
Probable space group: C 2/M
;
_chemical_formula_sum "Si O2"
_cell_formula_units_Z 24
_cell_length_a 24.000000
_cell_length_b 9.000000
_cell_length_c 12.000000
_cell_angle_alpha 90.000000
_cell_angle_beta 70.000000
_cell_angle_gamma 90.000000
_cell_volume 2435.683273
_symmetry_space_group_name_H-M "C 2/M"
_symmetry_group_IT_number 12
_symmetry_cell_setting 'monoclinic'
loop_
_space_group_symop_operation_xyz
x,y,z
-x,y,-z
-x,-y,-z
x,-y,z
1/2+x,1/2+y,z
1/2-x,1/2+y,-z
1/2-x,1/2-y,-z
1/2+x,1/2-y,z
loop_
_atom_site_type_symbol
_atom_site_label
_atom_site_fract_x
_atom_site_fract_y
_atom_site_fract_z
Si Si1 0.236753 0.178381 0.629988
Si Si2 0.883525 0.322055 0.899845
Si Si3 0.159527 0.177290 0.299765
Si Si4 0.475403 0.823335 0.204478
Si Si5 0.063291 0.329085 0.517747
Si Si6 0.625430 0.323196 0.859655
O O1 0.250000 0.250000 0.500000
O O2 0.283232 0.245930 0.685591
O O3 0.172573 0.210921 0.728782
O O4 0.242833 0.000000 0.616789
O O5 0.874982 0.500000 0.900210
O O6 0.854684 0.244801 0.811903
O O7 0.954503 0.292641 0.845288
O O8 0.860747 0.257864 0.033058
O O9 0.106837 0.222421 0.421020
O O10 0.165736 0.000000 0.289629
O O11 0.448979 0.790814 0.345349
O O12 0.438111 0.733288 0.139995
O O13 0.467896 0.000000 0.188972
O O14 0.086231 0.500000 0.496530
O O15 0.000000 0.327951 0.500000
O O16 0.625663 0.500000 0.877157
#
# Coordination Sequence:
#
# PCOD9224125 Si02
#       6
#     8   8   8   8   8   8
#     4  11  25  46  69  93 125 164 209 259 314 376
#     4  11  23  42  65  91 125 168 213 254 308 377
#     4  12  25  40  63  96 130 165 209 261 316 369
#     4  10  21  38  63  92 125 167 211 253 305 372
#     4  10  19  37  62  90 125 164 207 253 306 368
#     4  11  25  42  62  92 126 162 207 261 317 369
#
# _framework density 9.8534980000000001
#
# number of rings (size 3 to 8) (size 9 to 14) (size 15 to 20)
#    0.000    1.167    1.667    4.500    0.000   10.333 
#    0.000    0.000    0.000    0.000    0.000    0.000 
#    0.000    0.000    0.000    0.000    0.000    0.000 
#
# Total GULP energy -134254.652272 kJ/mol
# GULP energy per Si atom -5593.943845 kJ/mol
# Density = 0.983107 g / cm^3
# Si number density = 9.853498 Si / 1000 Ang^3
#
#
#
# Elastic Constant Matrix: (Units=GPa)
#
#
# Indices 1 2 3 4 5 6 
#
# 1 93.9497 48.8064 37.1732 0.0000 12.6749 0.0000
# 2 48.8064 98.3809 64.9549 0.0000 8.3918 0.0000
# 3 37.1732 64.9549 131.5869 0.0000 16.0906 0.0000
# 4 0.0000 0.0000 0.0000 39.1153 0.0000 5.3895
# 5 12.6749 8.3918 16.0906 0.0000 27.1118 0.0000
# 6 0.0000 0.0000 0.0000 5.3895 0.0000 28.1507
#
#
#
# Elastic Compliance Matrix: (Units=1/GPa)
#
#
# Indices 1 2 3 4 5 6 
#
# 1 0.014933 -0.006826 -0.000274 0.000000 -0.004706 0.000000
# 2 -0.006826 0.018201 -0.007286 0.000000 0.001882 0.000000
# 3 -0.000274 -0.007286 0.011841 0.000000 -0.004645 0.000000
# 4 0.000000 0.000000 0.000000 0.026258 0.000000 -0.005027
# 5 -0.004706 0.001882 -0.004645 0.000000 0.041259 0.000000
# 6 0.000000 0.000000 0.000000 -0.005027 0.000000 0.036486
#
#
# Mechanical properties :
#
#
# Convention : Reuss Voigt Hill
#
# Bulk Modulus (GPa) = 61.71416 69.53182 65.62299
# Shear Modulus (GPa) = 27.29971 30.40776 28.85373
#
# Velocity S-wave (km/s) = 3.72597 3.93236 3.83055
# Velocity P-wave (km/s) = 7.06359 7.48180 7.27570
#
# Compressibility (1/GPa) = 0.01620374
#
# Stress axis : x y z
#
# Youngs Moduli (GPa) = 66.96393 54.94108 84.44883
#
# Poissons Ratio (x) = 0.37505 0.02310
# Poissons Ratio (y) = 0.45712 0.61532
# Poissons Ratio (z) = 0.01831 0.40032
#
# Static dielectric constant tensor:
#      x y z
#    x 1.700250 0.000000 -0.022260 
#    y 0.000000 1.660320 0.000000 
#    z -0.022260 0.000000 1.687040 
# 
# From -- ./inp_files/172881.got.cif
#   From: 2010.05.17/outbox.ucp.g08.bks.cvg/sg12_87_cif.got.tgz:172881.got - 2010.06.11 11:47:21.
