data_PCOD9224999
_publ_section_title
;
Structure prediction by ZEFSAII (Michael W. Deem and Ramdas Pophale) SiO2 
 PCOD9224999
Probable space group: C 2/M
;
_chemical_formula_sum "Si O2"
_cell_formula_units_Z 20
_cell_length_a 12.000000
_cell_length_b 24.000000
_cell_length_c 21.000000
_cell_angle_alpha 90.000000
_cell_angle_beta 160.000000
_cell_angle_gamma 90.000000
_cell_volume 2068.537827
_symmetry_space_group_name_H-M "C 2/M"
_symmetry_group_IT_number 12
_symmetry_cell_setting 'monoclinic'
loop_
_space_group_symop_operation_xyz
x,y,z
-x,y,-z
-x,-y,-z
x,-y,z
1/2+x,1/2+y,z
1/2-x,1/2+y,-z
1/2-x,1/2-y,-z
1/2+x,1/2-y,z
loop_
_atom_site_type_symbol
_atom_site_label
_atom_site_fract_x
_atom_site_fract_y
_atom_site_fract_z
Si Si1 0.323367 0.757859 0.836963
Si Si2 0.005537 0.565782 0.801736
Si Si3 0.145231 0.839683 0.933518
Si Si4 0.316031 0.566416 0.507475
Si Si5 0.181714 0.843043 0.374639
O O1 0.372335 0.700392 0.821971
O O2 0.987222 0.789867 0.678719
O O3 0.500000 0.747657 0.000000
O O4 0.533772 0.801555 0.907411
O O5 0.100657 0.500000 0.855585
O O6 0.676705 0.571480 0.668773
O O7 0.917071 0.578376 0.679647
O O8 0.260846 0.608881 0.970113
O O9 0.055382 0.858739 0.812771
O O10 0.273205 0.500000 0.501390
O O11 0.278636 0.608292 0.549018
O O12 0.500000 0.831066 0.500000
#
# Coordination Sequence:
#
# PCOD9224999 Si02
#       5
#     8   8   8   8   8
#     4   9  20  39  60  85 121 168 210 258 310 365
#     4   9  18  36  66  96 121 161 212 259 311 369
#     4  10  20  38  64  88 121 164 210 264 307 365
#     4   9  19  37  61  94 132 162 201 258 313 371
#     4  11  23  38  59  91 129 167 209 256 313 375
#
# _framework density 9.6686650000000007
#
# number of rings (size 3 to 8) (size 9 to 14) (size 15 to 20)
#    0.000    2.400    2.000    1.200    0.000    3.600 
#    0.000    6.000    0.000    3.000    0.000    0.000 
#    0.000    0.800    0.000    0.000    0.000    0.000 
#
# Total GULP energy -111384.428877 kJ/mol
# GULP energy per Si atom -5569.221444 kJ/mol
# Density = 0.964666 g / cm^3
# Si number density = 9.668665 Si / 1000 Ang^3
#
#
#
# Elastic Constant Matrix: (Units=GPa)
#
#
# Indices 1 2 3 4 5 6 
#
# 1 162.1842 77.5140 41.3172 0.0123 -11.0487 0.0028
# 2 77.5140 130.7954 52.3983 -0.0515 -22.0164 0.0107
# 3 41.3172 52.3983 60.4444 -0.1601 -11.9638 -0.0560
# 4 0.0123 -0.0515 -0.1601 31.5066 -0.0768 -7.6998
# 5 -11.0487 -22.0164 -11.9638 -0.0768 51.9502 0.0250
# 6 0.0028 0.0107 -0.0560 -7.6998 0.0250 53.0587
#
#
#
# Elastic Compliance Matrix: (Units=1/GPa)
#
#
# Indices 1 2 3 4 5 6 
#
# 1 0.008817 -0.004377 -0.002335 -0.000025 -0.000518 -0.000005
# 2 -0.004377 0.014274 -0.008769 -0.000016 0.003099 -0.000016
# 3 -0.002335 -0.008769 0.026098 0.000135 0.001798 0.000048
# 4 -0.000025 -0.000016 0.000135 0.032907 0.000066 0.004776
# 5 -0.000518 0.003099 0.001798 0.000066 0.020867 0.000001
# 6 -0.000005 -0.000016 0.000048 0.004776 0.000001 0.019540
#
#
# Mechanical properties :
#
#
# Convention : Reuss Voigt Hill
#
# Bulk Modulus (GPa) = 54.86223 77.32034 66.09128
# Shear Modulus (GPa) = 31.33985 39.44942 35.39463
#
# Velocity S-wave (km/s) = 4.03015 4.52161 4.28293
# Velocity P-wave (km/s) = 7.07735 8.20559 7.66227
#
# Compressibility (1/GPa) = 0.01822748
#
# Stress axis : x y z
#
# Youngs Moduli (GPa) = 113.41086 70.05733 38.31714
#
# Poissons Ratio (x) = 0.30665 0.08948
# Poissons Ratio (y) = 0.49641 0.33599
# Poissons Ratio (z) = 0.26485 0.61430
#
# Static dielectric constant tensor:
#      x y z
#    x 1.649060 0.000000 0.018040 
#    y 0.000000 1.684140 -0.000160 
#    z 0.018040 -0.000160 1.779100 
# 
# From -- ./inp_files/65078.got.cif
#   From: 2010.05.17/outbox.ucp.g08.bks.cvg/sg12_33_cif.got.tgz:65078.got - 2010.06.11 11:47:21.
