data_PCOD9224351
_publ_section_title
;
Structure prediction by ZEFSAII (Michael W. Deem and Ramdas Pophale) SiO2 
 PCOD9224351
Probable space group: C 2/M
;
_chemical_formula_sum "Si O2"
_cell_formula_units_Z 28
_cell_length_a 21.000000
_cell_length_b 9.000000
_cell_length_c 18.000000
_cell_angle_alpha 90.000000
_cell_angle_beta 60.000000
_cell_angle_gamma 90.000000
_cell_volume 2946.218424
_symmetry_space_group_name_H-M "C 2/M"
_symmetry_group_IT_number 12
_symmetry_cell_setting 'monoclinic'
loop_
_space_group_symop_operation_xyz
x,y,z
-x,y,-z
-x,-y,-z
x,-y,z
1/2+x,1/2+y,z
1/2-x,1/2+y,-z
1/2-x,1/2-y,-z
1/2+x,1/2-y,z
loop_
_atom_site_type_symbol
_atom_site_label
_atom_site_fract_x
_atom_site_fract_y
_atom_site_fract_z
Si Si1 0.930571 0.677906 0.591165
Si Si2 0.856319 0.680379 0.786182
Si Si3 0.826938 0.828099 0.540468
Si Si4 0.420915 0.820922 0.176386
Si Si5 0.348762 0.173154 0.375681
Si Si6 0.683412 0.320502 0.888020
Si Si7 0.093581 0.320226 0.076356
O O1 0.938892 0.500000 0.590967
O O2 0.910215 0.730706 0.687074
O O3 0.860109 0.723748 0.583985
O O4 0.000000 0.732804 0.500000
O O5 0.857360 0.500000 0.783084
O O6 0.769870 0.723955 0.828559
O O7 0.884522 0.722590 0.851965
O O8 0.738383 0.817176 0.591233
O O9 0.858454 0.773021 0.442879
O O10 0.846297 0.000000 0.542274
O O11 0.395444 0.785915 0.275704
O O12 0.366706 0.741347 0.150066
O O13 0.507078 0.784047 0.114014
O O14 0.413314 0.000000 0.172010
O O15 0.365315 0.000000 0.384417
O O16 0.680674 0.500000 0.891201
O O17 0.646693 0.255789 0.984853
O O18 0.100777 0.500000 0.065655
#
# Coordination Sequence:
#
# PCOD9224351 Si02
#       7
#     8   8   8   8   8   8   8
#     4  10  21  36  59  83 108 145 191 233 273 329
#     4   9  20  38  59  85 111 146 191 235 280 327
#     4  10  20  34  53  80 115 147 181 229 281 330
#     4  10  21  36  59  85 111 146 189 235 279 326
#     4   9  19  35  56  81 108 146 191 228 270 332
#     4  11  22  37  58  83 117 150 183 229 284 344
#     4  10  21  38  60  83 112 145 190 239 277 326
#
# _framework density 9.5037079999999996
#
# number of rings (size 3 to 8) (size 9 to 14) (size 15 to 20)
#    0.000    2.143    0.000    2.571    2.000    3.714 
#    0.000    2.143    0.000    0.000    0.000    0.000 
#    0.000    0.000    0.000    0.000    0.000    0.000 
#
# Total GULP energy -156284.961538 kJ/mol
# GULP energy per Si atom -5581.605769 kJ/mol
# Density = 0.948208 g / cm^3
# Si number density = 9.503708 Si / 1000 Ang^3
#
#
#
# Elastic Constant Matrix: (Units=GPa)
#
#
# Indices 1 2 3 4 5 6 
#
# 1 72.1859 10.1800 25.4000 0.0000 -0.2432 0.0000
# 2 10.1800 13.9437 21.0499 0.0000 -6.3860 0.0001
# 3 25.4000 21.0499 147.2752 0.0000 -5.4862 0.0000
# 4 0.0000 0.0000 0.0000 28.0637 0.0000 1.0902
# 5 -0.2432 -6.3860 -5.4862 0.0000 30.3551 0.0000
# 6 0.0000 0.0001 0.0000 1.0902 0.0000 27.6881
#
#
#
# Elastic Compliance Matrix: (Units=1/GPa)
#
#
# Indices 1 2 3 4 5 6 
#
# 1 0.015803 -0.010670 -0.001288 0.000000 -0.002351 0.000000
# 2 -0.010670 0.108273 -0.012877 0.000000 0.020365 -0.000001
# 3 -0.001288 -0.012877 0.008811 0.000000 -0.001127 0.000000
# 4 0.000000 0.000000 0.000000 0.035688 0.000000 -0.001405
# 5 -0.002351 0.020365 -0.001127 0.000000 0.037005 0.000000
# 6 0.000000 -0.000001 0.000000 -0.001405 0.000000 0.036172
#
#
# Mechanical properties :
#
#
# Convention : Reuss Voigt Hill
#
# Bulk Modulus (GPa) = 12.01665 38.51829 25.26747
# Shear Modulus (GPa) = 15.66616 29.00637 22.33626
#
# Velocity S-wave (km/s) = 2.87403 3.91071 3.43174
# Velocity P-wave (km/s) = 4.16523 6.37969 5.38747
#
# Compressibility (1/GPa) = 0.08321785
#
# Stress axis : x y z
#
# Youngs Moduli (GPa) = 63.27857 9.23594 113.49952
#
# Poissons Ratio (x) = 0.09854 0.14620
# Poissons Ratio (y) = 0.67517 1.46148
# Poissons Ratio (z) = 0.08151 0.11893
#
# Static dielectric constant tensor:
#      x y z
#    x 1.662050 0.000000 0.000700 
#    y 0.000000 1.642850 0.000000 
#    z 0.000700 0.000000 1.663860 
# 
# From -- ./inp_files/281033.got.cif
#   From: 2010.05.17/outbox.ucp.g08.bks.cvg/sg12_141_cif.got.tgz:281033.got - 2010.06.11 11:47:21.
