data_PCOD9224767
_publ_section_title
;
Structure prediction by ZEFSAII (Michael W. Deem and Ramdas Pophale) SiO2 
 PCOD9224767
Probable space group: C 2/M
;
_chemical_formula_sum "Si O2"
_cell_formula_units_Z 28
_cell_length_a 24.000000
_cell_length_b 9.000000
_cell_length_c 15.000000
_cell_angle_alpha 90.000000
_cell_angle_beta 110.000000
_cell_angle_gamma 90.000000
_cell_volume 3044.604091
_symmetry_space_group_name_H-M "C 2/M"
_symmetry_group_IT_number 12
_symmetry_cell_setting 'monoclinic'
loop_
_space_group_symop_operation_xyz
x,y,z
-x,y,-z
-x,-y,-z
x,-y,z
1/2+x,1/2+y,z
1/2-x,1/2+y,-z
1/2-x,1/2-y,-z
1/2+x,1/2-y,z
loop_
_atom_site_type_symbol
_atom_site_label
_atom_site_fract_x
_atom_site_fract_y
_atom_site_fract_z
Si Si1 0.764384 0.821348 0.104546
Si Si2 0.910067 0.680471 0.514777
Si Si3 0.674624 0.320632 0.199988
Si Si4 0.388269 0.179025 0.146784
Si Si5 0.429902 0.178890 0.967514
Si Si6 0.042731 0.321101 0.644086
Si Si7 0.807530 0.820990 0.578967
O O1 0.723260 0.753253 0.160140
O O2 0.832005 0.769464 0.151383
O O3 0.757408 0.000000 0.098117
O O4 0.750000 0.750000 0.000000
O O5 0.902555 0.500000 0.515924
O O6 0.912589 0.725630 0.411193
O O7 0.862209 0.758946 0.550635
O O8 0.975722 0.721846 0.585166
O O9 0.677184 0.500000 0.192781
O O10 0.611607 0.260488 0.127528
O O11 0.685619 0.283603 0.311032
O O12 0.439139 0.216560 0.245913
O O13 0.376784 0.000000 0.144282
O O14 0.405640 0.213384 0.054136
O O15 0.424467 0.000000 0.952045
O O16 0.500000 0.215769 0.000000
O O17 0.043278 0.500000 0.638772
O O18 0.750000 0.750000 0.500000
O O19 0.804505 0.000000 0.571924
#
# Coordination Sequence:
#
# PCOD9224767 Si02
#       7
#     8   8   8   8   8   8   8
#     4  12  24  40  62  89 120 156 199 248 298 355
#     4   9  18  37  63  89 117 156 201 245 297 358
#     4  11  25  44  64  87 120 163 205 253 309 363
#     4  10  20  36  59  89 125 160 197 246 296 353
#     4  10  22  38  61  94 127 163 205 246 298 364
#     4   8  17  34  60  91 121 155 196 241 297 359
#     4  11  26  44  62  88 120 159 204 253 310 365
#
# _framework density 9.1965979999999998
#
# number of rings (size 3 to 8) (size 9 to 14) (size 15 to 20)
#    0.000    1.857    1.429    3.000    4.000    2.571 
#    0.000    2.143    0.000    0.000    0.000    0.000 
#    0.000    0.000    0.000    0.000    0.000    0.000 
#
# Total GULP energy -156227.901180 kJ/mol
# GULP energy per Si atom -5579.567899 kJ/mol
# Density = 0.917567 g / cm^3
# Si number density = 9.196598 Si / 1000 Ang^3
#
#
#
# Elastic Constant Matrix: (Units=GPa)
#
#
# Indices 1 2 3 4 5 6 
#
# 1 143.0465 48.0560 69.0058 0.0000 -13.2144 0.0000
# 2 48.0560 77.0813 51.0675 0.0000 -5.9067 0.0000
# 3 69.0058 51.0675 162.8423 0.0000 -6.9359 0.0000
# 4 0.0000 0.0000 0.0000 29.3836 0.0000 -2.7495
# 5 -13.2144 -5.9067 -6.9359 0.0000 29.9695 0.0000
# 6 0.0000 0.0000 0.0000 -2.7495 0.0000 34.2069
#
#
#
# Elastic Compliance Matrix: (Units=1/GPa)
#
#
# Indices 1 2 3 4 5 6 
#
# 1 0.010017 -0.004153 -0.002817 0.000000 0.002946 0.000000
# 2 -0.004153 0.018224 -0.003919 0.000000 0.000854 0.000000
# 3 -0.002817 -0.003919 0.008562 0.000000 -0.000033 0.000000
# 4 0.000000 0.000000 0.000000 0.034290 0.000000 0.002756
# 5 0.002946 0.000854 -0.000033 0.000000 0.034827 0.000000
# 6 0.000000 0.000000 0.000000 0.002756 0.000000 0.029455
#
#
# Mechanical properties :
#
#
# Convention : Reuss Voigt Hill
#
# Bulk Modulus (GPa) = 66.55247 79.91432 73.23339
# Shear Modulus (GPa) = 30.83327 33.03473 31.93400
#
# Velocity S-wave (km/s) = 4.09876 4.24256 4.17128
# Velocity P-wave (km/s) = 7.65908 8.21834 7.94363
#
# Compressibility (1/GPa) = 0.01502574
#
# Stress axis : x y z
#
# Youngs Moduli (GPa) = 99.83050 54.87193 116.79287
#
# Poissons Ratio (x) = 0.22789 0.32899
# Poissons Ratio (y) = 0.41460 0.45770
# Poissons Ratio (z) = 0.28121 0.21504
#
# Static dielectric constant tensor:
#      x y z
#    x 1.649280 0.000000 0.039450 
#    y 0.000000 1.619620 0.000000 
#    z 0.039450 0.000000 1.667130 
# 
# From -- ./inp_files/237831.got.cif
#   From: 2010.05.17/outbox.ucp.g08.bks.cvg/sg12_119_cif.got.tgz:237831.got - 2010.06.11 11:47:21.
