data_PCOD9224515
_publ_section_title
;
Structure prediction by ZEFSAII (Michael W. Deem and Ramdas Pophale) SiO2 
 PCOD9224515
Probable space group: C 2/M
;
_chemical_formula_sum "Si O2"
_cell_formula_units_Z 32
_cell_length_a 18.000000
_cell_length_b 9.000000
_cell_length_c 30.000000
_cell_angle_alpha 90.000000
_cell_angle_beta 40.000000
_cell_angle_gamma 90.000000
_cell_volume 3123.947783
_symmetry_space_group_name_H-M "C 2/M"
_symmetry_group_IT_number 12
_symmetry_cell_setting 'monoclinic'
loop_
_space_group_symop_operation_xyz
x,y,z
-x,y,-z
-x,-y,-z
x,-y,z
1/2+x,1/2+y,z
1/2-x,1/2+y,-z
1/2-x,1/2-y,-z
1/2+x,1/2-y,z
loop_
_atom_site_type_symbol
_atom_site_label
_atom_site_fract_x
_atom_site_fract_y
_atom_site_fract_z
Si Si1 0.193868 0.332588 0.693696
Si Si2 0.866612 0.333040 0.052177
Si Si3 0.527995 0.669762 0.839854
Si Si4 0.821773 0.666985 0.173445
Si Si5 0.934411 0.323056 0.575062
Si Si6 0.927522 0.172877 0.669914
Si Si7 0.166213 0.669606 0.111131
Si Si8 0.482752 0.162853 0.729844
O O1 0.232411 0.500000 0.687589
O O2 0.109223 0.267021 0.770048
O O3 0.302176 0.230387 0.634216
O O4 0.111158 0.342911 0.689579
O O5 0.858361 0.500000 0.036692
O O6 0.802726 0.336361 0.129558
O O7 0.798250 0.214034 0.055291
O O8 0.000000 0.302963 0.000000
O O9 0.541221 0.500000 0.822209
O O10 0.580862 0.711604 0.862714
O O11 0.398876 0.722999 0.892594
O O12 0.862103 0.500000 0.166719
O O13 0.707324 0.701493 0.254671
O O14 0.942693 0.500000 0.572670
O O15 0.971331 0.258738 0.606279
O O16 0.000000 0.270802 0.500000
O O17 0.983812 0.220503 0.690162
O O18 0.942093 0.000000 0.655238
O O19 0.148858 0.500000 0.106248
O O20 0.099847 0.689831 0.189459
O O21 0.448016 0.000000 0.727725
#
# Coordination Sequence:
#
# PCOD9224515 Si02
#       8
#     8   8   8   8   8   8   8   8
#     4  10  20  36  57  84 115 148 185 229 283 333
#     4  10  21  38  59  83 115 152 188 230 282 340
#     4  11  21  33  56  85 113 146 187 234 281 331
#     4  10  20  35  55  84 116 145 186 234 278 328
#     4  11  24  40  58  82 114 151 189 231 279 333
#     4  11  21  34  58  86 113 146 186 233 278 328
#     4  10  20  35  56  82 115 150 186 233 283 332
#     4   9  19  34  55  83 114 144 181 231 279 327
#
# _framework density 10.243449
#
# number of rings (size 3 to 8) (size 9 to 14) (size 15 to 20)
#    0.000    1.750    2.500    3.375    0.000    4.750 
#    0.000    1.250    0.000    0.000    0.000    0.000 
#    0.000    0.000    0.000    0.000    0.000    0.000 
#
# Total GULP energy -178331.795424 kJ/mol
# GULP energy per Si atom -5572.868607 kJ/mol
# Density = 1.022013 g / cm^3
# Si number density = 10.243449 Si / 1000 Ang^3
#
#
#
# Elastic Constant Matrix: (Units=GPa)
#
#
# Indices 1 2 3 4 5 6 
#
# 1 46.9813 38.3760 -12.6888 0.0000 -6.0843 0.0002
# 2 38.3760 52.2339 1.1600 0.0004 7.9898 0.0012
# 3 -12.6888 1.1600 14.4346 0.0000 -0.7515 0.0000
# 4 0.0000 0.0004 0.0000 10.5839 0.0000 -4.1135
# 5 -6.0843 7.9898 -0.7515 0.0000 12.9188 0.0000
# 6 0.0002 0.0012 0.0000 -4.1135 0.0000 22.7905
#
#
#
# Elastic Compliance Matrix: (Units=1/GPa)
#
#
# Indices 1 2 3 4 5 6 
#
# 1 -0.123782 0.114592 -0.125124 -0.000006 -0.136447 -0.000006
# 2 0.114592 -0.084858 0.113438 0.000004 0.113049 0.000004
# 3 -0.125124 0.113438 -0.056721 -0.000006 -0.132386 -0.000006
# 4 -0.000006 0.000004 -0.000006 0.101611 -0.000006 0.018340
# 5 -0.136447 0.113049 -0.132386 -0.000006 -0.064473 -0.000006
# 6 -0.000006 0.000004 -0.000006 0.018340 -0.000006 0.047188
#
#
# Mechanical properties :
#
#
# Convention : Reuss Voigt Hill
#
# Bulk Modulus (GPa) = -16.79301 18.59382 0.90041
# Shear Modulus (GPa) = -12.29413 15.04549 1.37568
#
# Velocity S-wave (km/s) = -2.45235 2.71291 0.82034
# Velocity P-wave (km/s) = 4.02907 4.34843 1.15660
#
# Compressibility (1/GPa) = -0.05954858
#
# Stress axis : x y z
#
# Youngs Moduli (GPa) = -8.07870 -11.78445 -17.63001
#
# Poissons Ratio (x) = 1.35041 -2.20594
# Poissons Ratio (y) = 0.92576 1.99991
# Poissons Ratio (z) = -1.01084 1.33680
#
# Static dielectric constant tensor:
#      x y z
#    x 1.877690 0.000000 0.020280 
#    y 0.000000 1.727680 0.000000 
#    z 0.020280 0.000000 1.696740 
# 
# From -- ./inp_files/378194.got.cif
#   From: 2010.05.17/outbox.ucp.g08.bks.cvg/sg12_190_cif.got.tgz:378194.got - 2010.06.11 11:47:21.
