data_PCOD9224251
_publ_section_title
;
Structure prediction by ZEFSAII (Michael W. Deem and Ramdas Pophale) SiO2 
 PCOD9224251
Probable space group: C 2/M
;
_chemical_formula_sum "Si O2"
_cell_formula_units_Z 28
_cell_length_a 27.000000
_cell_length_b 9.000000
_cell_length_c 18.000000
_cell_angle_alpha 90.000000
_cell_angle_beta 40.000000
_cell_angle_gamma 90.000000
_cell_volume 2811.553005
_symmetry_space_group_name_H-M "C 2/M"
_symmetry_group_IT_number 12
_symmetry_cell_setting 'monoclinic'
loop_
_space_group_symop_operation_xyz
x,y,z
-x,y,-z
-x,-y,-z
x,-y,z
1/2+x,1/2+y,z
1/2-x,1/2+y,-z
1/2-x,1/2-y,-z
1/2+x,1/2-y,z
loop_
_atom_site_type_symbol
_atom_site_label
_atom_site_fract_x
_atom_site_fract_y
_atom_site_fract_z
Si Si1 0.486859 0.822151 0.708866
Si Si2 0.738234 0.819485 0.290056
Si Si3 0.167670 0.175199 0.080685
Si Si4 0.385854 0.675514 0.028536
Si Si5 0.715966 0.820790 0.613528
Si Si6 0.538266 0.822609 0.816709
Si Si7 0.571478 0.819782 0.465250
O O1 0.403830 0.746860 0.792794
O O2 0.519180 0.784283 0.752847
O O3 0.549122 0.781976 0.575280
O O4 0.475410 0.000000 0.719072
O O5 0.815834 0.769802 0.159848
O O6 0.738046 0.747134 0.370792
O O7 0.657617 0.774734 0.344453
O O8 0.739786 0.000000 0.292956
O O9 0.172800 0.000000 0.089387
O O10 0.250000 0.250000 0.000000
O O11 0.143691 0.196691 0.021975
O O12 0.395625 0.500000 0.029501
O O13 0.468516 0.751873 0.943056
O O14 0.750000 0.750000 0.500000
O O15 0.626138 0.777121 0.729474
O O16 0.719931 0.000000 0.605609
O O17 0.533999 0.000000 0.829740
O O18 0.500000 0.762070 0.500000
O O19 0.570869 0.000000 0.460172
#
# Coordination Sequence:
#
# PCOD9224251 Si02
#       7
#     8   8   8   8   8   8   8
#     4   9  17  32  54  78 103 137 182 231 278 329
#     4  10  21  38  58  85 117 149 190 238 284 338
#     4  10  20  33  52  79 107 143 186 231 279 330
#     4   9  20  36  56  82 114 149 189 235 281 333
#     4  11  23  39  61  88 115 150 191 234 284 340
#     4   9  19  36  57  81 111 147 188 232 282 340
#     4   9  18  32  56  82 107 147 193 234 279 335
#
# _framework density 9.9589090000000002
#
# number of rings (size 3 to 8) (size 9 to 14) (size 15 to 20)
#    0.000    2.429    0.000    1.714    2.000    5.143 
#    0.000    6.429    0.000    0.857    0.000    0.000 
#    0.000    0.000    0.000    0.000    0.000    0.000 
#
# Total GULP energy -156205.386496 kJ/mol
# GULP energy per Si atom -5578.763803 kJ/mol
# Density = 0.993624 g / cm^3
# Si number density = 9.958909 Si / 1000 Ang^3
#
#
#
# Elastic Constant Matrix: (Units=GPa)
#
#
# Indices 1 2 3 4 5 6 
#
# 1 72.5385 19.6288 40.8944 -0.0003 -29.6082 0.0003
# 2 19.6288 10.4148 17.0384 0.0016 -6.1542 -0.0002
# 3 40.8944 17.0384 122.8035 -0.0010 -24.2223 0.0004
# 4 -0.0003 0.0016 -0.0010 28.4701 0.0000 -6.8763
# 5 -29.6082 -6.1542 -24.2223 0.0000 35.1860 -0.0001
# 6 0.0003 -0.0002 0.0004 -6.8763 -0.0001 21.9810
#
#
#
# Elastic Compliance Matrix: (Units=1/GPa)
#
#
# Indices 1 2 3 4 5 6 
#
# 1 0.039591 -0.060832 -0.000314 0.000004 0.022459 0.000000
# 2 -0.060832 0.221770 -0.014994 -0.000014 -0.022722 -0.000001
# 3 -0.000314 -0.014994 0.011292 0.000001 0.004887 0.000000
# 4 0.000004 -0.000014 0.000001 0.037995 0.000002 0.011886
# 5 0.022459 -0.022722 0.004887 0.000002 0.046709 0.000000
# 6 0.000000 -0.000001 0.000000 0.011886 0.000000 0.049212
#
#
# Mechanical properties :
#
#
# Convention : Reuss Voigt Hill
#
# Bulk Modulus (GPa) = 8.30754 40.09778 24.20266
# Shear Modulus (GPa) = 8.34762 25.67376 17.01069
#
# Velocity S-wave (km/s) = 2.04942 3.59414 2.92557
# Velocity P-wave (km/s) = 3.12732 6.11548 4.85691
#
# Compressibility (1/GPa) = 0.12037259
#
# Stress axis : x y z
#
# Youngs Moduli (GPa) = 25.25829 4.50918 88.55954
#
# Poissons Ratio (x) = 0.27430 0.02781
# Poissons Ratio (y) = 1.53652 1.32784
# Poissons Ratio (z) = 0.00793 0.06761
#
# Static dielectric constant tensor:
#      x y z
#    x 1.727490 0.000000 0.010370 
#    y 0.000000 1.672690 0.000000 
#    z 0.010370 0.000000 1.721730 
# 
# From -- ./inp_files/292442.got.cif
#   From: 2010.05.17/outbox.ucp.g08.bks.cvg/sg12_147_cif.got.tgz:292442.got - 2010.06.11 11:47:21.
