data_PCOD9224330
_publ_section_title
;
Structure prediction by ZEFSAII (Michael W. Deem and Ramdas Pophale) SiO2 
 PCOD9224330
Probable space group: C 2/M
;
_chemical_formula_sum "Si O2"
_cell_formula_units_Z 32
_cell_length_a 15.000000
_cell_length_b 9.000000
_cell_length_c 27.000000
_cell_angle_alpha 90.000000
_cell_angle_beta 80.000000
_cell_angle_gamma 90.000000
_cell_volume 3589.624260
_symmetry_space_group_name_H-M "C 2/M"
_symmetry_group_IT_number 12
_symmetry_cell_setting 'monoclinic'
loop_
_space_group_symop_operation_xyz
x,y,z
-x,y,-z
-x,-y,-z
x,-y,z
1/2+x,1/2+y,z
1/2-x,1/2+y,-z
1/2-x,1/2-y,-z
1/2+x,1/2-y,z
loop_
_atom_site_type_symbol
_atom_site_label
_atom_site_fract_x
_atom_site_fract_y
_atom_site_fract_z
Si Si1 0.339003 0.679484 0.139478
Si Si2 0.039329 0.320574 0.131236
Si Si3 0.618381 0.320649 0.620280
Si Si4 0.698028 0.323096 0.400422
Si Si5 0.100246 0.180568 0.507924
Si Si6 0.339635 0.821090 0.784354
Si Si7 0.429575 0.322852 0.679967
Si Si8 0.218368 0.320907 0.054623
O O1 0.348052 0.500000 0.140906
O O2 0.439229 0.749855 0.135275
O O3 0.262031 0.723505 0.187802
O O4 0.289723 0.716339 0.091812
O O5 0.030077 0.500000 0.130217
O O6 0.088730 0.282508 0.178706
O O7 0.116480 0.278048 0.082858
O O8 0.617613 0.500000 0.620237
O O9 0.713941 0.258733 0.628228
O O10 0.611902 0.270022 0.563313
O O11 0.533045 0.271659 0.661416
O O12 0.714653 0.500000 0.401901
O O13 0.668967 0.268918 0.458194
O O14 0.618165 0.300480 0.368669
O O15 0.000000 0.221811 0.500000
O O16 0.104756 0.000000 0.507725
O O17 0.375262 0.753695 0.729611
O O18 0.338593 0.000000 0.780921
O O19 0.430126 0.500000 0.689386
O O20 0.218222 0.500000 0.050214
O O21 0.250000 0.250000 0.000000
#
# Coordination Sequence:
#
# PCOD9224330 Si02
#       8
#     8   8   8   8   8   8   8   8
#     4   9  19  36  56  78 105 139 178 217 258 304
#     4   9  19  36  56  78 105 139 178 217 258 304
#     4  10  20  34  53  76 101 131 167 206 251 305
#     4  10  20  34  53  76 101 131 167 206 251 305
#     4   9  15  30  55  74  95 132 169 201 244 302
#     4   9  20  38  56  74 102 137 171 215 265 305
#     4  10  21  36  53  75 102 133 170 209 254 311
#     4   9  19  35  53  78 113 146 176 213 257 303
#
# _framework density 8.9145819999999993
#
# number of rings (size 3 to 8) (size 9 to 14) (size 15 to 20)
#    0.000    2.625    1.250    1.875    0.000    4.500 
#    0.000   10.000    0.000    0.750    0.000    0.000 
#    0.000    0.000    0.000    0.000    0.000    0.000 
#
# Total GULP energy -178353.077593 kJ/mol
# GULP energy per Si atom -5573.533675 kJ/mol
# Density = 0.889429 g / cm^3
# Si number density = 8.914582 Si / 1000 Ang^3
#
#
#
# Elastic Constant Matrix: (Units=GPa)
#
#
# Indices 1 2 3 4 5 6 
#
# 1 128.5795 27.7377 32.5099 0.0000 -30.2420 0.0000
# 2 27.7377 15.4749 25.3069 0.0000 -8.1302 0.0000
# 3 32.5099 25.3069 105.7585 0.0000 -31.2028 0.0000
# 4 0.0000 0.0000 0.0000 31.1789 0.0000 -2.5452
# 5 -30.2420 -8.1302 -31.2028 0.0000 26.5495 0.0000
# 6 0.0000 0.0000 0.0000 -2.5452 0.0000 32.8824
#
#
#
# Elastic Compliance Matrix: (Units=1/GPa)
#
#
# Indices 1 2 3 4 5 6 
#
# 1 0.018220 -0.037178 0.009276 0.000000 0.020271 0.000000
# 2 -0.037178 0.182315 -0.043200 0.000000 -0.037289 0.000000
# 3 0.009276 -0.043200 0.024731 0.000000 0.026403 0.000000
# 4 0.000000 0.000000 0.000000 0.032277 0.000000 0.002498
# 5 0.020271 -0.037289 0.026403 0.000000 0.080367 0.000000
# 6 0.000000 0.000000 0.000000 0.002498 0.000000 0.030605
#
#
# Mechanical properties :
#
#
# Convention : Reuss Voigt Hill
#
# Bulk Modulus (GPa) = 12.03891 46.76910 29.40400
# Shear Modulus (GPa) = 9.28668 29.07272 19.17970
#
# Velocity S-wave (km/s) = 2.28473 4.04248 3.28342
# Velocity P-wave (km/s) = 3.70500 6.93380 5.55899
#
# Compressibility (1/GPa) = 0.08306403
#
# Stress axis : x y z
#
# Youngs Moduli (GPa) = 54.88540 5.48500 40.43490
#
# Poissons Ratio (x) = 0.20392 -0.37508
# Poissons Ratio (y) = 2.04052 1.74677
# Poissons Ratio (z) = -0.50913 0.23695
#
# Static dielectric constant tensor:
#      x y z
#    x 1.614230 0.000000 0.002590 
#    y 0.000000 1.597500 0.000000 
#    z 0.002590 0.000000 1.611970 
# 
# From -- ./inp_files/359862.got.cif
#   From: 2010.05.17/outbox.ucp.g08.bks.cvg/sg12_180_cif.got.tgz:359862.got - 2010.06.11 11:47:21.
