data_PCOD9224313
_publ_section_title
;
Structure prediction by ZEFSAII (Michael W. Deem and Ramdas Pophale) SiO2 
 PCOD9224313
Probable space group: C 2/M
;
_chemical_formula_sum "Si O2"
_cell_formula_units_Z 32
_cell_length_a 27.000000
_cell_length_b 9.000000
_cell_length_c 15.000000
_cell_angle_alpha 90.000000
_cell_angle_beta 70.000000
_cell_angle_gamma 90.000000
_cell_volume 3425.179603
_symmetry_space_group_name_H-M "C 2/M"
_symmetry_group_IT_number 12
_symmetry_cell_setting 'monoclinic'
loop_
_space_group_symop_operation_xyz
x,y,z
-x,y,-z
-x,-y,-z
x,-y,z
1/2+x,1/2+y,z
1/2-x,1/2+y,-z
1/2-x,1/2-y,-z
1/2+x,1/2-y,z
loop_
_atom_site_type_symbol
_atom_site_label
_atom_site_fract_x
_atom_site_fract_y
_atom_site_fract_z
Si Si1 0.875030 0.665007 0.750325
Si Si2 0.762594 0.676445 0.268477
Si Si3 0.635189 0.329151 0.748907
Si Si4 0.262364 0.827887 0.900159
Si Si5 0.468108 0.321239 0.103809
Si Si6 0.425754 0.671959 0.401505
Si Si7 0.152213 0.824464 0.402732
Si Si8 0.009524 0.668435 0.251750
O O1 0.870502 0.500000 0.710368
O O2 0.824893 0.681254 0.844191
O O3 0.873330 0.789686 0.676464
O O4 0.928944 0.670460 0.769147
O O5 0.758037 0.500000 0.261752
O O6 0.815246 0.724106 0.284534
O O7 0.762505 0.749107 0.170734
O O8 0.711632 0.733165 0.354515
O O9 0.651346 0.500000 0.756518
O O10 0.593074 0.278566 0.849265
O O11 0.604306 0.327676 0.674651
O O12 0.246534 0.000000 0.912043
O O13 0.250000 0.750000 0.000000
O O14 0.468418 0.500000 0.102507
O O15 0.496338 0.266435 0.174904
O O16 0.500000 0.263884 0.000000
O O17 0.438680 0.500000 0.414900
O O18 0.385542 0.736822 0.498126
O O19 0.478250 0.765324 0.354870
O O20 0.156019 0.000000 0.417728
O O21 0.991516 0.500000 0.247070
#
# Coordination Sequence:
#
# PCOD9224313 Si02
#       8
#     8   8   8   8   8   8   8   8
#     4   9  20  36  52  74 105 135 164 205 254 301
#     4  10  20  34  52  76 104 133 169 210 251 299
#     4   9  18  33  52  74 102 134 167 207 253 298
#     4  10  20  36  55  75 102 135 170 208 252 299
#     4   9  19  36  55  75 101 134 171 208 249 300
#     4   9  19  36  54  74 102 134 170 210 250 296
#     4   9  19  35  54  75 100 133 172 210 247 295
#     4  10  20  34  52  76 104 133 167 207 253 301
#
# _framework density 9.3425759999999993
#
# number of rings (size 3 to 8) (size 9 to 14) (size 15 to 20)
#    0.000    2.625    0.000    1.875    0.000    6.750 
#    0.000    5.000    0.000    0.000    0.000    0.000 
#    0.000    0.000    0.000    0.000    0.000    0.000 
#
# Total GULP energy -178211.833842 kJ/mol
# GULP energy per Si atom -5569.119808 kJ/mol
# Density = 0.932131 g / cm^3
# Si number density = 9.342576 Si / 1000 Ang^3
#
#
#
# Elastic Constant Matrix: (Units=GPa)
#
#
# Indices 1 2 3 4 5 6 
#
# 1 30.1507 -1.2599 -12.5079 0.0000 5.2661 0.0000
# 2 -1.2599 -12.3716 -7.5621 0.0000 6.6814 0.0000
# 3 -12.5079 -7.5621 54.4693 0.0000 -4.8195 0.0000
# 4 0.0000 0.0000 0.0000 -19.5074 0.0000 -4.5873
# 5 5.2661 6.6814 -4.8195 0.0000 -12.4105 0.0000
# 6 0.0000 0.0000 0.0000 -4.5873 0.0000 17.6378
#
#
#
# Elastic Compliance Matrix: (Units=1/GPa)
#
#
# Indices 1 2 3 4 5 6 
#
# 1 0.034807 -0.003440 0.008371 0.000000 0.009667 0.000000
# 2 -0.003440 -0.093950 -0.017825 0.000000 -0.045118 0.000000
# 3 0.008371 -0.017825 0.016698 0.000000 -0.012529 0.000000
# 4 0.000000 0.000000 0.000000 -0.048308 0.000000 -0.012564
# 5 0.009667 -0.045118 -0.012529 0.000000 -0.095899 0.000000
# 6 0.000000 0.000000 0.000000 -0.012564 0.000000 0.053429
#
#
# Mechanical properties :
#
#
# Convention : Reuss Voigt Hill
#
# Bulk Modulus (GPa) = -14.65504 3.28761 -5.68372
# Shear Modulus (GPa) = -38.40874 3.38252 -17.51311
#
# Velocity S-wave (km/s) = -4.53876 1.34692 -3.06481
# Velocity P-wave (km/s) = 5.94368 2.04505 3.94621
#
# Compressibility (1/GPa) = -0.06823589
#
# Stress axis : x y z
#
# Youngs Moduli (GPa) = 28.72984 -10.64394 59.88821
#
# Poissons Ratio (x) = -0.03662 -0.50130
# Poissons Ratio (y) = 0.09884 1.06753
# Poissons Ratio (z) = -0.24048 -0.18973
#
# Static dielectric constant tensor:
#      x y z
#    x 1.616810 0.000000 -0.014580 
#    y 0.000000 1.664900 0.000000 
#    z -0.014580 0.000000 1.636800 
# 
# From -- ./inp_files/243783.got.cif
#   From: 2010.05.17/outbox.ucp.g08.bks.cvg/sg12_122_cif.got.tgz:243783.got - 2010.06.11 11:47:21.
