data_PCOD9224573
_publ_section_title
;
Structure prediction by ZEFSAII (Michael W. Deem and Ramdas Pophale) SiO2 
 PCOD9224573
Probable space group: C 2/M
;
_chemical_formula_sum "Si O2"
_cell_formula_units_Z 28
_cell_length_a 30.000000
_cell_length_b 9.000000
_cell_length_c 21.000000
_cell_angle_alpha 90.000000
_cell_angle_beta 30.000000
_cell_angle_gamma 90.000000
_cell_volume 2835.000000
_symmetry_space_group_name_H-M "C 2/M"
_symmetry_group_IT_number 12
_symmetry_cell_setting 'monoclinic'
loop_
_space_group_symop_operation_xyz
x,y,z
-x,y,-z
-x,-y,-z
x,-y,z
1/2+x,1/2+y,z
1/2-x,1/2+y,-z
1/2-x,1/2-y,-z
1/2+x,1/2-y,z
loop_
_atom_site_type_symbol
_atom_site_label
_atom_site_fract_x
_atom_site_fract_y
_atom_site_fract_z
Si Si1 0.241224 0.823817 0.640554
Si Si2 0.082708 0.824153 0.607730
Si Si3 0.126857 0.325011 0.683744
Si Si4 0.491155 0.330558 0.934756
Si Si5 0.813599 0.322264 0.164192
Si Si6 0.132633 0.678665 0.342659
Si Si7 0.475809 0.323816 0.621668
O O1 0.343123 0.775777 0.518932
O O2 0.209271 0.767403 0.611211
O O3 0.193134 0.727705 0.753804
O O4 0.227169 0.000000 0.666115
O O5 0.083981 0.754743 0.675822
O O6 0.995512 0.811147 0.672181
O O7 0.107651 0.000000 0.577949
O O8 0.145109 0.500000 0.651175
O O9 0.055054 0.293736 0.827351
O O10 0.510600 0.500000 0.888260
O O11 0.393953 0.274034 0.037122
O O12 0.500000 0.334428 0.000000
O O13 0.822879 0.500000 0.147025
O O14 0.724437 0.258361 0.244205
O O15 0.133937 0.500000 0.349690
O O16 0.103857 0.726209 0.307326
O O17 0.060115 0.756523 0.478701
O O18 0.466408 0.500000 0.618723
#
# Coordination Sequence:
#
# PCOD9224573 Si02
#       7
#     8   8   8   8   8   8   8
#     4  12  23  37  57  84 118 154 194 237 287 343
#     4  11  23  39  59  84 118 157 194 237 288 344
#     4  12  25  40  59  83 116 156 197 238 284 343
#     4  11  23  40  62  85 113 150 194 242 287 335
#     4  12  23  37  59  86 118 152 192 237 289 344
#     4  11  21  34  56  85 118 151 189 235 289 343
#     4  10  20  35  57  83 116 152 191 236 287 342
#
# _framework density 9.8765429999999999
#
# number of rings (size 3 to 8) (size 9 to 14) (size 15 to 20)
#    0.000    0.714    2.857    7.714    0.000    2.286 
#    0.000    0.000    0.000    0.857    0.000    0.000 
#    0.000    0.000    0.000    0.000    0.000    0.000 
#
# Total GULP energy -156200.053924 kJ/mol
# GULP energy per Si atom -5578.573354 kJ/mol
# Density = 0.985406 g / cm^3
# Si number density = 9.876543 Si / 1000 Ang^3
#
#
#
# Elastic Constant Matrix: (Units=GPa)
#
#
# Indices 1 2 3 4 5 6 
#
# 1 122.0288 27.2460 11.7081 0.0015 -16.2024 0.0003
# 2 27.2460 140.9069 -10.4246 0.0056 -9.3960 0.0016
# 3 11.7081 -10.4246 22.9898 0.0128 -17.9711 -0.0026
# 4 0.0015 0.0056 0.0128 24.3934 -0.0064 3.5870
# 5 -16.2024 -9.3960 -17.9711 -0.0064 22.8314 0.0005
# 6 0.0003 0.0016 -0.0026 3.5870 0.0005 28.2376
#
#
#
# Elastic Compliance Matrix: (Units=1/GPa)
#
#
# Indices 1 2 3 4 5 6 
#
# 1 0.009343 -0.001706 -0.002334 0.000002 0.004091 -0.000001
# 2 -0.001706 0.010200 0.020350 -0.000008 0.019004 0.000002
# 3 -0.002334 0.020350 0.153795 -0.000054 0.127774 0.000018
# 4 0.000002 -0.000008 -0.000054 0.041775 -0.000032 -0.005307
# 5 0.004091 0.019004 0.127774 -0.000032 0.155097 0.000012
# 6 -0.000001 0.000002 0.000018 -0.005307 0.000012 0.036088
#
#
# Mechanical properties :
#
#
# Convention : Reuss Voigt Hill
#
# Bulk Modulus (GPa) = 4.85542 38.10939 21.48241
# Shear Modulus (GPa) = 11.30373 32.25220 21.77797
#
# Velocity S-wave (km/s) = 2.39477 4.04514 3.32401
# Velocity P-wave (km/s) = 3.17962 6.41500 5.06272
#
# Compressibility (1/GPa) = 0.20595533
#
# Stress axis : x y z
#
# Youngs Moduli (GPa) = 107.03320 98.04292 6.50216
#
# Poissons Ratio (x) = 0.16731 0.01518
# Poissons Ratio (y) = 0.18265 -0.13232
# Poissons Ratio (z) = 0.24985 -1.99514
#
# Static dielectric constant tensor:
#      x y z
#    x 1.847340 0.000000 -0.064860 
#    y 0.000000 1.633080 0.000000 
#    z -0.064860 0.000000 1.871560 
# 
# From -- ./inp_files/329557.got.cif
#   From: 2010.05.17/outbox.ucp.g08.bks.cvg/sg12_165_cif.got.tgz:329557.got - 2010.06.11 11:47:21.
