data_PCOD9224331
_publ_section_title
;
Structure prediction by ZEFSAII (Michael W. Deem and Ramdas Pophale) SiO2 
 PCOD9224331
Probable space group: C 2/M
;
_chemical_formula_sum "Si O2"
_cell_formula_units_Z 32
_cell_length_a 30.000000
_cell_length_b 9.000000
_cell_length_c 15.000000
_cell_angle_alpha 90.000000
_cell_angle_beta 130.000000
_cell_angle_gamma 90.000000
_cell_volume 3102.479995
_symmetry_space_group_name_H-M "C 2/M"
_symmetry_group_IT_number 12
_symmetry_cell_setting 'monoclinic'
loop_
_space_group_symop_operation_xyz
x,y,z
-x,y,-z
-x,-y,-z
x,-y,z
1/2+x,1/2+y,z
1/2-x,1/2+y,-z
1/2-x,1/2-y,-z
1/2+x,1/2-y,z
loop_
_atom_site_type_symbol
_atom_site_label
_atom_site_fract_x
_atom_site_fract_y
_atom_site_fract_z
Si Si1 0.124703 0.322434 0.100042
Si Si2 0.921154 0.833038 0.475747
Si Si3 0.330346 0.329916 0.524806
Si Si4 0.498563 0.168520 0.706467
Si Si5 0.865162 0.329083 0.088111
Si Si6 0.755144 0.177203 0.713752
Si Si7 0.918590 0.320299 0.769728
Si Si8 0.667637 0.821384 0.764055
O O1 0.115763 0.500000 0.079062
O O2 0.187743 0.277024 0.216643
O O3 0.080798 0.275775 0.124318
O O4 0.129116 0.260265 0.004002
O O5 0.876368 0.836930 0.501986
O O6 0.976709 0.763277 0.595031
O O7 0.889942 0.739912 0.358735
O O8 0.931231 0.000000 0.457536
O O9 0.311202 0.500000 0.518039
O O10 0.281831 0.223285 0.420614
O O11 0.364118 0.258745 0.651329
O O12 0.567602 0.166964 0.796675
O O13 0.472262 0.214002 0.770361
O O14 0.476547 0.000000 0.664297
O O15 0.843958 0.500000 0.048976
O O16 0.830496 0.266493 0.130161
O O17 0.719668 0.213977 0.760547
O O18 0.766472 0.000000 0.728736
O O19 0.911950 0.500000 0.760480
O O20 0.664373 0.000000 0.764026
#
# Coordination Sequence:
#
# PCOD9224331 Si02
#       8
#     8   8   8   8   8   8   8   8
#     4  10  21  36  52  73 102 134 171 211 249 293
#     4   9  17  30  50  78 107 132 162 202 251 303
#     4   9  17  31  53  78 103 132 165 202 249 305
#     4   9  17  32  54  77 102 133 167 203 247 298
#     4   9  19  35  54  75  99 132 174 212 245 291
#     4  10  20  34  53  76 102 132 167 208 252 298
#     4   9  18  32  52  78 105 132 163 204 251 297
#     4   9  18  34  54  75 101 133 168 206 249 297
#
# _framework density 10.314329000000001
#
# number of rings (size 3 to 8) (size 9 to 14) (size 15 to 20)
#    0.000    2.750    0.000    1.125    0.000    6.000 
#    0.000    6.875    0.000    0.000    0.000    4.375 
#    0.000    0.000    0.000    0.000    0.000    0.000 
#
# Total GULP energy -178255.573755 kJ/mol
# GULP energy per Si atom -5570.486680 kJ/mol
# Density = 1.029085 g / cm^3
# Si number density = 10.314329 Si / 1000 Ang^3
#
#
#
# Elastic Constant Matrix: (Units=GPa)
#
#
# Indices 1 2 3 4 5 6 
#
# 1 65.5838 -0.0375 0.5594 0.0000 -24.7283 0.0000
# 2 -0.0375 6.1214 -9.7637 0.0000 -3.9768 0.0000
# 3 0.5594 -9.7637 21.7600 0.0000 -18.9999 0.0000
# 4 0.0000 0.0000 0.0000 12.7941 0.0000 -1.5968
# 5 -24.7283 -3.9768 -18.9999 0.0000 36.0803 0.0000
# 6 0.0000 0.0000 0.0000 -1.5968 0.0000 14.2440
#
#
#
# Elastic Compliance Matrix: (Units=1/GPa)
#
#
# Indices 1 2 3 4 5 6 
#
# 1 0.013722 -0.033513 -0.019259 0.000000 -0.004431 0.000000
# 2 -0.033513 -0.077413 -0.113624 0.000000 -0.091336 0.000000
# 3 -0.019259 -0.113624 -0.049968 0.000000 -0.052037 0.000000
# 4 0.000000 0.000000 0.000000 0.079270 0.000000 0.008886
# 5 -0.004431 -0.091336 -0.052037 0.000000 -0.012791 0.000000
# 6 0.000000 0.000000 0.000000 0.008886 0.000000 0.071201
#
#
# Mechanical properties :
#
#
# Convention : Reuss Voigt Hill
#
# Bulk Modulus (GPa) = -2.23988 8.33130 3.04571
# Shear Modulus (GPa) = 24.03884 19.47081 21.75483
#
# Velocity S-wave (km/s) = 3.41737 3.07558 3.25097
# Velocity P-wave (km/s) = 3.80566 4.08164 3.94606
#
# Compressibility (1/GPa) = -0.44645183
#
# Stress axis : x y z
#
# Youngs Moduli (GPa) = 72.87567 -12.91775 -20.01273
#
# Poissons Ratio (x) = -0.43292 -0.38543
# Poissons Ratio (y) = 2.44230 -2.27392
# Poissons Ratio (z) = 1.40353 -1.46777
#
# Static dielectric constant tensor:
#      x y z
#    x 1.802200 0.000000 -0.021050 
#    y 0.000000 1.708590 0.000000 
#    z -0.021050 0.000000 1.748970 
# 
# From -- ./inp_files/243855.got.cif
#   From: 2010.05.17/outbox.ucp.g08.bks.cvg/sg12_122_cif.got.tgz:243855.got - 2010.06.11 11:47:21.
