data_PCOD9224090
_publ_section_title
;
Structure prediction by ZEFSAII (Michael W. Deem and Ramdas Pophale) SiO2 
 PCOD9224090
Probable space group: C 2/M
;
_chemical_formula_sum "Si O2"
_cell_formula_units_Z 28
_cell_length_a 18.000000
_cell_length_b 18.000000
_cell_length_c 9.000000
_cell_angle_alpha 90.000000
_cell_angle_beta 70.000000
_cell_angle_gamma 90.000000
_cell_volume 2740.143682
_symmetry_space_group_name_H-M "C 2/M"
_symmetry_group_IT_number 12
_symmetry_cell_setting 'monoclinic'
loop_
_space_group_symop_operation_xyz
x,y,z
-x,y,-z
-x,-y,-z
x,-y,z
1/2+x,1/2+y,z
1/2-x,1/2+y,-z
1/2-x,1/2-y,-z
1/2+x,1/2-y,z
loop_
_atom_site_type_symbol
_atom_site_label
_atom_site_fract_x
_atom_site_fract_y
_atom_site_fract_z
Si Si1 0.267246 0.417584 0.664543
Si Si2 0.169370 0.583613 0.449246
Si Si3 0.434853 0.585082 0.434177
Si Si4 0.935723 0.196142 0.163638
Si Si5 0.379132 0.913994 0.833612
Si Si6 0.305230 0.789873 0.085477
Si Si7 0.475514 0.176962 0.358495
O O1 0.238717 0.500000 0.739695
O O2 0.242571 0.414351 0.508369
O O3 0.360135 0.418223 0.593148
O O4 0.240057 0.344226 0.768913
O O5 0.134779 0.500000 0.482878
O O6 0.179705 0.596021 0.267282
O O7 0.110293 0.643129 0.557535
O O8 0.500000 0.616781 0.500000
O O9 0.455097 0.500000 0.376984
O O10 0.420386 0.634510 0.299132
O O11 0.858546 0.229199 0.134148
O O12 0.974185 0.265244 0.226856
O O13 0.000000 0.169656 0.000000
O O14 0.464803 0.890827 0.713130
O O15 0.377230 0.000000 0.882532
O O16 0.358971 0.851551 0.966229
O O17 0.250000 0.750000 0.000000
O O18 0.500000 0.210811 0.500000
#
# Coordination Sequence:
#
# PCOD9224090 Si02
#       7
#     8   8   8   8   8   8   8
#     4  10  22  43  68  93 123 166 219 266 314 376
#     4   9  18  34  60  92 126 165 213 256 297 364
#     4  10  25  48  72  93 116 162 223 279 326 371
#     4  12  25  43  64  96 131 166 207 258 319 389
#     4  10  21  39  62  91 130 172 210 250 306 378
#     4  12  27  41  60  95 136 172 205 255 323 385
#     4  10  19  36  62  94 130 168 205 250 309 371
#
# _framework density 10.218442
#
# number of rings (size 3 to 8) (size 9 to 14) (size 15 to 20)
#    0.000    1.571    2.857    1.286    4.000    4.857 
#    0.000    1.429    0.000    0.000    0.000    0.000 
#    0.000    0.000    0.000    0.000    0.000    0.000 
#
# Total GULP energy -156081.585422 kJ/mol
# GULP energy per Si atom -5574.342336 kJ/mol
# Density = 1.019518 g / cm^3
# Si number density = 10.218442 Si / 1000 Ang^3
#
#
#
# Elastic Constant Matrix: (Units=GPa)
#
#
# Indices 1 2 3 4 5 6 
#
# 1 92.8045 31.8213 25.3752 0.0000 17.1356 0.0000
# 2 31.8213 108.6889 39.2011 0.0000 9.0769 0.0000
# 3 25.3752 39.2011 72.7851 0.0000 8.6730 0.0000
# 4 0.0000 0.0000 0.0000 35.0433 0.0000 12.0458
# 5 17.1356 9.0769 8.6730 0.0000 26.0982 0.0000
# 6 0.0000 0.0000 0.0000 12.0458 0.0000 64.1419
#
#
#
# Elastic Compliance Matrix: (Units=1/GPa)
#
#
# Indices 1 2 3 4 5 6 
#
# 1 0.013664 -0.002467 -0.002570 0.000000 -0.007260 0.000000
# 2 -0.002467 0.011966 -0.005499 0.000000 -0.000714 0.000000
# 3 -0.002570 -0.005499 0.017876 0.000000 -0.002340 0.000000
# 4 0.000000 0.000000 0.000000 0.030505 0.000000 -0.005729
# 5 -0.007260 -0.000714 -0.002340 0.000000 0.044109 0.000000
# 6 0.000000 0.000000 0.000000 -0.005729 0.000000 0.016666
#
#
# Mechanical properties :
#
#
# Convention : Reuss Voigt Hill
#
# Bulk Modulus (GPa) = 44.57751 51.89710 48.23730
# Shear Modulus (GPa) = 30.61120 36.91540 33.76330
#
# Velocity S-wave (km/s) = 3.87439 4.25468 4.06898
# Velocity P-wave (km/s) = 6.47103 7.04169 6.76238
#
# Compressibility (1/GPa) = 0.02243284
#
# Stress axis : x y z
#
# Youngs Moduli (GPa) = 73.18234 83.56917 55.94135
#
# Poissons Ratio (x) = 0.20620 0.14376
# Poissons Ratio (y) = 0.18057 0.30765
# Poissons Ratio (z) = 0.18807 0.45959
#
# Static dielectric constant tensor:
#      x y z
#    x 1.789880 0.000000 -0.007680 
#    y 0.000000 1.728290 0.000000 
#    z -0.007680 0.000000 1.738820 
# 
# From -- ./inp_files/75842.got.cif
#   From: 2010.05.17/outbox.ucp.g08.bks.cvg/sg12_38_cif.got.tgz:75842.got - 2010.06.11 11:47:21.
