data_PCOD9224056
_publ_section_title
;
Structure prediction by ZEFSAII (Michael W. Deem and Ramdas Pophale) SiO2 
 PCOD9224056
Probable space group: C 2/M
;
_chemical_formula_sum "Si O2"
_cell_formula_units_Z 32
_cell_length_a 30.000000
_cell_length_b 9.000000
_cell_length_c 15.000000
_cell_angle_alpha 90.000000
_cell_angle_beta 60.000000
_cell_angle_gamma 90.000000
_cell_volume 3507.402885
_symmetry_space_group_name_H-M "C 2/M"
_symmetry_group_IT_number 12
_symmetry_cell_setting 'monoclinic'
loop_
_space_group_symop_operation_xyz
x,y,z
-x,y,-z
-x,-y,-z
x,-y,z
1/2+x,1/2+y,z
1/2-x,1/2+y,-z
1/2-x,1/2-y,-z
1/2+x,1/2-y,z
loop_
_atom_site_type_symbol
_atom_site_label
_atom_site_fract_x
_atom_site_fract_y
_atom_site_fract_z
Si Si1 0.109049 0.179172 0.515775
Si Si2 0.474816 0.319496 0.264356
Si Si3 0.713552 0.173741 0.465217
Si Si4 0.907355 0.177660 0.848807
Si Si5 0.250308 0.673245 0.225292
Si Si6 0.645631 0.676553 0.285781
Si Si7 0.143479 0.676480 0.933031
Si Si8 0.444009 0.322045 0.099412
O O1 0.057716 0.229405 0.617643
O O2 0.158579 0.246370 0.515070
O O3 0.114841 0.220170 0.406202
O O4 0.111201 0.000000 0.519142
O O5 0.476654 0.500000 0.264535
O O6 0.533724 0.270059 0.202975
O O7 0.447065 0.278949 0.199969
O O8 0.750000 0.250000 0.500000
O O9 0.739003 0.187473 0.342050
O O10 0.706992 0.000000 0.491501
O O11 0.887048 0.201182 0.769754
O O12 0.905899 0.000000 0.869343
O O13 0.872626 0.260851 0.954766
O O14 0.257382 0.500000 0.197066
O O15 0.199255 0.736871 0.229956
O O16 0.300778 0.762601 0.148873
O O17 0.656641 0.500000 0.281705
O O18 0.143085 0.500000 0.932782
O O19 0.100749 0.739398 0.907852
O O20 0.435393 0.500000 0.101446
O O21 0.500000 0.292812 0.000000
#
# Coordination Sequence:
#
# PCOD9224056 Si02
#       8
#     8   8   8   8   8   8   8   8
#     4   9  18  34  55  84 116 146 184 231 277 326
#     4   9  18  33  57  85 114 151 190 224 268 333
#     4  10  21  36  55  80 109 146 187 229 276 332
#     4  10  20  38  60  83 112 152 193 229 278 339
#     4  10  22  40  60  80 110 151 191 228 280 345
#     4   9  19  36  60  86 115 145 184 241 287 322
#     4  12  25  38  56  85 116 146 187 240 288 331
#     4  10  19  36  59  80 112 155 191 226 273 337
#
# _framework density 9.1235599999999994
#
# number of rings (size 3 to 8) (size 9 to 14) (size 15 to 20)
#    0.000    2.125    1.250    1.875    1.750    3.250 
#    0.000    3.125    0.000    0.000    0.000    4.375 
#    0.000    0.000    0.000    0.000    0.000    0.000 
#
# Total GULP energy -178631.094407 kJ/mol
# GULP energy per Si atom -5582.221700 kJ/mol
# Density = 0.910279 g / cm^3
# Si number density = 9.123560 Si / 1000 Ang^3
#
#
#
# Elastic Constant Matrix: (Units=GPa)
#
#
# Indices 1 2 3 4 5 6 
#
# 1 -7.2957 9.7783 22.1823 0.0000 18.5279 0.0000
# 2 9.7783 29.1753 33.3481 0.0000 7.0797 0.0000
# 3 22.1823 33.3481 59.1714 0.0000 -13.9483 0.0000
# 4 0.0000 0.0000 0.0000 12.7208 0.0000 -2.0040
# 5 18.5279 7.0797 -13.9483 0.0000 20.5793 0.0000
# 6 0.0000 0.0000 0.0000 -2.0040 0.0000 24.5480
#
#
#
# Elastic Compliance Matrix: (Units=1/GPa)
#
#
# Indices 1 2 3 4 5 6 
#
# 1 0.006042 -0.055548 0.038398 0.000000 0.039696 0.000000
# 2 -0.055548 0.115277 -0.049634 0.000000 -0.023288 0.000000
# 3 0.038398 -0.049634 0.031365 0.000000 0.003763 0.000000
# 4 0.000000 0.000000 0.000000 0.079636 0.000000 0.006501
# 5 0.039696 -0.023288 0.003763 0.000000 0.023416 0.000000
# 6 0.000000 0.000000 0.000000 0.006501 0.000000 0.041267
#
#
# Mechanical properties :
#
#
# Convention : Reuss Voigt Hill
#
# Bulk Modulus (GPa) = 52.30984 23.51873 37.91429
# Shear Modulus (GPa) = 11.44314 12.61911 12.03112
#
# Velocity S-wave (km/s) = 2.50695 2.63262 2.57055
# Velocity P-wave (km/s) = 6.09175 4.70722 5.44368
#
# Compressibility (1/GPa) = 0.01911686
#
# Stress axis : x y z
#
# Youngs Moduli (GPa) = 165.51065 8.67476 31.88231
#
# Poissons Ratio (x) = 0.48187 -1.22423
# Poissons Ratio (y) = 9.19379 1.58245
# Poissons Ratio (z) = -6.35536 0.43056
#
# Static dielectric constant tensor:
#      x y z
#    x 1.590290 0.000000 0.010040 
#    y 0.000000 1.612220 0.000000 
#    z 0.010040 0.000000 1.627010 
# 
# From -- ./inp_files/248967.got.cif
#   From: 2010.05.17/outbox.ucp.g08.bks.cvg/sg12_125_cif.got.tgz:248967.got - 2010.06.11 11:47:21.
