data_PCOD9224380
_publ_section_title
;
Structure prediction by ZEFSAII (Michael W. Deem and Ramdas Pophale) SiO2 
 PCOD9224380
Probable space group: C 2/M
;
_chemical_formula_sum "Si O2"
_cell_formula_units_Z 32
_cell_length_a 30.000000
_cell_length_b 9.000000
_cell_length_c 18.000000
_cell_angle_alpha 90.000000
_cell_angle_beta 40.000000
_cell_angle_gamma 90.000000
_cell_volume 3123.947783
_symmetry_space_group_name_H-M "C 2/M"
_symmetry_group_IT_number 12
_symmetry_cell_setting 'monoclinic'
loop_
_space_group_symop_operation_xyz
x,y,z
-x,y,-z
-x,-y,-z
x,-y,z
1/2+x,1/2+y,z
1/2-x,1/2+y,-z
1/2-x,1/2-y,-z
1/2+x,1/2-y,z
loop_
_atom_site_type_symbol
_atom_site_label
_atom_site_fract_x
_atom_site_fract_y
_atom_site_fract_z
Si Si1 0.883922 0.667690 0.190690
Si Si2 0.114218 0.675109 0.980345
Si Si3 0.746228 0.326404 0.585179
Si Si4 0.499795 0.319118 0.584426
Si Si5 0.228907 0.823435 0.914952
Si Si6 0.353065 0.321259 0.829920
Si Si7 0.380529 0.676732 0.461707
Si Si8 0.026713 0.672551 0.778685
O O1 0.852913 0.500000 0.234140
O O2 0.908464 0.690013 0.075835
O O3 0.826287 0.785840 0.285734
O O4 0.942658 0.672550 0.177556
O O5 0.125335 0.500000 0.980812
O O6 0.184696 0.762901 0.903277
O O7 0.052060 0.726627 0.113172
O O8 0.756000 0.500000 0.563138
O O9 0.750000 0.250000 0.500000
O O10 0.807887 0.258009 0.554315
O O11 0.500000 0.267084 0.500000
O O12 0.497777 0.500000 0.586893
O O13 0.431576 0.270172 0.716371
O O14 0.570591 0.276842 0.533282
O O15 0.302600 0.746617 0.832301
O O16 0.236164 0.000000 0.904219
O O17 0.181724 0.780303 0.047158
O O18 0.351422 0.500000 0.827243
O O19 0.370883 0.500000 0.473277
O O20 0.424183 0.727578 0.334048
O O21 0.028075 0.500000 0.751091
#
# Coordination Sequence:
#
# PCOD9224380 Si02
#       8
#     8   8   8   8   8   8   8   8
#     4  10  21  38  59  83 114 152 192 238 288 343
#     4  10  21  36  56  84 116 152 192 233 288 353
#     4  12  24  40  61  86 117 153 196 243 289 341
#     4   9  19  36  58  84 113 147 190 237 284 340
#     4  10  20  34  54  82 113 146 186 237 289 342
#     4   9  18  35  58  81 108 145 188 235 286 343
#     4  11  22  37  61  90 118 153 196 242 293 346
#     4  10  20  36  59  84 114 151 193 239 287 344
#
# _framework density 10.243449
#
# number of rings (size 3 to 8) (size 9 to 14) (size 15 to 20)
#    0.000    1.875    1.250    3.000    0.000    5.000 
#    0.000    3.750    0.000    4.875    0.000    0.000 
#    0.000    0.000    0.000    0.000    0.000    0.000 
#
# Total GULP energy -178654.907539 kJ/mol
# GULP energy per Si atom -5582.965861 kJ/mol
# Density = 1.022013 g / cm^3
# Si number density = 10.243449 Si / 1000 Ang^3
#
#
#
# Elastic Constant Matrix: (Units=GPa)
#
#
# Indices 1 2 3 4 5 6 
#
# 1 90.8538 22.5381 15.1257 -0.0011 -9.6988 0.0016
# 2 22.5381 40.9412 17.4705 -0.0014 -7.7385 0.0066
# 3 15.1257 17.4705 37.9178 -0.0026 -13.1780 0.0027
# 4 -0.0011 -0.0014 -0.0026 16.9488 0.0031 -3.6175
# 5 -9.6988 -7.7385 -13.1780 0.0031 29.6786 -0.0020
# 6 0.0016 0.0066 0.0027 -3.6175 -0.0020 17.2285
#
#
#
# Elastic Compliance Matrix: (Units=1/GPa)
#
#
# Indices 1 2 3 4 5 6 
#
# 1 0.013001 -0.006058 -0.001735 0.000000 0.001899 0.000002
# 2 -0.006058 0.033328 -0.012543 -0.000002 0.001141 -0.000011
# 3 -0.001735 -0.012543 0.037260 0.000002 0.012707 0.000001
# 4 0.000000 -0.000002 0.000002 0.061769 -0.000005 0.012970
# 5 0.001899 0.001141 0.012707 -0.000005 0.040254 0.000001
# 6 0.000002 -0.000011 0.000001 0.012970 0.000001 0.060767
#
#
# Mechanical properties :
#
#
# Convention : Reuss Voigt Hill
#
# Bulk Modulus (GPa) = 23.30032 31.10905 27.20469
# Shear Modulus (GPa) = 16.59163 20.40976 18.50069
#
# Velocity S-wave (km/s) = 2.84890 3.15974 3.00834
# Velocity P-wave (km/s) = 4.71377 5.34133 5.03733
#
# Compressibility (1/GPa) = 0.04291786
#
# Stress axis : x y z
#
# Youngs Moduli (GPa) = 76.91706 30.00487 26.83834
#
# Poissons Ratio (x) = 0.18176 0.04657
# Poissons Ratio (y) = 0.46594 0.33662
# Poissons Ratio (z) = 0.13347 0.37634
#
# Static dielectric constant tensor:
#      x y z
#    x 1.770410 0.000000 0.004720 
#    y 0.000000 1.692000 0.000000 
#    z 0.004720 0.000000 1.716340 
# 
# From -- ./inp_files/295547.got.cif
#   From: 2010.05.17/outbox.ucp.g08.bks.cvg/sg12_148_cif.got.tgz:295547.got - 2010.06.11 11:47:21.
