data_PCOD9224462
_publ_section_title
;
Structure prediction by ZEFSAII (Michael W. Deem and Ramdas Pophale) SiO2 
 PCOD9224462
Probable space group: C 2/M
;
_chemical_formula_sum "Si O2"
_cell_formula_units_Z 28
_cell_length_a 18.000000
_cell_length_b 9.000000
_cell_length_c 27.000000
_cell_angle_alpha 90.000000
_cell_angle_beta 140.000000
_cell_angle_gamma 90.000000
_cell_volume 2811.553005
_symmetry_space_group_name_H-M "C 2/M"
_symmetry_group_IT_number 12
_symmetry_cell_setting 'monoclinic'
loop_
_space_group_symop_operation_xyz
x,y,z
-x,y,-z
-x,-y,-z
x,-y,z
1/2+x,1/2+y,z
1/2-x,1/2+y,-z
1/2-x,1/2-y,-z
1/2+x,1/2-y,z
loop_
_atom_site_type_symbol
_atom_site_label
_atom_site_fract_x
_atom_site_fract_y
_atom_site_fract_z
Si Si1 0.580188 0.667134 0.149587
Si Si2 0.134719 0.660020 0.440690
Si Si3 0.879674 0.332483 0.450133
Si Si4 0.709425 0.826808 0.126913
Si Si5 0.812589 0.833470 0.988339
Si Si6 0.088630 0.172010 0.696436
Si Si7 0.231388 0.676480 0.299979
O O1 0.628611 0.500000 0.175829
O O2 0.629024 0.751803 0.126884
O O3 0.445000 0.659806 0.072494
O O4 0.617990 0.751380 0.218463
O O5 0.154557 0.500000 0.428257
O O6 0.250000 0.750000 0.500000
O O7 0.113097 0.650331 0.488031
O O8 0.025955 0.734600 0.360319
O O9 0.878307 0.500000 0.427278
O O10 0.773227 0.245258 0.372707
O O11 0.000000 0.252120 0.500000
O O12 0.835991 0.813271 0.215722
O O13 0.680715 0.000000 0.108358
O O14 0.698441 0.749940 0.069002
O O15 0.767203 0.000000 0.959302
O O16 0.750000 0.750000 0.000000
O O17 0.169572 0.213375 0.690808
O O18 0.058084 0.000000 0.673916
O O19 0.221037 0.500000 0.297073
#
# Coordination Sequence:
#
# PCOD9224462 Si02
#       7
#     8   8   8   8   8   8   8
#     4  10  21  38  61  88 119 153 193 239 286 342
#     4  11  23  38  57  81 113 153 193 236 286 340
#     4  10  20  36  58  84 113 149 192 236 286 340
#     4  10  21  38  63  92 118 151 192 239 289 342
#     4  11  24  41  61  87 119 157 194 236 290 346
#     4   9  19  36  57  84 116 148 187 234 285 337
#     4  10  20  34  58  90 117 147 189 241 291 335
#
# _framework density 9.9589090000000002
#
# number of rings (size 3 to 8) (size 9 to 14) (size 15 to 20)
#    0.000    1.857    1.429    3.429    0.000    8.286 
#    2.571    0.000    0.000    0.000    0.000    0.000 
#    0.000    0.000    0.000    0.000    0.000    0.000 
#
# Total GULP energy -156102.018948 kJ/mol
# GULP energy per Si atom -5575.072105 kJ/mol
# Density = 0.993624 g / cm^3
# Si number density = 9.958909 Si / 1000 Ang^3
#
#
#
# Elastic Constant Matrix: (Units=GPa)
#
#
# Indices 1 2 3 4 5 6 
#
# 1 20.9611 25.3199 11.1415 0.0000 9.7461 0.0000
# 2 25.3199 86.1175 62.6956 0.0000 32.1003 0.0000
# 3 11.1415 62.6956 10.3809 0.0000 -8.9729 0.0000
# 4 0.0000 0.0000 0.0000 32.1274 0.0000 -0.7546
# 5 9.7461 32.1003 -8.9729 0.0000 3.9433 0.0000
# 6 0.0000 0.0000 0.0000 -0.7546 0.0000 17.9962
#
#
#
# Elastic Compliance Matrix: (Units=1/GPa)
#
#
# Indices 1 2 3 4 5 6 
#
# 1 0.078352 -0.018713 0.007029 0.000000 -0.025329 0.000000
# 2 -0.018713 0.005071 0.006466 0.000000 0.019679 0.000000
# 3 0.007029 0.006466 0.011142 0.000000 -0.044652 0.000000
# 4 0.000000 0.000000 0.000000 0.031157 0.000000 0.001306
# 5 -0.025329 0.019679 -0.044652 0.000000 0.054394 0.000000
# 6 0.000000 0.000000 0.000000 0.001306 0.000000 0.055622
#
#
# Mechanical properties :
#
#
# Convention : Reuss Voigt Hill
#
# Bulk Modulus (GPa) = 11.88648 35.08594 23.48621
# Shear Modulus (GPa) = 18.23367 12.03355 15.13361
#
# Velocity S-wave (km/s) = 3.02892 2.46063 2.75944
# Velocity P-wave (km/s) = 4.26769 5.07213 4.68720
#
# Compressibility (1/GPa) = 0.08412922
#
# Stress axis : x y z
#
# Youngs Moduli (GPa) = 12.76289 197.18858 89.74965
#
# Poissons Ratio (x) = 3.68991 -0.63083
# Poissons Ratio (y) = 0.23883 -0.58029
# Poissons Ratio (z) = -0.08971 -1.27495
#
# Static dielectric constant tensor:
#      x y z
#    x 1.693600 0.000000 0.028660 
#    y 0.000000 1.782310 0.000000 
#    z 0.028660 0.000000 1.677180 
# 
# From -- ./inp_files/363102.got.cif
#   From: 2010.05.17/outbox.ucp.g08.bks.cvg/sg12_182_cif.got.tgz:363102.got - 2010.06.11 11:47:21.
