data_PCOD9224575
_publ_section_title
;
Structure prediction by ZEFSAII (Michael W. Deem and Ramdas Pophale) SiO2 
 PCOD9224575
Probable space group: C 2/M
;
_chemical_formula_sum "Si O2"
_cell_formula_units_Z 24
_cell_length_a 15.000000
_cell_length_b 9.000000
_cell_length_c 27.000000
_cell_angle_alpha 90.000000
_cell_angle_beta 140.000000
_cell_angle_gamma 90.000000
_cell_volume 2342.960837
_symmetry_space_group_name_H-M "C 2/M"
_symmetry_group_IT_number 12
_symmetry_cell_setting 'monoclinic'
loop_
_space_group_symop_operation_xyz
x,y,z
-x,y,-z
-x,-y,-z
x,-y,z
1/2+x,1/2+y,z
1/2-x,1/2+y,-z
1/2-x,1/2-y,-z
1/2+x,1/2-y,z
loop_
_atom_site_type_symbol
_atom_site_label
_atom_site_fract_x
_atom_site_fract_y
_atom_site_fract_z
Si Si1 0.350714 0.822789 0.806468
Si Si2 0.719096 0.676510 0.647860
Si Si3 0.665079 0.822182 0.919897
Si Si4 0.848100 0.170071 0.612301
Si Si5 0.645094 0.678382 0.087087
Si Si6 0.541194 0.169587 0.433591
O O1 0.256667 0.783786 0.720143
O O2 0.506133 0.782712 0.856698
O O3 0.326087 0.743511 0.847321
O O4 0.342835 0.000000 0.810328
O O5 0.725821 0.500000 0.643997
O O6 0.824454 0.752511 0.654712
O O7 0.563614 0.736226 0.577941
O O8 0.732843 0.776148 0.897504
O O9 0.677982 0.000000 0.929186
O O10 0.750000 0.750000 0.000000
O O11 0.693989 0.169462 0.522566
O O12 0.941757 0.259932 0.613595
O O13 0.895708 0.000000 0.636840
O O14 0.638310 0.500000 0.087607
O O15 0.500000 0.728083 0.000000
O O16 0.492189 0.000000 0.410352
#
# Coordination Sequence:
#
# PCOD9224575 Si02
#       6
#     8   8   8   8   8   8
#     4  10  23  39  55  81 114 150 189 231 284 341
#     4  11  23  38  56  83 121 158 198 242 288 344
#     4  10  20  36  57  80 108 140 179 228 280 334
#     4  10  21  38  61  89 118 151 195 242 290 347
#     4  10  20  35  57  84 110 139 183 234 284 339
#     4  10  21  38  61  88 117 153 196 241 292 345
#
# _framework density 10.243449
#
# number of rings (size 3 to 8) (size 9 to 14) (size 15 to 20)
#    0.000    1.833    1.667    2.000    0.000    7.667 
#    0.000    1.667    0.000    0.000    0.000    0.000 
#    0.000    0.000    0.000    0.000    0.000    0.000 
#
# Total GULP energy -134014.977106 kJ/mol
# GULP energy per Si atom -5583.957379 kJ/mol
# Density = 1.022013 g / cm^3
# Si number density = 10.243449 Si / 1000 Ang^3
#
#
#
# Elastic Constant Matrix: (Units=GPa)
#
#
# Indices 1 2 3 4 5 6 
#
# 1 132.8078 32.5518 46.7955 0.0000 -33.8915 0.0000
# 2 32.5518 28.0237 37.8377 0.0000 -22.5770 0.0000
# 3 46.7955 37.8377 60.3060 0.0000 -16.4296 0.0000
# 4 0.0000 0.0000 0.0000 19.5406 0.0000 -13.9914
# 5 -33.8915 -22.5770 -16.4296 0.0000 28.1737 0.0000
# 6 0.0000 0.0000 0.0000 -13.9914 0.0000 18.1920
#
#
#
# Elastic Compliance Matrix: (Units=1/GPa)
#
#
# Indices 1 2 3 4 5 6 
#
# 1 0.009371 -0.035137 0.012096 0.000000 -0.009830 0.000000
# 2 -0.035137 -0.351750 0.189809 0.000000 -0.213454 0.000000
# 3 0.012096 0.189809 -0.079052 0.000000 0.120555 0.000000
# 4 0.000000 0.000000 0.000000 0.113898 0.000000 0.087598
# 5 -0.009830 -0.213454 0.120555 0.000000 -0.077080 0.000000
# 6 0.000000 0.000000 0.000000 0.087598 0.000000 0.122341
#
#
# Mechanical properties :
#
#
# Convention : Reuss Voigt Hill
#
# Bulk Modulus (GPa) = -11.37747 50.61195 19.61724
# Shear Modulus (GPa) = -7.99864 20.11141 6.05638
#
# Velocity S-wave (km/s) = -1.97807 3.13656 1.72123
# Velocity P-wave (km/s) = 3.28368 6.15431 3.68055
#
# Compressibility (1/GPa) = -0.08789303
#
# Stress axis : x y z
#
# Youngs Moduli (GPa) = 106.70865 -2.84293 -12.64995
#
# Poissons Ratio (x) = -0.09989 0.15301
# Poissons Ratio (y) = 3.74938 2.40108
# Poissons Ratio (z) = -1.29073 0.53961
#
# Static dielectric constant tensor:
#      x y z
#    x 1.715070 0.000000 0.027070 
#    y 0.000000 1.720510 0.000000 
#    z 0.027070 0.000000 1.749310 
# 
# From -- ./inp_files/267633.got.cif
#   From: 2010.05.17/outbox.ucp.g08.bks.cvg/sg12_134_cif.got.tgz:267633.got - 2010.06.11 11:47:21.
