data_PCOD9224441
_publ_section_title
;
Structure prediction by ZEFSAII (Michael W. Deem and Ramdas Pophale) SiO2 
 PCOD9224441
Probable space group: C 2/M
;
_chemical_formula_sum "Si O2"
_cell_formula_units_Z 28
_cell_length_a 15.000000
_cell_length_b 9.000000
_cell_length_c 24.000000
_cell_angle_alpha 90.000000
_cell_angle_beta 60.000000
_cell_angle_gamma 90.000000
_cell_volume 2805.922308
_symmetry_space_group_name_H-M "C 2/M"
_symmetry_group_IT_number 12
_symmetry_cell_setting 'monoclinic'
loop_
_space_group_symop_operation_xyz
x,y,z
-x,y,-z
-x,-y,-z
x,-y,z
1/2+x,1/2+y,z
1/2-x,1/2+y,-z
1/2-x,1/2-y,-z
1/2+x,1/2-y,z
loop_
_atom_site_type_symbol
_atom_site_label
_atom_site_fract_x
_atom_site_fract_y
_atom_site_fract_z
Si Si1 0.489560 0.822996 0.647578
Si Si2 0.643796 0.321589 0.511657
Si Si3 0.769794 0.177390 0.087835
Si Si4 0.398741 0.823383 0.949925
Si Si5 0.370161 0.177453 0.159861
Si Si6 0.390636 0.179231 0.283312
Si Si7 0.681295 0.176860 0.385227
O O1 0.561708 0.731003 0.583144
O O2 0.513345 0.785292 0.704954
O O3 0.377545 0.800030 0.655253
O O4 0.512537 0.000000 0.634213
O O5 0.649381 0.500000 0.506982
O O6 0.750000 0.250000 0.500000
O O7 0.626331 0.254284 0.455236
O O8 0.663908 0.213728 0.087452
O O9 0.789024 0.247413 0.142792
O O10 0.775886 0.000000 0.091241
O O11 0.853752 0.236392 0.016820
O O12 0.518437 0.796298 0.902845
O O13 0.383094 0.000000 0.964799
O O14 0.383509 0.227068 0.220493
O O15 0.350935 0.000000 0.166637
O O16 0.292858 0.250293 0.344524
O O17 0.383419 0.000000 0.284678
O O18 0.687128 0.000000 0.393692
#
# Coordination Sequence:
#
# PCOD9224441 Si02
#       7
#     8   8   8   8   8   8   8
#     4  10  22  40  61  85 115 151 191 234 285 343
#     4  12  23  37  61  89 118 149 187 236 290 341
#     4  10  20  34  56  86 115 143 183 235 287 332
#     4   9  19  36  57  81 113 150 187 226 278 343
#     4  10  21  37  57  80 110 152 195 228 276 338
#     4  10  22  40  59  80 111 153 194 235 280 334
#     4  11  23  39  61  88 116 149 190 236 289 344
#
# _framework density 9.9788940000000004
#
# number of rings (size 3 to 8) (size 9 to 14) (size 15 to 20)
#    0.000    1.714    1.429    3.000    0.000    7.429 
#    0.000    2.857    0.000    0.000    0.000    0.000 
#    0.000    0.000    0.000    0.000    0.000    0.000 
#
# Total GULP energy -156304.462435 kJ/mol
# GULP energy per Si atom -5582.302230 kJ/mol
# Density = 0.995618 g / cm^3
# Si number density = 9.978894 Si / 1000 Ang^3
#
#
#
# Elastic Constant Matrix: (Units=GPa)
#
#
# Indices 1 2 3 4 5 6 
#
# 1 103.2667 24.1659 21.0127 0.0000 40.6209 0.0000
# 2 24.1659 36.2051 8.1722 0.0000 15.1521 0.0000
# 3 21.0127 8.1722 43.0365 0.0000 36.3372 0.0000
# 4 0.0000 0.0000 0.0000 29.5873 0.0000 9.9135
# 5 40.6209 15.1521 36.3372 0.0000 44.5358 0.0000
# 6 0.0000 0.0000 0.0000 9.9135 0.0000 27.3353
#
#
#
# Elastic Compliance Matrix: (Units=1/GPa)
#
#
# Indices 1 2 3 4 5 6 
#
# 1 0.018593 -0.004095 0.015564 0.000000 -0.028264 0.000000
# 2 -0.004095 0.034528 0.007097 0.000000 -0.013803 0.000000
# 3 0.015564 0.007097 0.091013 0.000000 -0.090869 0.000000
# 4 0.000000 0.000000 0.000000 0.038473 0.000000 -0.013953
# 5 -0.028264 -0.013803 -0.090869 0.000000 0.127071 0.000000
# 6 0.000000 0.000000 0.000000 -0.013953 0.000000 0.041643
#
#
# Mechanical properties :
#
#
# Convention : Reuss Voigt Hill
#
# Bulk Modulus (GPa) = 5.51670 32.13445 18.82558
# Shear Modulus (GPa) = 13.34719 28.90217 21.12468
#
# Velocity S-wave (km/s) = 2.58887 3.80960 3.25694
# Velocity P-wave (km/s) = 3.42147 5.95709 4.85765
#
# Compressibility (1/GPa) = 0.18126770
#
# Stress axis : x y z
#
# Youngs Moduli (GPa) = 53.78400 28.96183 10.98741
#
# Poissons Ratio (x) = 0.11859 -0.17101
# Poissons Ratio (y) = 0.22022 -0.07798
# Poissons Ratio (z) = -0.83709 -0.20555
#
# Static dielectric constant tensor:
#      x y z
#    x 1.755770 0.000000 0.008450 
#    y 0.000000 1.666640 0.000000 
#    z 0.008450 0.000000 1.691970 
# 
# From -- ./inp_files/338536.got.cif
#   From: 2010.05.17/outbox.ucp.g08.bks.cvg/sg12_170_cif.got.tgz:338536.got - 2010.06.11 11:47:21.
