data_PCOD9224871
_publ_section_title
;
Structure prediction by ZEFSAII (Michael W. Deem and Ramdas Pophale) SiO2 
 PCOD9224871
Probable space group: C 2/M
;
_chemical_formula_sum "Si O2"
_cell_formula_units_Z 28
_cell_length_a 9.000000
_cell_length_b 18.000000
_cell_length_c 18.000000
_cell_angle_alpha 90.000000
_cell_angle_beta 110.000000
_cell_angle_gamma 90.000000
_cell_volume 2740.143682
_symmetry_space_group_name_H-M "C 2/M"
_symmetry_group_IT_number 12
_symmetry_cell_setting 'monoclinic'
loop_
_space_group_symop_operation_xyz
x,y,z
-x,y,-z
-x,-y,-z
x,-y,z
1/2+x,1/2+y,z
1/2-x,1/2+y,-z
1/2-x,1/2-y,-z
1/2+x,1/2-y,z
loop_
_atom_site_type_symbol
_atom_site_label
_atom_site_fract_x
_atom_site_fract_y
_atom_site_fract_z
Si Si1 0.715619 0.085352 0.176943
Si Si2 0.915261 0.587470 0.560055
Si Si3 0.464088 0.910719 0.257839
Si Si4 0.672652 0.209047 0.056605
Si Si5 0.203452 0.795758 0.212213
Si Si6 0.642188 0.678530 0.470032
Si Si7 0.546272 0.324266 0.710832
O O1 0.567625 0.110997 0.203268
O O2 0.740256 0.135533 0.108418
O O3 0.863677 0.099427 0.256739
O O4 0.695373 0.000000 0.154613
O O5 0.946754 0.500000 0.567145
O O6 0.964037 0.615623 0.650224
O O7 0.735341 0.606563 0.513576
O O8 0.000000 0.618444 0.500000
O O9 0.294118 0.873437 0.224015
O O10 0.459721 0.000000 0.257763
O O11 0.670744 0.266289 0.124677
O O12 0.500000 0.187509 0.000000
O O13 0.750000 0.250000 0.000000
O O14 0.318928 0.738038 0.274729
O O15 0.045569 0.800990 0.231323
O O16 0.500000 0.690213 0.500000
O O17 0.750000 0.750000 0.500000
O O18 0.576509 0.671466 0.376292
#
# Coordination Sequence:
#
# PCOD9224871 Si02
#       7
#     8   8   8   8   8   8   8
#     4  10  22  40  61  87 117 152 193 236 288 349
#     4  10  21  37  56  81 116 157 199 244 292 337
#     4  10  20  37  60  84 116 156 198 240 282 339
#     4  11  22  39  62  88 114 144 182 230 289 350
#     4  11  21  38  59  83 113 148 192 232 286 351
#     4  12  23  35  54  82 116 153 199 250 295 334
#     4  11  22  36  58  82 114 156 196 243 287 342
#
# _framework density 10.218442
#
# number of rings (size 3 to 8) (size 9 to 14) (size 15 to 20)
#    0.000    1.286    0.000    8.143    0.000    1.714 
#    0.000    0.714    0.000    1.714    0.000    0.000 
#    0.000    0.000    0.000    0.000    0.000    0.000 
#
# Total GULP energy -156227.444351 kJ/mol
# GULP energy per Si atom -5579.551584 kJ/mol
# Density = 1.019518 g / cm^3
# Si number density = 10.218442 Si / 1000 Ang^3
#
#
#
# Elastic Constant Matrix: (Units=GPa)
#
#
# Indices 1 2 3 4 5 6 
#
# 1 64.4605 24.1679 -3.4471 0.0000 -2.8063 0.0000
# 2 24.1679 37.5528 25.8389 0.0000 -11.5302 0.0000
# 3 -3.4471 25.8389 105.9052 0.0000 5.9629 0.0000
# 4 0.0000 0.0000 0.0000 25.0398 0.0000 8.8699
# 5 -2.8063 -11.5302 5.9629 0.0000 34.6756 0.0000
# 6 0.0000 0.0000 0.0000 8.8699 0.0000 19.7974
#
#
#
# Elastic Compliance Matrix: (Units=1/GPa)
#
#
# Indices 1 2 3 4 5 6 
#
# 1 0.023673 -0.021590 0.006396 0.000000 -0.006363 0.000000
# 2 -0.021590 0.057658 -0.015905 0.000000 0.020160 0.000000
# 3 0.006396 -0.015905 0.013935 0.000000 -0.007167 0.000000
# 4 0.000000 0.000000 0.000000 0.047470 0.000000 -0.021268
# 5 -0.006363 0.020160 -0.007167 0.000000 0.036260 0.000000
# 6 0.000000 0.000000 0.000000 -0.021268 0.000000 0.060040
#
#
# Mechanical properties :
#
#
# Convention : Reuss Voigt Hill
#
# Bulk Modulus (GPa) = 30.24114 33.44866 31.84490
# Shear Modulus (GPa) = 16.01245 26.65983 21.33614
#
# Velocity S-wave (km/s) = 2.80216 3.61570 3.23461
# Velocity P-wave (km/s) = 5.02980 5.81665 5.43748
#
# Compressibility (1/GPa) = 0.03306754
#
# Stress axis : x y z
#
# Youngs Moduli (GPa) = 42.24196 17.34366 71.76309
#
# Poissons Ratio (x) = 0.37445 -0.45903
# Poissons Ratio (y) = 0.91202 1.14141
# Poissons Ratio (z) = -0.27020 0.27586
#
# Static dielectric constant tensor:
#      x y z
#    x 1.748930 0.000000 -0.054720 
#    y 0.000000 1.781770 0.000000 
#    z -0.054720 0.000000 1.821190 
# 
# From -- ./inp_files/257202.got.cif
#   From: 2010.05.17/outbox.ucp.g08.bks.cvg/sg12_129_cif.got.tgz:257202.got - 2010.06.11 11:47:21.
