data_PCOD9224201
_publ_section_title
;
Structure prediction by ZEFSAII (Michael W. Deem and Ramdas Pophale) SiO2 
 PCOD9224201
Probable space group: C 2/M
;
_chemical_formula_sum "Si O2"
_cell_formula_units_Z 24
_cell_length_a 9.000000
_cell_length_b 27.000000
_cell_length_c 12.000000
_cell_angle_alpha 90.000000
_cell_angle_beta 120.000000
_cell_angle_gamma 90.000000
_cell_volume 2525.330077
_symmetry_space_group_name_H-M "C 2/M"
_symmetry_group_IT_number 12
_symmetry_cell_setting 'monoclinic'
loop_
_space_group_symop_operation_xyz
x,y,z
-x,y,-z
-x,-y,-z
x,-y,z
1/2+x,1/2+y,z
1/2-x,1/2+y,-z
1/2-x,1/2-y,-z
1/2+x,1/2-y,z
loop_
_atom_site_type_symbol
_atom_site_label
_atom_site_fract_x
_atom_site_fract_y
_atom_site_fract_z
Si Si1 0.454346 0.258249 0.743571
Si Si2 0.540693 0.554857 0.647045
Si Si3 0.304874 0.793362 0.884446
Si Si4 0.612138 0.098164 0.147342
Si Si5 0.998169 0.351519 0.322120
Si Si6 0.294428 0.358016 0.607337
O O1 0.310971 0.240220 0.776302
O O2 0.627262 0.276417 0.872580
O O3 0.493587 0.207150 0.696160
O O4 0.386006 0.304296 0.646352
O O5 0.500000 0.558142 0.500000
O O6 0.487704 0.500000 0.664677
O O7 0.741021 0.562624 0.750529
O O8 0.431857 0.598503 0.661123
O O9 0.291875 0.851563 0.855846
O O10 0.500000 0.788862 0.000000
O O11 0.496093 0.118280 0.206037
O O12 0.500000 0.080194 0.000000
O O13 0.835095 0.361900 0.337467
O O14 0.173526 0.363553 0.453790
#
# Coordination Sequence:
#
# PCOD9224201 Si02
#       6
#     8   8   8   8   8   8
#     4  11  19  34  52  85 120 160 195 240 290 350
#     4  11  23  42  67  91 114 152 203 256 309 355
#     4  10  20  32  52  81 122 163 199 232 281 356
#     4  10  21  40  63  88 124 160 200 245 295 358
#     4  10  22  37  57  91 123 159 199 236 299 363
#     4  11  21  38  59  87 123 155 198 253 299 350
#
# _framework density 9.5037079999999996
#
# number of rings (size 3 to 8) (size 9 to 14) (size 15 to 20)
#    0.000    1.500    5.000    1.000    0.000    0.333 
#    3.000    3.333    0.000    1.000    0.000    0.000 
#    0.000    0.000    0.000    0.000    0.000    0.000 
#
# Total GULP energy -133716.069621 kJ/mol
# GULP energy per Si atom -5571.502901 kJ/mol
# Density = 0.948208 g / cm^3
# Si number density = 9.503708 Si / 1000 Ang^3
#
#
#
# Elastic Constant Matrix: (Units=GPa)
#
#
# Indices 1 2 3 4 5 6 
#
# 1 44.1700 19.3668 27.2294 0.0000 13.9582 0.0000
# 2 19.3668 75.3768 18.4112 0.0000 -1.3185 0.0000
# 3 27.2294 18.4112 101.0631 0.0000 9.0702 0.0000
# 4 0.0000 0.0000 0.0000 4.8122 0.0000 0.6346
# 5 13.9582 -1.3185 9.0702 0.0000 20.2997 0.0000
# 6 0.0000 0.0000 0.0000 0.6346 0.0000 16.0027
#
#
#
# Elastic Compliance Matrix: (Units=1/GPa)
#
#
# Indices 1 2 3 4 5 6 
#
# 1 0.037908 -0.008560 -0.006526 0.000000 -0.023705 0.000000
# 2 -0.008560 0.015905 -0.001263 0.000000 0.007483 0.000000
# 3 -0.006526 -0.001263 0.011968 0.000000 -0.000942 0.000000
# 4 0.000000 0.000000 0.000000 0.208896 0.000000 -0.008284
# 5 -0.023705 0.007483 -0.000942 0.000000 0.066469 0.000000
# 6 0.000000 0.000000 0.000000 -0.008284 0.000000 0.062818
#
#
# Mechanical properties :
#
#
# Convention : Reuss Voigt Hill
#
# Bulk Modulus (GPa) = 30.22811 38.95832 34.59322
# Shear Modulus (GPa) = 11.16843 18.59641 14.88242
#
# Velocity S-wave (km/s) = 2.42664 3.13129 2.80121
# Velocity P-wave (km/s) = 4.87743 5.79778 5.35740
#
# Compressibility (1/GPa) = 0.03308179
#
# Stress axis : x y z
#
# Youngs Moduli (GPa) = 26.37986 62.87147 83.55746
#
# Poissons Ratio (x) = 0.53820 0.54534
# Poissons Ratio (y) = 0.22582 0.10552
# Poissons Ratio (z) = 0.17217 0.07939
#
# Static dielectric constant tensor:
#      x y z
#    x 1.701240 0.000000 0.013890 
#    y 0.000000 1.635810 0.000000 
#    z 0.013890 0.000000 1.730210 
# 
# From -- ./inp_files/121819.got.cif
#   From: 2010.05.17/outbox.ucp.g08.bks.cvg/sg12_61_cif.got.tgz:121819.got - 2010.06.11 11:47:21.
