data_PCOD9224740
_publ_section_title
;
Structure prediction by ZEFSAII (Michael W. Deem and Ramdas Pophale) SiO2 
 PCOD9224740
Probable space group: C 2/M
;
_chemical_formula_sum "Si O2"
_cell_formula_units_Z 28
_cell_length_a 27.000000
_cell_length_b 9.000000
_cell_length_c 18.000000
_cell_angle_alpha 90.000000
_cell_angle_beta 40.000000
_cell_angle_gamma 90.000000
_cell_volume 2811.553005
_symmetry_space_group_name_H-M "C 2/M"
_symmetry_group_IT_number 12
_symmetry_cell_setting 'monoclinic'
loop_
_space_group_symop_operation_xyz
x,y,z
-x,y,-z
-x,-y,-z
x,-y,z
1/2+x,1/2+y,z
1/2-x,1/2+y,-z
1/2-x,1/2-y,-z
1/2+x,1/2-y,z
loop_
_atom_site_type_symbol
_atom_site_label
_atom_site_fract_x
_atom_site_fract_y
_atom_site_fract_z
Si Si1 0.330876 0.177199 0.928801
Si Si2 0.333026 0.820799 0.375522
Si Si3 0.344920 0.324048 0.655703
Si Si4 0.437152 0.325534 0.686335
Si Si5 0.109044 0.826200 0.548834
Si Si6 0.085831 0.177647 0.866768
Si Si7 0.826516 0.324550 0.100660
O O1 0.392422 0.234161 0.799539
O O2 0.322845 0.000000 0.936032
O O3 0.250000 0.250000 0.000000
O O4 0.353558 0.217525 0.987219
O O5 0.250000 0.750000 0.500000
O O6 0.386641 0.773475 0.383356
O O7 0.375496 0.755898 0.251658
O O8 0.324715 0.000000 0.377250
O O9 0.358896 0.500000 0.628100
O O10 0.411843 0.270316 0.633826
O O11 0.336791 0.267949 0.580624
O O12 0.265647 0.307698 0.790763
O O13 0.413515 0.500000 0.717473
O O14 0.526377 0.320447 0.603896
O O15 0.125759 0.000000 0.549319
O O16 0.139497 0.225170 0.873605
O O17 0.085085 0.000000 0.854004
O O18 0.000000 0.217862 0.000000
O O19 0.843766 0.500000 0.094377
#
# Coordination Sequence:
#
# PCOD9224740 Si02
#       7
#     8   8   8   8   8   8   8
#     4  11  22  37  58  88 123 164 209 252 305 368
#     4  12  26  46  71  96 129 170 220 273 328 390
#     4   9  17  35  60  89 122 160 204 248 298 365
#     4  10  20  36  58  88 126 165 204 249 305 372
#     4  10  21  37  64  94 123 161 207 256 315 374
#     4  11  26  46  68  97 131 167 215 273 334 394
#     4  10  21  38  62  89 122 164 211 257 311 377
#
# _framework density 9.9589090000000002
#
# number of rings (size 3 to 8) (size 9 to 14) (size 15 to 20)
#    0.000    1.571    1.429    3.429    2.000    5.714 
#    0.000    0.714    0.000    1.714    0.000    0.000 
#    0.000    0.000    0.000    0.000    0.000    0.000 
#
# Total GULP energy -156149.455399 kJ/mol
# GULP energy per Si atom -5576.766264 kJ/mol
# Density = 0.993624 g / cm^3
# Si number density = 9.958909 Si / 1000 Ang^3
#
#
#
# Elastic Constant Matrix: (Units=GPa)
#
#
# Indices 1 2 3 4 5 6 
#
# 1 98.0340 29.2848 36.7195 0.0062 23.0972 -0.0013
# 2 29.2848 72.7508 39.6398 0.0056 13.1350 -0.0013
# 3 36.7195 39.6398 117.2538 0.0097 24.7047 -0.0031
# 4 0.0062 0.0056 0.0097 34.9887 -0.0044 4.2878
# 5 23.0972 13.1350 24.7047 -0.0044 44.3797 0.0005
# 6 -0.0013 -0.0013 -0.0031 4.2878 0.0005 29.8611
#
#
#
# Elastic Compliance Matrix: (Units=1/GPa)
#
#
# Indices 1 2 3 4 5 6 
#
# 1 0.013040 -0.003328 -0.001967 -0.000002 -0.004707 0.000001
# 2 -0.003328 0.017866 -0.004813 -0.000001 -0.000877 0.000000
# 3 -0.001967 -0.004813 0.011619 -0.000003 -0.004019 0.000001
# 4 -0.000002 -0.000001 -0.000003 0.029093 0.000006 -0.004177
# 5 -0.004707 -0.000877 -0.004019 0.000006 0.027479 -0.000002
# 6 0.000001 0.000000 0.000001 -0.004177 -0.000002 0.034088
#
#
# Mechanical properties :
#
#
# Convention : Reuss Voigt Hill
#
# Bulk Modulus (GPa) = 44.82463 55.48075 50.15269
# Shear Modulus (GPa) = 31.08744 34.00555 32.54650
#
# Velocity S-wave (km/s) = 3.95496 4.13642 4.04671
# Velocity P-wave (km/s) = 6.58857 7.12240 6.86068
#
# Compressibility (1/GPa) = 0.02230916
#
# Stress axis : x y z
#
# Youngs Moduli (GPa) = 76.68532 55.97289 86.06939
#
# Poissons Ratio (x) = 0.18625 0.16931
# Poissons Ratio (y) = 0.25517 0.41426
# Poissons Ratio (z) = 0.15085 0.26940
#
# Static dielectric constant tensor:
#      x y z
#    x 1.735660 0.000000 -0.010180 
#    y 0.000000 1.684220 0.000000 
#    z -0.010180 0.000000 1.764240 
# 
# From -- ./inp_files/292456.got.cif
#   From: 2010.05.17/outbox.ucp.g08.bks.cvg/sg12_147_cif.got.tgz:292456.got - 2010.06.11 11:47:21.
