data_PCOD9224411
_publ_section_title
;
Structure prediction by ZEFSAII (Michael W. Deem and Ramdas Pophale) SiO2 
 PCOD9224411
Probable space group: C 2/M
;
_chemical_formula_sum "Si O2"
_cell_formula_units_Z 28
_cell_length_a 24.000000
_cell_length_b 9.000000
_cell_length_c 15.000000
_cell_angle_alpha 90.000000
_cell_angle_beta 60.000000
_cell_angle_gamma 90.000000
_cell_volume 2805.922308
_symmetry_space_group_name_H-M "C 2/M"
_symmetry_group_IT_number 12
_symmetry_cell_setting 'monoclinic'
loop_
_space_group_symop_operation_xyz
x,y,z
-x,y,-z
-x,-y,-z
x,-y,z
1/2+x,1/2+y,z
1/2-x,1/2+y,-z
1/2-x,1/2-y,-z
1/2+x,1/2-y,z
loop_
_atom_site_type_symbol
_atom_site_label
_atom_site_fract_x
_atom_site_fract_y
_atom_site_fract_z
Si Si1 0.561116 0.169256 0.698554
Si Si2 0.704684 0.173840 0.807315
Si Si3 0.495562 0.329587 0.100447
Si Si4 0.531081 0.820017 0.382172
Si Si5 0.794521 0.670443 0.394806
Si Si6 0.857268 0.171042 0.975583
Si Si7 0.841821 0.175051 0.790821
O O1 0.553307 0.250497 0.797182
O O2 0.516238 0.233251 0.658217
O O3 0.635404 0.171081 0.616902
O O4 0.540238 0.000000 0.729162
O O5 0.702211 0.234009 0.708384
O O6 0.776990 0.186549 0.786688
O O7 0.686112 0.000000 0.818024
O O8 0.662823 0.249370 0.917685
O O9 0.475390 0.500000 0.105226
O O10 0.565422 0.325093 0.089574
O O11 0.500000 0.259124 0.000000
O O12 0.500000 0.772242 0.500000
O O13 0.600993 0.758396 0.304529
O O14 0.533024 0.000000 0.380817
O O15 0.772976 0.500000 0.401143
O O16 0.750000 0.750000 0.500000
O O17 0.832952 0.232225 0.899886
O O18 0.835840 0.000000 0.000044
O O19 0.858507 0.000000 0.785869
#
# Coordination Sequence:
#
# PCOD9224411 Si02
#       7
#     8   8   8   8   8   8   8
#     4  10  21  38  58  82 113 146 185 231 277 328
#     4  10  22  38  57  83 115 149 188 231 276 331
#     4  10  20  34  55  83 115 148 184 227 274 329
#     4  10  22  38  58  85 113 146 189 233 279 332
#     4  10  23  41  59  83 113 147 189 234 277 329
#     4  10  20  35  55  83 115 147 186 228 275 332
#     4  10  21  38  58  84 116 148 185 230 279 333
#
# _framework density 9.9788940000000004
#
# number of rings (size 3 to 8) (size 9 to 14) (size 15 to 20)
#    0.000    2.000    1.429    1.286    2.000    3.429 
#    0.000    0.000    0.000    0.000    0.000    0.000 
#    0.000    0.000    0.000    0.000    0.000    0.000 
#
# Total GULP energy -156126.426578 kJ/mol
# GULP energy per Si atom -5575.943806 kJ/mol
# Density = 0.995618 g / cm^3
# Si number density = 9.978894 Si / 1000 Ang^3
#
#
#
# Elastic Constant Matrix: (Units=GPa)
#
#
# Indices 1 2 3 4 5 6 
#
# 1 22.9283 11.5259 15.4192 0.0000 4.3494 0.0000
# 2 11.5259 15.0495 39.9920 0.0000 -13.1036 0.0000
# 3 15.4192 39.9920 127.8481 0.0000 -13.1972 0.0000
# 4 0.0000 0.0000 0.0000 30.6642 0.0000 3.2196
# 5 4.3494 -13.1036 -13.1972 0.0000 7.4852 0.0000
# 6 0.0000 0.0000 0.0000 3.2196 0.0000 12.6810
#
#
#
# Elastic Compliance Matrix: (Units=1/GPa)
#
#
# Indices 1 2 3 4 5 6 
#
# 1 0.026543 0.038529 -0.012082 0.000000 0.030723 0.000000
# 2 0.038529 -0.038261 -0.002327 0.000000 -0.093469 0.000000
# 3 -0.012082 -0.002327 0.012605 0.000000 0.025171 0.000000
# 4 0.000000 0.000000 0.000000 0.033504 0.000000 -0.008507
# 5 0.030723 -0.093469 0.025171 0.000000 -0.003503 0.000000
# 6 0.000000 0.000000 0.000000 -0.008507 0.000000 0.081018
#
#
# Mechanical properties :
#
#
# Convention : Reuss Voigt Hill
#
# Bulk Modulus (GPa) = 20.35529 33.30003 26.82766
# Shear Modulus (GPa) = 62.46684 16.75867 39.61275
#
# Velocity S-wave (km/s) = 5.60066 2.90091 4.45997
# Velocity P-wave (km/s) = 7.21419 5.28600 6.32402
#
# Compressibility (1/GPa) = 0.04912728
#
# Stress axis : x y z
#
# Youngs Moduli (GPa) = 37.67466 -26.13652 79.33277
#
# Poissons Ratio (x) = 1.00701 0.95850
# Poissons Ratio (y) = -1.45156 0.18461
# Poissons Ratio (z) = 0.45518 -0.06082
#
# Static dielectric constant tensor:
#      x y z
#    x 1.722570 0.000000 0.020340 
#    y 0.000000 1.714950 0.000000 
#    z 0.020340 0.000000 1.686300 
# 
# From -- ./inp_files/238347.got.cif
#   From: 2010.05.17/outbox.ucp.g08.bks.cvg/sg12_120_cif.got.tgz:238347.got - 2010.06.11 11:47:21.
