data_PCOD9224238
_publ_section_title
;
Structure prediction by ZEFSAII (Michael W. Deem and Ramdas Pophale) SiO2 
 PCOD9224238
Probable space group: C 2/M
;
_chemical_formula_sum "Si O2"
_cell_formula_units_Z 28
_cell_length_a 21.000000
_cell_length_b 9.000000
_cell_length_c 21.000000
_cell_angle_alpha 90.000000
_cell_angle_beta 60.000000
_cell_angle_gamma 90.000000
_cell_volume 3437.254828
_symmetry_space_group_name_H-M "C 2/M"
_symmetry_group_IT_number 12
_symmetry_cell_setting 'monoclinic'
loop_
_space_group_symop_operation_xyz
x,y,z
-x,y,-z
-x,-y,-z
x,-y,z
1/2+x,1/2+y,z
1/2-x,1/2+y,-z
1/2-x,1/2-y,-z
1/2+x,1/2-y,z
loop_
_atom_site_type_symbol
_atom_site_label
_atom_site_fract_x
_atom_site_fract_y
_atom_site_fract_z
Si Si1 0.177337 0.322805 0.506562
Si Si2 0.064969 0.321447 0.231290
Si Si3 0.795337 0.179725 0.766325
Si Si4 0.243922 0.823134 0.660718
Si Si5 0.406851 0.320718 0.342279
Si Si6 0.363329 0.331325 0.922597
Si Si7 0.704619 0.169015 0.931943
O O1 0.174837 0.500000 0.519396
O O2 0.250000 0.250000 0.500000
O O3 0.192000 0.300448 0.424357
O O4 0.112928 0.242561 0.577561
O O5 0.063700 0.500000 0.238034
O O6 0.128178 0.253295 0.246862
O O7 0.090103 0.272255 0.147714
O O8 0.984288 0.251766 0.283571
O O9 0.767634 0.234892 0.711663
O O10 0.731474 0.220923 0.849351
O O11 0.803756 0.000000 0.764190
O O12 0.164076 0.783653 0.668334
O O13 0.240540 0.000000 0.675890
O O14 0.412034 0.500000 0.340999
O O15 0.391937 0.500000 0.908119
O O16 0.281812 0.335751 0.932083
O O17 0.350803 0.268335 0.999537
O O18 0.676862 0.000000 0.941854
#
# Coordination Sequence:
#
# PCOD9224238 Si02
#       7
#     8   8   8   8   8   8   8
#     4   9  17  31  51  75 100 129 167 207 246 291
#     4  11  21  33  51  74 103 135 166 205 252 299
#     4  10  20  33  51  75 104 134 166 206 248 295
#     4   9  19  34  53  76 102 131 163 203 248 296
#     4  10  20  35  54  76 102 131 167 209 250 296
#     4   9  16  27  45  69  96 127 164 204 244 290
#     4   8  15  27  43  67  96 127 163 201 242 288
#
# _framework density 8.1460360000000005
#
# number of rings (size 3 to 8) (size 9 to 14) (size 15 to 20)
#    0.000    2.571    0.000    4.714    0.000    7.429 
#    0.000    0.714    0.000    5.143    0.000    6.000 
#    0.000    0.000    0.000    0.000    0.000    0.000 
#
# Total GULP energy -155893.892763 kJ/mol
# GULP energy per Si atom -5567.639027 kJ/mol
# Density = 0.812749 g / cm^3
# Si number density = 8.146036 Si / 1000 Ang^3
#
#
#
# Elastic Constant Matrix: (Units=GPa)
#
#
# Indices 1 2 3 4 5 6 
#
# 1 64.1184 42.8933 54.5963 0.0000 -1.1353 -0.0001
# 2 42.8933 105.5924 70.4846 -0.0001 0.2847 -0.0002
# 3 54.5963 70.4846 135.4143 0.0000 3.2413 0.0000
# 4 0.0000 -0.0001 0.0000 32.3827 0.0000 -0.9004
# 5 -1.1353 0.2847 3.2413 0.0000 21.8008 0.0000
# 6 -0.0001 -0.0002 0.0000 -0.9004 0.0000 26.0715
#
#
#
# Elastic Compliance Matrix: (Units=1/GPa)
#
#
# Indices 1 2 3 4 5 6 
#
# 1 0.025738 -0.005355 -0.007651 0.000000 0.002548 0.000000
# 2 -0.005355 0.015646 -0.005995 0.000000 0.000408 0.000000
# 3 -0.007651 -0.005995 0.013646 0.000000 -0.002349 0.000000
# 4 0.000000 0.000000 0.000000 0.030910 0.000000 0.001067
# 5 0.002548 0.000408 -0.002349 0.000000 0.046346 0.000000
# 6 0.000000 0.000000 0.000000 0.001067 0.000000 0.038393
#
#
# Mechanical properties :
#
#
# Convention : Reuss Voigt Hill
#
# Bulk Modulus (GPa) = 58.72277 71.23041 64.97659
# Shear Modulus (GPa) = 23.32555 25.19441 24.25998
#
# Velocity S-wave (km/s) = 3.78790 3.93672 3.86303
# Velocity P-wave (km/s) = 7.43323 8.02992 7.73733
#
# Compressibility (1/GPa) = 0.01702917
#
# Stress axis : x y z
#
# Youngs Moduli (GPa) = 38.85280 63.91332 73.28236
#
# Poissons Ratio (x) = 0.34227 0.56066
# Poissons Ratio (y) = 0.20806 0.43930
# Poissons Ratio (z) = 0.29725 0.38314
#
# Static dielectric constant tensor:
#      x y z
#    x 1.446350 0.000000 0.057460 
#    y 0.000000 1.552340 0.000000 
#    z 0.057460 0.000000 1.545360 
# 
# From -- ./inp_files/319021.got.cif
#   From: 2010.05.17/outbox.ucp.g08.bks.cvg/sg12_160_cif.got.tgz:319021.got - 2010.06.11 11:47:21.
