data_PCOD9224322
_publ_section_title
;
Structure prediction by ZEFSAII (Michael W. Deem and Ramdas Pophale) SiO2 
 PCOD9224322
Probable space group: C 2/M
;
_chemical_formula_sum "Si O2"
_cell_formula_units_Z 28
_cell_length_a 9.000000
_cell_length_b 27.000000
_cell_length_c 18.000000
_cell_angle_alpha 90.000000
_cell_angle_beta 40.000000
_cell_angle_gamma 90.000000
_cell_volume 2811.553005
_symmetry_space_group_name_H-M "C 2/M"
_symmetry_group_IT_number 12
_symmetry_cell_setting 'monoclinic'
loop_
_space_group_symop_operation_xyz
x,y,z
-x,y,-z
-x,-y,-z
x,-y,z
1/2+x,1/2+y,z
1/2-x,1/2+y,-z
1/2-x,1/2-y,-z
1/2+x,1/2-y,z
loop_
_atom_site_type_symbol
_atom_site_label
_atom_site_fract_x
_atom_site_fract_y
_atom_site_fract_z
Si Si1 0.604056 0.443474 0.039914
Si Si2 0.415448 0.691280 0.703808
Si Si3 0.731385 0.618572 0.125279
Si Si4 0.724325 0.786236 0.622401
Si Si5 0.223173 0.557670 0.597542
Si Si6 0.851378 0.360460 0.481675
Si Si7 0.861631 0.444561 0.208952
O O1 0.521989 0.500000 0.089261
O O2 0.581060 0.404046 0.115474
O O3 0.500000 0.429006 0.000000
O O4 0.878272 0.446954 0.920829
O O5 0.325376 0.671228 0.816813
O O6 0.580166 0.737560 0.658255
O O7 0.230720 0.701418 0.708403
O O8 0.588497 0.650099 0.605158
O O9 0.717584 0.581865 0.200782
O O10 0.000000 0.619539 0.000000
O O11 0.621706 0.824985 0.601335
O O12 0.000000 0.779801 0.500000
O O13 0.500000 0.563541 0.500000
O O14 0.165596 0.500000 0.613842
O O15 0.128172 0.585858 0.562553
O O16 0.130098 0.578084 0.711993
O O17 0.000000 0.352526 0.500000
O O18 0.768932 0.500000 0.254208
#
# Coordination Sequence:
#
# PCOD9224322 Si02
#       7
#     8   8   8   8   8   8   8
#     4   9  18  33  53  78 107 138 177 222 258 296
#     4  11  21  37  58  79 103 134 175 223 269 311
#     4  10  20  34  53  78 104 137 177 214 258 314
#     4  10  20  37  59  81 103 131 175 223 265 315
#     4  10  20  34  52  78 112 146 177 210 257 316
#     4  11  21  34  55  82 109 139 175 215 262 314
#     4   9  17  32  53  74 101 140 179 212 250 301
#
# _framework density 9.9589090000000002
#
# number of rings (size 3 to 8) (size 9 to 14) (size 15 to 20)
#    0.000    2.000    0.000    6.429    0.000    3.143 
#    0.000    4.286    0.000    0.000    0.000    0.000 
#    0.000    0.000    0.000    0.000    0.000    0.000 
#
# Total GULP energy -155987.996416 kJ/mol
# GULP energy per Si atom -5570.999872 kJ/mol
# Density = 0.993624 g / cm^3
# Si number density = 9.958909 Si / 1000 Ang^3
#
#
#
# Elastic Constant Matrix: (Units=GPa)
#
#
# Indices 1 2 3 4 5 6 
#
# 1 160.1880 66.5079 15.4454 0.0000 36.4173 0.0000
# 2 66.5079 93.8668 34.3445 0.0000 20.5431 0.0000
# 3 15.4454 34.3445 38.6603 0.0000 25.7656 0.0000
# 4 0.0000 0.0000 0.0000 22.3240 0.0000 11.7990
# 5 36.4173 20.5431 25.7656 0.0000 24.5001 0.0000
# 6 0.0000 0.0000 0.0000 11.7990 0.0000 21.1239
#
#
#
# Elastic Compliance Matrix: (Units=1/GPa)
#
#
# Indices 1 2 3 4 5 6 
#
# 1 0.859476 -0.839507 2.623469 -0.000007 -3.332598 0.000010
# 2 -0.839507 0.835975 -2.580114 0.000006 3.260283 -0.000009
# 3 2.623469 -2.580114 8.113756 -0.000020-10.269020 0.000030
# 4 -0.000007 0.000006 -0.000020 0.063559 0.000026 -0.035502
# 5 -3.332598 3.260283-10.269020 0.000026 13.060171 -0.000038
# 6 0.000010 -0.000009 0.000030 -0.035502 -0.000038 0.067170
#
#
# Mechanical properties :
#
#
# Convention : Reuss Voigt Hill
#
# Bulk Modulus (GPa) = 0.12170 58.36785 29.24477
# Shear Modulus (GPa) = 0.18294 25.35074 12.76684
#
# Velocity S-wave (km/s) = 0.30339 3.57146 2.53450
# Velocity P-wave (km/s) = 0.42891 6.80992 4.82488
#
# Compressibility (1/GPa) = 8.21690344
#
# Stress axis : x y z
#
# Youngs Moduli (GPa) = 1.16350 1.19621 0.12325
#
# Poissons Ratio (x) = 1.00422 -0.32334
# Poissons Ratio (y) = 0.97677 0.31799
# Poissons Ratio (z) = -3.05241 3.08635
#
# Static dielectric constant tensor:
#      x y z
#    x 1.692950 0.000000 0.019780 
#    y 0.000000 1.798900 0.000000 
#    z 0.019780 0.000000 1.743670 
# 
# From -- ./inp_files/199912.got.cif
#   From: 2010.05.17/outbox.ucp.g08.bks.cvg/sg12_100_cif.got.tgz:199912.got - 2010.06.11 11:47:21.
