data_PCOD9224114
_publ_section_title
;
Structure prediction by ZEFSAII (Michael W. Deem and Ramdas Pophale) SiO2 
 PCOD9224114
Probable space group: C 2/M
;
_chemical_formula_sum "Si O2"
_cell_formula_units_Z 28
_cell_length_a 18.000000
_cell_length_b 24.000000
_cell_length_c 21.000000
_cell_angle_alpha 90.000000
_cell_angle_beta 160.000000
_cell_angle_gamma 90.000000
_cell_volume 3102.806740
_symmetry_space_group_name_H-M "C 2/M"
_symmetry_group_IT_number 12
_symmetry_cell_setting 'monoclinic'
loop_
_space_group_symop_operation_xyz
x,y,z
-x,y,-z
-x,-y,-z
x,-y,z
1/2+x,1/2+y,z
1/2-x,1/2+y,-z
1/2-x,1/2-y,-z
1/2+x,1/2-y,z
loop_
_atom_site_type_symbol
_atom_site_label
_atom_site_fract_x
_atom_site_fract_y
_atom_site_fract_z
Si Si1 0.519358 0.936795 0.836279
Si Si2 0.005131 0.936006 0.189495
Si Si3 0.388565 0.196631 0.592363
Si Si4 0.872301 0.905740 0.566916
Si Si5 0.166386 0.759750 0.005739
Si Si6 0.270263 0.832065 0.354046
Si Si7 0.854772 0.638687 0.946152
O O1 0.292389 0.936466 0.614269
O O2 0.556639 0.000000 0.888703
O O3 0.525705 0.896447 0.902050
O O4 0.744740 0.922492 0.979435
O O5 0.083006 0.931553 0.326590
O O6 0.146602 0.891765 0.263128
O O7 0.033385 0.000000 0.191343
O O8 0.250000 0.250000 0.500000
O O9 0.274043 0.148264 0.539078
O O10 0.348235 0.185212 0.486559
O O11 0.641916 0.203039 0.810400
O O12 0.114893 0.887960 0.740133
O O13 0.928876 0.788716 0.821785
O O14 0.250000 0.750000 0.000000
O O15 0.171837 0.700631 0.046389
O O16 0.500000 0.833440 0.500000
O O17 0.000000 0.639500 0.000000
#
# Coordination Sequence:
#
# PCOD9224114 Si02
#       7
#     8   8   8   8   8   8   8
#     4  10  21  39  64  87 110 152 204 249 293 348
#     4   9  19  39  62  87 118 154 200 246 290 352
#     4  11  20  36  61  85 113 156 199 242 295 353
#     4  10  19  37  60  88 114 148 205 248 292 354
#     4  12  22  40  62  83 119 160 201 248 293 357
#     4  11  25  37  57  93 125 157 196 246 304 352
#     4  11  25  38  55  86 122 156 191 244 309 358
#
# _framework density 9.0240880000000008
#
# number of rings (size 3 to 8) (size 9 to 14) (size 15 to 20)
#    0.000    1.429    2.857    3.857    2.000    1.714 
#    0.000    0.714    0.000    0.000    0.000    8.000 
#    0.000    0.000    0.000    0.000    0.000    0.000 
#
# Total GULP energy -156065.038243 kJ/mol
# GULP energy per Si atom -5573.751366 kJ/mol
# Density = 0.900355 g / cm^3
# Si number density = 9.024088 Si / 1000 Ang^3
#
#
#
# Elastic Constant Matrix: (Units=GPa)
#
#
# Indices 1 2 3 4 5 6 
#
# 1 79.1731 37.6427 24.2959 -0.0278 31.7642 0.0197
# 2 37.6427 94.6624 28.5415 -0.1509 10.8791 -0.0274
# 3 24.2959 28.5415 145.0629 -0.1800 15.2778 0.0364
# 4 -0.0278 -0.1509 -0.1800 32.0412 -0.0335 6.7325
# 5 31.7642 10.8791 15.2778 -0.0335 32.5424 0.0440
# 6 0.0197 -0.0274 0.0364 6.7325 0.0440 5.1325
#
#
#
# Elastic Compliance Matrix: (Units=1/GPa)
#
#
# Indices 1 2 3 4 5 6 
#
# 1 0.024937 -0.007285 -0.000459 -0.000068 -0.021690 0.000144
# 2 -0.007285 0.013617 -0.001818 0.000046 0.003412 0.000024
# 3 -0.000459 -0.001818 0.007592 0.000055 -0.002508 -0.000112
# 4 -0.000068 0.000046 0.000055 0.043086 0.000146 -0.056519
# 5 -0.021690 0.003412 -0.002508 0.000146 0.051938 -0.000518
# 6 0.000144 0.000024 -0.000112 -0.056519 -0.000518 0.268980
#
#
# Mechanical properties :
#
#
# Convention : Reuss Voigt Hill
#
# Bulk Modulus (GPa) = 37.00758 55.53983 46.27371
# Shear Modulus (GPa) = 11.40815 29.17111 20.28963
#
# Velocity S-wave (km/s) = 2.51688 4.02467 3.35654
# Velocity P-wave (km/s) = 5.38476 7.24136 6.38094
#
# Compressibility (1/GPa) = 0.02702149
#
# Stress axis : x y z
#
# Youngs Moduli (GPa) = 40.10085 73.43765 131.70939
#
# Poissons Ratio (x) = 0.53501 0.06045
# Poissons Ratio (y) = 0.29214 0.23949
# Poissons Ratio (z) = 0.01841 0.13354
#
# Static dielectric constant tensor:
#      x y z
#    x 1.609040 -0.000050 -0.010450 
#    y -0.000050 1.697060 0.000500 
#    z -0.010450 0.000500 1.640800 
# 
# From -- ./inp_files/286349.got.cif
#   From: 2010.05.17/outbox.ucp.g08.bks.cvg/sg12_144_cif.got.tgz:286349.got - 2010.06.11 11:47:21.
