data_PCOD9224318
_publ_section_title
;
Structure prediction by ZEFSAII (Michael W. Deem and Ramdas Pophale) SiO2 
 PCOD9224318
Probable space group: C 2/M
;
_chemical_formula_sum "Si O2"
_cell_formula_units_Z 28
_cell_length_a 18.000000
_cell_length_b 9.000000
_cell_length_c 24.000000
_cell_angle_alpha 90.000000
_cell_angle_beta 50.000000
_cell_angle_gamma 90.000000
_cell_volume 2978.380795
_symmetry_space_group_name_H-M "C 2/M"
_symmetry_group_IT_number 12
_symmetry_cell_setting 'monoclinic'
loop_
_space_group_symop_operation_xyz
x,y,z
-x,y,-z
-x,-y,-z
x,-y,z
1/2+x,1/2+y,z
1/2-x,1/2+y,-z
1/2-x,1/2-y,-z
1/2+x,1/2-y,z
loop_
_atom_site_type_symbol
_atom_site_label
_atom_site_fract_x
_atom_site_fract_y
_atom_site_fract_z
Si Si1 0.255664 0.676222 0.436294
Si Si2 0.904193 0.821932 0.693668
Si Si3 0.980620 0.318597 0.152305
Si Si4 0.695032 0.819912 0.842220
Si Si5 0.904651 0.671623 0.005584
Si Si6 0.610183 0.668000 0.428262
Si Si7 0.554276 0.821577 0.704227
O O1 0.265572 0.500000 0.437493
O O2 0.250000 0.750000 0.500000
O O3 0.163241 0.722621 0.444561
O O4 0.344375 0.745121 0.358893
O O5 0.802674 0.789926 0.771922
O O6 0.891105 0.783600 0.635255
O O7 0.984187 0.732876 0.688932
O O8 0.924983 0.000000 0.686090
O O9 0.982929 0.500000 0.150358
O O10 0.881651 0.272401 0.168167
O O11 0.981582 0.274942 0.216440
O O12 0.064754 0.265181 0.069090
O O13 0.683902 0.000000 0.850812
O O14 0.672242 0.758537 0.914951
O O15 0.877090 0.500000 0.008341
O O16 0.000000 0.669036 0.000000
O O17 0.500000 0.656564 0.500000
O O18 0.654017 0.500000 0.410046
O O19 0.563513 0.000000 0.699493
#
# Coordination Sequence:
#
# PCOD9224318 Si02
#       7
#     8   8   8   8   8   8   8
#     4  12  25  41  62  86 112 140 174 215 260 313
#     4  10  20  34  52  76 109 146 184 225 270 319
#     4   8  14  26  46  72 100 133 175 223 272 319
#     4   8  13  24  45  71  99 134 177 225 273 321
#     4   7  10  19  39  68  98 128 170 222 270 317
#     4  10  21  38  60  84 111 143 177 216 263 313
#     4  11  22  36  54  77 109 145 182 223 267 316
#
# _framework density 9.4010809999999996
#
# number of rings (size 3 to 8) (size 9 to 14) (size 15 to 20)
#    0.000    2.571    0.000    5.143    0.000    4.286 
#    0.000    0.714    0.000    0.000    0.000    1.000 
#    0.000    9.714    0.000    0.000    0.000    0.000 
#
# Total GULP energy -155988.774659 kJ/mol
# GULP energy per Si atom -5571.027666 kJ/mol
# Density = 0.937968 g / cm^3
# Si number density = 9.401081 Si / 1000 Ang^3
#
#
#
# Elastic Constant Matrix: (Units=GPa)
#
#
# Indices 1 2 3 4 5 6 
#
# 1 66.4247 34.3811 41.1265 0.0000 12.1462 0.0001
# 2 34.3811 50.5849 34.2383 0.0000 9.9978 0.0002
# 3 41.1265 34.2383 128.6995 0.0000 22.8534 0.0000
# 4 0.0000 0.0000 0.0000 22.4336 0.0000 -6.9759
# 5 12.1462 9.9978 22.8534 0.0000 27.1188 0.0000
# 6 0.0001 0.0002 0.0000 -6.9759 0.0000 24.7928
#
#
#
# Elastic Compliance Matrix: (Units=1/GPa)
#
#
# Indices 1 2 3 4 5 6 
#
# 1 0.025169 -0.013949 -0.003814 0.000000 -0.002916 0.000000
# 2 -0.013949 0.032234 -0.003666 0.000000 -0.002547 0.000000
# 3 -0.003814 -0.003666 0.011079 0.000000 -0.006276 0.000000
# 4 0.000000 0.000000 0.000000 0.048850 0.000000 0.013745
# 5 -0.002916 -0.002547 -0.006276 0.000000 0.044409 0.000000
# 6 0.000000 0.000000 0.000000 0.013745 0.000000 0.044202
#
#
# Mechanical properties :
#
#
# Convention : Reuss Voigt Hill
#
# Bulk Modulus (GPa) = 39.02539 51.68900 45.35719
# Shear Modulus (GPa) = 19.42947 23.93326 21.68136
#
# Velocity S-wave (km/s) = 3.21808 3.57164 3.39946
# Velocity P-wave (km/s) = 5.88294 6.67529 6.29160
#
# Compressibility (1/GPa) = 0.02562434
#
# Stress axis : x y z
#
# Youngs Moduli (GPa) = 39.73089 31.02332 90.26447
#
# Poissons Ratio (x) = 0.43274 0.34429
# Poissons Ratio (y) = 0.55420 0.33087
# Poissons Ratio (z) = 0.15155 0.11372
#
# Static dielectric constant tensor:
#      x y z
#    x 1.664220 0.000000 -0.020870 
#    y 0.000000 1.641560 0.000000 
#    z -0.020870 0.000000 1.713010 
# 
# From -- ./inp_files/342253.got.cif
#   From: 2010.05.17/outbox.ucp.g08.bks.cvg/sg12_172_cif.got.tgz:342253.got - 2010.06.11 11:47:21.
