data_PCOD9224639
_publ_section_title
;
Structure prediction by ZEFSAII (Michael W. Deem and Ramdas Pophale) SiO2 
 PCOD9224639
Probable space group: C 2/M
;
_chemical_formula_sum "Si O2"
_cell_formula_units_Z 32
_cell_length_a 30.000000
_cell_length_b 9.000000
_cell_length_c 24.000000
_cell_angle_alpha 90.000000
_cell_angle_beta 150.000000
_cell_angle_gamma 90.000000
_cell_volume 3240.000000
_symmetry_space_group_name_H-M "C 2/M"
_symmetry_group_IT_number 12
_symmetry_cell_setting 'monoclinic'
loop_
_space_group_symop_operation_xyz
x,y,z
-x,y,-z
-x,-y,-z
x,-y,z
1/2+x,1/2+y,z
1/2-x,1/2+y,-z
1/2-x,1/2-y,-z
1/2+x,1/2-y,z
loop_
_atom_site_type_symbol
_atom_site_label
_atom_site_fract_x
_atom_site_fract_y
_atom_site_fract_z
Si Si1 0.356047 0.824420 0.466922
Si Si2 0.894443 0.322564 0.885537
Si Si3 0.036049 0.178158 0.229104
Si Si4 0.896620 0.319263 0.387932
Si Si5 0.529878 0.176063 0.728496
Si Si6 0.868404 0.178519 0.973663
Si Si7 0.684746 0.819249 0.818220
Si Si8 0.685870 0.177549 0.321613
O O1 0.354109 0.771193 0.400563
O O2 0.454954 0.810368 0.599124
O O3 0.286736 0.734309 0.429021
O O4 0.333148 0.000000 0.443376
O O5 0.882706 0.500000 0.877898
O O6 0.855647 0.245327 0.898501
O O7 0.854037 0.276404 0.782315
O O8 0.000000 0.290016 0.000000
O O9 0.127944 0.248727 0.307444
O O10 0.002859 0.238700 0.252427
O O11 0.042256 0.000000 0.237267
O O12 0.961764 0.221822 0.102438
O O13 0.893104 0.500000 0.384743
O O14 0.853182 0.270411 0.283079
O O15 0.000000 0.276262 0.500000
O O16 0.622398 0.231232 0.801332
O O17 0.537193 0.000000 0.749642
O O18 0.788191 0.222743 0.928216
O O19 0.866438 0.000000 0.966211
O O20 0.679116 0.000000 0.813027
O O21 0.680674 0.000000 0.320328
#
# Coordination Sequence:
#
# PCOD9224639 Si02
#       8
#     8   8   8   8   8   8   8   8
#     4  10  20  35  59  89 116 145 186 233 278 328
#     4  10  20  36  58  84 116 150 183 223 278 343
#     4  11  24  40  57  80 112 148 192 241 283 326
#     4   9  14  26  53  87 117 143 175 220 273 328
#     4  10  21  38  60  83 111 150 192 231 278 333
#     4  10  21  36  58  87 115 146 187 234 280 326
#     4   9  17  32  55  85 117 146 181 226 275 333
#     4  11  23  39  60  84 113 150 187 226 281 342
#
# _framework density 9.8765429999999999
#
# number of rings (size 3 to 8) (size 9 to 14) (size 15 to 20)
#    0.000    2.000    2.500    1.500    0.000    4.250 
#    0.000    0.625    0.000    1.125    0.000    0.000 
#    0.000    0.000    0.000    0.000    0.000    0.000 
#
# Total GULP energy -178670.934902 kJ/mol
# GULP energy per Si atom -5583.466716 kJ/mol
# Density = 0.985406 g / cm^3
# Si number density = 9.876543 Si / 1000 Ang^3
#
#
#
# Elastic Constant Matrix: (Units=GPa)
#
#
# Indices 1 2 3 4 5 6 
#
# 1 153.0574 31.2392 3.7077 0.0000 18.6277 0.0000
# 2 31.2392 23.2586 5.5994 0.0000 4.3908 0.0000
# 3 3.7077 5.5994 9.4234 0.0000 15.0578 0.0000
# 4 0.0000 0.0000 0.0000 13.3770 0.0000 -3.9409
# 5 18.6277 4.3908 15.0578 0.0000 35.6976 0.0000
# 6 0.0000 0.0000 0.0000 -3.9409 0.0000 29.9394
#
#
#
# Elastic Compliance Matrix: (Units=1/GPa)
#
#
# Indices 1 2 3 4 5 6 
#
# 1 0.013515 -0.025330 0.049159 0.000000 -0.024673 0.000000
# 2 -0.025330 0.102577 -0.159356 0.000000 0.067820 0.000000
# 3 0.049159 -0.159356 0.586365 0.000000 -0.253390 0.000000
# 4 0.000000 0.000000 0.000000 0.077771 0.000000 0.010237
# 5 -0.024673 0.067820 -0.253390 0.000000 0.139430 0.000000
# 6 0.000000 0.000000 0.000000 0.010237 0.000000 0.034748
#
#
# Mechanical properties :
#
#
# Convention : Reuss Voigt Hill
#
# Bulk Modulus (GPa) = 2.31801 29.64800 15.98301
# Shear Modulus (GPa) = 3.65160 25.48235 14.56698
#
# Velocity S-wave (km/s) = 1.36112 3.59561 2.71855
# Velocity P-wave (km/s) = 1.90951 5.68153 4.23828
#
# Compressibility (1/GPa) = 0.43140402
#
# Stress axis : x y z
#
# Youngs Moduli (GPa) = 73.99023 9.74879 1.70542
#
# Poissons Ratio (x) = 0.24693 -0.08384
# Poissons Ratio (y) = 1.87415 0.27177
# Poissons Ratio (z) = -3.63730 1.55353
#
# Static dielectric constant tensor:
#      x y z
#    x 1.684890 0.000000 0.016200 
#    y 0.000000 1.655500 0.000000 
#    z 0.016200 0.000000 1.713760 
# 
# From -- ./inp_files/353436.got.cif
#   From: 2010.05.17/outbox.ucp.g08.bks.cvg/sg12_177_cif.got.tgz:353436.got - 2010.06.11 11:47:21.
