data_PCOD9224831
_publ_section_title
;
Structure prediction by ZEFSAII (Michael W. Deem and Ramdas Pophale) SiO2 
 PCOD9224831
Probable space group: C 2/M
;
_chemical_formula_sum "Si O2"
_cell_formula_units_Z 28
_cell_length_a 18.000000
_cell_length_b 9.000000
_cell_length_c 18.000000
_cell_angle_alpha 90.000000
_cell_angle_beta 70.000000
_cell_angle_gamma 90.000000
_cell_volume 2740.143682
_symmetry_space_group_name_H-M "C 2/M"
_symmetry_group_IT_number 12
_symmetry_cell_setting 'monoclinic'
loop_
_space_group_symop_operation_xyz
x,y,z
-x,y,-z
-x,-y,-z
x,-y,z
1/2+x,1/2+y,z
1/2-x,1/2+y,-z
1/2-x,1/2-y,-z
1/2+x,1/2-y,z
loop_
_atom_site_type_symbol
_atom_site_label
_atom_site_fract_x
_atom_site_fract_y
_atom_site_fract_z
Si Si1 0.228183 0.676066 0.928785
Si Si2 0.417972 0.332278 0.987006
Si Si3 0.572293 0.179199 0.527389
Si Si4 0.483971 0.678127 0.807870
Si Si5 0.658433 0.319729 0.241735
Si Si6 0.207025 0.820819 0.388347
Si Si7 0.609030 0.822484 0.677523
O O1 0.237269 0.500000 0.930910
O O2 0.279718 0.730475 0.841983
O O3 0.250000 0.750000 0.000000
O O4 0.138457 0.724399 0.949231
O O5 0.383728 0.500000 0.993426
O O6 0.438207 0.276163 0.897812
O O7 0.500000 0.343823 0.000000
O O8 0.500000 0.230107 0.500000
O O9 0.653180 0.243658 0.467543
O O10 0.567115 0.224125 0.615029
O O11 0.574815 0.000000 0.524097
O O12 0.491089 0.500000 0.809733
O O13 0.426942 0.721123 0.759732
O O14 0.567901 0.748454 0.762120
O O15 0.662594 0.500000 0.241569
O O16 0.676791 0.269305 0.317890
O O17 0.299149 0.784362 0.361699
O O18 0.198959 0.000000 0.396726
O O19 0.602992 0.000000 0.687061
#
# Coordination Sequence:
#
# PCOD9224831 Si02
#       7
#     8   8   8   8   8   8   8
#     4  11  21  37  60  84 114 152 194 241 290 340
#     4  10  22  39  57  81 117 153 192 242 290 339
#     4  10  21  38  58  82 114 146 178 223 274 326
#     4  10  20  37  57  78 109 148 186 227 277 333
#     4   9  19  36  56  79 110 143 182 233 280 326
#     4  10  21  37  58  83 110 143 182 227 274 326
#     4  10  22  37  55  82 115 144 179 229 277 325
#
# _framework density 10.218442
#
# number of rings (size 3 to 8) (size 9 to 14) (size 15 to 20)
#    0.000    2.000    1.429    1.714    2.000    2.286 
#    0.000    1.429    0.000    0.000    0.000    0.000 
#    0.000    0.000    0.000    0.000    0.000    0.000 
#
# Total GULP energy -156225.096582 kJ/mol
# GULP energy per Si atom -5579.467735 kJ/mol
# Density = 1.019518 g / cm^3
# Si number density = 10.218442 Si / 1000 Ang^3
#
#
#
# Elastic Constant Matrix: (Units=GPa)
#
#
# Indices 1 2 3 4 5 6 
#
# 1 56.1607 8.6766 15.3395 0.0000 -11.8962 0.0000
# 2 8.6766 1.3491 14.2508 0.0000 -8.7401 0.0000
# 3 15.3395 14.2508 95.8592 0.0000 -20.3791 0.0000
# 4 0.0000 0.0000 0.0000 21.1203 0.0000 -15.1588
# 5 -11.8962 -8.7401 -20.3791 0.0000 37.5265 0.0000
# 6 0.0000 0.0000 0.0000 -15.1588 0.0000 62.5227
#
#
#
# Elastic Compliance Matrix: (Units=1/GPa)
#
#
# Indices 1 2 3 4 5 6 
#
# 1 0.015332 0.042977 -0.006423 0.000000 0.011382 0.000000
# 2 0.042977 -0.450360 0.045981 -0.000001 -0.066296 -0.000001
# 3 -0.006423 0.045981 0.007312 0.000000 0.012644 0.000000
# 4 0.000000 -0.000001 0.000000 0.057323 0.000000 0.013898
# 5 0.011382 -0.066296 0.012644 0.000000 0.021682 0.000000
# 6 0.000000 -0.000001 0.000000 0.013898 0.000000 0.019364
#
#
# Mechanical properties :
#
#
# Convention : Reuss Voigt Hill
#
# Bulk Modulus (GPa) = -3.80740 25.54477 10.86869
# Shear Modulus (GPa) = -8.59156 31.90735 11.65790
#
# Velocity S-wave (km/s) = -2.05258 3.95557 2.39097
# Velocity P-wave (km/s) = 2.73578 5.77828 3.59889
#
# Compressibility (1/GPa) = -0.26264664
#
# Stress axis : x y z
#
# Youngs Moduli (GPa) = 65.22491 -2.22045 136.76073
#
# Poissons Ratio (x) = 0.09543 0.87839
# Poissons Ratio (y) = -2.80314 -6.28841
# Poissons Ratio (z) = 0.41893 0.10210
#
# Static dielectric constant tensor:
#      x y z
#    x 1.793700 0.000000 0.016200 
#    y 0.000000 1.697390 0.000000 
#    z 0.016200 0.000000 1.719260 
# 
# From -- ./inp_files/275334.got.cif
#   From: 2010.05.17/outbox.ucp.g08.bks.cvg/sg12_138_cif.got.tgz:275334.got - 2010.06.11 11:47:21.
