data_PCOD9224234
_publ_section_title
;
Structure prediction by ZEFSAII (Michael W. Deem and Ramdas Pophale) SiO2 
 PCOD9224234
Probable space group: C 2/M
;
_chemical_formula_sum "Si O2"
_cell_formula_units_Z 24
_cell_length_a 21.000000
_cell_length_b 9.000000
_cell_length_c 15.000000
_cell_angle_alpha 90.000000
_cell_angle_beta 110.000000
_cell_angle_gamma 90.000000
_cell_volume 2664.028580
_symmetry_space_group_name_H-M "C 2/M"
_symmetry_group_IT_number 12
_symmetry_cell_setting 'monoclinic'
loop_
_space_group_symop_operation_xyz
x,y,z
-x,y,-z
-x,-y,-z
x,-y,z
1/2+x,1/2+y,z
1/2-x,1/2+y,-z
1/2-x,1/2-y,-z
1/2+x,1/2-y,z
loop_
_atom_site_type_symbol
_atom_site_label
_atom_site_fract_x
_atom_site_fract_y
_atom_site_fract_z
Si Si1 0.923021 0.670697 0.002696
Si Si2 0.518329 0.820456 0.786787
Si Si3 0.685146 0.832986 0.364941
Si Si4 0.942902 0.322735 0.396770
Si Si5 0.113671 0.174520 0.187293
Si Si6 0.655099 0.667728 0.522982
O O1 0.900062 0.500000 0.987710
O O2 0.882928 0.767622 0.912148
O O3 0.928021 0.718053 0.108455
O O4 0.000000 0.674100 0.000000
O O5 0.536566 0.777588 0.694116
O O6 0.449218 0.748844 0.789767
O O7 0.511674 0.000000 0.785932
O O8 0.676243 0.727155 0.276506
O O9 0.644712 0.769339 0.430785
O O10 0.764141 0.838981 0.426420
O O11 0.661560 0.000000 0.333322
O O12 0.930439 0.500000 0.388709
O O13 0.878912 0.236943 0.406273
O O14 0.000000 0.295869 0.500000
O O15 0.104877 0.000000 0.183316
O O16 0.629957 0.500000 0.495155
#
# Coordination Sequence:
#
# PCOD9224234 Si02
#       6
#     8   8   8   8   8   8
#     4   8  15  29  47  67  96 132 166 200 241 291
#     4   9  18  32  49  71 101 137 169 196 238 295
#     4  10  20  35  53  71  97 131 163 198 242 293
#     4  10  20  33  51  74 101 134 165 193 234 291
#     4  11  20  29  48  77 102 125 161 208 250 286
#     4  10  21  35  52  75  99 126 162 203 244 283
#
# _framework density 9.0089120000000005
#
# number of rings (size 3 to 8) (size 9 to 14) (size 15 to 20)
#    0.000    2.333    0.000    4.500    0.000    7.333 
#    0.000    0.000    0.000    1.000    0.000    0.000 
#    0.000    0.000    0.000    0.000    0.000    0.000 
#
# Total GULP energy -133754.929354 kJ/mol
# GULP energy per Si atom -5573.122056 kJ/mol
# Density = 0.898841 g / cm^3
# Si number density = 9.008912 Si / 1000 Ang^3
#
#
#
# Elastic Constant Matrix: (Units=GPa)
#
#
# Indices 1 2 3 4 5 6 
#
# 1 34.6040 22.1385 22.4357 0.0000 -19.4154 0.0000
# 2 22.1385 46.2042 42.5265 0.0000 -12.2845 0.0000
# 3 22.4357 42.5265 124.8175 0.0000 -28.4166 0.0000
# 4 0.0000 0.0000 0.0000 15.8011 0.0000 -6.7342
# 5 -19.4154 -12.2845 -28.4166 0.0000 23.6664 0.0000
# 6 0.0000 0.0000 0.0000 -6.7342 0.0000 14.1166
#
#
#
# Elastic Compliance Matrix: (Units=1/GPa)
#
#
# Indices 1 2 3 4 5 6 
#
# 1 0.072387 -0.028494 0.009426 0.000000 0.055912 0.000000
# 2 -0.028494 0.043144 -0.013488 0.000000 -0.017177 0.000000
# 3 0.009426 -0.013488 0.015248 0.000000 0.019039 0.000000
# 4 0.000000 0.000000 0.000000 0.079437 0.000000 0.037895
# 5 0.055912 -0.017177 0.019039 0.000000 0.102068 0.000000
# 6 0.000000 0.000000 0.000000 0.037895 0.000000 0.088916
#
#
# Mechanical properties :
#
#
# Convention : Reuss Voigt Hill
#
# Bulk Modulus (GPa) = 15.22861 42.20303 28.71582
# Shear Modulus (GPa) = 10.24169 18.61848 14.43008
#
# Velocity S-wave (km/s) = 2.38674 3.21804 2.83305
# Velocity P-wave (km/s) = 4.00820 6.10586 5.16465
#
# Compressibility (1/GPa) = 0.06566589
#
# Stress axis : x y z
#
# Youngs Moduli (GPa) = 13.81455 23.17836 65.58411
#
# Poissons Ratio (x) = 0.66045 -0.61820
# Poissons Ratio (y) = 0.39363 0.88462
# Poissons Ratio (z) = -0.13022 0.31264
#
# Static dielectric constant tensor:
#      x y z
#    x 1.618260 0.000000 0.045590 
#    y 0.000000 1.619200 0.000000 
#    z 0.045590 0.000000 1.664500 
# 
# From -- ./inp_files/230414.got.cif
#   From: 2010.05.17/outbox.ucp.g08.bks.cvg/sg12_116_cif.got.tgz:230414.got - 2010.06.11 11:47:21.
