data_PCOD9224280
_publ_section_title
;
Structure prediction by ZEFSAII (Michael W. Deem and Ramdas Pophale) SiO2 
 PCOD9224280
Probable space group: C 2/M
;
_chemical_formula_sum "Si O2"
_cell_formula_units_Z 32
_cell_length_a 27.000000
_cell_length_b 9.000000
_cell_length_c 15.000000
_cell_angle_alpha 90.000000
_cell_angle_beta 110.000000
_cell_angle_gamma 90.000000
_cell_volume 3425.179603
_symmetry_space_group_name_H-M "C 2/M"
_symmetry_group_IT_number 12
_symmetry_cell_setting 'monoclinic'
loop_
_space_group_symop_operation_xyz
x,y,z
-x,y,-z
-x,-y,-z
x,-y,z
1/2+x,1/2+y,z
1/2-x,1/2+y,-z
1/2-x,1/2-y,-z
1/2+x,1/2-y,z
loop_
_atom_site_type_symbol
_atom_site_label
_atom_site_fract_x
_atom_site_fract_y
_atom_site_fract_z
Si Si1 0.049739 0.674764 0.080735
Si Si2 0.073488 0.171227 0.618693
Si Si3 0.606869 0.177645 0.291016
Si Si4 0.037794 0.828879 0.391709
Si Si5 0.817758 0.677334 0.280020
Si Si6 0.707243 0.674119 0.270991
Si Si7 0.140037 0.834488 0.054644
Si Si8 0.296325 0.330308 0.080721
O O1 0.040181 0.500000 0.087240
O O2 0.068288 0.733809 0.187657
O O3 0.099323 0.705499 0.048845
O O4 0.000000 0.742499 0.000000
O O5 0.054454 0.169894 0.505058
O O6 0.125508 0.267872 0.654890
O O7 0.023296 0.222756 0.646525
O O8 0.085378 0.000000 0.651822
O O9 0.579246 0.233014 0.362965
O O10 0.664622 0.241074 0.304444
O O11 0.609586 0.000000 0.290012
O O12 0.039180 0.000000 0.360865
O O13 0.815162 0.500000 0.275574
O O14 0.767565 0.727782 0.308483
O O15 0.810211 0.742878 0.177327
O O16 0.705566 0.500000 0.293889
O O17 0.687251 0.684908 0.155448
O O18 0.117870 0.000000 0.060803
O O19 0.157711 0.832651 0.964152
O O20 0.282067 0.500000 0.093894
O O21 0.250000 0.250000 0.000000
#
# Coordination Sequence:
#
# PCOD9224280 Si02
#       8
#     8   8   8   8   8   8   8   8
#     4   9  19  34  49  71 106 141 174 219 270 315
#     4   9  20  39  61  85 109 142 182 225 278 337
#     4  10  20  33  55  84 107 138 186 228 272 328
#     4   9  19  39  63  82 109 144 181 224 280 340
#     4  11  22  36  55  83 115 147 185 230 282 334
#     4   9  18  35  53  73 107 146 182 219 268 325
#     4   9  18  33  50  70  99 137 182 221 257 311
#     4  11  21  34  52  77 109 145 186 227 269 322
#
# _framework density 9.3425759999999993
#
# number of rings (size 3 to 8) (size 9 to 14) (size 15 to 20)
#    0.000    2.375    1.250    1.875    0.000    4.750 
#    0.000    4.375    0.000    0.000    0.000    0.000 
#    0.000    0.000    0.000    0.000    0.000    0.000 
#
# Total GULP energy -178221.769697 kJ/mol
# GULP energy per Si atom -5569.430303 kJ/mol
# Density = 0.932131 g / cm^3
# Si number density = 9.342576 Si / 1000 Ang^3
#
#
#
# Elastic Constant Matrix: (Units=GPa)
#
#
# Indices 1 2 3 4 5 6 
#
# 1 102.4183 43.2998 40.3516 0.0000 -4.0698 0.0000
# 2 43.2998 36.9453 24.8293 0.0000 -0.7742 0.0000
# 3 40.3516 24.8293 30.0101 0.0000 0.4933 0.0000
# 4 0.0000 0.0000 0.0000 21.0228 0.0000 1.2829
# 5 -4.0698 -0.7742 0.4933 0.0000 29.4579 0.0000
# 6 0.0000 0.0000 0.0000 1.2829 0.0000 27.3902
#
#
#
# Elastic Compliance Matrix: (Units=1/GPa)
#
#
# Indices 1 2 3 4 5 6 
#
# 1 0.024028 -0.014286 -0.020542 0.000000 0.003288 0.000000
# 2 -0.014286 0.069637 -0.038414 0.000000 0.000500 0.000000
# 3 -0.020542 -0.038414 0.092814 0.000000 -0.005402 0.000000
# 4 0.000000 0.000000 0.000000 0.047704 0.000000 -0.002234
# 5 0.003288 0.000500 -0.005402 0.000000 0.034505 0.000000
# 6 0.000000 0.000000 0.000000 -0.002234 0.000000 0.036614
#
#
# Mechanical properties :
#
#
# Convention : Reuss Voigt Hill
#
# Bulk Modulus (GPa) = 25.00353 42.92612 33.96483
# Shear Modulus (GPa) = 10.74998 19.63372 15.19185
#
# Velocity S-wave (km/s) = 2.40119 3.24507 2.85449
# Velocity P-wave (km/s) = 4.59327 6.08801 5.39268
#
# Compressibility (1/GPa) = 0.03999436
#
# Stress axis : x y z
#
# Youngs Moduli (GPa) = 41.61894 14.36008 10.77425
#
# Poissons Ratio (x) = 0.20515 0.22132
# Poissons Ratio (y) = 0.59458 0.41389
# Poissons Ratio (z) = 0.85492 0.55163
#
# Static dielectric constant tensor:
#      x y z
#    x 1.676350 0.000000 -0.000360 
#    y 0.000000 1.659380 0.000000 
#    z -0.000360 0.000000 1.647310 
# 
# From -- ./inp_files/244136.got.cif
#   From: 2010.05.17/outbox.ucp.g08.bks.cvg/sg12_123_cif.got.tgz:244136.got - 2010.06.11 11:47:21.
