data_PCOD9224917
_publ_section_title
;
Structure prediction by ZEFSAII (Michael W. Deem and Ramdas Pophale) SiO2 
 PCOD9224917
Probable space group: C 2/M
;
_chemical_formula_sum "Si O2"
_cell_formula_units_Z 24
_cell_length_a 15.000000
_cell_length_b 9.000000
_cell_length_c 18.000000
_cell_angle_alpha 90.000000
_cell_angle_beta 90.000000
_cell_angle_gamma 90.000000
_cell_volume 2430.000000
_symmetry_space_group_name_H-M "C 2/M"
_symmetry_group_IT_number 12
_symmetry_cell_setting 'monoclinic'
loop_
_space_group_symop_operation_xyz
x,y,z
-x,y,-z
-x,-y,-z
x,-y,z
1/2+x,1/2+y,z
1/2-x,1/2+y,-z
1/2-x,1/2-y,-z
1/2+x,1/2-y,z
loop_
_atom_site_type_symbol
_atom_site_label
_atom_site_fract_x
_atom_site_fract_y
_atom_site_fract_z
Si Si1 0.524027 0.829277 0.413066
Si Si2 0.712477 0.328745 0.072410
Si Si3 0.787316 0.177104 0.575471
Si Si4 0.137757 0.173040 0.666860
Si Si5 0.482902 0.671957 0.912200
Si Si6 0.125830 0.330809 0.816664
O O1 0.500000 0.834206 0.500000
O O2 0.619314 0.752806 0.405865
O O3 0.450719 0.728539 0.374019
O O4 0.523705 0.000000 0.385591
O O5 0.696834 0.500000 0.050994
O O6 0.617370 0.272405 0.099073
O O7 0.782712 0.323356 0.138150
O O8 0.750000 0.250000 0.000000
O O9 0.750000 0.250000 0.500000
O O10 0.716971 0.223467 0.637569
O O11 0.794742 0.000000 0.567438
O O12 0.125711 0.210333 0.752387
O O13 0.155341 0.000000 0.652067
O O14 0.493070 0.500000 0.885750
O O15 0.549659 0.783102 0.873325
O O16 0.500000 0.670767 0.000000
O O17 0.113536 0.500000 0.789026
#
# Coordination Sequence:
#
# PCOD9224917 Si02
#       6
#     8   8   8   8   8   8
#     4  11  23  41  68  98 129 166 212 265 319 382
#     4  10  21  37  61  90 121 160 205 255 309 371
#     4  12  24  41  67  98 131 169 215 263 314 379
#     4  12  26  44  66  93 130 172 214 266 324 379
#     4  10  20  37  62  90 122 161 207 257 311 379
#     4  11  24  41  61  90 128 164 206 262 320 380
#
# _framework density 9.8765429999999999
#
# number of rings (size 3 to 8) (size 9 to 14) (size 15 to 20)
#    0.000    1.000    3.333    4.000    0.000    3.667 
#    0.000    5.000    0.000    0.000    0.000    0.000 
#    0.000    0.000    0.000    0.000    0.000    0.000 
#
# Total GULP energy -134086.056320 kJ/mol
# GULP energy per Si atom -5586.919013 kJ/mol
# Density = 0.985406 g / cm^3
# Si number density = 9.876543 Si / 1000 Ang^3
#
#
#
# Elastic Constant Matrix: (Units=GPa)
#
#
# Indices 1 2 3 4 5 6 
#
# 1 129.7752 8.7288 8.8145 0.0000 -3.7164 0.0000
# 2 8.7288 66.2826 4.8886 0.0000 4.2759 0.0000
# 3 8.8145 4.8886 43.5512 0.0000 -2.6267 0.0000
# 4 0.0000 0.0000 0.0000 41.5764 0.0000 -10.9007
# 5 -3.7164 4.2759 -2.6267 0.0000 11.2827 0.0000
# 6 0.0000 0.0000 0.0000 -10.9007 0.0000 32.9276
#
#
#
# Elastic Compliance Matrix: (Units=1/GPa)
#
#
# Indices 1 2 3 4 5 6 
#
# 1 0.007949 -0.001126 -0.001317 0.000000 0.002739 0.000000
# 2 -0.001126 0.015820 -0.001959 0.000000 -0.006823 0.000000
# 3 -0.001317 -0.001959 0.023801 0.000000 0.005850 0.000000
# 4 0.000000 0.000000 0.000000 0.026338 0.000000 0.008719
# 5 0.002739 -0.006823 0.005850 0.000000 0.093481 0.000000
# 6 0.000000 0.000000 0.000000 0.008719 0.000000 0.033256
#
#
# Mechanical properties :
#
#
# Convention : Reuss Voigt Hill
#
# Bulk Modulus (GPa) = 25.79705 31.60808 28.70256
# Shear Modulus (GPa) = 22.48483 31.63580 27.06032
#
# Velocity S-wave (km/s) = 3.37752 4.00629 3.70527
# Velocity P-wave (km/s) = 5.31962 6.11857 5.73303
#
# Compressibility (1/GPa) = 0.03876412
#
# Stress axis : x y z
#
# Youngs Moduli (GPa) = 125.79738 63.21159 42.01540
#
# Poissons Ratio (x) = 0.07120 0.05535
# Poissons Ratio (y) = 0.14169 0.08232
# Poissons Ratio (z) = 0.16571 0.12385
#
# Static dielectric constant tensor:
#      x y z
#    x 1.775180 0.000000 -0.005620 
#    y 0.000000 1.654730 0.000000 
#    z -0.005620 0.000000 1.703570 
# 
# From -- ./inp_files/267665.got.cif
#   From: 2010.05.17/outbox.ucp.g08.bks.cvg/sg12_134_cif.got.tgz:267665.got - 2010.06.11 11:47:21.
