data_PCOD9224111
_publ_section_title
;
Structure prediction by ZEFSAII (Michael W. Deem and Ramdas Pophale) SiO2 
 PCOD9224111
Probable space group: C 2/M
;
_chemical_formula_sum "Si O2"
_cell_formula_units_Z 28
_cell_length_a 24.000000
_cell_length_b 9.000000
_cell_length_c 15.000000
_cell_angle_alpha 90.000000
_cell_angle_beta 120.000000
_cell_angle_gamma 90.000000
_cell_volume 2805.922308
_symmetry_space_group_name_H-M "C 2/M"
_symmetry_group_IT_number 12
_symmetry_cell_setting 'monoclinic'
loop_
_space_group_symop_operation_xyz
x,y,z
-x,y,-z
-x,-y,-z
x,-y,z
1/2+x,1/2+y,z
1/2-x,1/2+y,-z
1/2-x,1/2-y,-z
1/2+x,1/2-y,z
loop_
_atom_site_type_symbol
_atom_site_label
_atom_site_fract_x
_atom_site_fract_y
_atom_site_fract_z
Si Si1 0.335358 0.322094 0.241361
Si Si2 0.494723 0.328771 0.103031
Si Si3 0.118238 0.334559 0.237668
Si Si4 0.648821 0.321487 0.946452
Si Si5 0.576517 0.821034 0.550455
Si Si6 0.209810 0.176883 0.177408
Si Si7 0.817069 0.329774 0.519065
O O1 0.337531 0.500000 0.243720
O O2 0.333759 0.266728 0.137599
O O3 0.395208 0.251100 0.338114
O O4 0.274784 0.263082 0.248597
O O5 0.510235 0.500000 0.139786
O O6 0.544967 0.213896 0.181204
O O7 0.424504 0.294470 0.083988
O O8 0.500000 0.320400 0.000000
O O9 0.126624 0.500000 0.206459
O O10 0.155866 0.220276 0.204851
O O11 0.144268 0.333044 0.357788
O O12 0.656765 0.500000 0.950671
O O13 0.689710 0.268160 0.062937
O O14 0.500000 0.783031 0.500000
O O15 0.628584 0.775900 0.511767
O O16 0.579571 0.000000 0.552279
O O17 0.219062 0.000000 0.184141
O O18 0.799328 0.500000 0.478148
O O19 0.750000 0.250000 0.500000
#
# Coordination Sequence:
#
# PCOD9224111 Si02
#       7
#     8   8   8   8   8   8   8
#     4  11  23  39  60  89 122 152 194 251 302 345
#     4  10  19  37  60  83 116 160 201 235 283 356
#     4  11  23  37  58  91 123 150 191 250 304 346
#     4   9  20  37  58  85 120 158 197 238 286 351
#     4  10  23  44  66  87 118 161 209 253 302 368
#     4  11  21  39  62  86 119 162 201 233 286 360
#     4  10  23  42  63  89 120 156 200 252 307 363
#
# _framework density 9.9788940000000004
#
# number of rings (size 3 to 8) (size 9 to 14) (size 15 to 20)
#    0.000    1.714    1.429    2.571    2.000    4.571 
#    0.000    2.857    0.000    0.000    0.000    0.000 
#    0.000    0.000    0.000    0.000    0.000    0.000 
#
# Total GULP energy -155971.667210 kJ/mol
# GULP energy per Si atom -5570.416686 kJ/mol
# Density = 0.995618 g / cm^3
# Si number density = 9.978894 Si / 1000 Ang^3
#
#
#
# Elastic Constant Matrix: (Units=GPa)
#
#
# Indices 1 2 3 4 5 6 
#
# 1 86.9004 40.6456 18.8278 0.0000 -15.3877 0.0000
# 2 40.6456 -137.0128 43.1675 0.0000 28.9740 0.0000
# 3 18.8278 43.1675 71.3301 0.0000 5.5124 0.0000
# 4 0.0000 0.0000 0.0000 19.9618 0.0000 0.4225
# 5 -15.3877 28.9740 5.5124 0.0000 19.5630 0.0000
# 6 0.0000 0.0000 0.0000 0.4225 0.0000 29.2964
#
#
#
# Elastic Compliance Matrix: (Units=1/GPa)
#
#
# Indices 1 2 3 4 5 6 
#
# 1 0.012391 0.003251 -0.005744 0.000000 0.006550 0.000000
# 2 0.003251 -0.004211 0.001033 0.000000 0.008502 0.000000
# 3 -0.005744 0.001033 0.015720 0.000000 -0.010478 0.000000
# 4 0.000000 0.000000 0.000000 0.050111 0.000000 -0.000723
# 5 0.006550 0.008502 -0.010478 0.000000 0.046629 0.000000
# 6 0.000000 0.000000 0.000000 -0.000723 0.000000 0.034144
#
#
# Mechanical properties :
#
#
# Convention : Reuss Voigt Hill
#
# Bulk Modulus (GPa) = 47.66406 25.16660 36.41533
# Shear Modulus (GPa) = 30.35852 8.33605 19.34728
#
# Velocity S-wave (km/s) = 3.90441 2.04595 3.11691
# Velocity P-wave (km/s) = 6.65283 4.26831 5.58921
#
# Compressibility (1/GPa) = 0.02098017
#
# Stress axis : x y z
#
# Youngs Moduli (GPa) = 80.70272 -237.49271 63.61261
#
# Poissons Ratio (x) = 0.77213 0.36542
# Poissons Ratio (y) = -0.26238 -0.06571
# Poissons Ratio (z) = 0.46359 0.24532
#
# Static dielectric constant tensor:
#      x y z
#    x 1.700800 0.000000 0.036690 
#    y 0.000000 1.688050 0.000000 
#    z 0.036690 0.000000 1.710030 
# 
# From -- ./inp_files/238869.got.cif
#   From: 2010.05.17/outbox.ucp.g08.bks.cvg/sg12_120_cif.got.tgz:238869.got - 2010.06.11 11:47:21.
