data_PCOD9224978
_publ_section_title
;
Structure prediction by ZEFSAII (Michael W. Deem and Ramdas Pophale) SiO2 
 PCOD9224978
Probable space group: C 2/M
;
_chemical_formula_sum "Si O2"
_cell_formula_units_Z 32
_cell_length_a 18.000000
_cell_length_b 9.000000
_cell_length_c 30.000000
_cell_angle_alpha 90.000000
_cell_angle_beta 40.000000
_cell_angle_gamma 90.000000
_cell_volume 3123.947783
_symmetry_space_group_name_H-M "C 2/M"
_symmetry_group_IT_number 12
_symmetry_cell_setting 'monoclinic'
loop_
_space_group_symop_operation_xyz
x,y,z
-x,y,-z
-x,-y,-z
x,-y,z
1/2+x,1/2+y,z
1/2-x,1/2+y,-z
1/2-x,1/2-y,-z
1/2+x,1/2-y,z
loop_
_atom_site_type_symbol
_atom_site_label
_atom_site_fract_x
_atom_site_fract_y
_atom_site_fract_z
Si Si1 0.246331 0.174409 0.371509
Si Si2 0.258458 0.177852 0.719793
Si Si3 0.002308 0.819754 0.865997
Si Si4 0.531230 0.666990 0.712156
Si Si5 0.169242 0.322464 0.498930
Si Si6 0.411577 0.321097 0.003027
Si Si7 0.974764 0.830596 0.638422
Si Si8 0.171455 0.824990 0.132500
O O1 0.211142 0.258071 0.342846
O O2 0.383372 0.207382 0.310344
O O3 0.195645 0.251547 0.438872
O O4 0.220892 0.000000 0.382509
O O5 0.353997 0.255597 0.705819
O O6 0.131502 0.225624 0.793859
O O7 0.265563 0.000000 0.717122
O O8 0.954247 0.766016 0.935269
O O9 0.915497 0.778442 0.866762
O O10 0.004797 0.000000 0.866377
O O11 0.564925 0.500000 0.714026
O O12 0.541521 0.662977 0.654521
O O13 0.402338 0.692456 0.788656
O O14 0.182472 0.500000 0.492132
O O15 0.250000 0.250000 0.500000
O O16 0.042535 0.272298 0.572899
O O17 0.411575 0.500000 0.001531
O O18 0.500000 0.271296 0.000000
O O19 0.286643 0.266045 0.074364
O O20 0.963050 0.000000 0.627486
O O21 0.197422 0.000000 0.115410
#
# Coordination Sequence:
#
# PCOD9224978 Si02
#       8
#     8   8   8   8   8   8   8   8
#     4  12  24  40  65  95 126 161 209 260 309 373
#     4  11  23  42  65  89 125 167 207 258 320 376
#     4   9  19  38  62  85 118 163 205 249 307 371
#     4  10  21  39  63  89 124 164 205 259 315 369
#     4  12  24  41  65  94 126 166 211 256 312 371
#     4  10  22  38  57  88 126 160 199 252 307 360
#     4  11  24  41  62  93 128 162 207 261 314 372
#     4  10  20  38  62  87 117 161 208 249 301 367
#
# _framework density 10.243449
#
# number of rings (size 3 to 8) (size 9 to 14) (size 15 to 20)
#    0.000    1.375    2.500    3.375    1.750    1.750 
#    0.000    3.750    0.000    0.000    0.000    0.000 
#    0.000    0.000    0.000    0.000    0.000    0.000 
#
# Total GULP energy -178659.124745 kJ/mol
# GULP energy per Si atom -5583.097648 kJ/mol
# Density = 1.022013 g / cm^3
# Si number density = 10.243449 Si / 1000 Ang^3
#
#
#
# Elastic Constant Matrix: (Units=GPa)
#
#
# Indices 1 2 3 4 5 6 
#
# 1 47.3025 20.6334 33.0203 -0.0001 -10.1713 -0.0001
# 2 20.6334 69.3319 19.9937 -0.0003 0.5807 -0.0010
# 3 33.0203 19.9937 112.5770 0.0000 1.7708 -0.0002
# 4 -0.0001 -0.0003 0.0000 29.2196 0.0000 -2.8023
# 5 -10.1713 0.5807 1.7708 0.0000 37.8862 0.0000
# 6 -0.0001 -0.0010 -0.0002 -2.8023 0.0000 16.1198
#
#
#
# Elastic Compliance Matrix: (Units=1/GPa)
#
#
# Indices 1 2 3 4 5 6 
#
# 1 0.032002 -0.007222 -0.008247 0.000000 0.009088 0.000000
# 2 -0.007222 0.016832 -0.000837 0.000000 -0.002158 0.000001
# 3 -0.008247 -0.000837 0.011493 0.000000 -0.002738 0.000000
# 4 0.000000 0.000000 0.000000 0.034804 0.000000 0.006050
# 5 0.009088 -0.002158 -0.002738 0.000000 0.028996 0.000000
# 6 0.000000 0.000001 0.000000 0.006050 0.000000 0.063087
#
#
# Mechanical properties :
#
#
# Convention : Reuss Voigt Hill
#
# Bulk Modulus (GPa) = 36.08077 41.83403 38.95740
# Shear Modulus (GPa) = 21.82794 27.01605 24.42199
#
# Velocity S-wave (km/s) = 3.26768 3.63533 3.45639
# Velocity P-wave (km/s) = 5.64684 6.17131 5.91489
#
# Compressibility (1/GPa) = 0.02771560
#
# Stress axis : x y z
#
# Youngs Moduli (GPa) = 31.24845 59.41034 87.00581
#
# Poissons Ratio (x) = 0.42904 0.71752
# Poissons Ratio (y) = 0.22567 0.07284
# Poissons Ratio (z) = 0.25770 0.04974
#
# Static dielectric constant tensor:
#      x y z
#    x 1.822370 0.000000 -0.026320 
#    y 0.000000 1.688990 0.000000 
#    z -0.026320 0.000000 1.739860 
# 
# From -- ./inp_files/378041.got.cif
#   From: 2010.05.17/outbox.ucp.g08.bks.cvg/sg12_190_cif.got.tgz:378041.got - 2010.06.11 11:47:21.
