data_PCOD9224802
_publ_section_title
;
Structure prediction by ZEFSAII (Michael W. Deem and Ramdas Pophale) SiO2 
 PCOD9224802
Probable space group: C 2/M
;
_chemical_formula_sum "Si O2"
_cell_formula_units_Z 32
_cell_length_a 30.000000
_cell_length_b 9.000000
_cell_length_c 18.000000
_cell_angle_alpha 90.000000
_cell_angle_beta 140.000000
_cell_angle_gamma 90.000000
_cell_volume 3123.947783
_symmetry_space_group_name_H-M "C 2/M"
_symmetry_group_IT_number 12
_symmetry_cell_setting 'monoclinic'
loop_
_space_group_symop_operation_xyz
x,y,z
-x,y,-z
-x,-y,-z
x,-y,z
1/2+x,1/2+y,z
1/2-x,1/2+y,-z
1/2-x,1/2-y,-z
1/2+x,1/2-y,z
loop_
_atom_site_type_symbol
_atom_site_label
_atom_site_fract_x
_atom_site_fract_y
_atom_site_fract_z
Si Si1 0.892975 0.178538 0.492686
Si Si2 0.663388 0.677211 0.738563
Si Si3 0.180869 0.171637 0.247865
Si Si4 0.961585 0.329362 0.331310
Si Si5 0.440683 0.830424 0.128513
Si Si6 0.047224 0.671910 0.134379
Si Si7 0.305347 0.670823 0.911174
Si Si8 0.710944 0.325984 0.519922
O O1 0.847172 0.218120 0.362049
O O2 0.860343 0.230141 0.530677
O O3 0.967657 0.240735 0.565681
O O4 0.895708 0.000000 0.501211
O O5 0.656887 0.500000 0.737528
O O6 0.604458 0.754342 0.713540
O O7 0.740723 0.731197 0.854927
O O8 0.109600 0.216229 0.197360
O O9 0.178816 0.184232 0.156637
O O10 0.235311 0.291932 0.345886
O O11 0.199872 0.000000 0.290253
O O12 0.966772 0.500000 0.363612
O O13 0.957980 0.331065 0.237161
O O14 0.502168 0.789248 0.149716
O O15 0.420882 0.000000 0.081187
O O16 0.376102 0.722643 0.038125
O O17 0.071945 0.500000 0.174923
O O18 0.000000 0.675002 0.000000
O O19 0.288736 0.500000 0.905810
O O20 0.703159 0.500000 0.493638
O O21 0.750000 0.250000 0.500000
#
# Coordination Sequence:
#
# PCOD9224802 Si02
#       8
#     8   8   8   8   8   8   8   8
#     4  10  23  43  66  92 123 163 208 253 307 373
#     4  11  23  43  69  92 119 161 210 258 313 376
#     4  11  23  38  59  91 126 162 204 255 311 367
#     4  11  25  42  63  93 127 162 204 259 317 370
#     4  10  23  42  61  89 127 167 208 251 310 375
#     4  10  20  36  61  87 117 162 208 247 293 359
#     4  11  23  39  64  95 126 161 208 261 312 365
#     4  11  24  42  63  92 128 166 206 250 306 367
#
# _framework density 10.243449
#
# number of rings (size 3 to 8) (size 9 to 14) (size 15 to 20)
#    0.000    1.375    2.500    2.250    1.750    6.750 
#    0.000    0.000    0.000    0.000    0.000    0.000 
#    0.000    0.000    0.000    0.000    0.000    0.000 
#
# Total GULP energy -178628.312653 kJ/mol
# GULP energy per Si atom -5582.134770 kJ/mol
# Density = 1.022013 g / cm^3
# Si number density = 10.243449 Si / 1000 Ang^3
#
#
#
# Elastic Constant Matrix: (Units=GPa)
#
#
# Indices 1 2 3 4 5 6 
#
# 1 144.3808 29.4289 -0.1827 0.0000 17.8237 0.0000
# 2 29.4289 11.9082 -5.5460 0.0000 -1.3175 0.0000
# 3 -0.1827 -5.5460 25.1066 0.0000 2.8802 0.0000
# 4 0.0000 0.0000 0.0000 19.4843 0.0000 1.4288
# 5 17.8237 -1.3175 2.8802 0.0000 27.8727 0.0000
# 6 0.0000 0.0000 0.0000 1.4288 0.0000 40.8479
#
#
#
# Elastic Compliance Matrix: (Units=1/GPa)
#
#
# Indices 1 2 3 4 5 6 
#
# 1 0.020246 -0.056620 -0.010695 0.000000 -0.014518 0.000000
# 2 -0.056620 0.252103 0.050353 0.000000 0.042920 0.000000
# 3 -0.010695 0.050353 0.050415 0.000000 0.004009 0.000000
# 4 0.000000 0.000000 0.000000 0.051455 0.000000 -0.001800
# 5 -0.014518 0.042920 0.004009 0.000000 0.046776 0.000000
# 6 0.000000 0.000000 0.000000 -0.001800 0.000000 0.024544
#
#
# Mechanical properties :
#
#
# Convention : Reuss Voigt Hill
#
# Bulk Modulus (GPa) = 3.46212 25.42177 14.44195
# Shear Modulus (GPa) = 8.68444 28.15399 18.41921
#
# Velocity S-wave (km/s) = 2.06112 3.71110 3.00171
# Velocity P-wave (km/s) = 2.71254 5.54966 4.36787
#
# Compressibility (1/GPa) = 0.28884053
#
# Stress axis : x y z
#
# Youngs Moduli (GPa) = 49.39331 3.96664 19.83520
#
# Poissons Ratio (x) = 0.22459 0.21213
# Poissons Ratio (y) = 2.79667 -0.99877
# Poissons Ratio (z) = 0.52824 -0.19973
#
# Static dielectric constant tensor:
#      x y z
#    x 1.716070 0.000000 -0.014090 
#    y 0.000000 1.713110 0.000000 
#    z -0.014090 0.000000 1.763050 
# 
# From -- ./inp_files/295693.got.cif
#   From: 2010.05.17/outbox.ucp.g08.bks.cvg/sg12_148_cif.got.tgz:295693.got - 2010.06.11 11:47:21.
