data_PCOD9224262
_publ_section_title
;
Structure prediction by ZEFSAII (Michael W. Deem and Ramdas Pophale) SiO2 
 PCOD9224262
Probable space group: C 2/M
;
_chemical_formula_sum "Si O2"
_cell_formula_units_Z 28
_cell_length_a 21.000000
_cell_length_b 9.000000
_cell_length_c 30.000000
_cell_angle_alpha 90.000000
_cell_angle_beta 150.000000
_cell_angle_gamma 90.000000
_cell_volume 2835.000000
_symmetry_space_group_name_H-M "C 2/M"
_symmetry_group_IT_number 12
_symmetry_cell_setting 'monoclinic'
loop_
_space_group_symop_operation_xyz
x,y,z
-x,y,-z
-x,-y,-z
x,-y,z
1/2+x,1/2+y,z
1/2-x,1/2+y,-z
1/2-x,1/2-y,-z
1/2+x,1/2-y,z
loop_
_atom_site_type_symbol
_atom_site_label
_atom_site_fract_x
_atom_site_fract_y
_atom_site_fract_z
Si Si1 0.752337 0.323355 0.878621
Si Si2 0.773369 0.176291 0.402418
Si Si3 0.136968 0.679091 0.958630
Si Si4 0.483718 0.674480 0.601886
Si Si5 0.251366 0.824987 0.216980
Si Si6 0.360772 0.821542 0.766368
Si Si7 0.949860 0.831046 0.685008
O O1 0.771385 0.500000 0.882099
O O2 0.783879 0.231429 0.853564
O O3 0.597618 0.304145 0.787875
O O4 0.833988 0.280511 0.971788
O O5 0.890087 0.225734 0.505233
O O6 0.739418 0.233931 0.331975
O O7 0.643794 0.214463 0.349657
O O8 0.792234 0.000000 0.410208
O O9 0.141180 0.500000 0.960359
O O10 0.008567 0.724805 0.854406
O O11 0.250000 0.750000 0.000000
O O12 0.520962 0.500000 0.615919
O O13 0.604880 0.778739 0.682494
O O14 0.427302 0.674221 0.617889
O O15 0.173569 0.734107 0.205846
O O16 0.233576 0.000000 0.209863
O O17 0.356480 0.000000 0.761566
O O18 0.918583 0.000000 0.680519
#
# Coordination Sequence:
#
# PCOD9224262 Si02
#       7
#     8   8   8   8   8   8   8
#     4   9  19  37  58  80 110 149 183 217 268 326
#     4  10  20  33  53  79 108 145 185 221 264 319
#     4  10  21  37  60  87 115 147 180 216 265 320
#     4   9  19  36  55  77 108 146 181 218 269 329
#     4  11  23  38  57  81 105 137 183 234 277 315
#     4  10  22  39  56  78 110 147 182 219 266 324
#     4   9  17  30  51  78 109 141 176 222 272 316
#
# _framework density 9.8765429999999999
#
# number of rings (size 3 to 8) (size 9 to 14) (size 15 to 20)
#    0.000    2.286    0.000    3.429    0.000    5.714 
#    0.000    5.714    0.000    0.000    0.000    0.000 
#    0.000    0.000    0.000    0.000    0.000    0.000 
#
# Total GULP energy -155960.234690 kJ/mol
# GULP energy per Si atom -5570.008382 kJ/mol
# Density = 0.985406 g / cm^3
# Si number density = 9.876543 Si / 1000 Ang^3
#
#
#
# Elastic Constant Matrix: (Units=GPa)
#
#
# Indices 1 2 3 4 5 6 
#
# 1 25.2258 -25.4763 6.5461 0.0000 -16.9442 0.0000
# 2 -25.4763 -73.3040 21.9657 0.0000 -10.2020 0.0000
# 3 6.5461 21.9657 45.3737 0.0001 -36.4974 0.0000
# 4 0.0000 0.0000 0.0001 20.3061 0.0000 2.2075
# 5 -16.9442 -10.2020 -36.4974 0.0000 26.8766 0.0000
# 6 0.0000 0.0000 0.0000 2.2075 0.0000 21.7047
#
#
#
# Elastic Compliance Matrix: (Units=1/GPa)
#
#
# Indices 1 2 3 4 5 6 
#
# 1 0.006875 -0.007135 -0.040840 0.000000 -0.053833 0.000000
# 2 -0.007135 -0.008864 0.010877 0.000000 0.006908 0.000000
# 3 -0.040840 0.010877 -0.057158 0.000000 -0.099237 0.000000
# 4 0.000000 0.000000 0.000000 0.049797 0.000001 -0.005065
# 5 -0.053833 0.006908 -0.099237 0.000001 -0.128869 0.000000
# 6 0.000000 0.000000 0.000000 -0.005065 0.000000 0.046588
#
#
# Mechanical properties :
#
#
# Convention : Reuss Voigt Hill
#
# Bulk Modulus (GPa) = -7.49955 0.37405 -3.56275
# Shear Modulus (GPa) = -80.79575 13.39481 -33.70047
#
# Velocity S-wave (km/s) = -6.40247 2.60688 -4.13496
# Velocity P-wave (km/s) = 7.64594 3.04153 4.96032
#
# Compressibility (1/GPa) = -0.13334137
#
# Stress axis : x y z
#
# Youngs Moduli (GPa) = 145.45900 -112.81295 -17.49542
#
# Poissons Ratio (x) = -0.80489 -0.71450
# Poissons Ratio (y) = 1.03782 0.19030
# Poissons Ratio (z) = 5.94047 1.22709
#
# Static dielectric constant tensor:
#      x y z
#    x 1.733290 0.000000 -0.026350 
#    y 0.000000 1.744430 0.000000 
#    z -0.026350 0.000000 1.611080 
# 
# From -- ./inp_files/380796.got.cif
#   From: 2010.05.17/outbox.ucp.g08.bks.cvg/sg12_191_cif.got.tgz:380796.got - 2010.06.11 11:47:21.
