data_PCOD9224279
_publ_section_title
;
Structure prediction by ZEFSAII (Michael W. Deem and Ramdas Pophale) SiO2 
 PCOD9224279
Probable space group: C 2/M
;
_chemical_formula_sum "Si O2"
_cell_formula_units_Z 32
_cell_length_a 15.000000
_cell_length_b 15.000000
_cell_length_c 18.000000
_cell_angle_alpha 90.000000
_cell_angle_beta 120.000000
_cell_angle_gamma 90.000000
_cell_volume 3507.402885
_symmetry_space_group_name_H-M "C 2/M"
_symmetry_group_IT_number 12
_symmetry_cell_setting 'monoclinic'
loop_
_space_group_symop_operation_xyz
x,y,z
-x,y,-z
-x,-y,-z
x,-y,z
1/2+x,1/2+y,z
1/2-x,1/2+y,-z
1/2-x,1/2-y,-z
1/2+x,1/2-y,z
loop_
_atom_site_type_symbol
_atom_site_label
_atom_site_fract_x
_atom_site_fract_y
_atom_site_fract_z
Si Si1 0.880120 0.206708 0.936776
Si Si2 0.791867 0.894115 0.332564
Si Si3 0.665699 0.393367 0.401072
Si Si4 0.388695 0.606665 0.791299
Si Si5 0.371939 0.397068 0.077392
Si Si6 0.359102 0.892240 0.586015
Si Si7 0.197612 0.600598 0.129149
Si Si8 0.501270 0.268269 0.588546
O O1 0.845268 0.158501 0.845563
O O2 0.867183 0.312453 0.920604
O O3 0.833977 0.165493 0.993694
O O4 0.000000 0.185077 0.000000
O O5 0.712231 0.874988 0.368824
O O6 0.730343 0.891804 0.228939
O O7 0.887212 0.823063 0.360948
O O8 0.826164 0.000000 0.357056
O O9 0.645732 0.500000 0.397648
O O10 0.654277 0.368481 0.308601
O O11 0.778239 0.377409 0.484076
O O12 0.582284 0.340001 0.415594
O O13 0.373335 0.500000 0.793968
O O14 0.512151 0.624236 0.846357
O O15 0.374278 0.500000 0.050970
O O16 0.297177 0.393469 0.116927
O O17 0.456367 0.823350 0.612261
O O18 0.385832 0.000000 0.598668
O O19 0.153446 0.500000 0.099858
O O20 0.500000 0.247797 0.500000
#
# Coordination Sequence:
#
# PCOD9224279 Si02
#       8
#     8   8   8   8   8   8   8   8
#     4  10  20  33  55  83 112 146 183 226 283 347
#     4  10  22  41  62  87 118 157 202 250 298 348
#     4  10  20  35  56  85 119 152 195 249 296 344
#     4   9  18  32  54  83 112 143 183 231 285 337
#     4   9  17  33  54  79 111 142 180 230 286 338
#     4  10  23  41  59  83 123 165 201 242 299 359
#     4  10  21  36  56  81 111 147 187 234 282 337
#     4  12  23  34  61  88 115 151 207 250 297 344
#
# _framework density 9.1235599999999994
#
# number of rings (size 3 to 8) (size 9 to 14) (size 15 to 20)
#    0.000    2.000    1.250    2.250    1.750    4.500 
#    0.000    0.000    0.000    1.500    0.000    0.000 
#    0.000    0.000    0.000    0.000    0.000    0.000 
#
# Total GULP energy -178218.302658 kJ/mol
# GULP energy per Si atom -5569.321958 kJ/mol
# Density = 0.910279 g / cm^3
# Si number density = 9.123560 Si / 1000 Ang^3
#
#
#
# Elastic Constant Matrix: (Units=GPa)
#
#
# Indices 1 2 3 4 5 6 
#
# 1 61.4104 25.8176 27.6013 0.0000 -22.4324 0.0000
# 2 25.8176 92.7869 30.7508 0.0000 -12.5781 0.0000
# 3 27.6013 30.7508 92.8684 0.0000 -31.6495 0.0000
# 4 0.0000 0.0000 0.0000 31.2843 0.0000 -2.0102
# 5 -22.4324 -12.5781 -31.6495 0.0000 28.5588 0.0000
# 6 0.0000 0.0000 0.0000 -2.0102 0.0000 41.8613
#
#
#
# Elastic Compliance Matrix: (Units=1/GPa)
#
#
# Indices 1 2 3 4 5 6 
#
# 1 0.024464 -0.004497 0.000148 0.000000 0.017399 0.000000
# 2 -0.004497 0.012969 -0.003559 0.000000 -0.001765 0.000000
# 3 0.000148 -0.003559 0.018331 0.000000 0.018864 0.000000
# 4 0.000000 0.000000 0.000000 0.032064 0.000000 0.001540
# 5 0.017399 -0.001765 0.018864 0.000000 0.068810 0.000000
# 6 0.000000 0.000000 0.000000 0.001540 0.000000 0.023962
#
#
# Mechanical properties :
#
#
# Convention : Reuss Voigt Hill
#
# Bulk Modulus (GPa) = 25.03332 46.15611 35.59471
# Shear Modulus (GPa) = 23.83979 31.20061 27.52020
#
# Velocity S-wave (km/s) = 3.61847 4.13957 3.88776
# Velocity P-wave (km/s) = 5.58629 6.94248 6.30098
#
# Compressibility (1/GPa) = 0.03994676
#
# Stress axis : x y z
#
# Youngs Moduli (GPa) = 40.87670 77.10656 54.55155
#
# Poissons Ratio (x) = 0.34678 -0.00807
# Poissons Ratio (y) = 0.18384 0.19416
# Poissons Ratio (z) = -0.00605 0.27444
#
# Static dielectric constant tensor:
#      x y z
#    x 1.634690 0.000000 -0.007300 
#    y 0.000000 1.666790 0.000000 
#    z -0.007300 0.000000 1.636350 
# 
# From -- ./inp_files/270312.got.cif
#   From: 2010.05.17/outbox.ucp.g08.bks.cvg/sg12_136_cif.got.tgz:270312.got - 2010.06.11 11:47:21.
