data_PCOD9224964
_publ_section_title
;
Structure prediction by ZEFSAII (Michael W. Deem and Ramdas Pophale) SiO2 
 PCOD9224964
Probable space group: C 2/M
;
_chemical_formula_sum "Si O2"
_cell_formula_units_Z 32
_cell_length_a 30.000000
_cell_length_b 9.000000
_cell_length_c 15.000000
_cell_angle_alpha 90.000000
_cell_angle_beta 50.000000
_cell_angle_gamma 90.000000
_cell_volume 3102.479995
_symmetry_space_group_name_H-M "C 2/M"
_symmetry_group_IT_number 12
_symmetry_cell_setting 'monoclinic'
loop_
_space_group_symop_operation_xyz
x,y,z
-x,y,-z
-x,-y,-z
x,-y,z
1/2+x,1/2+y,z
1/2-x,1/2+y,-z
1/2-x,1/2-y,-z
1/2+x,1/2-y,z
loop_
_atom_site_type_symbol
_atom_site_label
_atom_site_fract_x
_atom_site_fract_y
_atom_site_fract_z
Si Si1 0.068524 0.830247 0.890251
Si Si2 0.225479 0.324266 0.444298
Si Si3 0.576922 0.178236 0.239402
Si Si4 0.117750 0.677363 0.000150
Si Si5 0.736209 0.169829 0.778433
Si Si6 0.599148 0.828571 0.667778
Si Si7 0.135103 0.169739 0.310712
Si Si8 0.455763 0.173237 0.446173
O O1 0.096719 0.737300 0.933061
O O2 0.083749 0.765944 0.773730
O O3 0.088713 0.000000 0.868422
O O4 0.000000 0.826226 0.000000
O O5 0.230002 0.500000 0.441820
O O6 0.250000 0.250000 0.500000
O O7 0.259791 0.267534 0.314789
O O8 0.157316 0.284401 0.539159
O O9 0.630560 0.230685 0.228919
O O10 0.521527 0.229023 0.369032
O O11 0.572903 0.000000 0.241650
O O12 0.584051 0.236400 0.129925
O O13 0.110220 0.500000 0.011286
O O14 0.186303 0.712636 0.912032
O O15 0.799616 0.174404 0.738391
O O16 0.723575 0.000000 0.766410
O O17 0.551629 0.823665 0.651441
O O18 0.606251 0.000000 0.687850
O O19 0.092399 0.234081 0.441139
O O20 0.119264 0.000000 0.310824
O O21 0.450022 0.000000 0.481608
#
# Coordination Sequence:
#
# PCOD9224964 Si02
#       8
#     8   8   8   8   8   8   8   8
#     4  11  24  39  57  87 124 157 192 240 298 354
#     4  11  22  36  57  85 116 151 193 239 289 345
#     4  10  22  39  62  87 113 151 200 251 295 345
#     4  10  22  42  64  85 114 157 206 247 287 345
#     4  10  22  40  60  85 119 156 197 243 292 350
#     4  10  21  37  59  85 113 152 199 239 283 345
#     4  11  23  38  59  88 122 155 190 241 303 358
#     4  10  20  38  61  87 117 150 197 248 292 349
#
# _framework density 10.314329000000001
#
# number of rings (size 3 to 8) (size 9 to 14) (size 15 to 20)
#    0.000    1.625    1.250    3.000    0.000   10.500 
#    0.000    0.000    0.000    0.000    0.000    0.000 
#    0.000    0.000    0.000    0.000    0.000    0.000 
#
# Total GULP energy -178513.412513 kJ/mol
# GULP energy per Si atom -5578.544141 kJ/mol
# Density = 1.029085 g / cm^3
# Si number density = 10.314329 Si / 1000 Ang^3
#
#
#
# Elastic Constant Matrix: (Units=GPa)
#
#
# Indices 1 2 3 4 5 6 
#
# 1 49.2763 13.2026 16.9945 0.0000 1.5684 0.0000
# 2 13.2026 -41.6001 5.0116 0.0001 -31.0038 0.0000
# 3 16.9945 5.0116 60.5303 0.0000 -18.5943 0.0000
# 4 0.0000 0.0001 0.0000 6.2435 0.0000 -5.8195
# 5 1.5684 -31.0038 -18.5943 0.0000 16.4877 0.0000
# 6 0.0000 0.0000 0.0000 -5.8195 0.0000 17.9227
#
#
#
# Elastic Compliance Matrix: (Units=1/GPa)
#
#
# Indices 1 2 3 4 5 6 
#
# 1 0.020944 0.005187 -0.006006 0.000000 0.000988 0.000000
# 2 0.005187 -0.006873 -0.007664 0.000000 -0.022062 0.000000
# 3 -0.006006 -0.007664 0.022323 0.000000 0.011335 0.000000
# 4 0.000000 0.000000 0.000000 0.229678 0.000000 0.074576
# 5 0.000988 -0.022062 0.011335 0.000000 0.031855 0.000000
# 6 0.000000 0.000000 0.000000 0.074576 0.000000 0.080010
#
#
# Mechanical properties :
#
#
# Convention : Reuss Voigt Hill
#
# Bulk Modulus (GPa) = 51.47473 15.40265 33.43869
# Shear Modulus (GPa) = 12.45706 10.33065 11.39386
#
# Velocity S-wave (km/s) = 2.46005 2.24026 2.35272
# Velocity P-wave (km/s) = 5.75120 3.76491 4.86060
#
# Compressibility (1/GPa) = 0.01942701
#
# Stress axis : x y z
#
# Youngs Moduli (GPa) = 47.74655 -145.49028 44.79610
#
# Poissons Ratio (x) = 0.75466 0.26905
# Poissons Ratio (y) = -0.24766 0.34333
# Poissons Ratio (z) = 0.28677 -1.11509
#
# Static dielectric constant tensor:
#      x y z
#    x 1.323500 0.000000 0.114720 
#    y 0.000000 1.707370 0.000000 
#    z 0.114720 0.000000 1.650510 
# 
# From -- ./inp_files/249680.got.cif
#   From: 2010.05.17/outbox.ucp.g08.bks.cvg/sg12_125_cif.got.tgz:249680.got - 2010.06.11 11:47:21.
