data_PCOD9224053
_publ_section_title
;
Structure prediction by ZEFSAII (Michael W. Deem and Ramdas Pophale) SiO2 
 PCOD9224053
Probable space group: C 2/M
;
_chemical_formula_sum "Si O2"
_cell_formula_units_Z 28
_cell_length_a 30.000000
_cell_length_b 9.000000
_cell_length_c 21.000000
_cell_angle_alpha 90.000000
_cell_angle_beta 150.000000
_cell_angle_gamma 90.000000
_cell_volume 2835.000000
_symmetry_space_group_name_H-M "C 2/M"
_symmetry_group_IT_number 12
_symmetry_cell_setting 'monoclinic'
loop_
_space_group_symop_operation_xyz
x,y,z
-x,y,-z
-x,-y,-z
x,-y,z
1/2+x,1/2+y,z
1/2-x,1/2+y,-z
1/2-x,1/2-y,-z
1/2+x,1/2-y,z
loop_
_atom_site_type_symbol
_atom_site_label
_atom_site_fract_x
_atom_site_fract_y
_atom_site_fract_z
Si Si1 0.059052 0.330616 0.636122
Si Si2 0.233138 0.174090 0.809907
Si Si3 0.734514 0.672901 0.283479
Si Si4 0.506248 0.321280 0.214686
Si Si5 0.445240 0.679904 0.869349
Si Si6 0.183291 0.824727 0.968840
Si Si7 0.073796 0.328105 0.413020
O O1 0.095410 0.500000 0.693534
O O2 0.132034 0.210472 0.705871
O O3 0.000000 0.344568 0.500000
O O4 0.999408 0.286033 0.623238
O O5 0.258952 0.224959 0.770907
O O6 0.252877 0.000000 0.844021
O O7 0.282087 0.284324 0.918577
O O8 0.717209 0.500000 0.242317
O O9 0.656956 0.714190 0.237680
O O10 0.830901 0.678026 0.434793
O O11 0.502338 0.500000 0.206979
O O12 0.521347 0.268782 0.159876
O O13 0.418366 0.270944 0.146303
O O14 0.579339 0.266158 0.355255
O O15 0.453392 0.500000 0.877176
O O16 0.500000 0.730625 0.000000
O O17 0.182805 0.000000 0.954933
O O18 0.250000 0.750000 0.000000
O O19 0.055149 0.500000 0.373168
#
# Coordination Sequence:
#
# PCOD9224053 Si02
#       7
#     8   8   8   8   8   8   8
#     4  10  19  36  58  81 114 157 202 238 282 345
#     4  12  24  36  56  88 121 153 194 244 298 347
#     4  10  20  38  61  84 113 153 200 240 284 348
#     4  10  22  39  60  87 116 150 192 244 296 347
#     4   9  18  36  63  88 109 144 197 247 292 345
#     4  11  23  40  61  85 117 155 197 242 294 354
#     4  10  21  36  57  85 117 155 193 234 289 352
#
# _framework density 9.8765429999999999
#
# number of rings (size 3 to 8) (size 9 to 14) (size 15 to 20)
#    0.000    1.714    1.429    3.429    0.000    7.714 
#    0.000    0.714    0.000    1.714    0.000    0.000 
#    0.000    0.000    0.000    0.000    0.000    0.000 
#
# Total GULP energy -156015.748175 kJ/mol
# GULP energy per Si atom -5571.991006 kJ/mol
# Density = 0.985406 g / cm^3
# Si number density = 9.876543 Si / 1000 Ang^3
#
#
#
# Elastic Constant Matrix: (Units=GPa)
#
#
# Indices 1 2 3 4 5 6 
#
# 1 173.4639 25.0757 32.4170 0.0000 -8.5262 0.0000
# 2 25.0757 2.4362 -4.7110 0.0000 6.8690 0.0000
# 3 32.4170 -4.7110 30.2875 0.0000 -7.3538 0.0000
# 4 0.0000 0.0000 0.0000 15.3507 0.0000 -20.8282
# 5 -8.5262 6.8690 -7.3538 0.0000 34.0217 0.0000
# 6 0.0000 0.0000 0.0000 -20.8282 0.0000 -63.5313
#
#
#
# Elastic Compliance Matrix: (Units=1/GPa)
#
#
# Indices 1 2 3 4 5 6 
#
# 1 -0.000839 0.036923 0.005044 0.000000 -0.006575 0.000000
# 2 0.036923 -0.169450 -0.058387 0.000000 0.030845 0.000000
# 3 0.005044 -0.058387 0.022908 0.000000 0.018004 0.000000
# 4 0.000000 0.000000 0.000000 0.045088 0.000000 -0.014782
# 5 -0.006575 0.030845 0.018004 0.000000 0.025409 0.000000
# 6 0.000000 0.000000 0.000000 -0.014782 0.000000 -0.010894
#
#
# Mechanical properties :
#
#
# Convention : Reuss Voigt Hill
#
# Bulk Modulus (GPa) = -5.54877 34.63900 14.54512
# Shear Modulus (GPa) = -43.47322 7.39530 -18.03896
#
# Velocity S-wave (km/s) = -4.69639 1.93701 -3.02524
# Velocity P-wave (km/s) = 5.67656 4.75150 2.19620
#
# Compressibility (1/GPa) = -0.18022022
#
# Stress axis : x y z
#
# Youngs Moduli (GPa) = -1192.60514 -5.90143 43.65350
#
# Poissons Ratio (x) = 0.21790 -0.22020
# Poissons Ratio (y) = 44.03460 2.54879
# Poissons Ratio (z) = 6.01583 -0.34457
#
# Static dielectric constant tensor:
#      x y z
#    x 2.910850 0.000000 3.837630 
#    y 0.000000 1.692590 0.000000 
#    z 3.837630 0.000000 13.537760 
# 
# From -- ./inp_files/329668.got.cif
#   From: 2010.05.17/outbox.ucp.g08.bks.cvg/sg12_165_cif.got.tgz:329668.got - 2010.06.11 11:47:21.
