data_PCOD9224906
_publ_section_title
;
Structure prediction by ZEFSAII (Michael W. Deem and Ramdas Pophale) SiO2 
 PCOD9224906
Probable space group: C 2/M
;
_chemical_formula_sum "Si O2"
_cell_formula_units_Z 20
_cell_length_a 21.000000
_cell_length_b 9.000000
_cell_length_c 30.000000
_cell_angle_alpha 90.000000
_cell_angle_beta 20.000000
_cell_angle_gamma 90.000000
_cell_volume 1939.254213
_symmetry_space_group_name_H-M "C 2/M"
_symmetry_group_IT_number 12
_symmetry_cell_setting 'monoclinic'
loop_
_space_group_symop_operation_xyz
x,y,z
-x,y,-z
-x,-y,-z
x,-y,z
1/2+x,1/2+y,z
1/2-x,1/2+y,-z
1/2-x,1/2-y,-z
1/2+x,1/2-y,z
loop_
_atom_site_type_symbol
_atom_site_label
_atom_site_fract_x
_atom_site_fract_y
_atom_site_fract_z
Si Si1 0.982666 0.820932 0.604503
Si Si2 0.849870 0.829925 0.059298
Si Si3 0.658793 0.821816 0.678457
Si Si4 0.921965 0.681095 0.166945
Si Si5 0.986795 0.174033 0.316689
O O1 0.775827 0.778712 0.726044
O O2 0.057801 0.766263 0.603606
O O3 0.123714 0.784431 0.471875
O O4 0.980871 0.000000 0.610159
O O5 0.929371 0.770880 0.960061
O O6 0.774967 0.000000 0.103712
O O7 0.706020 0.706652 0.170723
O O8 0.000000 0.837344 0.000000
O O9 0.584615 0.777937 0.776099
O O10 0.574231 0.753212 0.688974
O O11 0.639196 0.000000 0.689144
O O12 0.945972 0.500000 0.148105
O O13 0.938963 0.000000 0.345839
#
# Coordination Sequence:
#
# PCOD9224906 Si02
#       5
#     8   8   8   8   8
#     4   9  18  35  60  87 114 151 194 231 275 336
#     4  11  23  39  60  85 113 146 189 241 290 337
#     4  10  21  37  58  87 121 152 186 232 284 336
#     4  10  20  37  62  87 114 151 192 234 280 336
#     4  11  22  37  60  86 116 153 191 234 280 336
#
# _framework density 10.313243
#
# number of rings (size 3 to 8) (size 9 to 14) (size 15 to 20)
#    0.000    1.800    2.000    2.400    0.000    4.800 
#    0.000    2.000    0.000    2.400    0.000    0.000 
#    0.000    0.000    0.000    0.000    0.000    0.000 
#
# Total GULP energy -111465.882289 kJ/mol
# GULP energy per Si atom -5573.294114 kJ/mol
# Density = 1.028977 g / cm^3
# Si number density = 10.313243 Si / 1000 Ang^3
#
#
#
# Elastic Constant Matrix: (Units=GPa)
#
#
# Indices 1 2 3 4 5 6 
#
# 1 123.1733 12.2019 12.6917 0.0145 36.8963 -0.0093
# 2 12.2019 27.4665 -6.4250 0.0096 12.7522 -0.0036
# 3 12.6917 -6.4250 26.9631 -0.0175 27.7616 -0.0030
# 4 0.0145 0.0096 -0.0175 -2.4732 -0.0084 13.9082
# 5 36.8963 12.7522 27.7616 -0.0084 47.4022 0.0037
# 6 -0.0093 -0.0036 -0.0030 13.9082 0.0037 29.2361
#
#
#
# Elastic Compliance Matrix: (Units=1/GPa)
#
#
# Indices 1 2 3 4 5 6 
#
# 1 0.013769 0.021326 0.039150 0.000030 -0.039383 0.000002
# 2 0.021326 0.199609 0.276845 0.000063 -0.232435 0.000059
# 3 0.039150 0.276845 0.485361 0.000003 -0.389207 0.000144
# 4 0.000030 0.000063 0.000003 -0.110015 -0.000065 0.052337
# 5 -0.039383 -0.232435 -0.389207 -0.000065 0.342224 -0.000093
# 6 0.000002 0.000059 0.000144 0.052337 -0.000093 0.009307
#
#
# Mechanical properties :
#
#
# Convention : Reuss Voigt Hill
#
# Bulk Modulus (GPa) = 0.72813 23.83781 12.28297
# Shear Modulus (GPa) = 6.91174 25.44196 16.17685
#
# Velocity S-wave (km/s) = 1.83253 3.51588 2.80353
# Velocity P-wave (km/s) = 2.19803 5.29753 4.05556
#
# Compressibility (1/GPa) = 1.37337947
#
# Stress axis : x y z
#
# Youngs Moduli (GPa) = 72.62595 5.00980 2.06032
#
# Poissons Ratio (x) = -0.10684 -0.08066
# Poissons Ratio (y) = -1.54880 -0.57039
# Poissons Ratio (z) = -2.84329 -1.38694
#
# Static dielectric constant tensor:
#      x y z
#    x 1.737420 0.000000 -0.033190 
#    y 0.000000 1.701020 0.000010 
#    z -0.033190 0.000010 1.840810 
# 
# From -- ./inp_files/151754.got.cif
#   From: 2010.05.17/outbox.ucp.g08.bks.cvg/sg12_76_cif.got.tgz:151754.got - 2010.06.11 11:47:21.
