data_PCOD9224824
_publ_section_title
;
Structure prediction by ZEFSAII (Michael W. Deem and Ramdas Pophale) SiO2 
 PCOD9224824
Probable space group: C 2/M
;
_chemical_formula_sum "Si O2"
_cell_formula_units_Z 20
_cell_length_a 18.000000
_cell_length_b 15.000000
_cell_length_c 21.000000
_cell_angle_alpha 90.000000
_cell_angle_beta 20.000000
_cell_angle_gamma 90.000000
_cell_volume 1939.254213
_symmetry_space_group_name_H-M "C 2/M"
_symmetry_group_IT_number 12
_symmetry_cell_setting 'monoclinic'
loop_
_space_group_symop_operation_xyz
x,y,z
-x,y,-z
-x,-y,-z
x,-y,z
1/2+x,1/2+y,z
1/2-x,1/2+y,-z
1/2-x,1/2-y,-z
1/2+x,1/2-y,z
loop_
_atom_site_type_symbol
_atom_site_label
_atom_site_fract_x
_atom_site_fract_y
_atom_site_fract_z
Si Si1 0.312111 0.795514 0.199013
Si Si2 0.463824 0.104209 0.203231
Si Si3 0.761274 0.897181 0.289956
Si Si4 0.945651 0.107378 0.824970
Si Si5 0.982219 0.105199 0.377077
O O1 0.378767 0.838507 0.212476
O O2 0.308776 0.688240 0.207513
O O3 0.096979 0.837237 0.340018
O O4 0.500000 0.823593 0.000000
O O5 0.275693 0.108759 0.406534
O O6 0.482001 0.000000 0.168031
O O7 0.697968 0.132171 0.041718
O O8 0.500000 0.901080 0.500000
O O9 0.875023 0.871263 0.266023
O O10 0.835033 0.000000 0.214840
O O11 0.970267 0.139235 0.732362
O O12 0.958279 0.000000 0.810597
O O13 0.048218 0.000000 0.330391
#
# Coordination Sequence:
#
# PCOD9224824 Si02
#       5
#     8   8   8   8   8
#     4  12  23  38  59  91 126 164 200 243 299 360
#     4  10  20  36  62  95 129 158 191 243 303 366
#     4  10  23  45  65  82 115 161 209 258 299 347
#     4   9  19  39  64  90 119 155 200 250 303 354
#     4  10  20  37  64  96 126 156 193 242 304 367
#
# _framework density 10.313243
#
# number of rings (size 3 to 8) (size 9 to 14) (size 15 to 20)
#    0.000    1.800    2.000    2.400    0.000    3.600 
#    3.600    2.000    0.000    0.000    0.000    0.000 
#    0.000    0.000    0.000    0.000    0.000    0.000 
#
# Total GULP energy -111536.428006 kJ/mol
# GULP energy per Si atom -5576.821400 kJ/mol
# Density = 1.028977 g / cm^3
# Si number density = 10.313243 Si / 1000 Ang^3
#
#
#
# Elastic Constant Matrix: (Units=GPa)
#
#
# Indices 1 2 3 4 5 6 
#
# 1 100.5777 25.0308 35.9236 -0.0448 -39.7740 0.0089
# 2 25.0308 76.7073 14.9503 -0.0588 -4.9226 -0.0140
# 3 35.9236 14.9503 73.9832 -0.1107 -23.7418 -0.0285
# 4 -0.0448 -0.0588 -0.1107 4.4062 0.0044 8.5946
# 5 -39.7740 -4.9226 -23.7418 0.0044 31.5541 0.0132
# 6 0.0089 -0.0140 -0.0285 8.5946 0.0132 20.5819
#
#
#
# Elastic Compliance Matrix: (Units=1/GPa)
#
#
# Indices 1 2 3 4 5 6 
#
# 1 0.021937 -0.005247 -0.001291 0.000841 0.025862 -0.000383
# 2 -0.005247 0.014826 -0.002410 0.000350 -0.006114 -0.000133
# 3 -0.001291 -0.002410 0.018444 0.002012 0.011874 -0.000824
# 4 0.000841 0.000350 0.002012 1.223884 0.002672 -0.511069
# 5 0.025862 -0.006114 0.011874 0.002672 0.072271 -0.001161
# 6 -0.000383 -0.000133 -0.000824 -0.511069 -0.001161 0.261999
#
#
# Mechanical properties :
#
#
# Convention : Reuss Voigt Hill
#
# Bulk Modulus (GPa) = 26.80148 44.78640 35.79394
# Shear Modulus (GPa) = 3.04193 22.99934 13.02064
#
# Velocity S-wave (km/s) = 1.21572 3.34284 2.51521
# Velocity P-wave (km/s) = 3.87202 6.05472 5.08194
#
# Compressibility (1/GPa) = 0.03731137
#
# Stress axis : x y z
#
# Youngs Moduli (GPa) = 45.58508 67.44816 54.21913
#
# Poissons Ratio (x) = 0.35387 0.07001
# Poissons Ratio (y) = 0.23916 0.13066
# Poissons Ratio (z) = 0.05886 0.16255
#
# Static dielectric constant tensor:
#      x y z
#    x 1.709350 -0.000010 0.005410 
#    y -0.000010 1.759290 0.000020 
#    z 0.005410 0.000020 1.777280 
# 
# From -- ./inp_files/72856.got.cif
#   From: 2010.05.17/outbox.ucp.g08.bks.cvg/sg12_37_cif.got.tgz:72856.got - 2010.06.11 11:47:21.
