data_PCOD9224570
_publ_section_title
;
Structure prediction by ZEFSAII (Michael W. Deem and Ramdas Pophale) SiO2 
 PCOD9224570
Probable space group: C 2/M
;
_chemical_formula_sum "Si O2"
_cell_formula_units_Z 24
_cell_length_a 12.000000
_cell_length_b 27.000000
_cell_length_c 21.000000
_cell_angle_alpha 90.000000
_cell_angle_beta 20.000000
_cell_angle_gamma 90.000000
_cell_volume 2327.105055
_symmetry_space_group_name_H-M "C 2/M"
_symmetry_group_IT_number 12
_symmetry_cell_setting 'monoclinic'
loop_
_space_group_symop_operation_xyz
x,y,z
-x,y,-z
-x,-y,-z
x,-y,z
1/2+x,1/2+y,z
1/2-x,1/2+y,-z
1/2-x,1/2-y,-z
1/2+x,1/2-y,z
loop_
_atom_site_type_symbol
_atom_site_label
_atom_site_fract_x
_atom_site_fract_y
_atom_site_fract_z
Si Si1 0.025419 0.401161 0.828542
Si Si2 0.868983 0.940798 0.420276
Si Si3 0.356417 0.290760 0.276107
Si Si4 0.649274 0.941653 0.206746
Si Si5 0.671998 0.302435 0.973933
Si Si6 0.153900 0.897089 0.148569
O O1 0.358502 0.409744 0.687682
O O2 0.053728 0.431211 0.747971
O O3 0.915150 0.345704 0.868583
O O4 0.746327 0.418003 0.029073
O O5 0.529098 0.923775 0.634023
O O6 0.921378 0.929619 0.318022
O O7 0.914571 0.000000 0.406718
O O8 0.606594 0.246154 0.156721
O O9 0.497908 0.342940 0.225267
O O10 0.000000 0.283143 0.500000
O O11 0.399525 0.294089 0.175654
O O12 0.686727 0.000000 0.195667
O O13 0.000000 0.920745 0.000000
O O14 0.500000 0.314617 0.000000
O O15 0.500000 0.893422 0.000000
#
# Coordination Sequence:
#
# PCOD9224570 Si02
#       6
#     8   8   8   8   8   8
#     4  10  20  35  57  83 112 147 188 236 287 339
#     4  10  21  37  59  86 114 149 196 243 287 341
#     4  10  22  39  60  86 116 153 194 237 287 341
#     4  10  21  36  53  77 112 150 187 232 287 342
#     4  10  22  40  59  85 120 152 191 238 286 344
#     4   9  20  37  58  82 112 148 188 237 290 341
#
# _framework density 10.313243
#
# number of rings (size 3 to 8) (size 9 to 14) (size 15 to 20)
#    0.000    2.167    0.000    2.000    0.000   12.333 
#    0.000    0.000    0.000    3.500    0.000    0.000 
#    0.000    0.000    0.000    0.000    0.000    0.000 
#
# Total GULP energy -133815.820805 kJ/mol
# GULP energy per Si atom -5575.659200 kJ/mol
# Density = 1.028977 g / cm^3
# Si number density = 10.313243 Si / 1000 Ang^3
#
#
#
# Elastic Constant Matrix: (Units=GPa)
#
#
# Indices 1 2 3 4 5 6 
#
# 1 46.6533 25.5533 22.8295 -0.0914 23.8291 0.0842
# 2 25.5533 58.3319 44.5513 0.0122 5.0026 0.0121
# 3 22.8295 44.5513 154.1051 0.8589 44.8248 0.5290
# 4 -0.0914 0.0122 0.8589 -32.4023 0.9370 -11.3010
# 5 23.8291 5.0026 44.8248 0.9370 29.1951 0.0488
# 6 0.0842 0.0121 0.5290 -11.3010 0.0488 25.6487
#
#
#
# Elastic Compliance Matrix: (Units=1/GPa)
#
#
# Indices 1 2 3 4 5 6 
#
# 1 0.144807 -0.095594 0.064678 -0.003519 -0.200998 -0.002933
# 2 -0.095594 0.087184 -0.053108 0.002335 0.144546 0.002122
# 3 0.064678 -0.053108 0.045116 -0.001696 -0.112903 -0.001650
# 4 -0.003519 0.002335 -0.001696 -0.026642 0.005951 -0.011704
# 5 -0.200998 0.144546 -0.112903 0.005951 0.346686 0.004883
# 6 -0.002933 0.002122 -0.001650 -0.011704 0.004883 0.033865
#
#
# Mechanical properties :
#
#
# Convention : Reuss Voigt Hill
#
# Bulk Modulus (GPa) = 9.16931 49.43984 29.30457
# Shear Modulus (GPa) = 5.98504 15.56537 10.77520
#
# Velocity S-wave (km/s) = 1.70526 2.75003 2.28808
# Velocity P-wave (km/s) = 2.88657 5.83992 4.60635
#
# Compressibility (1/GPa) = 0.10905947
#
# Stress axis : x y z
#
# Youngs Moduli (GPa) = 6.90574 11.47001 22.16511
#
# Poissons Ratio (x) = 1.09647 -1.43360
# Poissons Ratio (y) = 0.66015 1.17714
# Poissons Ratio (z) = -0.44665 0.60915
#
# Static dielectric constant tensor:
#      x y z
#    x 1.798480 -0.000100 -0.012470 
#    y -0.000100 1.717000 0.000350 
#    z -0.012470 0.000350 1.773640 
# 
# From -- ./inp_files/307528.got.cif
#   From: 2010.05.17/outbox.ucp.g08.bks.cvg/sg12_154_cif.got.tgz:307528.got - 2010.06.11 11:47:21.
