data_PCOD9224632
_publ_section_title
;
Structure prediction by ZEFSAII (Michael W. Deem and Ramdas Pophale) SiO2 
 PCOD9224632
Probable space group: C 2/M
;
_chemical_formula_sum "Si O2"
_cell_formula_units_Z 24
_cell_length_a 24.000000
_cell_length_b 9.000000
_cell_length_c 12.000000
_cell_angle_alpha 90.000000
_cell_angle_beta 70.000000
_cell_angle_gamma 90.000000
_cell_volume 2435.683273
_symmetry_space_group_name_H-M "C 2/M"
_symmetry_group_IT_number 12
_symmetry_cell_setting 'monoclinic'
loop_
_space_group_symop_operation_xyz
x,y,z
-x,y,-z
-x,-y,-z
x,-y,z
1/2+x,1/2+y,z
1/2-x,1/2+y,-z
1/2-x,1/2-y,-z
1/2+x,1/2-y,z
loop_
_atom_site_type_symbol
_atom_site_label
_atom_site_fract_x
_atom_site_fract_y
_atom_site_fract_z
Si Si1 0.621247 0.679943 0.314169
Si Si2 0.672995 0.679737 0.757360
Si Si3 0.547578 0.175293 0.876860
Si Si4 0.506153 0.670265 0.690739
Si Si5 0.772762 0.321186 0.870632
Si Si6 0.855984 0.829083 0.465129
O O1 0.627487 0.500000 0.308653
O O2 0.551091 0.708556 0.344548
O O3 0.661909 0.755229 0.194193
O O4 0.649835 0.741061 0.409768
O O5 0.670135 0.500000 0.755552
O O6 0.609849 0.739712 0.843839
O O7 0.727079 0.721211 0.801234
O O8 0.673268 0.734195 0.627331
O O9 0.515574 0.215136 0.783281
O O10 0.558830 0.000000 0.877869
O O11 0.500000 0.222769 0.000000
O O12 0.495916 0.500000 0.738401
O O13 0.572049 0.666895 0.593847
O O14 0.774047 0.500000 0.875796
O O15 0.750000 0.250000 0.000000
O O16 0.835423 0.000000 0.485539
#
# Coordination Sequence:
#
# PCOD9224632 Si02
#       6
#     8   8   8   8   8   8
#     4  10  20  35  59  88 115 150 189 226 278 334
#     4   9  20  39  60  80 106 146 191 233 274 331
#     4  10  21  34  52  81 112 145 183 231 287 330
#     4   9  18  33  55  84 116 150 186 224 270 333
#     4  11  25  42  58  80 112 150 194 237 280 329
#     4   8  15  33  60  87 113 142 184 233 276 328
#
# _framework density 9.8534980000000001
#
# number of rings (size 3 to 8) (size 9 to 14) (size 15 to 20)
#    0.000    2.500    0.000    2.500    2.333    6.000 
#    0.000    3.333    0.000    5.000    0.000    0.000 
#    0.000    0.000    0.000    0.000    0.000    0.000 
#
# Total GULP energy -133672.572423 kJ/mol
# GULP energy per Si atom -5569.690518 kJ/mol
# Density = 0.983107 g / cm^3
# Si number density = 9.853498 Si / 1000 Ang^3
#
#
#
# Elastic Constant Matrix: (Units=GPa)
#
#
# Indices 1 2 3 4 5 6 
#
# 1 82.2182 8.5106 4.6472 0.0000 24.4709 0.0000
# 2 8.5106 -1.4940 0.0251 0.0000 0.4795 0.0000
# 3 4.6472 0.0251 49.1376 0.0000 0.4552 0.0000
# 4 0.0000 0.0000 0.0000 14.4730 0.0000 2.3905
# 5 24.4709 0.4795 0.4552 0.0000 15.1107 0.0000
# 6 0.0000 0.0000 0.0000 2.3905 0.0000 26.3892
#
#
#
# Elastic Compliance Matrix: (Units=1/GPa)
#
#
# Indices 1 2 3 4 5 6 
#
# 1 0.012209 0.062562 -0.000985 0.000000 -0.021728 0.000000
# 2 0.062562 -0.342025 -0.004906 0.000000 -0.090315 0.000000
# 3 -0.000985 -0.004906 0.020436 0.000000 0.001136 0.000000
# 4 0.000000 0.000000 0.000000 0.070144 0.000000 -0.006354
# 5 -0.021728 -0.090315 0.001136 0.000000 0.104197 0.000000
# 6 0.000000 0.000000 0.000000 -0.006354 0.000000 0.038470
#
#
# Mechanical properties :
#
#
# Convention : Reuss Voigt Hill
#
# Bulk Modulus (GPa) = -5.10106 17.35861 6.12877
# Shear Modulus (GPa) = -18.16490 18.97317 0.40414
#
# Velocity S-wave (km/s) = -3.03933 3.10621 0.45334
# Velocity P-wave (km/s) = 3.86144 4.65749 1.84139
#
# Compressibility (1/GPa) = -0.19603776
#
# Stress axis : x y z
#
# Youngs Moduli (GPa) = 81.90380 -2.92376 48.93280
#
# Poissons Ratio (x) = 0.18292 0.04822
# Poissons Ratio (y) = -5.12405 0.24005
# Poissons Ratio (z) = 0.08070 -0.01434
#
# Static dielectric constant tensor:
#      x y z
#    x 1.666470 0.000000 0.010820 
#    y 0.000000 1.661060 0.000000 
#    z 0.010820 0.000000 1.804410 
# 
# From -- ./inp_files/172897.got.cif
#   From: 2010.05.17/outbox.ucp.g08.bks.cvg/sg12_87_cif.got.tgz:172897.got - 2010.06.11 11:47:21.
