data_PCOD9224153
_publ_section_title
;
Structure prediction by ZEFSAII (Michael W. Deem and Ramdas Pophale) SiO2 
 PCOD9224153
Probable space group: C 2/M
;
_chemical_formula_sum "Si O2"
_cell_formula_units_Z 32
_cell_length_a 18.000000
_cell_length_b 9.000000
_cell_length_c 30.000000
_cell_angle_alpha 90.000000
_cell_angle_beta 40.000000
_cell_angle_gamma 90.000000
_cell_volume 3123.947783
_symmetry_space_group_name_H-M "C 2/M"
_symmetry_group_IT_number 12
_symmetry_cell_setting 'monoclinic'
loop_
_space_group_symop_operation_xyz
x,y,z
-x,y,-z
-x,-y,-z
x,-y,z
1/2+x,1/2+y,z
1/2-x,1/2+y,-z
1/2-x,1/2-y,-z
1/2+x,1/2-y,z
loop_
_atom_site_type_symbol
_atom_site_label
_atom_site_fract_x
_atom_site_fract_y
_atom_site_fract_z
Si Si1 0.678262 0.675760 0.993443
Si Si2 0.324839 0.180315 0.265045
Si Si3 0.827547 0.672453 0.360786
Si Si4 0.075750 0.831835 0.368387
Si Si5 0.592201 0.824285 0.496091
Si Si6 0.747081 0.674317 0.130355
Si Si7 0.566231 0.822023 0.877850
Si Si8 0.967907 0.834627 0.710712
O O1 0.680516 0.500000 0.997043
O O2 0.730239 0.725323 0.922411
O O3 0.750000 0.750000 0.000000
O O4 0.549102 0.738060 0.055984
O O5 0.376696 0.214866 0.289162
O O6 0.194231 0.238177 0.331019
O O7 0.388295 0.230656 0.191435
O O8 0.316709 0.000000 0.264517
O O9 0.799083 0.500000 0.373391
O O10 0.715487 0.759720 0.427123
O O11 0.934456 0.714363 0.341834
O O12 0.098119 0.842090 0.305633
O O13 0.963018 0.744642 0.434325
O O14 0.062896 0.000000 0.391857
O O15 0.500000 0.783711 0.500000
O O16 0.598424 0.000000 0.496563
O O17 0.757262 0.500000 0.112972
O O18 0.839047 0.701594 0.127412
O O19 0.622418 0.698357 0.209315
O O20 0.544380 0.000000 0.885298
O O21 0.019080 0.000000 0.694618
#
# Coordination Sequence:
#
# PCOD9224153 Si02
#       8
#     8   8   8   8   8   8   8   8
#     4  12  27  44  62  91 128 165 207 255 305 359
#     4   9  18  35  62  92 118 152 203 250 295 356
#     4  11  23  38  60  89 122 162 205 250 302 361
#     4  10  19  38  65  89 116 157 203 249 296 359
#     4  11  23  38  58  87 121 157 199 254 312 361
#     4  10  21  41  68  94 124 165 204 245 305 371
#     4  10  20  40  68  95 125 163 204 248 304 370
#     4  10  22  40  63  92 126 158 197 249 305 359
#
# _framework density 10.243449
#
# number of rings (size 3 to 8) (size 9 to 14) (size 15 to 20)
#    0.000    1.625    2.500    2.250    1.750    4.000 
#    0.000    1.250    0.000    0.000    0.000    0.000 
#    0.000    0.000    0.000    0.000    0.000    0.000 
#
# Total GULP energy -178497.759659 kJ/mol
# GULP energy per Si atom -5578.054989 kJ/mol
# Density = 1.022013 g / cm^3
# Si number density = 10.243449 Si / 1000 Ang^3
#
#
#
# Elastic Constant Matrix: (Units=GPa)
#
#
# Indices 1 2 3 4 5 6 
#
# 1 50.0425 32.9843 30.5063 -0.0004 -2.8670 -0.0002
# 2 32.9843 31.5675 54.0457 -0.0013 -8.3812 -0.0016
# 3 30.5063 54.0457 82.7347 0.0001 21.0829 -0.0001
# 4 -0.0004 -0.0013 0.0001 -32.5901 -0.0001 6.9522
# 5 -2.8670 -8.3812 21.0829 -0.0001 24.8305 0.0000
# 6 -0.0002 -0.0016 -0.0001 6.9522 0.0000 17.8956
#
#
#
# Elastic Compliance Matrix: (Units=1/GPa)
#
#
# Indices 1 2 3 4 5 6 
#
# 1 0.030298 0.000985 -0.016323 0.000000 0.017690 0.000001
# 2 0.000985 -0.034499 0.032044 0.000001 -0.038739 -0.000003
# 3 -0.016323 0.032044 -0.006512 -0.000001 0.014461 0.000003
# 4 0.000000 0.000001 -0.000001 -0.028336 0.000001 0.011008
# 5 0.017690 -0.038739 0.014461 0.000001 0.016961 -0.000004
# 6 0.000001 -0.000003 0.000003 0.011008 -0.000004 0.051603
#
#
# Mechanical properties :
#
#
# Convention : Reuss Voigt Hill
#
# Bulk Modulus (GPa) = 44.05289 44.37970 44.21629
# Shear Modulus (GPa) = 1362.98782 5.14777 684.06780
#
# Velocity S-wave (km/s) = 25.82134 1.58687 18.29289
# Velocity P-wave (km/s) = 30.17513 5.00670 21.62875
#
# Compressibility (1/GPa) = 0.02269999
#
# Stress axis : x y z
#
# Youngs Moduli (GPa) = 33.00577 -28.98660 -153.55372
#
# Poissons Ratio (x) = 0.02855 -2.50643
# Poissons Ratio (y) = -0.03251 4.92055
# Poissons Ratio (z) = 0.53875 0.92886
#
# Static dielectric constant tensor:
#      x y z
#    x 1.799050 0.000000 0.017280 
#    y 0.000000 1.723590 0.000000 
#    z 0.017280 0.000000 1.698930 
# 
# From -- ./inp_files/378091.got.cif
#   From: 2010.05.17/outbox.ucp.g08.bks.cvg/sg12_190_cif.got.tgz:378091.got - 2010.06.11 11:47:21.
