data_PCOD9224300
_publ_section_title
;
Structure prediction by ZEFSAII (Michael W. Deem and Ramdas Pophale) SiO2 
 PCOD9224300
Probable space group: C 2/M
;
_chemical_formula_sum "Si O2"
_cell_formula_units_Z 32
_cell_length_a 15.000000
_cell_length_b 9.000000
_cell_length_c 27.000000
_cell_angle_alpha 90.000000
_cell_angle_beta 70.000000
_cell_angle_gamma 90.000000
_cell_volume 3425.179603
_symmetry_space_group_name_H-M "C 2/M"
_symmetry_group_IT_number 12
_symmetry_cell_setting 'monoclinic'
loop_
_space_group_symop_operation_xyz
x,y,z
-x,y,-z
-x,-y,-z
x,-y,z
1/2+x,1/2+y,z
1/2-x,1/2+y,-z
1/2-x,1/2-y,-z
1/2+x,1/2-y,z
loop_
_atom_site_type_symbol
_atom_site_label
_atom_site_fract_x
_atom_site_fract_y
_atom_site_fract_z
Si Si1 0.857045 0.822336 0.939195
Si Si2 0.407658 0.676050 0.821887
Si Si3 0.169848 0.320075 0.636831
Si Si4 0.941776 0.320163 0.437114
Si Si5 0.856504 0.679799 0.555827
Si Si6 0.596328 0.178879 0.757600
Si Si7 0.312636 0.821071 0.155390
Si Si8 0.155424 0.176157 0.951564
O O1 0.920062 0.797914 0.878702
O O2 0.762716 0.726748 0.945959
O O3 0.832154 0.000000 0.943901
O O4 0.897409 0.788434 0.986210
O O5 0.417837 0.500000 0.811082
O O6 0.488632 0.764707 0.778683
O O7 0.299569 0.717271 0.828199
O O8 0.173611 0.500000 0.635959
O O9 0.092086 0.272121 0.610514
O O10 0.267701 0.255157 0.598197
O O11 0.146111 0.271755 0.697233
O O12 0.940570 0.500000 0.437627
O O13 0.872612 0.274207 0.495397
O O14 0.047526 0.277561 0.433141
O O15 0.847715 0.500000 0.558769
O O16 0.646414 0.228740 0.799380
O O17 0.597538 0.000000 0.757931
O O18 0.363780 0.755314 0.096895
O O19 0.319169 0.000000 0.151341
O O20 0.149237 0.000000 0.945017
#
# Coordination Sequence:
#
# PCOD9224300 Si02
#       8
#     8   8   8   8   8   8   8   8
#     4   8  15  28  46  71 102 130 155 195 255 308
#     4   9  18  34  54  71  93 128 165 202 246 295
#     4  10  20  34  51  73 102 134 167 208 251 287
#     4   8  16  32  53  76 105 136 163 197 247 300
#     4   9  17  32  54  78 103 134 167 198 242 301
#     4  10  22  37  51  70  99 134 171 208 248 294
#     4   9  19  36  52  68  98 135 163 199 256 305
#     4   9  15  25  47  76  98 122 162 204 243 298
#
# _framework density 9.3425759999999993
#
# number of rings (size 3 to 8) (size 9 to 14) (size 15 to 20)
#    0.000    3.000    0.000    2.250    0.000    4.500 
#    0.000    2.500    0.000    3.750    0.000    0.000 
#    0.000    0.000    0.000    0.000    0.000    0.000 
#
# Total GULP energy -178303.573806 kJ/mol
# GULP energy per Si atom -5571.986681 kJ/mol
# Density = 0.932131 g / cm^3
# Si number density = 9.342576 Si / 1000 Ang^3
#
#
#
# Elastic Constant Matrix: (Units=GPa)
#
#
# Indices 1 2 3 4 5 6 
#
# 1 57.5554 6.4085 40.1884 0.0000 16.3084 0.0000
# 2 6.4085 4.1329 17.5856 0.0000 6.7376 0.0000
# 3 40.1884 17.5856 111.1538 0.0000 28.5545 0.0000
# 4 0.0000 0.0000 0.0000 26.3211 0.0000 -5.4662
# 5 16.3084 6.7376 28.5545 0.0000 18.5220 0.0000
# 6 0.0000 0.0000 0.0000 -5.4662 0.0000 17.8929
#
#
#
# Elastic Compliance Matrix: (Units=1/GPa)
#
#
# Indices 1 2 3 4 5 6 
#
# 1 0.026040 0.032541 -0.009326 0.000000 -0.020388 0.000000
# 2 0.032541 1.139462 -0.129476 0.000000 -0.243540 0.000000
# 3 -0.009326 -0.129476 0.030870 0.000000 0.007720 0.000000
# 4 0.000000 0.000000 0.000000 0.040566 0.000000 0.012393
# 5 -0.020388 -0.243540 0.007720 0.000000 0.148631 0.000000
# 6 0.000000 0.000000 0.000000 0.012393 0.000000 0.059674
#
#
# Mechanical properties :
#
#
# Convention : Reuss Voigt Hill
#
# Bulk Modulus (GPa) = 1.01642 33.46746 17.24194
# Shear Modulus (GPa) = 2.51799 19.79117 11.15458
#
# Velocity S-wave (km/s) = 1.16212 3.25805 2.44596
# Velocity P-wave (km/s) = 1.53161 5.66598 4.15025
#
# Compressibility (1/GPa) = 0.98385009
#
# Stress axis : x y z
#
# Youngs Moduli (GPa) = 38.40246 0.87761 32.39438
#
# Poissons Ratio (x) = -0.02856 0.30210
# Poissons Ratio (y) = -1.24965 4.19430
# Poissons Ratio (z) = 0.35813 0.11363
#
# Static dielectric constant tensor:
#      x y z
#    x 1.653470 0.000000 0.017490 
#    y 0.000000 1.624680 0.000000 
#    z 0.017490 0.000000 1.667190 
# 
# From -- ./inp_files/359743.got.cif
#   From: 2010.05.17/outbox.ucp.g08.bks.cvg/sg12_180_cif.got.tgz:359743.got - 2010.06.11 11:47:21.
