data_PCOD9224338
_publ_section_title
;
Structure prediction by ZEFSAII (Michael W. Deem and Ramdas Pophale) SiO2 
 PCOD9224338
Probable space group: C 2/M
;
_chemical_formula_sum "Si O2"
_cell_formula_units_Z 32
_cell_length_a 18.000000
_cell_length_b 9.000000
_cell_length_c 30.000000
_cell_angle_alpha 90.000000
_cell_angle_beta 40.000000
_cell_angle_gamma 90.000000
_cell_volume 3123.947783
_symmetry_space_group_name_H-M "C 2/M"
_symmetry_group_IT_number 12
_symmetry_cell_setting 'monoclinic'
loop_
_space_group_symop_operation_xyz
x,y,z
-x,y,-z
-x,-y,-z
x,-y,z
1/2+x,1/2+y,z
1/2-x,1/2+y,-z
1/2-x,1/2-y,-z
1/2+x,1/2-y,z
loop_
_atom_site_type_symbol
_atom_site_label
_atom_site_fract_x
_atom_site_fract_y
_atom_site_fract_z
Si Si1 0.375691 0.321594 0.847524
Si Si2 0.699429 0.180312 0.776870
Si Si3 0.949845 0.179418 0.475646
Si Si4 0.190870 0.321740 0.596121
Si Si5 0.462177 0.321134 0.907576
Si Si6 0.460316 0.678058 0.660063
Si Si7 0.631359 0.680554 0.713317
Si Si8 0.378438 0.180274 0.033054
O O1 0.372589 0.500000 0.845471
O O2 0.404938 0.286534 0.885860
O O3 0.495283 0.277188 0.769069
O O4 0.248356 0.271506 0.890469
O O5 0.588999 0.245516 0.853852
O O6 0.828829 0.217398 0.734875
O O7 0.677781 0.254599 0.738446
O O8 0.691861 0.000000 0.778052
O O9 0.819533 0.225309 0.520608
O O10 0.000000 0.236000 0.500000
O O11 0.032838 0.211852 0.395999
O O12 0.943700 0.000000 0.482699
O O13 0.182401 0.500000 0.597456
O O14 0.196245 0.261855 0.644014
O O15 0.074012 0.252787 0.629046
O O16 0.472460 0.500000 0.906099
O O17 0.384663 0.250623 0.981368
O O18 0.472665 0.500000 0.660874
O O19 0.640450 0.500000 0.708603
O O20 0.379146 0.000000 0.031135
O O21 0.500000 0.225756 0.000000
#
# Coordination Sequence:
#
# PCOD9224338 Si02
#       8
#     8   8   8   8   8   8   8   8
#     4   8  17  34  54  76 102 136 177 220 265 313
#     4  10  20  36  59  83 106 139 185 229 272 325
#     4   9  18  35  58  81 107 142 185 230 272 317
#     4  11  22  35  55  83 114 147 183 223 269 325
#     4  10  20  35  55  78 107 141 176 220 273 324
#     4  10  21  37  57  80 110 147 182 223 276 327
#     4  10  20  36  57  80 110 145 182 227 276 323
#     4  10  20  34  53  77 105 138 179 223 266 320
#
# _framework density 10.243449
#
# number of rings (size 3 to 8) (size 9 to 14) (size 15 to 20)
#    0.000    2.250    0.000    3.750    0.000    4.250 
#    0.000    6.250    0.000    2.625    0.000    0.000 
#    0.000    0.000    0.000    0.000    0.000    0.000 
#
# Total GULP energy -178420.335771 kJ/mol
# GULP energy per Si atom -5575.635493 kJ/mol
# Density = 1.022013 g / cm^3
# Si number density = 10.243449 Si / 1000 Ang^3
#
#
#
# Elastic Constant Matrix: (Units=GPa)
#
#
# Indices 1 2 3 4 5 6 
#
# 1 60.3049 9.6625 9.0574 -0.0001 -30.3100 0.0002
# 2 9.6625 28.9761 2.0729 0.0000 -11.4301 0.0009
# 3 9.0574 2.0729 76.8208 0.0000 -27.2894 0.0000
# 4 -0.0001 0.0000 0.0000 18.7564 0.0000 -2.3464
# 5 -30.3100 -11.4301 -27.2894 0.0000 43.1490 0.0001
# 6 0.0002 0.0009 0.0000 -2.3464 0.0001 31.6633
#
#
#
# Elastic Compliance Matrix: (Units=1/GPa)
#
#
# Indices 1 2 3 4 5 6 
#
# 1 0.026828 -0.000797 0.004486 0.000000 0.021471 0.000000
# 2 -0.000797 0.039236 0.003261 0.000000 0.011896 -0.000001
# 3 0.004486 0.003261 0.017833 0.000000 0.015293 0.000000
# 4 0.000000 0.000000 0.000000 0.053814 0.000000 0.003988
# 5 0.021471 0.011896 0.015293 0.000000 0.051081 -0.000001
# 6 0.000000 -0.000001 0.000000 0.003988 -0.000001 0.031878
#
#
# Mechanical properties :
#
#
# Convention : Reuss Voigt Hill
#
# Bulk Modulus (GPa) = 10.22531 23.07635 16.65083
# Shear Modulus (GPa) = 20.88808 28.40102 24.64455
#
# Velocity S-wave (km/s) = 3.19655 3.72735 3.47211
# Velocity P-wave (km/s) = 4.31578 5.46009 4.92130
#
# Compressibility (1/GPa) = 0.09779658
#
# Stress axis : x y z
#
# Youngs Moduli (GPa) = 37.27438 25.48649 56.07523
#
# Poissons Ratio (x) = 0.02032 -0.25154
# Poissons Ratio (y) = 0.02972 -0.18287
# Poissons Ratio (z) = -0.16720 -0.08312
#
# Static dielectric constant tensor:
#      x y z
#    x 1.741360 0.000000 0.011560 
#    y 0.000000 1.671660 0.000000 
#    z 0.011560 0.000000 1.803730 
# 
# From -- ./inp_files/378207.got.cif
#   From: 2010.05.17/outbox.ucp.g08.bks.cvg/sg12_190_cif.got.tgz:378207.got - 2010.06.11 11:47:21.
