data_PCOD9224644
_publ_section_title
;
Structure prediction by ZEFSAII (Michael W. Deem and Ramdas Pophale) SiO2 
 PCOD9224644
Probable space group: C 2/M
;
_chemical_formula_sum "Si O2"
_cell_formula_units_Z 24
_cell_length_a 12.000000
_cell_length_b 15.000000
_cell_length_c 21.000000
_cell_angle_alpha 90.000000
_cell_angle_beta 40.000000
_cell_angle_gamma 90.000000
_cell_volume 2429.737165
_symmetry_space_group_name_H-M "C 2/M"
_symmetry_group_IT_number 12
_symmetry_cell_setting 'monoclinic'
loop_
_space_group_symop_operation_xyz
x,y,z
-x,y,-z
-x,-y,-z
x,-y,z
1/2+x,1/2+y,z
1/2-x,1/2+y,-z
1/2-x,1/2-y,-z
1/2+x,1/2-y,z
loop_
_atom_site_type_symbol
_atom_site_label
_atom_site_fract_x
_atom_site_fract_y
_atom_site_fract_z
Si Si1 0.744154 0.099375 0.577743
Si Si2 0.123766 0.729943 0.116151
Si Si3 0.205464 0.602901 0.735045
Si Si4 0.059110 0.151707 0.634385
Si Si5 0.877237 0.662498 0.743422
Si Si6 0.395901 0.395147 0.245630
O O1 0.775813 0.137704 0.635024
O O2 0.822731 0.144041 0.480331
O O3 0.535534 0.093724 0.670766
O O4 0.819225 0.000000 0.543501
O O5 0.189128 0.682569 0.154556
O O6 0.953222 0.667811 0.174737
O O7 0.056013 0.827651 0.165952
O O8 0.250000 0.750000 0.000000
O O9 0.145017 0.500000 0.754728
O O10 0.375611 0.601370 0.704429
O O11 0.153679 0.120366 0.658028
O O12 0.986247 0.250383 0.675962
O O13 0.738231 0.636100 0.750785
O O14 0.431941 0.500000 0.221273
#
# Coordination Sequence:
#
# PCOD9224644 Si02
#       6
#     8   8   8   8   8   8
#     4  10  20  35  59  90 122 165 211 252 301 366
#     4  10  23  43  65  89 120 158 209 263 321 374
#     4  10  20  38  63  91 124 163 210 262 309 366
#     4  11  21  38  60  89 129 169 205 249 308 371
#     4  10  22  40  59  86 125 163 204 253 308 369
#     4  11  23  41  63  91 127 165 206 257 312 371
#
# _framework density 9.8776119999999992
#
# number of rings (size 3 to 8) (size 9 to 14) (size 15 to 20)
#    0.000    1.667    1.667    3.000    0.000    4.000 
#    3.000    2.500    0.000    3.000    0.000    0.000 
#    0.000    0.000    0.000    0.000    0.000    0.000 
#
# Total GULP energy -133640.340354 kJ/mol
# GULP energy per Si atom -5568.347515 kJ/mol
# Density = 0.985513 g / cm^3
# Si number density = 9.877612 Si / 1000 Ang^3
#
#
#
# Elastic Constant Matrix: (Units=GPa)
#
#
# Indices 1 2 3 4 5 6 
#
# 1 135.9737 23.3569 40.4750 0.0000 16.9771 0.0000
# 2 23.3569 133.9340 39.6597 0.0000 5.9858 0.0000
# 3 40.4750 39.6597 145.9821 -0.0001 32.9221 0.0000
# 4 0.0000 0.0000 -0.0001 17.9696 0.0000 0.9810
# 5 16.9771 5.9858 32.9221 0.0000 24.1341 0.0000
# 6 0.0000 0.0000 0.0000 0.9810 0.0000 28.2025
#
#
#
# Elastic Compliance Matrix: (Units=1/GPa)
#
#
# Indices 1 2 3 4 5 6 
#
# 1 0.008367 -0.000938 -0.001141 0.000000 -0.004096 0.000000
# 2 -0.000938 0.008259 -0.002413 0.000000 0.001903 0.000000
# 3 -0.001141 -0.002413 0.010841 0.000000 -0.013388 0.000000
# 4 0.000000 0.000000 0.000000 0.055755 0.000000 -0.001939
# 5 -0.004096 0.001903 -0.013388 0.000000 0.062107 0.000000
# 6 0.000000 0.000000 0.000000 -0.001939 0.000000 0.035525
#
#
# Mechanical properties :
#
#
# Convention : Reuss Voigt Hill
#
# Bulk Modulus (GPa) = 54.10355 69.20813 61.65584
# Shear Modulus (GPa) = 25.51013 34.88779 30.19896
#
# Velocity S-wave (km/s) = 3.59738 4.20694 3.91405
# Velocity P-wave (km/s) = 6.68590 7.66203 7.19055
#
# Compressibility (1/GPa) = 0.01848308
#
# Stress axis : x y z
#
# Youngs Moduli (GPa) = 119.52277 121.07391 92.23985
#
# Poissons Ratio (x) = 0.11358 0.10525
# Poissons Ratio (y) = 0.11213 0.22257
# Poissons Ratio (z) = 0.13638 0.29214
#
# Static dielectric constant tensor:
#      x y z
#    x 1.795190 0.000000 0.003910 
#    y 0.000000 1.863010 0.000000 
#    z 0.003910 0.000000 1.676990 
# 
# From -- ./inp_files/205124.got.cif
#   From: 2010.05.17/outbox.ucp.g08.bks.cvg/sg12_103_cif.got.tgz:205124.got - 2010.06.11 11:47:21.
