data_PCOD9224687
_publ_section_title
;
Structure prediction by ZEFSAII (Michael W. Deem and Ramdas Pophale) SiO2 
 PCOD9224687
Probable space group: C 2/M
;
_chemical_formula_sum "Si O2"
_cell_formula_units_Z 32
_cell_length_a 21.000000
_cell_length_b 27.000000
_cell_length_c 18.000000
_cell_angle_alpha 90.000000
_cell_angle_beta 160.000000
_cell_angle_gamma 90.000000
_cell_volume 3490.657583
_symmetry_space_group_name_H-M "C 2/M"
_symmetry_group_IT_number 12
_symmetry_cell_setting 'monoclinic'
loop_
_space_group_symop_operation_xyz
x,y,z
-x,y,-z
-x,-y,-z
x,-y,z
1/2+x,1/2+y,z
1/2-x,1/2+y,-z
1/2-x,1/2-y,-z
1/2+x,1/2-y,z
loop_
_atom_site_type_symbol
_atom_site_label
_atom_site_fract_x
_atom_site_fract_y
_atom_site_fract_z
Si Si1 0.634606 0.888957 0.718645
Si Si2 0.375431 0.308433 0.481109
Si Si3 0.899474 0.361771 0.709186
Si Si4 0.001787 0.058491 0.085085
Si Si5 0.912194 0.198444 0.986870
Si Si6 0.598152 0.940105 0.405545
Si Si7 0.223162 0.688883 0.149112
Si Si8 0.717031 0.212974 0.531373
O O1 0.500000 0.897987 0.500000
O O2 0.524503 0.907777 0.670691
O O3 0.732534 0.835103 0.810763
O O4 0.817559 0.922426 0.920649
O O5 0.283023 0.343131 0.443908
O O6 0.592225 0.315452 0.699263
O O7 0.272815 0.318454 0.290233
O O8 0.348054 0.250374 0.474857
O O9 0.908664 0.416514 0.684532
O O10 0.913544 0.327334 0.650278
O O11 0.069184 0.348156 0.948954
O O12 0.191705 0.068283 0.335397
O O13 0.986740 0.000000 0.061951
O O14 0.000000 0.080503 0.000000
O O15 0.090543 0.187233 0.233980
O O16 0.858473 0.255421 0.943281
O O17 0.000000 0.193885 0.000000
O O18 0.559580 0.000000 0.366218
O O19 0.750000 0.250000 0.500000
#
# Coordination Sequence:
#
# PCOD9224687 Si02
#       8
#     8   8   8   8   8   8   8   8
#     4  12  26  37  59  90 124 169 217 257 297 360
#     4  10  22  39  62  91 123 161 211 249 301 375
#     4  11  23  41  61  88 128 165 201 259 316 374
#     4  10  20  40  63  81 113 158 209 268 313 355
#     4  12  23  37  58  86 130 169 208 248 300 354
#     4  11  26  44  65  91 121 163 216 268 324 371
#     4  11  22  39  66  89 122 171 205 250 306 370
#     4  10  20  36  56  84 125 162 202 246 290 368
#
# _framework density 9.1673270000000002
#
# number of rings (size 3 to 8) (size 9 to 14) (size 15 to 20)
#    0.000    1.125    5.000    1.875    5.250    4.000 
#    0.000    0.000    0.000    1.500    0.000    1.750 
#    0.000    0.000    0.000    0.000    0.000    0.000 
#
# Total GULP energy -178382.956176 kJ/mol
# GULP energy per Si atom -5574.467381 kJ/mol
# Density = 0.914646 g / cm^3
# Si number density = 9.167327 Si / 1000 Ang^3
#
#
#
# Elastic Constant Matrix: (Units=GPa)
#
#
# Indices 1 2 3 4 5 6 
#
# 1 122.4139 36.9008 66.7217 -0.0001 13.2656 0.0000
# 2 36.9008 69.5963 10.8915 0.0000 0.9046 0.0000
# 3 66.7217 10.8915 133.4353 -0.0003 9.2090 -0.0001
# 4 -0.0001 0.0000 -0.0003 27.0479 0.0000 -1.0152
# 5 13.2656 0.9046 9.2090 0.0000 31.8312 0.0000
# 6 0.0000 0.0000 -0.0001 -1.0152 0.0000 27.1037
#
#
#
# Elastic Compliance Matrix: (Units=1/GPa)
#
#
# Indices 1 2 3 4 5 6 
#
# 1 0.013834 -0.006325 -0.006138 0.000000 -0.003810 0.000000
# 2 -0.006325 0.017446 0.001623 0.000000 0.001670 0.000000
# 3 -0.006138 0.001623 0.010467 0.000000 -0.000516 0.000000
# 4 0.000000 0.000000 0.000000 0.037023 0.000000 0.001387
# 5 -0.003810 0.001670 -0.000516 0.000000 0.033105 0.000000
# 6 0.000000 0.000000 0.000000 0.001387 0.000000 0.036947
#
#
# Mechanical properties :
#
#
# Convention : Reuss Voigt Hill
#
# Bulk Modulus (GPa) = 49.83189 61.60817 55.72003
# Shear Modulus (GPa) = 28.21795 31.25866 29.73831
#
# Velocity S-wave (km/s) = 3.92733 4.13352 4.03174
# Velocity P-wave (km/s) = 6.91399 7.51374 7.22010
#
# Compressibility (1/GPa) = 0.02006747
#
# Stress axis : x y z
#
# Youngs Moduli (GPa) = 72.28497 57.31858 95.54091
#
# Poissons Ratio (x) = 0.36253 0.58646
# Poissons Ratio (y) = 0.45719 -0.15509
# Poissons Ratio (z) = 0.44371 -0.09305
#
# Static dielectric constant tensor:
#      x y z
#    x 1.663170 0.000000 -0.013070 
#    y 0.000000 1.676440 0.000000 
#    z -0.013070 0.000000 1.614080 
# 
# From -- ./inp_files/286706.got.cif
#   From: 2010.05.17/outbox.ucp.g08.bks.cvg/sg12_144_cif.got.tgz:286706.got - 2010.06.11 11:47:21.
