data_PCOD9224965
_publ_section_title
;
Structure prediction by ZEFSAII (Michael W. Deem and Ramdas Pophale) SiO2 
 PCOD9224965
Probable space group: C 2/M
;
_chemical_formula_sum "Si O2"
_cell_formula_units_Z 32
_cell_length_a 18.000000
_cell_length_b 15.000000
_cell_length_c 15.000000
_cell_angle_alpha 90.000000
_cell_angle_beta 50.000000
_cell_angle_gamma 90.000000
_cell_volume 3102.479995
_symmetry_space_group_name_H-M "C 2/M"
_symmetry_group_IT_number 12
_symmetry_cell_setting 'monoclinic'
loop_
_space_group_symop_operation_xyz
x,y,z
-x,y,-z
-x,-y,-z
x,-y,z
1/2+x,1/2+y,z
1/2-x,1/2+y,-z
1/2-x,1/2-y,-z
1/2+x,1/2-y,z
loop_
_atom_site_type_symbol
_atom_site_label
_atom_site_fract_x
_atom_site_fract_y
_atom_site_fract_z
Si Si1 0.274308 0.394469 0.807997
Si Si2 0.806301 0.100244 0.248885
Si Si3 0.894163 0.754261 0.059045
Si Si4 0.861628 0.894407 0.544610
Si Si5 0.207180 0.603947 0.510749
Si Si6 0.025968 0.280900 0.582618
Si Si7 0.332670 0.395803 0.962618
Si Si8 0.857168 0.398650 0.774172
O O1 0.244750 0.500000 0.828008
O O2 0.185924 0.323948 0.881285
O O3 0.333167 0.377747 0.670369
O O4 0.332600 0.383286 0.856139
O O5 0.870191 0.177300 0.157819
O O6 0.782160 0.112903 0.370634
O O7 0.707328 0.104203 0.266588
O O8 0.846248 0.000000 0.204979
O O9 0.887435 0.818958 0.976699
O O10 0.000000 0.717298 0.000000
O O11 0.766058 0.878903 0.556555
O O12 0.941946 0.823111 0.449667
O O13 0.888628 0.000000 0.514391
O O14 0.175229 0.500000 0.536516
O O15 0.118309 0.667604 0.553575
O O16 0.000000 0.307523 0.500000
O O17 0.934639 0.319260 0.708759
O O18 0.362216 0.500000 0.958967
O O19 0.221681 0.388680 0.085865
O O20 0.898984 0.500000 0.747658
#
# Coordination Sequence:
#
# PCOD9224965 Si02
#       8
#     8   8   8   8   8   8   8   8
#     4  10  22  44  66  81 116 172 217 249 289 353
#     4   9  18  35  61  88 125 160 189 242 317 375
#     4  11  22  37  61  97 126 151 197 259 312 370
#     4  10  24  44  61  82 122 174 214 245 291 358
#     4  10  20  38  61  88 122 160 200 246 308 372
#     4  12  22  34  61  95 123 155 198 257 307 361
#     4   9  20  41  67  92 122 162 202 247 310 369
#     4   9  18  34  59  95 128 151 188 249 315 371
#
# _framework density 10.314329000000001
#
# number of rings (size 3 to 8) (size 9 to 14) (size 15 to 20)
#    0.000    2.000    1.250    3.000    1.750    2.000 
#    4.500    0.000    0.000    4.500    0.000    0.000 
#    0.000    0.000    0.000    0.000    0.000    0.000 
#
# Total GULP energy -178790.032213 kJ/mol
# GULP energy per Si atom -5587.188507 kJ/mol
# Density = 1.029085 g / cm^3
# Si number density = 10.314329 Si / 1000 Ang^3
#
#
#
# Elastic Constant Matrix: (Units=GPa)
#
#
# Indices 1 2 3 4 5 6 
#
# 1 77.4996 34.4608 35.0956 0.0000 12.2887 0.0000
# 2 34.4608 108.1285 27.0015 0.0000 -5.4148 0.0000
# 3 35.0956 27.0015 57.9655 0.0000 25.5700 0.0000
# 4 0.0000 0.0000 0.0000 25.1437 0.0000 -1.6031
# 5 12.2887 -5.4148 25.5700 0.0000 33.4285 0.0000
# 6 0.0000 0.0000 0.0000 -1.6031 0.0000 25.1331
#
#
#
# Elastic Compliance Matrix: (Units=1/GPa)
#
#
# Indices 1 2 3 4 5 6 
#
# 1 0.018933 -0.003606 -0.009744 0.000000 -0.000091 0.000000
# 2 -0.003606 0.012882 -0.008034 0.000000 0.009557 0.000000
# 3 -0.009744 -0.008034 0.039070 0.000000 -0.027605 0.000000
# 4 0.000000 0.000000 0.000000 0.039934 0.000000 0.002547
# 5 -0.000091 0.009557 -0.027605 0.000000 0.052612 0.000000
# 6 0.000000 0.000000 0.000000 0.002547 0.000000 0.039951
#
#
# Mechanical properties :
#
#
# Convention : Reuss Voigt Hill
#
# Bulk Modulus (GPa) = 35.56147 48.52329 42.04238
# Shear Modulus (GPa) = 19.56791 26.54346 23.05568
#
# Velocity S-wave (km/s) = 3.08324 3.59099 3.34676
# Velocity P-wave (km/s) = 5.47279 6.38490 5.94636
#
# Compressibility (1/GPa) = 0.02812032
#
# Stress axis : x y z
#
# Youngs Moduli (GPa) = 52.81688 77.62739 25.59488
#
# Poissons Ratio (x) = 0.27989 0.24939
# Poissons Ratio (y) = 0.19043 0.20562
# Poissons Ratio (z) = 0.51463 0.62362
#
# Static dielectric constant tensor:
#      x y z
#    x 1.732670 0.000000 -0.005520 
#    y 0.000000 1.754690 0.000000 
#    z -0.005520 0.000000 1.748050 
# 
# From -- ./inp_files/225683.got.cif
#   From: 2010.05.17/outbox.ucp.g08.bks.cvg/sg12_113_cif.got.tgz:225683.got - 2010.06.11 11:47:21.
