data_PCOD9224704
_publ_section_title
;
Structure prediction by ZEFSAII (Michael W. Deem and Ramdas Pophale) SiO2 
 PCOD9224704
Probable space group: C 2/M
;
_chemical_formula_sum "Si O2"
_cell_formula_units_Z 32
_cell_length_a 30.000000
_cell_length_b 9.000000
_cell_length_c 15.000000
_cell_angle_alpha 90.000000
_cell_angle_beta 50.000000
_cell_angle_gamma 90.000000
_cell_volume 3102.479995
_symmetry_space_group_name_H-M "C 2/M"
_symmetry_group_IT_number 12
_symmetry_cell_setting 'monoclinic'
loop_
_space_group_symop_operation_xyz
x,y,z
-x,y,-z
-x,-y,-z
x,-y,z
1/2+x,1/2+y,z
1/2-x,1/2+y,-z
1/2-x,1/2-y,-z
1/2+x,1/2-y,z
loop_
_atom_site_type_symbol
_atom_site_label
_atom_site_fract_x
_atom_site_fract_y
_atom_site_fract_z
Si Si1 0.717999 0.319944 0.319930
Si Si2 0.922059 0.177622 0.194432
Si Si3 0.159697 0.177914 0.214959
Si Si4 0.845695 0.324579 0.154526
Si Si5 0.855218 0.178017 0.960881
Si Si6 0.309332 0.677758 0.458055
Si Si7 0.462479 0.831706 0.636413
Si Si8 0.481670 0.823263 0.805465
O O1 0.719764 0.500000 0.309749
O O2 0.695366 0.261559 0.253932
O O3 0.782401 0.277134 0.271649
O O4 0.678148 0.279836 0.455165
O O5 0.900597 0.239734 0.126371
O O6 0.865312 0.212661 0.327123
O O7 0.975367 0.258244 0.175230
O O8 0.931695 0.000000 0.177794
O O9 0.174982 0.220262 0.093661
O O10 0.092187 0.224465 0.306026
O O11 0.163423 0.000000 0.213159
O O12 0.854496 0.500000 0.155074
O O13 0.834004 0.280150 0.067854
O O14 0.923013 0.225782 0.875162
O O15 0.849472 0.000000 0.983125
O O16 0.301299 0.500000 0.465424
O O17 0.250000 0.750000 0.500000
O O18 0.500000 0.823361 0.500000
O O19 0.500682 0.808599 0.676966
O O20 0.438437 0.000000 0.676914
O O21 0.470975 0.000000 0.836773
#
# Coordination Sequence:
#
# PCOD9224704 Si02
#       8
#     8   8   8   8   8   8   8   8
#     4   9  19  36  57  84 115 149 188 228 272 333
#     4  11  23  37  57  87 118 148 188 236 284 331
#     4   9  19  36  58  82 111 148 187 229 278 331
#     4  11  22  38  61  83 111 152 193 231 281 340
#     4  10  21  39  60  84 115 145 185 241 288 328
#     4  10  20  36  57  81 115 153 187 229 278 330
#     4   9  19  35  53  79 114 148 184 230 278 327
#     4  10  21  38  59  82 113 151 191 229 279 343
#
# _framework density 10.314329000000001
#
# number of rings (size 3 to 8) (size 9 to 14) (size 15 to 20)
#    0.000    2.125    1.250    1.500    1.750    2.750 
#    0.000    4.375    0.000    0.000    0.000    0.000 
#    0.000    0.000    0.000    0.000    0.000    0.000 
#
# Total GULP energy -178246.807055 kJ/mol
# GULP energy per Si atom -5570.212720 kJ/mol
# Density = 1.029085 g / cm^3
# Si number density = 10.314329 Si / 1000 Ang^3
#
#
#
# Elastic Constant Matrix: (Units=GPa)
#
#
# Indices 1 2 3 4 5 6 
#
# 1 121.4823 3.4131 10.3012 0.0000 17.4041 0.0000
# 2 3.4131 6.2582 -8.6392 0.0000 -4.3597 0.0000
# 3 10.3012 -8.6392 41.0873 0.0000 11.6033 0.0000
# 4 0.0000 0.0000 0.0000 15.6901 0.0000 2.6367
# 5 17.4041 -4.3597 11.6033 0.0000 23.9697 0.0000
# 6 0.0000 0.0000 0.0000 2.6367 0.0000 26.0299
#
#
#
# Elastic Compliance Matrix: (Units=1/GPa)
#
#
# Indices 1 2 3 4 5 6 
#
# 1 0.010256 -0.016656 -0.003608 0.000000 -0.008730 0.000000
# 2 -0.016656 0.261594 0.049030 0.000000 0.035938 0.000000
# 3 -0.003608 0.049030 0.037408 0.000000 -0.006571 0.000000
# 4 0.000000 0.000000 0.000000 0.064838 0.000000 -0.006568
# 5 -0.008730 0.035938 -0.006571 0.000000 0.057775 0.000000
# 6 0.000000 0.000000 0.000000 -0.006568 0.000000 0.039083
#
#
# Mechanical properties :
#
#
# Convention : Reuss Voigt Hill
#
# Bulk Modulus (GPa) = 2.72635 19.88643 11.30639
# Shear Modulus (GPa) = 9.33385 24.05479 16.69432
#
# Velocity S-wave (km/s) = 2.12944 3.41850 2.84787
# Velocity P-wave (km/s) = 2.71487 5.02421 4.03814
#
# Compressibility (1/GPa) = 0.36679063
#
# Stress axis : x y z
#
# Youngs Moduli (GPa) = 97.50189 3.82272 26.73220
#
# Poissons Ratio (x) = 0.06367 0.09646
# Poissons Ratio (y) = 1.62397 -1.31069
# Poissons Ratio (z) = 0.35181 -0.18743
#
# Static dielectric constant tensor:
#      x y z
#    x 1.709930 0.000000 0.026050 
#    y 0.000000 1.693870 0.000000 
#    z 0.026050 0.000000 1.941970 
# 
# From -- ./inp_files/249674.got.cif
#   From: 2010.05.17/outbox.ucp.g08.bks.cvg/sg12_125_cif.got.tgz:249674.got - 2010.06.11 11:47:21.
