data_PCOD9224266
_publ_section_title
;
Structure prediction by ZEFSAII (Michael W. Deem and Ramdas Pophale) SiO2 
 PCOD9224266
Probable space group: C 2/M
;
_chemical_formula_sum "Si O2"
_cell_formula_units_Z 24
_cell_length_a 18.000000
_cell_length_b 9.000000
_cell_length_c 30.000000
_cell_angle_alpha 90.000000
_cell_angle_beta 30.000000
_cell_angle_gamma 90.000000
_cell_volume 2430.000000
_symmetry_space_group_name_H-M "C 2/M"
_symmetry_group_IT_number 12
_symmetry_cell_setting 'monoclinic'
loop_
_space_group_symop_operation_xyz
x,y,z
-x,y,-z
-x,-y,-z
x,-y,z
1/2+x,1/2+y,z
1/2-x,1/2+y,-z
1/2-x,1/2-y,-z
1/2+x,1/2-y,z
loop_
_atom_site_type_symbol
_atom_site_label
_atom_site_fract_x
_atom_site_fract_y
_atom_site_fract_z
Si Si1 0.764545 0.671289 0.121208
Si Si2 0.587705 0.329378 0.718321
Si Si3 0.852007 0.824552 0.410422
Si Si4 0.856939 0.330411 0.978954
Si Si5 0.165452 0.329209 0.255631
Si Si6 0.161979 0.334003 0.766862
O O1 0.807293 0.500000 0.109456
O O2 0.589287 0.672973 0.199462
O O3 0.772912 0.770427 0.160681
O O4 0.850540 0.727685 0.032855
O O5 0.621732 0.500000 0.713928
O O6 0.676736 0.293206 0.626846
O O7 0.619561 0.210289 0.739347
O O8 0.750000 0.750000 0.500000
O O9 0.017987 0.767462 0.330706
O O10 0.845344 0.000000 0.419225
O O11 0.802691 0.500000 0.011772
O O12 0.015964 0.332273 0.873437
O O13 0.750000 0.250000 0.000000
O O14 0.131019 0.500000 0.266563
O O15 0.236071 0.293708 0.266229
O O16 0.227086 0.500000 0.736011
#
# Coordination Sequence:
#
# PCOD9224266 Si02
#       6
#     8   8   8   8   8   8
#     4   9  18  35  55  77 110 150 191 236 282 329
#     4   9  18  34  57  82 112 147 182 224 275 331
#     4  10  21  40  65  90 115 142 179 224 275 337
#     4  10  20  33  53  80 111 149 193 238 279 326
#     4  11  23  38  57  81 113 150 188 232 282 332
#     4  11  22  35  54  82 115 151 189 233 282 330
#
# _framework density 9.8765429999999999
#
# number of rings (size 3 to 8) (size 9 to 14) (size 15 to 20)
#    0.000    2.000    1.667    3.500    0.000    5.333 
#    0.000    4.167    0.000    5.000    0.000    0.000 
#    0.000    0.000    0.000    0.000    0.000    0.000 
#
# Total GULP energy -133835.267711 kJ/mol
# GULP energy per Si atom -5576.469488 kJ/mol
# Density = 0.985406 g / cm^3
# Si number density = 9.876543 Si / 1000 Ang^3
#
#
#
# Elastic Constant Matrix: (Units=GPa)
#
#
# Indices 1 2 3 4 5 6 
#
# 1 59.1238 40.6054 33.1577 0.0000 15.5955 0.0000
# 2 40.6054 3.7688 36.9895 0.0000 33.7836 -0.0003
# 3 33.1577 36.9895 94.6939 -0.0001 39.3285 0.0000
# 4 0.0000 0.0000 -0.0001 23.3182 0.0000 10.6366
# 5 15.5955 33.7836 39.3285 0.0000 19.7629 0.0000
# 6 0.0000 -0.0003 0.0000 10.6366 0.0000 24.7167
#
#
#
# Elastic Compliance Matrix: (Units=1/GPa)
#
#
# Indices 1 2 3 4 5 6 
#
# 1 0.020223 0.003293 0.003448 0.000000 -0.028449 0.000000
# 2 0.003293 -0.008584 -0.016226 0.000000 0.044366 0.000000
# 3 0.003448 -0.016226 0.030555 0.000000 -0.035789 0.000000
# 4 0.000000 0.000000 0.000000 0.053360 0.000000 -0.022963
# 5 -0.028449 0.044366 -0.035789 0.000000 0.068429 0.000001
# 6 0.000000 0.000000 0.000000 -0.022963 0.000001 0.050340
#
#
# Mechanical properties :
#
#
# Convention : Reuss Voigt Hill
#
# Bulk Modulus (GPa) = 43.06019 42.12131 42.59075
# Shear Modulus (GPa) = 20.74403 16.68182 18.71292
#
# Velocity S-wave (km/s) = 3.24414 2.90921 3.08123
# Velocity P-wave (km/s) = 5.98992 5.71444 5.85380
#
# Compressibility (1/GPa) = 0.02322331
#
# Stress axis : x y z
#
# Youngs Moduli (GPa) = 49.44952 -116.49040 32.72787
#
# Poissons Ratio (x) = 0.38357 -0.11285
# Poissons Ratio (y) = -0.16282 0.53104
# Poissons Ratio (z) = -0.17051 -1.89015
#
# Static dielectric constant tensor:
#      x y z
#    x 1.732200 0.000000 -0.000040 
#    y 0.000000 1.666780 0.000000 
#    z -0.000040 0.000000 1.736450 
# 
# From -- ./inp_files/274619.got.cif
#   From: 2010.05.17/outbox.ucp.g08.bks.cvg/sg12_138_cif.got.tgz:274619.got - 2010.06.11 11:47:21.
