data_PCOD9224853
_publ_section_title
;
Structure prediction by ZEFSAII (Michael W. Deem and Ramdas Pophale) SiO2 
 PCOD9224853
Probable space group: C 2/M
;
_chemical_formula_sum "Si O2"
_cell_formula_units_Z 24
_cell_length_a 15.000000
_cell_length_b 9.000000
_cell_length_c 21.000000
_cell_angle_alpha 90.000000
_cell_angle_beta 70.000000
_cell_angle_gamma 90.000000
_cell_volume 2664.028580
_symmetry_space_group_name_H-M "C 2/M"
_symmetry_group_IT_number 12
_symmetry_cell_setting 'monoclinic'
loop_
_space_group_symop_operation_xyz
x,y,z
-x,y,-z
-x,-y,-z
x,-y,z
1/2+x,1/2+y,z
1/2-x,1/2+y,-z
1/2-x,1/2-y,-z
1/2+x,1/2-y,z
loop_
_atom_site_type_symbol
_atom_site_label
_atom_site_fract_x
_atom_site_fract_y
_atom_site_fract_z
Si Si1 0.204079 0.179560 0.074445
Si Si2 0.492184 0.820497 0.837596
Si Si3 0.249127 0.322540 0.325876
Si Si4 0.055233 0.678024 0.682476
Si Si5 0.308036 0.321030 0.170305
Si Si6 0.045556 0.681463 0.422301
O O1 0.261107 0.241578 0.121642
O O2 0.097760 0.242630 0.108704
O O3 0.205471 0.000000 0.071887
O O4 0.250000 0.250000 0.000000
O O5 0.493972 0.789271 0.760927
O O6 0.588846 0.749949 0.841429
O O7 0.490338 0.000000 0.846609
O O8 0.257910 0.500000 0.331175
O O9 0.341973 0.246234 0.330941
O O10 0.248192 0.294894 0.249960
O O11 0.154042 0.272609 0.384391
O O12 0.063084 0.500000 0.677811
O O13 0.011139 0.729921 0.626818
O O14 0.314039 0.500000 0.159352
O O15 0.044535 0.500000 0.422834
O O16 0.000000 0.731036 0.500000
#
# Coordination Sequence:
#
# PCOD9224853 Si02
#       6
#     8   8   8   8   8   8
#     4  12  25  40  58  83 113 146 181 219 269 325
#     4  10  20  37  59  83 110 142 183 229 275 323
#     4   9  18  33  54  78 104 137 178 223 268 315
#     4   9  18  33  54  78 104 137 178 223 268 315
#     4  10  20  37  59  83 110 142 183 229 275 323
#     4   9  17  30  49  74 106 145 182 215 261 321
#
# _framework density 9.0089120000000005
#
# number of rings (size 3 to 8) (size 9 to 14) (size 15 to 20)
#    0.000    2.167    0.000    3.500    0.000    5.333 
#    0.000    4.167    0.000    1.000    0.000    0.000 
#    0.000    0.000    0.000    0.000    0.000    0.000 
#
# Total GULP energy -133957.798050 kJ/mol
# GULP energy per Si atom -5581.574919 kJ/mol
# Density = 0.898841 g / cm^3
# Si number density = 9.008912 Si / 1000 Ang^3
#
#
#
# Elastic Constant Matrix: (Units=GPa)
#
#
# Indices 1 2 3 4 5 6 
#
# 1 63.0730 21.3036 48.9574 0.0000 -34.6864 0.0000
# 2 21.3036 71.1292 38.0721 0.0000 -17.6208 0.0000
# 3 48.9574 38.0721 113.5695 0.0000 -46.4565 0.0000
# 4 0.0000 0.0000 0.0000 21.3031 0.0000 0.1405
# 5 -34.6864 -17.6208 -46.4565 0.0000 17.8834 0.0000
# 6 0.0000 0.0000 0.0000 0.1405 0.0000 30.5758
#
#
#
# Elastic Compliance Matrix: (Units=1/GPa)
#
#
# Indices 1 2 3 4 5 6 
#
# 1 0.004594 -0.002344 -0.024038 0.000000 -0.055844 0.000000
# 2 -0.002344 0.017297 -0.005172 0.000000 -0.000938 0.000000
# 3 -0.024038 -0.005172 0.004074 0.000000 -0.041136 0.000000
# 4 0.000000 0.000000 0.000000 0.046943 0.000000 -0.000216
# 5 -0.055844 -0.000938 -0.041136 0.000000 -0.160182 0.000000
# 6 0.000000 0.000000 0.000000 -0.000216 0.000000 0.032707
#
#
# Mechanical properties :
#
#
# Convention : Reuss Voigt Hill
#
# Bulk Modulus (GPa) = -26.92342 51.60423 12.34040
# Shear Modulus (GPa) = -1301.31280 23.24837 -639.03222
#
# Velocity S-wave (km/s) = -26.90361 3.59597 -18.85303
# Velocity P-wave (km/s) = 31.30571 6.77821 21.61138
#
# Compressibility (1/GPa) = -0.03714238
#
# Stress axis : x y z
#
# Youngs Moduli (GPa) = 217.69063 57.81449 245.45361
#
# Poissons Ratio (x) = 0.13549 5.90022
# Poissons Ratio (y) = 0.51018 1.26944
# Poissons Ratio (z) = 5.23285 0.29901
#
# Static dielectric constant tensor:
#      x y z
#    x 1.609550 0.000000 0.000470 
#    y 0.000000 1.592050 0.000000 
#    z 0.000470 0.000000 1.613280 
# 
# From -- ./inp_files/308314.got.cif
#   From: 2010.05.17/outbox.ucp.g08.bks.cvg/sg12_155_cif.got.tgz:308314.got - 2010.06.11 11:47:21.
