data_PCOD9224442
_publ_section_title
;
Structure prediction by ZEFSAII (Michael W. Deem and Ramdas Pophale) SiO2 
 PCOD9224442
Probable space group: C 2/M
;
_chemical_formula_sum "Si O2"
_cell_formula_units_Z 32
_cell_length_a 30.000000
_cell_length_b 9.000000
_cell_length_c 18.000000
_cell_angle_alpha 90.000000
_cell_angle_beta 40.000000
_cell_angle_gamma 90.000000
_cell_volume 3123.947783
_symmetry_space_group_name_H-M "C 2/M"
_symmetry_group_IT_number 12
_symmetry_cell_setting 'monoclinic'
loop_
_space_group_symop_operation_xyz
x,y,z
-x,y,-z
-x,-y,-z
x,-y,z
1/2+x,1/2+y,z
1/2-x,1/2+y,-z
1/2-x,1/2-y,-z
1/2+x,1/2-y,z
loop_
_atom_site_type_symbol
_atom_site_label
_atom_site_fract_x
_atom_site_fract_y
_atom_site_fract_z
Si Si1 0.706469 0.823184 0.208836
Si Si2 0.585244 0.176381 0.973543
Si Si3 0.079444 0.677937 0.278812
Si Si4 0.950088 0.822804 0.386855
Si Si5 0.304722 0.821393 0.608245
Si Si6 0.459417 0.677473 0.207119
Si Si7 0.333374 0.176825 0.977321
Si Si8 0.662046 0.322347 0.736512
O O1 0.628002 0.787574 0.286422
O O2 0.719039 0.780442 0.277795
O O3 0.759152 0.750122 0.084239
O O4 0.715197 0.000000 0.191477
O O5 0.509901 0.243909 0.084773
O O6 0.581439 0.000000 0.968933
O O7 0.625782 0.209536 0.998574
O O8 0.623694 0.248124 0.855043
O O9 0.069085 0.500000 0.288107
O O10 0.006697 0.758553 0.370225
O O11 0.123186 0.725283 0.149786
O O12 0.875157 0.759122 0.499631
O O13 0.971071 0.773208 0.276520
O O14 0.949314 0.000000 0.389011
O O15 0.242026 0.778449 0.634373
O O16 0.315052 0.000000 0.593530
O O17 0.470750 0.500000 0.188486
O O18 0.381156 0.710168 0.281989
O O19 0.324918 0.000000 0.981852
O O20 0.659864 0.500000 0.751487
#
# Coordination Sequence:
#
# PCOD9224442 Si02
#       8
#     8   8   8   8   8   8   8   8
#     4  10  21  37  61  88 113 149 193 230 274 340
#     4  11  21  34  57  89 120 151 186 228 281 337
#     4  10  21  39  60  85 117 151 188 230 280 338
#     4  11  24  40  59  83 111 148 194 240 285 333
#     4  10  22  40  60  82 110 148 191 236 285 335
#     4  10  22  39  59  84 114 150 192 234 278 337
#     4  10  20  34  56  86 120 152 182 227 284 333
#     4  10  21  39  61  84 114 152 190 230 281 339
#
# _framework density 10.243449
#
# number of rings (size 3 to 8) (size 9 to 14) (size 15 to 20)
#    0.000    1.750    2.500    1.500    0.000    6.000 
#    0.000    2.500    0.000    0.000    0.000    0.000 
#    0.000    0.000    0.000    0.000    0.000    0.000 
#
# Total GULP energy -178732.666935 kJ/mol
# GULP energy per Si atom -5585.395842 kJ/mol
# Density = 1.022013 g / cm^3
# Si number density = 10.243449 Si / 1000 Ang^3
#
#
#
# Elastic Constant Matrix: (Units=GPa)
#
#
# Indices 1 2 3 4 5 6 
#
# 1 78.3907 28.1670 8.5247 -0.0027 -30.4156 -0.0006
# 2 28.1670 -9.7001 4.2163 -0.0121 -13.3751 0.0110
# 3 8.5247 4.2163 43.1052 -0.0092 -30.5020 0.0037
# 4 -0.0027 -0.0121 -0.0092 29.8765 0.0041 -4.6994
# 5 -30.4156 -13.3751 -30.5020 0.0041 31.2195 -0.0024
# 6 -0.0006 0.0110 0.0037 -4.6994 -0.0024 18.3335
#
#
#
# Elastic Compliance Matrix: (Units=1/GPa)
#
#
# Indices 1 2 3 4 5 6 
#
# 1 0.066433 0.003232 0.107970 0.000018 0.171596 0.000006
# 2 0.003232 -0.046749 -0.025955 -0.000017 -0.042238 0.000023
# 3 0.107970 -0.025955 0.229879 0.000030 0.318666 0.000023
# 4 0.000018 -0.000017 0.000030 0.034877 0.000036 0.008940
# 5 0.171596 -0.042238 0.318666 0.000036 0.492455 0.000041
# 6 0.000006 0.000023 0.000023 0.008940 0.000041 0.056837
#
#
# Mechanical properties :
#
#
# Convention : Reuss Voigt Hill
#
# Bulk Modulus (GPa) = 2.38062 21.51243 11.94653
# Shear Modulus (GPa) = 6.22465 20.61175 13.41820
#
# Velocity S-wave (km/s) = 1.74498 3.17534 2.56201
# Velocity P-wave (km/s) = 2.28571 4.89562 3.82044
#
# Compressibility (1/GPa) = 0.42005827
#
# Stress axis : x y z
#
# Youngs Moduli (GPa) = 15.05270 -21.39093 4.35011
#
# Poissons Ratio (x) = 0.06913 -0.46968
# Poissons Ratio (y) = -0.04865 0.11291
# Poissons Ratio (z) = -1.62524 -0.55519
#
# Static dielectric constant tensor:
#      x y z
#    x 1.776640 0.000000 -0.023040 
#    y 0.000000 1.677740 0.000000 
#    z -0.023040 0.000000 1.696970 
# 
# From -- ./inp_files/295526.got.cif
#   From: 2010.05.17/outbox.ucp.g08.bks.cvg/sg12_148_cif.got.tgz:295526.got - 2010.06.11 11:47:21.
