data_PCOD9224495
_publ_section_title
;
Structure prediction by ZEFSAII (Michael W. Deem and Ramdas Pophale) SiO2 
 PCOD9224495
Probable space group: C 2/M
;
_chemical_formula_sum "Si O2"
_cell_formula_units_Z 28
_cell_length_a 21.000000
_cell_length_b 9.000000
_cell_length_c 18.000000
_cell_angle_alpha 90.000000
_cell_angle_beta 120.000000
_cell_angle_gamma 90.000000
_cell_volume 2946.218424
_symmetry_space_group_name_H-M "C 2/M"
_symmetry_group_IT_number 12
_symmetry_cell_setting 'monoclinic'
loop_
_space_group_symop_operation_xyz
x,y,z
-x,y,-z
-x,-y,-z
x,-y,z
1/2+x,1/2+y,z
1/2-x,1/2+y,-z
1/2-x,1/2-y,-z
1/2+x,1/2-y,z
loop_
_atom_site_type_symbol
_atom_site_label
_atom_site_fract_x
_atom_site_fract_y
_atom_site_fract_z
Si Si1 0.068274 0.826678 0.861872
Si Si2 0.447177 0.673087 0.542558
Si Si3 0.165767 0.178514 0.635703
Si Si4 0.291276 0.169193 0.807811
Si Si5 0.465716 0.830061 0.900078
Si Si6 0.565478 0.176381 0.704161
Si Si7 0.794706 0.825944 0.961432
O O1 0.083464 0.734915 0.796635
O O2 0.990879 0.778669 0.850079
O O3 0.073919 0.000000 0.847330
O O4 0.122443 0.794495 0.962769
O O5 0.500000 0.680227 0.500000
O O6 0.443904 0.500000 0.563462
O O7 0.369352 0.726406 0.463181
O O8 0.485466 0.767632 0.629085
O O9 0.249324 0.210588 0.707689
O O10 0.120492 0.250714 0.676744
O O11 0.154233 0.000000 0.630101
O O12 0.378380 0.171900 0.852257
O O13 0.273478 0.266875 0.868776
O O14 0.268373 0.000000 0.812260
O O15 0.490514 0.000000 0.898333
O O16 0.500000 0.789806 0.000000
O O17 0.569891 0.000000 0.703835
O O18 0.782906 0.000000 0.956108
O O19 0.750000 0.750000 0.000000
#
# Coordination Sequence:
#
# PCOD9224495 Si02
#       7
#     8   8   8   8   8   8   8
#     4  11  23  37  53  73 102 139 177 215 255 307
#     4   8  15  30  51  74 104 139 171 204 250 311
#     4   9  18  33  53  78 108 141 172 204 252 314
#     4  10  20  35  55  77 104 136 171 211 255 305
#     4  10  20  36  57  78 101 133 174 219 262 301
#     4  11  21  32  51  79 108 136 171 216 262 306
#     4  11  23  35  50  74 104 137 171 209 256 306
#
# _framework density 9.5037079999999996
#
# number of rings (size 3 to 8) (size 9 to 14) (size 15 to 20)
#    0.000    2.000    1.429    3.857    0.000    9.143 
#    0.000    0.000    0.000    0.857    0.000    0.000 
#    0.000    0.000    0.000    0.000    0.000    0.000 
#
# Total GULP energy -156042.341454 kJ/mol
# GULP energy per Si atom -5572.940766 kJ/mol
# Density = 0.948208 g / cm^3
# Si number density = 9.503708 Si / 1000 Ang^3
#
#
#
# Elastic Constant Matrix: (Units=GPa)
#
#
# Indices 1 2 3 4 5 6 
#
# 1 25.6965 17.5223 2.1500 0.0000 9.8546 0.0000
# 2 17.5223 8.0431 23.7784 0.0000 5.1514 0.0000
# 3 2.1500 23.7784 47.9442 0.0000 29.4846 0.0000
# 4 0.0000 0.0000 0.0000 26.4191 0.0000 -6.3398
# 5 9.8546 5.1514 29.4846 0.0000 19.6133 0.0000
# 6 0.0000 0.0000 0.0000 -6.3398 0.0000 13.4218
#
#
#
# Elastic Compliance Matrix: (Units=1/GPa)
#
#
# Indices 1 2 3 4 5 6 
#
# 1 0.018227 0.020125 -0.025373 0.000000 0.023700 0.000000
# 2 0.020125 0.006675 0.040837 0.000000 -0.073255 0.000000
# 3 -0.025373 0.040837 0.006593 0.000000 -0.007889 0.000000
# 4 0.000000 0.000000 0.000000 0.042690 0.000000 0.020165
# 5 0.023700 -0.073255 -0.007889 0.000000 0.070178 0.000000
# 6 0.000000 0.000000 0.000000 0.020165 0.000000 0.084031
#
#
# Mechanical properties :
#
#
# Convention : Reuss Voigt Hill
#
# Bulk Modulus (GPa) = 9.73959 18.73169 14.23564
# Shear Modulus (GPa) = 26.11765 14.43970 20.27868
#
# Velocity S-wave (km/s) = 3.71088 2.75923 3.26986
# Velocity P-wave (km/s) = 4.84727 4.47521 4.66495
#
# Compressibility (1/GPa) = 0.10267370
#
# Stress axis : x y z
#
# Youngs Moduli (GPa) = 54.86350 149.80913 151.66842
#
# Poissons Ratio (x) = -3.01487 3.84830
# Poissons Ratio (y) = -1.10412 -6.19375
# Poissons Ratio (z) = 1.39206 -6.11782
#
# Static dielectric constant tensor:
#      x y z
#    x 1.717170 0.000000 0.090870 
#    y 0.000000 1.656000 0.000000 
#    z 0.090870 0.000000 1.692260 
# 
# From -- ./inp_files/281598.got.cif
#   From: 2010.05.17/outbox.ucp.g08.bks.cvg/sg12_141_cif.got.tgz:281598.got - 2010.06.11 11:47:21.
