data_PCOD9224969
_publ_section_title
;
Structure prediction by ZEFSAII (Michael W. Deem and Ramdas Pophale) SiO2 
 PCOD9224969
Probable space group: C 2/M
;
_chemical_formula_sum "Si O2"
_cell_formula_units_Z 20
_cell_length_a 24.000000
_cell_length_b 9.000000
_cell_length_c 30.000000
_cell_angle_alpha 90.000000
_cell_angle_beta 160.000000
_cell_angle_gamma 90.000000
_cell_volume 2216.290529
_symmetry_space_group_name_H-M "C 2/M"
_symmetry_group_IT_number 12
_symmetry_cell_setting 'monoclinic'
loop_
_space_group_symop_operation_xyz
x,y,z
-x,y,-z
-x,-y,-z
x,-y,z
1/2+x,1/2+y,z
1/2-x,1/2+y,-z
1/2-x,1/2-y,-z
1/2+x,1/2-y,z
loop_
_atom_site_type_symbol
_atom_site_label
_atom_site_fract_x
_atom_site_fract_y
_atom_site_fract_z
Si Si1 0.416474 0.000000 0.548131
Si Si2 0.208059 0.000000 0.013256
Si Si3 0.839819 0.500000 0.348517
Si Si4 0.046550 0.500000 0.977484
Si Si5 0.348089 0.500000 0.131173
Si Si6 0.132657 0.235718 0.323552
Si Si7 0.053454 0.500000 0.322970
Si Si8 0.430661 0.739357 0.826336
O O1 0.579532 0.000000 0.640332
O O2 0.296521 0.137620 0.446614
O O3 0.451978 0.000000 0.627731
O O4 0.373072 0.000000 0.165365
O O5 0.244323 0.000000 0.986880
O O6 0.092764 0.139105 0.939965
O O7 0.721326 0.638432 0.271388
O O8 0.000000 0.500000 0.500000
O O9 0.966917 0.358014 0.892629
O O10 0.231291 0.500000 0.088417
O O11 0.000000 0.500000 0.000000
O O12 0.474737 0.638133 0.220524
O O13 0.144597 0.360179 0.369968
O O14 0.106980 0.291604 0.253069
#
# Coordination Sequence:
#
# PCOD9224969 Si02
#       8
#     4   4   4   4   4   8   4   8
#     4  11  23  39  58  82 115 156 193 249 292 336
#     4   9  19  37  64  93 108 148 203 245 282 351
#     4  11  20  42  66  80 108 156 214 250 271 330
#     4  12  25  38  54  93 137 154 176 233 310 367
#     4   9  19  38  63  81 118 157 188 234 291 345
#     4  10  20  38  62  85 111 150 202 242 284 344
#     4  12  22  32  55  91 123 143 183 243 311 347
#     4  10  21  39  65  87 113 154 202 242 287 344
#
# _framework density 9.0240880000000008
#
# number of rings (size 3 to 8) (size 9 to 14) (size 15 to 20)
#    0.000    1.600    2.000    4.800    0.000    6.400 
#    0.000    3.500    0.000    0.000    0.000    0.000 
#    0.000    0.000    0.000    0.000    0.000    0.000 
#
# Total GULP energy -111344.034402 kJ/mol
# GULP energy per Si atom -5567.201720 kJ/mol
# Density = 0.900355 g / cm^3
# Si number density = 9.024088 Si / 1000 Ang^3
#
#
#
# Elastic Constant Matrix: (Units=GPa)
#
#
# Indices 1 2 3 4 5 6 
#
# 1 170.3805 35.7516 22.9552 0.0040 -0.2411 -0.0003
# 2 35.7516 74.8253 10.0192 0.0035 -0.8258 -0.0001
# 3 22.9552 10.0192 60.3952 0.0231 11.5282 -0.0032
# 4 0.0040 0.0035 0.0231 9.9051 -0.0020 -1.3767
# 5 -0.2411 -0.8258 11.5282 -0.0020 47.4173 -0.0002
# 6 -0.0003 -0.0001 -0.0032 -1.3767 -0.0002 28.9699
#
#
#
# Elastic Compliance Matrix: (Units=1/GPa)
#
#
# Indices 1 2 3 4 5 6 
#
# 1 0.006782 -0.002942 -0.002188 0.000003 0.000515 0.000000
# 2 -0.002942 0.014975 -0.001482 -0.000001 0.000606 0.000000
# 3 -0.002188 -0.001482 0.018501 -0.000043 -0.004535 0.000000
# 4 0.000003 -0.000001 -0.000043 0.101629 0.000015 0.004830
# 5 0.000515 0.000606 -0.004535 0.000015 0.022205 0.000000
# 6 0.000000 0.000000 0.000000 0.004830 0.000000 0.034748
#
#
# Mechanical properties :
#
#
# Convention : Reuss Voigt Hill
#
# Bulk Modulus (GPa) = 36.98978 49.22811 43.10895
# Shear Modulus (GPa) = 22.61670 33.05011 27.83341
#
# Velocity S-wave (km/s) = 3.54380 4.28391 3.93131
# Velocity P-wave (km/s) = 6.10608 7.19753 6.67415
#
# Compressibility (1/GPa) = 0.02703449
#
# Stress axis : x y z
#
# Youngs Moduli (GPa) = 147.44858 66.77722 54.05197
#
# Poissons Ratio (x) = 0.19644 0.11827
# Poissons Ratio (y) = 0.43376 0.08010
# Poissons Ratio (z) = 0.32262 0.09896
#
# Static dielectric constant tensor:
#      x y z
#    x 1.632870 0.000000 -0.003140 
#    y 0.000000 1.709610 0.000000 
#    z -0.003140 0.000000 1.625190 
# 
# From -- ./inp_files/382145.got.cif
#   From: 2010.05.17/outbox.ucp.g08.bks.cvg/sg12_192_cif.got.tgz:382145.got - 2010.06.11 11:47:21.
