data_PCOD9224606
_publ_section_title
;
Structure prediction by ZEFSAII (Michael W. Deem and Ramdas Pophale) SiO2 
 PCOD9224606
Probable space group: C 2/M
;
_chemical_formula_sum "Si O2"
_cell_formula_units_Z 32
_cell_length_a 30.000000
_cell_length_b 9.000000
_cell_length_c 12.000000
_cell_angle_alpha 90.000000
_cell_angle_beta 90.000000
_cell_angle_gamma 90.000000
_cell_volume 3240.000000
_symmetry_space_group_name_H-M "C 2/M"
_symmetry_group_IT_number 12
_symmetry_cell_setting 'monoclinic'
loop_
_space_group_symop_operation_xyz
x,y,z
-x,y,-z
-x,-y,-z
x,-y,z
1/2+x,1/2+y,z
1/2-x,1/2+y,-z
1/2-x,1/2-y,-z
1/2+x,1/2-y,z
loop_
_atom_site_type_symbol
_atom_site_label
_atom_site_fract_x
_atom_site_fract_y
_atom_site_fract_z
Si Si1 0.792186 0.678904 0.939424
Si Si2 0.393721 0.822030 0.975239
Si Si3 0.846965 0.677584 0.566691
Si Si4 0.991777 0.173942 0.376350
Si Si5 0.236972 0.679759 0.305610
Si Si6 0.078554 0.175474 0.805482
Si Si7 0.412816 0.672790 0.742320
Si Si8 0.662802 0.324864 0.658929
O O1 0.789042 0.500000 0.947345
O O2 0.841104 0.722375 0.983047
O O3 0.786647 0.721995 0.809882
O O4 0.750000 0.750000 0.000000
O O5 0.411076 0.753867 0.860293
O O6 0.395246 0.000000 0.971191
O O7 0.421931 0.761140 0.078612
O O8 0.849865 0.500000 0.572044
O O9 0.796186 0.724653 0.596060
O O10 0.879193 0.748132 0.657634
O O11 0.857202 0.738189 0.445275
O O12 0.038274 0.179329 0.311406
O O13 0.000000 0.239253 0.500000
O O14 0.954114 0.233436 0.292223
O O15 0.978750 0.000000 0.394831
O O16 0.239122 0.500000 0.305507
O O17 0.287639 0.732678 0.314084
O O18 0.128876 0.188416 0.760222
O O19 0.068569 0.000000 0.823180
O O20 0.400506 0.500000 0.755591
O O21 0.665482 0.500000 0.630053
#
# Coordination Sequence:
#
# PCOD9224606 Si02
#       8
#     8   8   8   8   8   8   8   8
#     4  10  20  36  56  79 112 155 199 243 289 340
#     4  11  23  40  60  85 123 159 193 241 300 356
#     4  11  21  36  56  81 120 158 190 237 299 356
#     4   9  19  38  64  92 118 148 192 249 300 344
#     4   9  18  34  53  77 113 152 190 234 288 345
#     4  10  21  39  63  88 117 151 196 248 295 348
#     4  11  22  38  63  89 115 153 204 249 293 353
#     4  10  20  35  58  85 113 150 197 245 290 346
#
# _framework density 9.8765429999999999
#
# number of rings (size 3 to 8) (size 9 to 14) (size 15 to 20)
#    0.000    1.875    1.250    3.000    0.000    5.000 
#    0.000    5.000    0.000    2.625    0.000    0.000 
#    0.000    0.000    0.000    0.000    0.000    0.000 
#
# Total GULP energy -178628.371834 kJ/mol
# GULP energy per Si atom -5582.136620 kJ/mol
# Density = 0.985406 g / cm^3
# Si number density = 9.876543 Si / 1000 Ang^3
#
#
#
# Elastic Constant Matrix: (Units=GPa)
#
#
# Indices 1 2 3 4 5 6 
#
# 1 58.8919 23.6377 30.8720 0.0000 20.7763 0.0000
# 2 23.6377 41.9443 40.2275 0.0000 5.6522 0.0000
# 3 30.8720 40.2275 120.5657 0.0000 28.6612 0.0000
# 4 0.0000 0.0000 0.0000 15.7727 0.0000 0.5157
# 5 20.7763 5.6522 28.6612 0.0000 31.3620 0.0000
# 6 0.0000 0.0000 0.0000 0.5157 0.0000 21.9461
#
#
#
# Elastic Compliance Matrix: (Units=1/GPa)
#
#
# Indices 1 2 3 4 5 6 
#
# 1 0.028535 -0.015830 0.002288 0.000000 -0.018141 0.000000
# 2 -0.015830 0.044626 -0.014586 0.000000 0.015774 0.000000
# 3 0.002288 -0.014586 0.015727 0.000000 -0.013260 0.000000
# 4 0.000000 0.000000 0.000000 0.063449 0.000000 -0.001491
# 5 -0.018141 0.015774 -0.013260 0.000000 0.053179 0.000000
# 6 0.000000 0.000000 0.000000 -0.001491 0.000000 0.045601
#
#
# Mechanical properties :
#
#
# Convention : Reuss Voigt Hill
#
# Bulk Modulus (GPa) = 30.64602 45.65293 38.14948
# Shear Modulus (GPa) = 15.71088 22.26047 18.98567
#
# Velocity S-wave (km/s) = 2.82328 3.36063 3.10360
# Velocity P-wave (km/s) = 5.11626 6.18227 5.67435
#
# Compressibility (1/GPa) = 0.03263066
#
# Stress axis : x y z
#
# Youngs Moduli (GPa) = 35.04494 22.40861 63.58387
#
# Poissons Ratio (x) = 0.35474 -0.14547
# Poissons Ratio (y) = 0.55477 0.92744
# Poissons Ratio (z) = -0.08018 0.32685
#
# Static dielectric constant tensor:
#      x y z
#    x 1.708370 0.000000 -0.015170 
#    y 0.000000 1.663070 0.000000 
#    z -0.015170 0.000000 1.713270 
# 
# From -- ./inp_files/187627.got.cif
#   From: 2010.05.17/outbox.ucp.g08.bks.cvg/sg12_94_cif.got.tgz:187627.got - 2010.06.11 11:47:21.
