data_PCOD9224100
_publ_section_title
;
Structure prediction by ZEFSAII (Michael W. Deem and Ramdas Pophale) SiO2 
 PCOD9224100
Probable space group: C 2/M
;
_chemical_formula_sum "Si O2"
_cell_formula_units_Z 26
_cell_length_a 27.000000
_cell_length_b 12.000000
_cell_length_c 18.000000
_cell_angle_alpha 90.000000
_cell_angle_beta 150.000000
_cell_angle_gamma 90.000000
_cell_volume 2916.000000
_symmetry_space_group_name_H-M "C 2/M"
_symmetry_group_IT_number 12
_symmetry_cell_setting 'monoclinic'
loop_
_space_group_symop_operation_xyz
x,y,z
-x,y,-z
-x,-y,-z
x,-y,z
1/2+x,1/2+y,z
1/2-x,1/2+y,-z
1/2-x,1/2-y,-z
1/2+x,1/2-y,z
loop_
_atom_site_type_symbol
_atom_site_label
_atom_site_fract_x
_atom_site_fract_y
_atom_site_fract_z
Si Si1 0.532125 0.721180 0.327914
Si Si2 0.088474 0.133109 0.238922
Si Si3 0.277638 0.500000 0.167792
Si Si4 0.985225 0.000000 0.354687
Si Si5 0.278597 0.500000 0.337792
Si Si6 0.823080 0.718218 0.028002
Si Si7 0.641066 0.633197 0.069127
Si Si8 0.249864 0.751144 0.654346
O O1 0.575053 0.674132 0.305987
O O2 0.481671 0.614531 0.303290
O O3 0.438447 0.802775 0.198916
O O4 0.631504 0.770867 0.493881
O O5 0.176999 0.199748 0.313384
O O6 0.108357 0.000000 0.261566
O O7 0.975778 0.151015 0.062502
O O8 0.395863 0.500000 0.298730
O O9 0.242564 0.500000 0.207307
O O10 0.228683 0.609796 0.071512
O O11 0.102836 0.000000 0.524750
O O12 0.246874 0.386426 0.337310
O O13 0.750000 0.750000 0.000000
O O14 0.833890 0.813568 0.978477
O O15 0.656861 0.500000 0.089483
O O16 0.708055 0.696155 0.216070
#
# Coordination Sequence:
#
# PCOD9224100 Si02
#       8
#     8   8   4   4   4   8   8   8
#     4  10  21  38  58  90 118 152 195 247 290 342
#     4  10  20  37  64  87 111 153 206 242 284 340
#     4  12  21  40  63  86 119 155 196 239 303 355
#     4  10  19  36  66  85 113 150 202 253 285 335
#     4  10  23  38  56  92 119 150 198 243 297 355
#     4  11  23  38  62  89 116 152 194 243 298 350
#     4  10  22  40  64  86 112 151 204 245 284 347
#     4  11  21  39  59  85 122 155 194 242 290 344
#
# _framework density 8.9163239999999995
#
# number of rings (size 3 to 8) (size 9 to 14) (size 15 to 20)
#    0.000    1.538    3.846    1.615    2.154    1.231 
#    2.769    5.385    0.000    0.923    0.000    0.000 
#    0.000    0.000    0.000    0.000    0.000    0.000 
#
# Total GULP energy -144843.935741 kJ/mol
# GULP energy per Si atom -5570.920605 kJ/mol
# Density = 0.889603 g / cm^3
# Si number density = 8.916324 Si / 1000 Ang^3
#
#
#
# Elastic Constant Matrix: (Units=GPa)
#
#
# Indices 1 2 3 4 5 6 
#
# 1 103.1355 24.1542 19.2416 0.0000 23.9838 0.0000
# 2 24.1542 82.1335 31.3313 0.0000 17.0513 0.0000
# 3 19.2416 31.3313 95.4365 0.0000 18.5212 0.0000
# 4 0.0000 0.0000 0.0000 32.8814 0.0000 1.7467
# 5 23.9838 17.0513 18.5212 0.0000 30.7163 0.0000
# 6 0.0000 0.0000 0.0000 1.7467 0.0000 47.4901
#
#
#
# Elastic Compliance Matrix: (Units=1/GPa)
#
#
# Indices 1 2 3 4 5 6 
#
# 1 0.012084 -0.001729 -0.000253 0.000000 -0.008322 0.000000
# 2 -0.001729 0.015082 -0.003669 0.000000 -0.004810 0.000000
# 3 -0.000253 -0.003669 0.012798 0.000000 -0.005482 0.000000
# 4 0.000000 0.000000 0.000000 0.030472 0.000000 -0.001121
# 5 -0.008322 -0.004810 -0.005482 0.000000 0.045030 0.000000
# 6 0.000000 0.000000 0.000000 -0.001121 0.000000 0.021098
#
#
# Mechanical properties :
#
#
# Convention : Reuss Voigt Hill
#
# Bulk Modulus (GPa) = 34.89246 47.79552 41.34399
# Shear Modulus (GPa) = 31.76212 35.94946 33.85579
#
# Velocity S-wave (km/s) = 4.22491 4.49479 4.36194
# Velocity P-wave (km/s) = 6.58855 7.33471 6.97162
#
# Compressibility (1/GPa) = 0.02865949
#
# Stress axis : x y z
#
# Youngs Moduli (GPa) = 82.75695 66.30389 78.13864
#
# Poissons Ratio (x) = 0.11465 0.01981
# Poissons Ratio (y) = 0.14310 0.28672
# Poissons Ratio (z) = 0.02098 0.24329
#
# Static dielectric constant tensor:
#      x y z
#    x 1.597970 0.000000 -0.062970 
#    y 0.000000 1.591210 0.000000 
#    z -0.062970 0.000000 1.695320 
# 
# From -- ./inp_files/293195.got.cif
#   From: 2010.05.17/outbox.ucp.g08.bks.cvg/sg12_147_cif.got.tgz:293195.got - 2010.06.11 11:47:21.
