data_PCOD9224724
_publ_section_title
;
Structure prediction by ZEFSAII (Michael W. Deem and Ramdas Pophale) SiO2 
 PCOD9224724
Probable space group: C 2/M
;
_chemical_formula_sum "Si O2"
_cell_formula_units_Z 28
_cell_length_a 15.000000
_cell_length_b 9.000000
_cell_length_c 21.000000
_cell_angle_alpha 90.000000
_cell_angle_beta 90.000000
_cell_angle_gamma 90.000000
_cell_volume 2835.000000
_symmetry_space_group_name_H-M "C 2/M"
_symmetry_group_IT_number 12
_symmetry_cell_setting 'monoclinic'
loop_
_space_group_symop_operation_xyz
x,y,z
-x,y,-z
-x,-y,-z
x,-y,z
1/2+x,1/2+y,z
1/2-x,1/2+y,-z
1/2-x,1/2-y,-z
1/2+x,1/2-y,z
loop_
_atom_site_type_symbol
_atom_site_label
_atom_site_fract_x
_atom_site_fract_y
_atom_site_fract_z
Si Si1 0.803345 0.668160 0.183355
Si Si2 0.529869 0.323386 0.788526
Si Si3 0.957286 0.825424 0.929809
Si Si4 0.601888 0.323844 0.516851
Si Si5 0.772704 0.673252 0.934397
Si Si6 0.354866 0.328076 0.718946
Si Si7 0.246719 0.176965 0.403892
O O1 0.826175 0.500000 0.165878
O O2 0.880181 0.737581 0.226221
O O3 0.788799 0.764129 0.120928
O O4 0.711193 0.668563 0.221328
O O5 0.538844 0.500000 0.778586
O O6 0.512662 0.303957 0.864671
O O7 0.447825 0.266688 0.745499
O O8 0.873716 0.718857 0.921137
O O9 0.929279 0.000000 0.929808
O O10 0.000000 0.798909 0.000000
O O11 0.500000 0.272716 0.500000
O O12 0.595003 0.500000 0.530176
O O13 0.659884 0.248547 0.573344
O O14 0.669004 0.303385 0.456970
O O15 0.760320 0.500000 0.939703
O O16 0.750000 0.750000 0.000000
O O17 0.373473 0.500000 0.700106
O O18 0.299087 0.261694 0.660486
O O19 0.262735 0.000000 0.396779
#
# Coordination Sequence:
#
# PCOD9224724 Si02
#       7
#     8   8   8   8   8   8   8
#     4  11  22  39  59  82 112 147 189 237 287 340
#     4  10  20  37  58  82 113 150 187 230 288 347
#     4  10  20  36  58  82 111 145 182 229 288 347
#     4   9  18  33  54  83 117 149 186 238 287 328
#     4  12  24  38  58  83 111 144 187 235 289 345
#     4   9  19  37  58  79 113 156 191 228 285 348
#     4   9  18  34  56  81 111 153 196 230 277 340
#
# _framework density 9.8765429999999999
#
# number of rings (size 3 to 8) (size 9 to 14) (size 15 to 20)
#    0.000    2.000    1.429    2.571    0.000    3.429 
#    0.000    3.571    0.000    0.000    0.000    0.000 
#    0.000    0.000    0.000    0.000    0.000    0.000 
#
# Total GULP energy -156105.113069 kJ/mol
# GULP energy per Si atom -5575.182610 kJ/mol
# Density = 0.985406 g / cm^3
# Si number density = 9.876543 Si / 1000 Ang^3
#
#
#
# Elastic Constant Matrix: (Units=GPa)
#
#
# Indices 1 2 3 4 5 6 
#
# 1 124.6660 49.7910 20.4570 0.0000 45.9476 0.0000
# 2 49.7910 52.0452 28.0786 0.0000 16.0277 0.0000
# 3 20.4570 28.0786 66.2808 0.0000 41.7496 0.0000
# 4 0.0000 0.0000 0.0000 8.9972 0.0000 7.9885
# 5 45.9476 16.0277 41.7496 0.0000 35.6388 0.0000
# 6 0.0000 0.0000 0.0000 7.9885 0.0000 28.4385
#
#
#
# Elastic Compliance Matrix: (Units=1/GPa)
#
#
# Indices 1 2 3 4 5 6 
#
# 1 -0.018490 0.021803 -0.047191 0.000000 0.069316 0.000000
# 2 0.021803 -0.000618 0.042210 0.000000 -0.077279 0.000000
# 3 -0.047191 0.042210 -0.055685 0.000000 0.107092 0.000000
# 4 0.000000 0.000000 0.000000 0.148078 0.000000 -0.041596
# 5 0.069316 -0.077279 0.107092 0.000000 -0.152008 0.000000
# 6 0.000000 0.000000 0.000000 -0.041596 0.000000 0.046848
#
#
# Mechanical properties :
#
#
# Convention : Reuss Voigt Hill
#
# Bulk Modulus (GPa) = -24.30084 48.84947 12.27432
# Shear Modulus (GPa) = -63.10384 24.25926 -19.42229
#
# Velocity S-wave (km/s) = -5.65824 3.50826 -3.13909
# Velocity P-wave (km/s) = 7.41732 6.41828 2.62891
#
# Compressibility (1/GPa) = -0.04115085
#
# Stress axis : x y z
#
# Youngs Moduli (GPa) = -54.08235 -1617.70415 -17.95814
#
# Poissons Ratio (x) = 35.27044 -0.84747
# Poissons Ratio (y) = 1.17915 0.75801
# Poissons Ratio (z) = -2.55221 68.28288
#
# Static dielectric constant tensor:
#      x y z
#    x 1.618500 0.000000 -0.031610 
#    y 0.000000 1.673590 0.000000 
#    z -0.031610 0.000000 1.727250 
# 
# From -- ./inp_files/308896.got.cif
#   From: 2010.05.17/outbox.ucp.g08.bks.cvg/sg12_155_cif.got.tgz:308896.got - 2010.06.11 11:47:21.
