data_PCOD9224054
_publ_section_title
;
Structure prediction by ZEFSAII (Michael W. Deem and Ramdas Pophale) SiO2 
 PCOD9224054
Probable space group: C 2/M
;
_chemical_formula_sum "Si O2"
_cell_formula_units_Z 32
_cell_length_a 27.000000
_cell_length_b 9.000000
_cell_length_c 15.000000
_cell_angle_alpha 90.000000
_cell_angle_beta 70.000000
_cell_angle_gamma 90.000000
_cell_volume 3425.179603
_symmetry_space_group_name_H-M "C 2/M"
_symmetry_group_IT_number 12
_symmetry_cell_setting 'monoclinic'
loop_
_space_group_symop_operation_xyz
x,y,z
-x,y,-z
-x,-y,-z
x,-y,z
1/2+x,1/2+y,z
1/2-x,1/2+y,-z
1/2-x,1/2-y,-z
1/2+x,1/2-y,z
loop_
_atom_site_type_symbol
_atom_site_label
_atom_site_fract_x
_atom_site_fract_y
_atom_site_fract_z
Si Si1 0.619761 0.179955 0.746689
Si Si2 0.032158 0.173088 0.389023
Si Si3 0.708166 0.179628 0.181182
Si Si4 0.497761 0.179214 0.232817
Si Si5 0.821448 0.320472 0.109002
Si Si6 0.191464 0.320501 0.531178
Si Si7 0.386159 0.179050 0.894995
Si Si8 0.349671 0.320881 0.622883
O O1 0.558773 0.231563 0.771881
O O2 0.651449 0.228447 0.815226
O O3 0.656233 0.215956 0.639512
O O4 0.616874 0.000000 0.753721
O O5 0.004482 0.270581 0.330795
O O6 0.092484 0.216187 0.373323
O O7 0.000000 0.183567 0.500000
O O8 0.032217 0.000000 0.360233
O O9 0.765726 0.242898 0.122101
O O10 0.659679 0.226780 0.146130
O O11 0.693287 0.250742 0.284963
O O12 0.709593 0.000000 0.182915
O O13 0.553751 0.232762 0.156124
O O14 0.497091 0.000000 0.227537
O O15 0.812912 0.500000 0.116764
O O16 0.863161 0.287180 0.005800
O O17 0.195577 0.500000 0.521606
O O18 0.250000 0.250000 0.500000
O O19 0.160827 0.251722 0.466046
O O20 0.388673 0.000000 0.884267
O O21 0.345296 0.500000 0.620942
#
# Coordination Sequence:
#
# PCOD9224054 Si02
#       8
#     8   8   8   8   8   8   8   8
#     4   9  20  36  57  83 112 147 193 235 279 337
#     4  10  21  36  54  80 111 144 184 229 280 340
#     4  11  21  36  56  85 117 147 188 238 286 342
#     4  10  19  36  58  82 113 148 185 233 283 335
#     4  10  20  37  58  83 114 151 190 234 283 340
#     4  11  22  37  56  83 116 153 196 240 283 336
#     4   9  19  34  57  86 115 145 187 236 286 338
#     4  11  22  36  56  82 111 148 188 230 286 342
#
# _framework density 9.3425759999999993
#
# number of rings (size 3 to 8) (size 9 to 14) (size 15 to 20)
#    0.000    1.875    1.250    3.000    0.000    2.250 
#    0.000    5.625    0.000    0.000    0.000    1.750 
#    0.000    0.000    0.000    0.000    0.000    0.000 
#
# Total GULP energy -178557.688713 kJ/mol
# GULP energy per Si atom -5579.927772 kJ/mol
# Density = 0.932131 g / cm^3
# Si number density = 9.342576 Si / 1000 Ang^3
#
#
#
# Elastic Constant Matrix: (Units=GPa)
#
#
# Indices 1 2 3 4 5 6 
#
# 1 138.3634 23.5304 42.8268 0.0000 -14.9815 0.0000
# 2 23.5304 35.8116 17.4035 0.0000 -1.7189 0.0000
# 3 42.8268 17.4035 94.5128 0.0000 -1.2493 0.0000
# 4 0.0000 0.0000 0.0000 14.0827 0.0000 -2.9022
# 5 -14.9815 -1.7189 -1.2493 0.0000 35.0153 0.0000
# 6 0.0000 0.0000 0.0000 -2.9022 0.0000 29.8336
#
#
#
# Elastic Compliance Matrix: (Units=1/GPa)
#
#
# Indices 1 2 3 4 5 6 
#
# 1 0.009427 -0.004354 -0.003421 0.000000 0.003698 0.000000
# 2 -0.004354 0.032739 -0.004061 0.000000 -0.000401 0.000000
# 3 -0.003421 -0.004061 0.012863 0.000000 -0.001204 0.000000
# 4 0.000000 0.000000 0.000000 0.072462 0.000000 0.007049
# 5 0.003698 -0.000401 -0.001204 0.000000 0.030078 0.000000
# 6 0.000000 0.000000 0.000000 0.007049 0.000000 0.034205
#
#
# Mechanical properties :
#
#
# Convention : Reuss Voigt Hill
#
# Bulk Modulus (GPa) = 31.89112 48.46768 40.17940
# Shear Modulus (GPa) = 22.13388 28.11479 25.12433
#
# Velocity S-wave (km/s) = 3.44549 3.88320 3.67088
# Velocity P-wave (km/s) = 5.73875 6.78978 6.28627
#
# Compressibility (1/GPa) = 0.03135669
#
# Stress axis : x y z
#
# Youngs Moduli (GPa) = 106.07726 30.54454 77.74471
#
# Poissons Ratio (x) = 0.13300 0.26597
# Poissons Ratio (y) = 0.46188 0.31571
# Poissons Ratio (z) = 0.36290 0.12404
#
# Static dielectric constant tensor:
#      x y z
#    x 1.639690 0.000000 -0.009180 
#    y 0.000000 1.632600 0.000000 
#    z -0.009180 0.000000 1.671080 
# 
# From -- ./inp_files/243777.got.cif
#   From: 2010.05.17/outbox.ucp.g08.bks.cvg/sg12_122_cif.got.tgz:243777.got - 2010.06.11 11:47:21.
