data_PCOD9224702
_publ_section_title
;
Structure prediction by ZEFSAII (Michael W. Deem and Ramdas Pophale) SiO2 
 PCOD9224702
Probable space group: C 2/M
;
_chemical_formula_sum "Si O2"
_cell_formula_units_Z 28
_cell_length_a 27.000000
_cell_length_b 9.000000
_cell_length_c 18.000000
_cell_angle_alpha 90.000000
_cell_angle_beta 40.000000
_cell_angle_gamma 90.000000
_cell_volume 2811.553005
_symmetry_space_group_name_H-M "C 2/M"
_symmetry_group_IT_number 12
_symmetry_cell_setting 'monoclinic'
loop_
_space_group_symop_operation_xyz
x,y,z
-x,y,-z
-x,-y,-z
x,-y,z
1/2+x,1/2+y,z
1/2-x,1/2+y,-z
1/2-x,1/2-y,-z
1/2+x,1/2-y,z
loop_
_atom_site_type_symbol
_atom_site_label
_atom_site_fract_x
_atom_site_fract_y
_atom_site_fract_z
Si Si1 0.225772 0.176614 0.724873
Si Si2 0.007704 0.329060 0.793673
Si Si3 0.976590 0.332578 0.656658
Si Si4 0.380910 0.668968 0.573895
Si Si5 0.826394 0.166651 0.808790
Si Si6 0.159914 0.319398 0.950809
Si Si7 0.320680 0.178479 0.372204
O O1 0.317013 0.216043 0.618125
O O2 0.184362 0.234423 0.847542
O O3 0.192921 0.275190 0.696588
O O4 0.215227 0.000000 0.728257
O O5 0.010689 0.500000 0.817602
O O6 0.006085 0.330966 0.706737
O O7 0.092109 0.262950 0.713185
O O8 0.924616 0.273362 0.921034
O O9 0.978784 0.500000 0.623731
O O10 0.888397 0.280680 0.768076
O O11 0.033832 0.228601 0.543002
O O12 0.372753 0.500000 0.553517
O O13 0.356371 0.660108 0.688513
O O14 0.735995 0.207492 0.914817
O O15 0.835633 0.000000 0.829355
O O16 0.159774 0.500000 0.939307
O O17 0.250000 0.250000 0.500000
O O18 0.318747 0.000000 0.386166
#
# Coordination Sequence:
#
# PCOD9224702 Si02
#       7
#     8   8   8   8   8   8   8
#     4  11  22  37  58  86 117 145 180 231 287 337
#     4   9  21  39  58  80 109 147 190 233 274 328
#     4  11  21  33  53  83 116 148 185 233 286 332
#     4  10  20  36  57  81 111 149 192 232 276 334
#     4   9  19  34  54  79 108 145 189 233 278 334
#     4   9  19  40  62  79 106 148 194 231 271 329
#     4  11  22  39  62  87 115 149 188 229 279 334
#
# _framework density 9.9589090000000002
#
# number of rings (size 3 to 8) (size 9 to 14) (size 15 to 20)
#    0.000    2.000    0.000    4.714    0.000    6.857 
#    0.000    7.857    0.000    0.000    0.000    0.000 
#    0.000    0.000    0.000    0.000    0.000    0.000 
#
# Total GULP energy -156022.511082 kJ/mol
# GULP energy per Si atom -5572.232539 kJ/mol
# Density = 0.993624 g / cm^3
# Si number density = 9.958909 Si / 1000 Ang^3
#
#
#
# Elastic Constant Matrix: (Units=GPa)
#
#
# Indices 1 2 3 4 5 6 
#
# 1 62.7691 5.8445 18.7223 0.0015 -23.6300 -0.0011
# 2 5.8445 58.2158 16.1536 0.0000 -10.7314 -0.0018
# 3 18.7223 16.1536 113.6879 -0.0022 -37.8819 0.0003
# 4 0.0015 0.0000 -0.0022 26.5150 0.0001 -4.0244
# 5 -23.6300 -10.7314 -37.8819 0.0001 35.0356 0.0007
# 6 -0.0011 -0.0018 0.0003 -4.0244 0.0007 18.4067
#
#
#
# Elastic Compliance Matrix: (Units=1/GPa)
#
#
# Indices 1 2 3 4 5 6 
#
# 1 0.021657 0.000383 0.002009 -0.000001 0.016897 0.000000
# 2 0.000383 0.018307 -0.001109 0.000000 0.004666 0.000002
# 3 0.002009 -0.001109 0.014008 0.000001 0.016161 -0.000001
# 4 -0.000001 0.000000 0.000001 0.039009 0.000000 0.008529
# 5 0.016897 0.004666 0.016161 0.000000 0.058842 -0.000001
# 6 0.000000 0.000002 -0.000001 0.008529 -0.000001 0.056193
#
#
# Mechanical properties :
#
#
# Convention : Reuss Voigt Hill
#
# Bulk Modulus (GPa) = 17.68742 35.12375 26.40559
# Shear Modulus (GPa) = 22.29194 28.92161 25.60678
#
# Velocity S-wave (km/s) = 3.34907 3.81471 3.58945
# Velocity P-wave (km/s) = 4.88411 6.08895 5.51950
#
# Compressibility (1/GPa) = 0.05653736
#
# Stress axis : x y z
#
# Youngs Moduli (GPa) = 46.17359 54.62390 71.38882
#
# Poissons Ratio (x) = -0.02092 -0.14343
# Poissons Ratio (y) = -0.01768 0.07920
# Poissons Ratio (z) = -0.09277 0.06060
#
# Static dielectric constant tensor:
#      x y z
#    x 1.788570 0.000000 -0.011400 
#    y 0.000000 1.699370 0.000000 
#    z -0.011400 0.000000 1.675040 
# 
# From -- ./inp_files/292423.got.cif
#   From: 2010.05.17/outbox.ucp.g08.bks.cvg/sg12_147_cif.got.tgz:292423.got - 2010.06.11 11:47:21.
