data_PCOD9224141
_publ_section_title
;
Structure prediction by ZEFSAII (Michael W. Deem and Ramdas Pophale) SiO2 
 PCOD9224141
Probable space group: C 2/M
;
_chemical_formula_sum "Si O2"
_cell_formula_units_Z 32
_cell_length_a 9.000000
_cell_length_b 18.000000
_cell_length_c 30.000000
_cell_angle_alpha 90.000000
_cell_angle_beta 140.000000
_cell_angle_gamma 90.000000
_cell_volume 3123.947783
_symmetry_space_group_name_H-M "C 2/M"
_symmetry_group_IT_number 12
_symmetry_cell_setting 'monoclinic'
loop_
_space_group_symop_operation_xyz
x,y,z
-x,y,-z
-x,-y,-z
x,-y,z
1/2+x,1/2+y,z
1/2-x,1/2+y,-z
1/2-x,1/2-y,-z
1/2+x,1/2-y,z
loop_
_atom_site_type_symbol
_atom_site_label
_atom_site_fract_x
_atom_site_fract_y
_atom_site_fract_z
Si Si1 0.247251 0.796845 0.078635
Si Si2 0.350260 0.232168 0.699695
Si Si3 0.312012 0.415520 0.291089
Si Si4 0.509812 0.789295 0.450435
Si Si5 0.107212 0.415153 0.145413
Si Si6 0.381249 0.375900 0.763837
Si Si7 0.680400 0.077912 0.631317
Si Si8 0.833942 0.811944 0.836375
O O1 0.389973 0.862361 0.087304
O O2 0.209577 0.818193 0.121567
O O3 0.421665 0.727601 0.115877
O O4 0.000000 0.782509 0.000000
O O5 0.274043 0.151111 0.698344
O O6 0.213312 0.247945 0.622482
O O7 0.298591 0.296789 0.723774
O O8 0.627070 0.235764 0.767087
O O9 0.296741 0.500000 0.305238
O O10 0.166364 0.413284 0.211758
O O11 0.578536 0.401533 0.337970
O O12 0.500000 0.806840 0.500000
O O13 0.512702 0.863287 0.422248
O O14 0.750000 0.750000 0.500000
O O15 0.063581 0.500000 0.122398
O O16 0.344294 0.387176 0.177836
O O17 0.252280 0.426762 0.699110
O O18 0.324739 0.383632 0.802653
O O19 0.604447 0.000000 0.595629
#
# Coordination Sequence:
#
# PCOD9224141 Si02
#       8
#     8   8   8   8   8   8   8   8
#     4  12  24  39  59  92 129 162 204 255 315 375
#     4  11  21  35  65  84 125 154 205 258 297 365
#     4   9  17  34  61  93 116 151 204 259 306 358
#     4  11  25  38  59  91 124 161 204 247 308 361
#     4  10  19  38  60  85 122 160 203 257 313 371
#     4  10  20  34  62  93 116 151 208 262 306 352
#     4   9  20  38  64  90 122 160 205 256 308 363
#     4  12  22  38  64  91 119 160 210 256 310 360
#
# _framework density 10.243449
#
# number of rings (size 3 to 8) (size 9 to 14) (size 15 to 20)
#    0.000    1.500    3.750    2.250    7.000    0.500 
#    0.000    3.125    0.000    1.500    0.000    0.000 
#    0.000    0.000    0.000    0.000    0.000    0.000 
#
# Total GULP energy -178194.140913 kJ/mol
# GULP energy per Si atom -5568.566904 kJ/mol
# Density = 1.022013 g / cm^3
# Si number density = 10.243449 Si / 1000 Ang^3
#
#
#
# Elastic Constant Matrix: (Units=GPa)
#
#
# Indices 1 2 3 4 5 6 
#
# 1 39.6896 15.2404 26.3872 0.0001 -18.0285 0.0000
# 2 15.2404 96.9138 23.0387 0.0000 16.2315 0.0000
# 3 26.3872 23.0387 110.6004 0.0002 18.8200 -0.0001
# 4 0.0001 0.0000 0.0002 2.0526 0.0001 11.2732
# 5 -18.0285 16.2315 18.8200 0.0001 21.4104 0.0000
# 6 0.0000 0.0000 -0.0001 11.2732 0.0000 16.1912
#
#
#
# Elastic Compliance Matrix: (Units=1/GPa)
#
#
# Indices 1 2 3 4 5 6 
#
# 1 -0.527275 0.157128 0.222109 -0.000010 -0.758346 0.000007
# 2 0.157128 -0.034890 -0.067302 0.000003 0.217918 -0.000002
# 3 0.222109 -0.067302 -0.082826 0.000005 0.310853 -0.000003
# 4 -0.000010 0.000003 0.000005 -0.172520 -0.000014 0.120118
# 5 -0.758346 0.217918 0.310853 -0.000014 -1.030305 0.000009
# 6 0.000007 -0.000002 -0.000003 0.120118 0.000009 -0.021871
#
#
# Mechanical properties :
#
#
# Convention : Reuss Voigt Hill
#
# Bulk Modulus (GPa) = -47.35153 41.83737 -2.75708
# Shear Modulus (GPa) = -1.99952 20.10000 9.05024
#
# Velocity S-wave (km/s) = -0.98900 3.13567 2.10408
# Velocity P-wave (km/s) = 4.94645 5.79446 2.13405
#
# Compressibility (1/GPa) = -0.02111864
#
# Stress axis : x y z
#
# Youngs Moduli (GPa) = -1.89655 -28.66177 -12.07355
#
# Poissons Ratio (x) = 4.50357 2.68165
# Poissons Ratio (y) = 0.29800 -0.81257
# Poissons Ratio (z) = 0.42124 -1.92898
#
# Static dielectric constant tensor:
#      x y z
#    x 1.782710 0.000000 0.020620 
#    y 0.000000 1.814880 0.000000 
#    z 0.020620 0.000000 1.681860 
# 
# From -- ./inp_files/372982.got.cif
#   From: 2010.05.17/outbox.ucp.g08.bks.cvg/sg12_187_cif.got.tgz:372982.got - 2010.06.11 11:47:21.
