data_PCOD9224866
_publ_section_title
;
Structure prediction by ZEFSAII (Michael W. Deem and Ramdas Pophale) SiO2 
 PCOD9224866
Probable space group: C 2/M
;
_chemical_formula_sum "Si O2"
_cell_formula_units_Z 28
_cell_length_a 21.000000
_cell_length_b 9.000000
_cell_length_c 21.000000
_cell_angle_alpha 90.000000
_cell_angle_beta 50.000000
_cell_angle_gamma 90.000000
_cell_volume 3040.430395
_symmetry_space_group_name_H-M "C 2/M"
_symmetry_group_IT_number 12
_symmetry_cell_setting 'monoclinic'
loop_
_space_group_symop_operation_xyz
x,y,z
-x,y,-z
-x,-y,-z
x,-y,z
1/2+x,1/2+y,z
1/2-x,1/2+y,-z
1/2-x,1/2-y,-z
1/2+x,1/2-y,z
loop_
_atom_site_type_symbol
_atom_site_label
_atom_site_fract_x
_atom_site_fract_y
_atom_site_fract_z
Si Si1 0.909472 0.179223 0.749061
Si Si2 0.520238 0.319084 0.558233
Si Si3 0.188459 0.322071 0.725966
Si Si4 0.762064 0.178780 0.171810
Si Si5 0.510260 0.320561 0.811791
Si Si6 0.429993 0.680143 0.995134
Si Si7 0.294122 0.321925 0.531876
O O1 0.821393 0.259085 0.805576
O O2 0.954311 0.222450 0.654314
O O3 0.966941 0.216834 0.772723
O O4 0.898510 0.000000 0.756386
O O5 0.500000 0.267070 0.500000
O O6 0.521169 0.500000 0.555516
O O7 0.611154 0.270483 0.521889
O O8 0.185089 0.500000 0.736962
O O9 0.223120 0.246925 0.767672
O O10 0.098156 0.257448 0.766888
O O11 0.247083 0.289792 0.627961
O O12 0.840568 0.225145 0.078274
O O13 0.760177 0.000000 0.177562
O O14 0.522412 0.500000 0.805392
O O15 0.452592 0.277535 0.908838
O O16 0.432011 0.500000 0.995425
O O17 0.500000 0.732845 0.000000
O O18 0.294168 0.500000 0.523324
O O19 0.250000 0.250000 0.500000
#
# Coordination Sequence:
#
# PCOD9224866 Si02
#       7
#     8   8   8   8   8   8   8
#     4  10  21  36  56  83 112 144 186 233 279 333
#     4   9  17  33  55  75 103 145 184 217 264 326
#     4  11  22  36  57  86 116 144 185 240 286 325
#     4  11  22  37  59  82 110 149 189 229 279 340
#     4  10  20  37  60  82 111 152 191 228 279 342
#     4   9  17  34  58  82 108 143 189 231 274 334
#     4  10  21  36  56  82 111 145 184 229 277 330
#
# _framework density 9.2092220000000005
#
# number of rings (size 3 to 8) (size 9 to 14) (size 15 to 20)
#    0.000    2.000    1.429    2.571    0.000    5.714 
#    0.000    2.857    0.000    1.714    0.000    0.000 
#    0.000    0.000    0.000    0.000    0.000    0.000 
#
# Total GULP energy -156325.764060 kJ/mol
# GULP energy per Si atom -5583.063002 kJ/mol
# Density = 0.918826 g / cm^3
# Si number density = 9.209222 Si / 1000 Ang^3
#
#
#
# Elastic Constant Matrix: (Units=GPa)
#
#
# Indices 1 2 3 4 5 6 
#
# 1 63.2892 4.6318 -1.6221 -0.0002 -4.0233 0.0009
# 2 4.6318 16.6864 10.4884 0.0007 -2.1344 -0.0028
# 3 -1.6221 10.4884 65.8468 -0.0003 -7.4015 0.0010
# 4 -0.0002 0.0007 -0.0003 22.3961 -0.0001 -17.1898
# 5 -4.0233 -2.1344 -7.4015 -0.0001 31.9602 0.0005
# 6 0.0009 -0.0028 0.0010 -17.1898 0.0005 94.3605
#
#
#
# Elastic Compliance Matrix: (Units=1/GPa)
#
#
# Indices 1 2 3 4 5 6 
#
# 1 0.016348 -0.005194 0.001460 0.000000 0.002049 0.000000
# 2 -0.005194 0.068377 -0.010862 -0.000001 0.001397 0.000002
# 3 0.001460 -0.010862 0.017344 0.000000 0.003475 -0.000001
# 4 0.000000 -0.000001 0.000000 0.051909 0.000000 0.009456
# 5 0.002049 0.001397 0.003475 0.000000 0.032445 0.000000
# 6 0.000000 0.000002 -0.000001 0.009456 0.000000 0.012320
#
#
# Mechanical properties :
#
#
# Convention : Reuss Voigt Hill
#
# Bulk Modulus (GPa) = 13.72165 19.20207 16.46186
# Shear Modulus (GPa) = 19.82342 38.56498 29.19420
#
# Velocity S-wave (km/s) = 3.28423 4.58080 3.98559
# Velocity P-wave (km/s) = 4.67415 6.19890 5.48972
#
# Compressibility (1/GPa) = 0.07287752
#
# Stress axis : x y z
#
# Youngs Moduli (GPa) = 61.16843 14.62476 57.65838
#
# Poissons Ratio (x) = 0.07596 -0.08420
# Poissons Ratio (y) = 0.31770 0.62630
# Poissons Ratio (z) = -0.08933 0.15886
#
# Static dielectric constant tensor:
#      x y z
#    x 1.597770 0.000000 -0.011040 
#    y 0.000000 1.618050 0.000000 
#    z -0.011040 0.000000 1.639480 
# 
# From -- ./inp_files/319641.got.cif
#   From: 2010.05.17/outbox.ucp.g08.bks.cvg/sg12_160_cif.got.tgz:319641.got - 2010.06.11 11:47:21.
