data_PCOD9224712
_publ_section_title
;
Structure prediction by ZEFSAII (Michael W. Deem and Ramdas Pophale) SiO2 
 PCOD9224712
Probable space group: C 2/M
;
_chemical_formula_sum "Si O2"
_cell_formula_units_Z 32
_cell_length_a 18.000000
_cell_length_b 9.000000
_cell_length_c 30.000000
_cell_angle_alpha 90.000000
_cell_angle_beta 40.000000
_cell_angle_gamma 90.000000
_cell_volume 3123.947783
_symmetry_space_group_name_H-M "C 2/M"
_symmetry_group_IT_number 12
_symmetry_cell_setting 'monoclinic'
loop_
_space_group_symop_operation_xyz
x,y,z
-x,y,-z
-x,-y,-z
x,-y,z
1/2+x,1/2+y,z
1/2-x,1/2+y,-z
1/2-x,1/2-y,-z
1/2+x,1/2-y,z
loop_
_atom_site_type_symbol
_atom_site_label
_atom_site_fract_x
_atom_site_fract_y
_atom_site_fract_z
Si Si1 0.168029 0.327765 0.617658
Si Si2 0.953782 0.171709 0.069172
Si Si3 0.504628 0.671507 0.766438
Si Si4 0.941330 0.674593 0.167243
Si Si5 0.869114 0.325508 0.558097
Si Si6 0.798322 0.167330 0.676406
Si Si7 0.178015 0.660952 0.194278
Si Si8 0.465901 0.162772 0.648210
O O1 0.182396 0.500000 0.621578
O O2 0.088140 0.257110 0.693429
O O3 0.290317 0.249816 0.557484
O O4 0.092972 0.317633 0.607873
O O5 0.980967 0.261545 0.101625
O O6 0.814718 0.170345 0.132195
O O7 0.993721 0.000000 0.055452
O O8 0.000000 0.227245 0.000000
O O9 0.535921 0.500000 0.752568
O O10 0.507528 0.739284 0.814194
O O11 0.377706 0.702747 0.805754
O O12 0.965898 0.500000 0.158245
O O13 0.803599 0.693156 0.241136
O O14 0.871364 0.500000 0.550931
O O15 0.802166 0.281712 0.634160
O O16 0.000000 0.269438 0.500000
O O17 0.921159 0.198435 0.641838
O O18 0.786178 0.000000 0.665876
O O19 0.145461 0.500000 0.188197
O O20 0.118793 0.656990 0.269932
O O21 0.455232 0.000000 0.630251
#
# Coordination Sequence:
#
# PCOD9224712 Si02
#       8
#     8   8   8   8   8   8   8   8
#     4  10  20  36  57  84 115 149 186 228 285 337
#     4  10  21  38  60  85 115 153 193 233 285 344
#     4  11  21  33  56  85 113 146 188 237 282 332
#     4  11  22  36  56  85 117 148 190 238 283 334
#     4  11  24  40  59  84 115 152 191 232 282 339
#     4  11  22  35  57  86 114 147 190 236 279 333
#     4   9  18  34  55  81 115 149 183 231 286 335
#     4   9  18  33  56  83 113 146 183 232 283 331
#
# _framework density 10.243449
#
# number of rings (size 3 to 8) (size 9 to 14) (size 15 to 20)
#    0.000    1.750    2.500    3.375    0.000    5.250 
#    0.000    1.250    0.000    0.000    0.000    0.000 
#    0.000    0.000    0.000    0.000    0.000    0.000 
#
# Total GULP energy -178358.876610 kJ/mol
# GULP energy per Si atom -5573.714894 kJ/mol
# Density = 1.022013 g / cm^3
# Si number density = 10.243449 Si / 1000 Ang^3
#
#
#
# Elastic Constant Matrix: (Units=GPa)
#
#
# Indices 1 2 3 4 5 6 
#
# 1 50.5704 27.6074 -7.4368 0.0003 -4.1786 0.0022
# 2 27.6074 60.4826 7.1225 0.0011 6.6275 0.0049
# 3 -7.4368 7.1225 20.3448 -0.0001 1.0300 0.0000
# 4 0.0003 0.0011 -0.0001 21.2054 -0.0001 4.1701
# 5 -4.1786 6.6275 1.0300 -0.0001 22.2571 0.0001
# 6 0.0022 0.0049 0.0000 4.1701 0.0001 42.9544
#
#
#
# Elastic Compliance Matrix: (Units=1/GPa)
#
#
# Indices 1 2 3 4 5 6 
#
# 1 0.033565 -0.018677 0.018250 0.000001 0.011019 0.000000
# 2 -0.018677 0.028180 -0.016128 -0.000001 -0.011151 -0.000002
# 3 0.018250 -0.016128 0.061197 0.000001 0.005397 0.000001
# 4 0.000001 -0.000001 0.000001 0.048076 0.000001 -0.004667
# 5 0.011019 -0.011151 0.005397 0.000001 0.050069 0.000001
# 6 0.000000 -0.000002 0.000001 -0.004667 0.000001 0.023734
#
#
# Mechanical properties :
#
#
# Convention : Reuss Voigt Hill
#
# Bulk Modulus (GPa) = 11.13198 20.66490 15.89844
# Shear Modulus (GPa) = 16.24033 24.22369 20.23201
#
# Velocity S-wave (km/s) = 2.81858 3.44233 3.14595
# Velocity P-wave (km/s) = 4.00475 5.09002 4.57965
#
# Compressibility (1/GPa) = 0.08983131
#
# Stress axis : x y z
#
# Youngs Moduli (GPa) = 29.79282 35.48579 16.34065
#
# Poissons Ratio (x) = 0.66278 -0.29822
# Poissons Ratio (y) = 0.55645 0.26355
# Poissons Ratio (z) = -0.54373 0.57233
#
# Static dielectric constant tensor:
#      x y z
#    x 1.851270 0.000000 -0.005330 
#    y 0.000000 1.724790 0.000000 
#    z -0.005330 0.000000 1.695440 
# 
# From -- ./inp_files/378195.got.cif
#   From: 2010.05.17/outbox.ucp.g08.bks.cvg/sg12_190_cif.got.tgz:378195.got - 2010.06.11 11:47:21.
