data_PCOD9224311
_publ_section_title
;
Structure prediction by ZEFSAII (Michael W. Deem and Ramdas Pophale) SiO2 
 PCOD9224311
Probable space group: C 2/M
;
_chemical_formula_sum "Si O2"
_cell_formula_units_Z 28
_cell_length_a 18.000000
_cell_length_b 9.000000
_cell_length_c 21.000000
_cell_angle_alpha 90.000000
_cell_angle_beta 120.000000
_cell_angle_gamma 90.000000
_cell_volume 2946.218424
_symmetry_space_group_name_H-M "C 2/M"
_symmetry_group_IT_number 12
_symmetry_cell_setting 'monoclinic'
loop_
_space_group_symop_operation_xyz
x,y,z
-x,y,-z
-x,-y,-z
x,-y,z
1/2+x,1/2+y,z
1/2-x,1/2+y,-z
1/2-x,1/2-y,-z
1/2+x,1/2-y,z
loop_
_atom_site_type_symbol
_atom_site_label
_atom_site_fract_x
_atom_site_fract_y
_atom_site_fract_z
Si Si1 0.484251 0.671276 0.069282
Si Si2 0.747142 0.675753 0.690889
Si Si3 0.261353 0.824017 0.174612
Si Si4 0.933570 0.827165 0.265861
Si Si5 0.091429 0.169625 0.237782
Si Si6 0.314523 0.174249 0.979063
Si Si7 0.440787 0.679616 0.416478
O O1 0.458317 0.500000 0.073520
O O2 0.559056 0.706480 0.152048
O O3 0.500000 0.673748 0.000000
O O4 0.408060 0.786529 0.045093
O O5 0.744805 0.500000 0.699117
O O6 0.750609 0.758040 0.760270
O O7 0.836676 0.726283 0.700981
O O8 0.659646 0.719159 0.617831
O O9 0.359514 0.775388 0.204940
O O10 0.201516 0.748429 0.096454
O O11 0.249291 0.000000 0.167590
O O12 0.011220 0.825555 0.250463
O O13 0.957823 0.780729 0.349071
O O14 0.902476 0.000000 0.256749
O O15 0.123811 0.000000 0.249356
O O16 0.199952 0.500000 0.031495
O O17 0.250000 0.250000 0.000000
O O18 0.500000 0.736407 0.500000
O O19 0.447917 0.500000 0.421090
#
# Coordination Sequence:
#
# PCOD9224311 Si02
#       7
#     8   8   8   8   8   8   8
#     4  10  21  36  53  74 103 141 181 223 275 325
#     4  10  20  34  55  80 105 137 177 217 258 313
#     4  11  21  35  55  77 104 138 178 223 270 320
#     4   9  18  33  54  79 106 140 179 219 267 319
#     4  10  20  34  52  75 107 141 174 219 270 320
#     4  12  24  37  54  77 106 139 180 228 274 319
#     4   8  15  31  55  80 105 137 177 216 258 314
#
# _framework density 9.5037079999999996
#
# number of rings (size 3 to 8) (size 9 to 14) (size 15 to 20)
#    0.000    2.000    0.000    5.571    0.000    3.714 
#    0.000    0.714    0.000   10.714    0.000    0.000 
#    0.000    0.000    0.000    0.000    0.000    0.000 
#
# Total GULP energy -156097.488951 kJ/mol
# GULP energy per Si atom -5574.910320 kJ/mol
# Density = 0.948208 g / cm^3
# Si number density = 9.503708 Si / 1000 Ang^3
#
#
#
# Elastic Constant Matrix: (Units=GPa)
#
#
# Indices 1 2 3 4 5 6 
#
# 1 57.3651 28.7256 20.7778 0.0000 13.1654 0.0000
# 2 28.7256 86.0644 31.0969 0.0000 19.2628 0.0000
# 3 20.7778 31.0969 116.5360 0.0000 23.5979 0.0000
# 4 0.0000 0.0000 0.0000 18.7708 0.0000 4.4558
# 5 13.1654 19.2628 23.5979 0.0000 23.5639 0.0000
# 6 0.0000 0.0000 0.0000 4.4558 0.0000 23.7279
#
#
#
# Elastic Compliance Matrix: (Units=1/GPa)
#
#
# Indices 1 2 3 4 5 6 
#
# 1 0.022129 -0.005466 -0.001114 0.000000 -0.006780 0.000000
# 2 -0.005466 0.015881 -0.001571 0.000000 -0.008355 0.000000
# 3 -0.001114 -0.001571 0.011055 0.000000 -0.009163 0.000000
# 4 0.000000 0.000000 0.000000 0.055760 0.000000 -0.010471
# 5 -0.006780 -0.008355 -0.009163 0.000000 0.062232 0.000000
# 6 0.000000 0.000000 0.000000 -0.010471 0.000000 0.044111
#
#
# Mechanical properties :
#
#
# Convention : Reuss Voigt Hill
#
# Bulk Modulus (GPa) = 30.52339 46.79624 38.65982
# Shear Modulus (GPa) = 20.97395 25.17020 23.07207
#
# Velocity S-wave (km/s) = 3.32544 3.64295 3.48781
# Velocity P-wave (km/s) = 5.55322 6.50908 6.05006
#
# Compressibility (1/GPa) = 0.03276176
#
# Stress axis : x y z
#
# Youngs Moduli (GPa) = 45.19006 62.96699 90.46046
#
# Poissons Ratio (x) = 0.34417 0.10078
# Poissons Ratio (y) = 0.24701 0.14216
# Poissons Ratio (z) = 0.05034 0.09895
#
# Static dielectric constant tensor:
#      x y z
#    x 1.810220 0.000000 0.001510 
#    y 0.000000 1.664600 0.000000 
#    z 0.001510 0.000000 1.633290 
# 
# From -- ./inp_files/314419.got.cif
#   From: 2010.05.17/outbox.ucp.g08.bks.cvg/sg12_158_cif.got.tgz:314419.got - 2010.06.11 11:47:21.
