data_PCOD9224256
_publ_section_title
;
Structure prediction by ZEFSAII (Michael W. Deem and Ramdas Pophale) SiO2 
 PCOD9224256
Probable space group: C 2/M
;
_chemical_formula_sum "Si O2"
_cell_formula_units_Z 28
_cell_length_a 21.000000
_cell_length_b 18.000000
_cell_length_c 24.000000
_cell_angle_alpha 90.000000
_cell_angle_beta 20.000000
_cell_angle_gamma 90.000000
_cell_volume 3102.806740
_symmetry_space_group_name_H-M "C 2/M"
_symmetry_group_IT_number 12
_symmetry_cell_setting 'monoclinic'
loop_
_space_group_symop_operation_xyz
x,y,z
-x,y,-z
-x,-y,-z
x,-y,z
1/2+x,1/2+y,z
1/2-x,1/2+y,-z
1/2-x,1/2-y,-z
1/2+x,1/2-y,z
loop_
_atom_site_type_symbol
_atom_site_label
_atom_site_fract_x
_atom_site_fract_y
_atom_site_fract_z
Si Si1 0.991344 0.809598 0.111466
Si Si2 0.827149 0.584554 0.797737
Si Si3 0.876312 0.684861 0.656051
Si Si4 0.758009 0.303543 0.046968
Si Si5 0.704549 0.127439 0.531878
Si Si6 0.058406 0.776312 0.599246
Si Si7 0.487931 0.583242 0.803849
O O1 0.941339 0.859186 0.206977
O O2 0.832538 0.807230 0.195640
O O3 0.170381 0.855880 0.942880
O O4 0.055540 0.726647 0.076556
O O5 0.761206 0.500000 0.849472
O O6 0.892084 0.613915 0.683896
O O7 0.001768 0.590817 0.696500
O O8 0.000000 0.675546 0.500000
O O9 0.953039 0.754680 0.629211
O O10 0.594870 0.288363 0.226123
O O11 0.701557 0.383045 0.067450
O O12 0.750000 0.250000 0.000000
O O13 0.797223 0.155387 0.513341
O O14 0.671473 0.202979 0.523742
O O15 0.856408 0.082399 0.372268
O O16 0.460891 0.500000 0.848038
#
# Coordination Sequence:
#
# PCOD9224256 Si02
#       7
#     8   8   8   8   8   8   8
#     4  11  20  35  53  75 113 147 181 221 266 322
#     4  11  22  34  51  78 111 146 180 221 270 317
#     4  11  23  36  51  75 108 149 189 219 259 315
#     4   9  18  32  54  80 101 139 180 226 275 314
#     4   9  17  32  54  72 103 136 176 226 271 305
#     4   9  17  33  52  75 102 134 180 234 254 308
#     4  10  20  33  52  81 111 140 178 223 274 328
#
# _framework density 9.0240880000000008
#
# number of rings (size 3 to 8) (size 9 to 14) (size 15 to 20)
#    0.000    2.000    2.857    3.000    0.000    3.143 
#    0.000    0.000    0.000    0.000    0.000    9.000 
#    0.000   14.857    0.000    0.000    0.000    0.000 
#
# Total GULP energy -155914.898020 kJ/mol
# GULP energy per Si atom -5568.389215 kJ/mol
# Density = 0.900355 g / cm^3
# Si number density = 9.024088 Si / 1000 Ang^3
#
#
#
# Elastic Constant Matrix: (Units=GPa)
#
#
# Indices 1 2 3 4 5 6 
#
# 1 82.3865 35.1825 21.4933 -0.0150 -22.5428 0.0059
# 2 35.1825 41.5489 12.3643 0.0206 -16.3309 -0.0014
# 3 21.4933 12.3643 49.7629 0.0029 -8.1986 0.0107
# 4 -0.0150 0.0206 0.0029 6.2282 -0.0060 1.3257
# 5 -22.5428 -16.3309 -8.1986 -0.0060 42.0043 -0.0003
# 6 0.0059 -0.0014 0.0107 1.3257 -0.0003 15.2355
#
#
#
# Elastic Compliance Matrix: (Units=1/GPa)
#
#
# Indices 1 2 3 4 5 6 
#
# 1 0.020753 -0.014369 -0.004628 0.000107 0.004648 -0.000015
# 2 -0.014369 0.039844 -0.002492 -0.000163 0.007293 0.000025
# 3 -0.004628 -0.002492 0.022880 -0.000010 0.001013 -0.000014
# 4 0.000107 -0.000163 -0.000010 0.163590 0.000016 -0.014235
# 5 0.004648 0.007293 0.001013 0.000016 0.029335 -0.000003
# 6 -0.000015 0.000025 -0.000014 -0.014235 -0.000003 0.066875
#
#
# Mechanical properties :
#
#
# Convention : Reuss Voigt Hill
#
# Bulk Modulus (GPa) = 24.69175 34.64205 29.66690
# Shear Modulus (GPa) = 12.50767 19.67081 16.08924
#
# Velocity S-wave (km/s) = 2.63538 3.30495 2.98897
# Velocity P-wave (km/s) = 4.79281 5.81373 5.32778
#
# Compressibility (1/GPa) = 0.04049935
#
# Stress axis : x y z
#
# Youngs Moduli (GPa) = 48.18507 25.09809 43.70603
#
# Poissons Ratio (x) = 0.36064 0.20225
# Poissons Ratio (y) = 0.69239 0.10891
# Poissons Ratio (z) = 0.22298 0.06254
#
# Static dielectric constant tensor:
#      x y z
#    x 1.645320 0.000000 0.010820 
#    y 0.000000 1.629900 0.000010 
#    z 0.010820 0.000010 1.715110 
# 
# From -- ./inp_files/347786.got.cif
#   From: 2010.05.17/outbox.ucp.g08.bks.cvg/sg12_174_cif.got.tgz:347786.got - 2010.06.11 11:47:21.
