data_PCOD9224640
_publ_section_title
;
Structure prediction by ZEFSAII (Michael W. Deem and Ramdas Pophale) SiO2 
 PCOD9224640
Probable space group: C 2/M
;
_chemical_formula_sum "Si O2"
_cell_formula_units_Z 24
_cell_length_a 27.000000
_cell_length_b 9.000000
_cell_length_c 15.000000
_cell_angle_alpha 90.000000
_cell_angle_beta 140.000000
_cell_angle_gamma 90.000000
_cell_volume 2342.960837
_symmetry_space_group_name_H-M "C 2/M"
_symmetry_group_IT_number 12
_symmetry_cell_setting 'monoclinic'
loop_
_space_group_symop_operation_xyz
x,y,z
-x,y,-z
-x,-y,-z
x,-y,z
1/2+x,1/2+y,z
1/2-x,1/2+y,-z
1/2-x,1/2-y,-z
1/2+x,1/2-y,z
loop_
_atom_site_type_symbol
_atom_site_label
_atom_site_fract_x
_atom_site_fract_y
_atom_site_fract_z
Si Si1 0.584121 0.825307 0.290394
Si Si2 0.656400 0.177249 0.575269
Si Si3 0.687053 0.825667 0.272624
Si Si4 0.349489 0.829618 0.063472
Si Si5 0.067740 0.826283 0.979361
Si Si6 0.334463 0.671945 0.225020
O O1 0.598818 0.789218 0.414014
O O2 0.662186 0.807717 0.340929
O O3 0.519289 0.725904 0.155461
O O4 0.562644 0.000000 0.253779
O O5 0.740283 0.230077 0.657255
O O6 0.641153 0.262458 0.646245
O O7 0.656600 0.000000 0.590202
O O8 0.702346 0.000000 0.276083
O O9 0.613833 0.771858 0.114337
O O10 0.391318 0.714451 0.057077
O O11 0.360828 0.775596 0.180039
O O12 0.376284 0.000000 0.088029
O O13 0.259021 0.826093 0.912567
O O14 0.073044 0.000000 0.008225
O O15 0.358456 0.500000 0.247912
#
# Coordination Sequence:
#
# PCOD9224640 Si02
#       6
#     8   8   8   8   8   8
#     4  10  24  42  59  83 120 161 198 240 295 350
#     4  11  22  38  61  89 120 155 196 243 292 348
#     4  11  22  39  62  86 116 157 201 245 291 345
#     4  10  20  36  60  87 118 153 191 240 292 345
#     4  12  24  38  60  89 120 154 197 246 293 347
#     4  10  20  35  59  89 119 152 191 239 291 345
#
# _framework density 10.243449
#
# number of rings (size 3 to 8) (size 9 to 14) (size 15 to 20)
#    0.000    1.333    1.667    4.500    0.000    6.000 
#    0.000    0.833    0.000    5.000    0.000    0.000 
#    0.000    0.000    0.000    0.000    0.000    0.000 
#
# Total GULP energy -134185.005683 kJ/mol
# GULP energy per Si atom -5591.041903 kJ/mol
# Density = 1.022013 g / cm^3
# Si number density = 10.243449 Si / 1000 Ang^3
#
#
#
# Elastic Constant Matrix: (Units=GPa)
#
#
# Indices 1 2 3 4 5 6 
#
# 1 38.7726 -21.1931 -18.4117 0.0000 -10.4962 0.0000
# 2 -21.1931 24.7216 -39.1963 0.0000 28.0228 0.0000
# 3 -18.4117 -39.1963 -23.9345 0.0000 37.2794 0.0000
# 4 0.0000 0.0000 0.0000 22.7894 0.0000 -0.2569
# 5 -10.4962 28.0228 37.2794 0.0000 -6.6886 0.0000
# 6 0.0000 0.0000 0.0000 -0.2569 0.0000 31.4526
#
#
#
# Elastic Compliance Matrix: (Units=1/GPa)
#
#
# Indices 1 2 3 4 5 6 
#
# 1 0.052145 0.012500 0.013861 0.000000 0.047796 0.000000
# 2 0.012500 0.017772 -0.006080 0.000000 0.020956 0.000000
# 3 0.013861 -0.006080 0.015107 0.000000 0.036977 0.000000
# 4 0.000000 0.000000 0.000000 0.043884 0.000000 0.000358
# 5 0.047796 0.020956 0.036977 0.000000 0.069380 0.000000
# 6 0.000000 0.000000 0.000000 0.000358 0.000000 0.031797
#
#
# Mechanical properties :
#
#
# Convention : Reuss Voigt Hill
#
# Bulk Modulus (GPa) = 7.96265 -13.11583 -2.57659
# Shear Modulus (GPa) = 21.60904 17.40137 19.50521
#
# Velocity S-wave (km/s) = 3.25125 2.91759 3.08893
# Velocity P-wave (km/s) = 4.24138 2.22122 3.38550
#
# Compressibility (1/GPa) = 0.12558640
#
# Stress axis : x y z
#
# Youngs Moduli (GPa) = 19.17736 56.26745 66.19424
#
# Poissons Ratio (x) = -0.70336 -0.91749
# Poissons Ratio (y) = -0.23972 0.40245
# Poissons Ratio (z) = -0.26581 0.34210
#
# Static dielectric constant tensor:
#      x y z
#    x 1.773520 0.000000 0.001550 
#    y 0.000000 1.673210 0.000000 
#    z 0.001550 0.000000 1.710810 
# 
# From -- ./inp_files/244657.got.cif
#   From: 2010.05.17/outbox.ucp.g08.bks.cvg/sg12_123_cif.got.tgz:244657.got - 2010.06.11 11:47:21.
