data_PCOD9224372
_publ_section_title
;
Structure prediction by ZEFSAII (Michael W. Deem and Ramdas Pophale) SiO2 
 PCOD9224372
Probable space group: C 2/M
;
_chemical_formula_sum "Si O2"
_cell_formula_units_Z 20
_cell_length_a 30.000000
_cell_length_b 9.000000
_cell_length_c 24.000000
_cell_angle_alpha 90.000000
_cell_angle_beta 160.000000
_cell_angle_gamma 90.000000
_cell_volume 2216.290529
_symmetry_space_group_name_H-M "C 2/M"
_symmetry_group_IT_number 12
_symmetry_cell_setting 'monoclinic'
loop_
_space_group_symop_operation_xyz
x,y,z
-x,y,-z
-x,-y,-z
x,-y,z
1/2+x,1/2+y,z
1/2-x,1/2+y,-z
1/2-x,1/2-y,-z
1/2+x,1/2-y,z
loop_
_atom_site_type_symbol
_atom_site_label
_atom_site_fract_x
_atom_site_fract_y
_atom_site_fract_z
Si Si1 0.080301 0.825231 0.650165
Si Si2 0.642762 0.680293 0.019686
Si Si3 0.644184 0.326729 0.522557
Si Si4 0.388982 0.680453 0.644833
Si Si5 0.352084 0.669534 0.846064
O O1 0.212715 0.742005 0.824002
O O2 0.000000 0.772697 0.500000
O O3 0.979315 0.813881 0.582048
O O4 0.111383 0.000000 0.676520
O O5 0.643333 0.500000 0.018768
O O6 0.637175 0.730252 0.078216
O O7 0.516876 0.725040 0.833072
O O8 0.680309 0.500000 0.560290
O O9 0.604966 0.277772 0.413928
O O10 0.761496 0.248120 0.693879
O O11 0.382232 0.500000 0.641187
O O12 0.250000 0.750000 0.500000
O O13 0.302867 0.500000 0.792739
O O14 0.500000 0.667365 0.000000
#
# Coordination Sequence:
#
# PCOD9224372 Si02
#       5
#     8   8   8   8   8
#     4  10  20  36  57  82 114 147 184 229 276 328
#     4  10  21  36  56  82 112 146 185 230 278 327
#     4  10  21  37  57  81 110 146 185 228 274 325
#     4  10  22  40  59  82 114 148 185 229 277 330
#     4  10  20  34  54  80 109 143 185 230 275 326
#
# _framework density 9.0240880000000008
#
# number of rings (size 3 to 8) (size 9 to 14) (size 15 to 20)
#    0.000    2.000    2.000    1.200    0.000    5.600 
#    0.000    0.000    0.000    0.000    0.000    0.000 
#    0.000    0.000    0.000    0.000    0.000    0.000 
#
# Total GULP energy -111343.757334 kJ/mol
# GULP energy per Si atom -5567.187867 kJ/mol
# Density = 0.900355 g / cm^3
# Si number density = 9.024088 Si / 1000 Ang^3
#
#
#
# Elastic Constant Matrix: (Units=GPa)
#
#
# Indices 1 2 3 4 5 6 
#
# 1 92.2149 19.1039 46.9733 0.0000 -31.2052 0.0000
# 2 19.1039 17.8510 39.1096 0.0000 -7.0891 0.0000
# 3 46.9733 39.1096 184.6198 0.0000 -34.3407 0.0000
# 4 0.0000 0.0000 0.0000 41.5098 0.0000 -2.0389
# 5 -31.2052 -7.0891 -34.3407 0.0000 36.0486 0.0000
# 6 0.0000 0.0000 0.0000 -2.0389 0.0000 19.8542
#
#
#
# Elastic Compliance Matrix: (Units=1/GPa)
#
#
# Indices 1 2 3 4 5 6 
#
# 1 0.018445 -0.017922 0.001723 0.000000 0.014084 0.000000
# 2 -0.017922 0.121962 -0.023944 0.000000 -0.014339 0.000000
# 3 0.001723 -0.023944 0.011487 0.000000 0.007726 0.000000
# 4 0.000000 0.000000 0.000000 0.024213 0.000000 0.002487
# 5 0.014084 -0.014339 0.007726 0.000000 0.044473 0.000000
# 6 0.000000 0.000000 0.000000 0.002487 0.000000 0.050622
#
#
# Mechanical properties :
#
#
# Convention : Reuss Voigt Hill
#
# Bulk Modulus (GPa) = 13.96452 56.11770 35.04111
# Shear Modulus (GPa) = 13.32060 32.11578 22.71819
#
# Velocity S-wave (km/s) = 2.71967 4.22293 3.55174
# Velocity P-wave (km/s) = 4.19718 7.41203 6.02306
#
# Compressibility (1/GPa) = 0.07161004
#
# Stress axis : x y z
#
# Youngs Moduli (GPa) = 54.21401 8.19925 87.05194
#
# Poissons Ratio (x) = 0.14695 -0.15002
# Poissons Ratio (y) = 0.97165 2.08433
# Poissons Ratio (z) = -0.09343 0.19632
#
# Static dielectric constant tensor:
#      x y z
#    x 1.693610 0.000000 0.016960 
#    y 0.000000 1.649720 0.000000 
#    z 0.016960 0.000000 1.600010 
# 
# From -- ./inp_files/71203.got.cif
#   From: 2010.05.17/outbox.ucp.g08.bks.cvg/sg12_36_cif.got.tgz:71203.got - 2010.06.11 11:47:21.
