data_PCOD9224779
_publ_section_title
;
Structure prediction by ZEFSAII (Michael W. Deem and Ramdas Pophale) SiO2 
 PCOD9224779
Probable space group: C 2/M
;
_chemical_formula_sum "Si O2"
_cell_formula_units_Z 28
_cell_length_a 18.000000
_cell_length_b 9.000000
_cell_length_c 18.000000
_cell_angle_alpha 90.000000
_cell_angle_beta 70.000000
_cell_angle_gamma 90.000000
_cell_volume 2740.143682
_symmetry_space_group_name_H-M "C 2/M"
_symmetry_group_IT_number 12
_symmetry_cell_setting 'monoclinic'
loop_
_space_group_symop_operation_xyz
x,y,z
-x,y,-z
-x,-y,-z
x,-y,z
1/2+x,1/2+y,z
1/2-x,1/2+y,-z
1/2-x,1/2-y,-z
1/2+x,1/2-y,z
loop_
_atom_site_type_symbol
_atom_site_label
_atom_site_fract_x
_atom_site_fract_y
_atom_site_fract_z
Si Si1 0.444992 0.161220 0.948340
Si Si2 0.912936 0.671094 0.519756
Si Si3 0.303919 0.330897 0.041075
Si Si4 0.768821 0.169586 0.645664
Si Si5 0.952883 0.328077 0.780803
Si Si6 0.287250 0.332648 0.814843
Si Si7 0.103830 0.673660 0.649462
O O1 0.484006 0.174769 0.854711
O O2 0.400736 0.000000 0.960309
O O3 0.500000 0.152601 0.000000
O O4 0.390392 0.300680 0.981903
O O5 0.917180 0.500000 0.544283
O O6 0.843821 0.749588 0.586879
O O7 0.893654 0.674376 0.439590
O O8 0.000000 0.738083 0.500000
O O9 0.283232 0.500000 0.055176
O O10 0.286486 0.250243 0.123935
O O11 0.250000 0.250000 0.000000
O O12 0.777429 0.165894 0.730558
O O13 0.684779 0.239995 0.652606
O O14 0.768727 0.000000 0.616700
O O15 0.938157 0.500000 0.764324
O O16 0.869256 0.246975 0.806551
O O17 0.021031 0.261375 0.705876
O O18 0.289648 0.500000 0.843253
O O19 0.101639 0.500000 0.675842
#
# Coordination Sequence:
#
# PCOD9224779 Si02
#       7
#     8   8   8   8   8   8   8
#     4  10  22  38  61  90 119 156 200 244 297 356
#     4  10  20  36  60  87 116 151 191 237 287 343
#     4  12  24  40  62  87 118 157 200 249 300 351
#     4  10  22  38  59  86 116 152 192 236 288 345
#     4  10  20  37  61  84 114 155 197 241 288 349
#     4  11  23  38  59  85 117 153 195 246 295 351
#     4   9  19  36  58  85 116 153 194 235 287 350
#
# _framework density 10.218442
#
# number of rings (size 3 to 8) (size 9 to 14) (size 15 to 20)
#    0.000    1.714    1.429    3.000    2.000    2.857 
#    0.000    1.429    0.000    0.000    0.000    0.000 
#    0.000    0.000    0.000    0.000    0.000    0.000 
#
# Total GULP energy -156109.214489 kJ/mol
# GULP energy per Si atom -5575.329089 kJ/mol
# Density = 1.019518 g / cm^3
# Si number density = 10.218442 Si / 1000 Ang^3
#
#
#
# Elastic Constant Matrix: (Units=GPa)
#
#
# Indices 1 2 3 4 5 6 
#
# 1 22.1708 10.0377 -1.3925 0.0000 9.9381 0.0000
# 2 10.0377 66.9112 25.5323 0.0000 -9.9739 0.0000
# 3 -1.3925 25.5323 63.5699 0.0000 -15.1979 0.0000
# 4 0.0000 0.0000 0.0000 23.6196 0.0000 -20.7838
# 5 9.9381 -9.9739 -15.1979 0.0000 23.1185 0.0000
# 6 0.0000 0.0000 0.0000 -20.7838 0.0000 11.5314
#
#
#
# Elastic Compliance Matrix: (Units=1/GPa)
#
#
# Indices 1 2 3 4 5 6 
#
# 1 0.068458 -0.015317 -0.001144 0.000000 -0.036788 0.000000
# 2 -0.015317 0.021320 -0.006081 0.000000 0.011785 0.000000
# 3 -0.001144 -0.006081 0.020927 0.000000 0.011626 0.000000
# 4 0.000000 0.000000 0.000000 -0.072252 0.000000 -0.130224
# 5 -0.036788 0.011785 0.011626 0.000000 0.071796 0.000000
# 6 0.000000 0.000000 0.000000 -0.130224 0.000000 -0.147992
#
#
# Mechanical properties :
#
#
# Convention : Reuss Voigt Hill
#
# Bulk Modulus (GPa) = 15.23883 24.55630 19.89757
# Shear Modulus (GPa) = 171.14547 19.55220 95.34884
#
# Velocity S-wave (km/s) = 9.16107 3.09643 6.83788
# Velocity P-wave (km/s) = 10.92580 4.98253 8.49113
#
# Compressibility (1/GPa) = 0.06562184
#
# Stress axis : x y z
#
# Youngs Moduli (GPa) = 14.60757 46.90423 47.78404
#
# Poissons Ratio (x) = 0.71843 0.05465
# Poissons Ratio (y) = 0.22374 0.29058
# Poissons Ratio (z) = 0.01671 0.28523
#
# Static dielectric constant tensor:
#      x y z
#    x 1.901700 0.000000 -0.036210 
#    y 0.000000 1.794960 0.000000 
#    z -0.036210 0.000000 1.728980 
# 
# From -- ./inp_files/275305.got.cif
#   From: 2010.05.17/outbox.ucp.g08.bks.cvg/sg12_138_cif.got.tgz:275305.got - 2010.06.11 11:47:21.
