data_PCOD9224086
_publ_section_title
;
Structure prediction by ZEFSAII (Michael W. Deem and Ramdas Pophale) SiO2 
 PCOD9224086
Probable space group: C 2/M
;
_chemical_formula_sum "Si O2"
_cell_formula_units_Z 29
_cell_length_a 24.000000
_cell_length_b 18.000000
_cell_length_c 15.000000
_cell_angle_alpha 90.000000
_cell_angle_beta 150.000000
_cell_angle_gamma 90.000000
_cell_volume 3240.000000
_symmetry_space_group_name_H-M "C 2/M"
_symmetry_group_IT_number 12
_symmetry_cell_setting 'monoclinic'
loop_
_space_group_symop_operation_xyz
x,y,z
-x,y,-z
-x,-y,-z
x,-y,z
1/2+x,1/2+y,z
1/2-x,1/2+y,-z
1/2-x,1/2-y,-z
1/2+x,1/2-y,z
loop_
_atom_site_type_symbol
_atom_site_label
_atom_site_fract_x
_atom_site_fract_y
_atom_site_fract_z
Si Si1 0.726979 0.913867 0.204402
Si Si2 0.656140 0.211298 0.981439
Si Si3 0.857658 0.583761 0.712622
Si Si4 0.500000 0.500000 0.000000
Si Si5 0.609084 0.608222 0.302408
Si Si6 0.976219 0.913094 0.615403
Si Si7 0.588751 0.733761 0.702163
Si Si8 0.971955 0.737743 0.857381
O O1 0.674792 0.868881 0.051372
O O2 0.663496 0.902785 0.210723
O O3 0.856428 0.894624 0.404004
O O4 0.724213 0.000000 0.180448
O O5 0.782715 0.240842 0.150004
O O6 0.591169 0.218163 0.797405
O O7 0.582069 0.252917 0.951913
O O8 0.905904 0.500000 0.769018
O O9 0.735940 0.583771 0.497986
O O10 0.926215 0.654880 0.774115
O O11 0.449196 0.564394 0.859601
O O12 0.543873 0.594304 0.305844
O O13 0.610444 0.695909 0.282968
O O14 0.060738 0.850921 0.695703
O O15 0.003739 0.000000 0.634187
O O16 0.500000 0.751975 0.500000
O O17 0.000000 0.741653 0.000000
#
# Coordination Sequence:
#
# PCOD9224086 Si02
#       8
#     8   8   8   2   8   8   8   8
#     4   9  18  34  61  89 117 150 195 254 304 359
#     4  11  23  39  58  90 123 162 200 245 316 370
#     4  10  21  38  59  88 128 164 194 249 316 365
#     4  12  20  36  64  88 130 162 204 260 306 360
#     4  11  21  38  58  90 125 165 204 249 307 369
#     4  10  19  36  62  89 117 149 200 262 313 350
#     4  11  23  40  62  85 125 160 202 259 311 363
#     4  12  23  36  61  93 123 161 204 249 303 386
#
# _framework density 8.9506169999999994
#
# number of rings (size 3 to 8) (size 9 to 14) (size 15 to 20)
#    0.000    1.379    6.207    1.241    0.000    1.655 
#    2.483    0.000    0.000    0.414    0.000    0.000 
#    0.000    0.000    0.000    0.000    0.000    0.000 
#
# Total GULP energy -161492.779898 kJ/mol
# GULP energy per Si atom -5568.716548 kJ/mol
# Density = 0.893025 g / cm^3
# Si number density = 8.950617 Si / 1000 Ang^3
#
#
#
# Elastic Constant Matrix: (Units=GPa)
#
#
# Indices 1 2 3 4 5 6 
#
# 1 77.6568 21.5868 48.2883 0.0000 -15.5715 0.0000
# 2 21.5868 110.9362 37.2703 0.0000 -6.9877 0.0000
# 3 48.2883 37.2703 107.4583 0.0000 -30.1952 0.0000
# 4 0.0000 0.0000 0.0000 37.0465 0.0000 -6.2290
# 5 -15.5715 -6.9877 -30.1952 0.0000 36.2940 0.0000
# 6 0.0000 0.0000 0.0000 -6.2290 0.0000 20.2384
#
#
#
# Elastic Compliance Matrix: (Units=1/GPa)
#
#
# Indices 1 2 3 4 5 6 
#
# 1 0.018003 -0.000939 -0.007367 0.000000 0.001414 0.000000
# 2 -0.000939 0.010298 -0.003531 0.000000 -0.001358 0.000000
# 3 -0.007367 -0.003531 0.016656 0.000000 0.010016 0.000000
# 4 0.000000 0.000000 0.000000 0.028466 0.000000 0.008761
# 5 0.001414 -0.001358 0.010016 0.000000 0.036231 0.000000
# 6 0.000000 0.000000 0.000000 0.008761 0.000000 0.052107
#
#
# Mechanical properties :
#
#
# Convention : Reuss Voigt Hill
#
# Bulk Modulus (GPa) = 46.98845 56.70469 51.84657
# Shear Modulus (GPa) = 25.97013 31.30951 28.63982
#
# Velocity S-wave (km/s) = 3.81300 4.18666 4.00419
# Velocity P-wave (km/s) = 6.75951 7.42401 7.09954
#
# Compressibility (1/GPa) = 0.02128183
#
# Stress axis : x y z
#
# Youngs Moduli (GPa) = 55.54783 97.10872 60.03985
#
# Poissons Ratio (x) = 0.09119 0.44229
# Poissons Ratio (y) = 0.05216 0.21202
# Poissons Ratio (z) = 0.40920 0.34292
#
# Static dielectric constant tensor:
#      x y z
#    x 1.652110 0.000000 0.030790 
#    y 0.000000 1.629310 0.000000 
#    z 0.030790 0.000000 1.622490 
# 
# From -- ./inp_files/241325.got.cif
#   From: 2010.05.17/outbox.ucp.g08.bks.cvg/sg12_121_cif.got.tgz:241325.got - 2010.06.11 11:47:21.
