data_PCOD9224523
_publ_section_title
;
Structure prediction by ZEFSAII (Michael W. Deem and Ramdas Pophale) SiO2 
 PCOD9224523
Probable space group: C 2/M
;
_chemical_formula_sum "Si O2"
_cell_formula_units_Z 32
_cell_length_a 30.000000
_cell_length_b 9.000000
_cell_length_c 15.000000
_cell_angle_alpha 90.000000
_cell_angle_beta 60.000000
_cell_angle_gamma 90.000000
_cell_volume 3507.402885
_symmetry_space_group_name_H-M "C 2/M"
_symmetry_group_IT_number 12
_symmetry_cell_setting 'monoclinic'
loop_
_space_group_symop_operation_xyz
x,y,z
-x,y,-z
-x,-y,-z
x,-y,z
1/2+x,1/2+y,z
1/2-x,1/2+y,-z
1/2-x,1/2-y,-z
1/2+x,1/2-y,z
loop_
_atom_site_type_symbol
_atom_site_label
_atom_site_fract_x
_atom_site_fract_y
_atom_site_fract_z
Si Si1 0.659571 0.823467 0.843063
Si Si2 0.037457 0.175409 0.540622
Si Si3 0.296564 0.320652 0.897502
Si Si4 0.895793 0.678761 0.278809
Si Si5 0.113218 0.178574 0.063693
Si Si6 0.499696 0.324345 0.222119
Si Si7 0.359358 0.823006 0.507520
Si Si8 0.280844 0.324214 0.712320
O O1 0.631966 0.769128 0.781872
O O2 0.720041 0.802094 0.771006
O O3 0.650616 0.000000 0.862567
O O4 0.638025 0.742113 0.950269
O O5 0.090304 0.264185 0.491708
O O6 0.000000 0.224607 0.500000
O O7 0.008741 0.192432 0.663632
O O8 0.048988 0.000000 0.516803
O O9 0.289906 0.500000 0.905415
O O10 0.349611 0.280971 0.892184
O O11 0.297568 0.272905 0.793984
O O12 0.250000 0.250000 0.000000
O O13 0.895664 0.500000 0.279847
O O14 0.867288 0.728925 0.397609
O O15 0.953517 0.737247 0.223227
O O16 0.055292 0.230449 0.136952
O O17 0.112186 0.000000 0.060262
O O18 0.495286 0.500000 0.206645
O O19 0.309900 0.758645 0.605084
O O20 0.358148 0.000000 0.509553
O O21 0.291863 0.500000 0.693742
#
# Coordination Sequence:
#
# PCOD9224523 Si02
#       8
#     8   8   8   8   8   8   8   8
#     4  10  21  38  58  79 105 142 185 224 267 321
#     4   9  18  33  56  79 104 142 184 221 263 320
#     4  10  20  35  56  79 110 145 177 220 269 318
#     4   9  20  39  58  77 107 142 178 226 274 315
#     4  10  21  35  54  82 113 141 176 223 269 316
#     4   9  19  35  54  79 108 140 178 219 267 319
#     4  10  21  36  54  79 111 142 177 224 274 318
#     4  10  21  36  56  81 109 143 183 220 263 324
#
# _framework density 9.1235599999999994
#
# number of rings (size 3 to 8) (size 9 to 14) (size 15 to 20)
#    0.000    2.375    1.250    0.375    1.750    3.750 
#    0.000    2.500    0.000    0.000    0.000    0.000 
#    0.000    0.000    0.000    0.000    0.000    0.000 
#
# Total GULP energy -178497.621302 kJ/mol
# GULP energy per Si atom -5578.050666 kJ/mol
# Density = 0.910279 g / cm^3
# Si number density = 9.123560 Si / 1000 Ang^3
#
#
#
# Elastic Constant Matrix: (Units=GPa)
#
#
# Indices 1 2 3 4 5 6 
#
# 1 44.2675 17.2382 11.0132 0.0000 44.7865 0.0000
# 2 17.2382 1.6907 14.1908 0.0000 1.4018 0.0000
# 3 11.0132 14.1908 17.1520 0.0000 7.3547 0.0000
# 4 0.0000 0.0000 0.0000 30.1579 0.0000 -8.2138
# 5 44.7865 1.4018 7.3547 0.0000 19.1793 0.0000
# 6 0.0000 0.0000 0.0000 -8.2138 0.0000 25.1995
#
#
#
# Elastic Compliance Matrix: (Units=1/GPa)
#
#
# Indices 1 2 3 4 5 6 
#
# 1 -0.035073 -0.060922 0.042960 0.000000 0.069879 0.000000
# 2 -0.060922 -0.193396 0.158052 0.000000 0.095788 0.000000
# 3 0.042960 0.158052 -0.062327 0.000000 -0.087970 0.000000
# 4 0.000000 0.000000 0.000000 0.036389 0.000000 0.011861
# 5 0.069879 0.095788 -0.087970 0.000000 -0.084306 0.000000
# 6 0.000000 0.000000 0.000000 0.011861 0.000000 0.043549
#
#
# Mechanical properties :
#
#
# Convention : Reuss Voigt Hill
#
# Bulk Modulus (GPa) = -94.21278 16.44385 -38.88447
# Shear Modulus (GPa) = -8.63733 16.28522 3.82395
#
# Velocity S-wave (km/s) = -2.17803 2.99068 1.44920
# Velocity P-wave (km/s) = 7.62029 4.57787 4.30766
#
# Compressibility (1/GPa) = -0.01061427
#
# Stress axis : x y z
#
# Youngs Moduli (GPa) = -28.51191 -5.17074 -16.04441
#
# Poissons Ratio (x) = -0.31501 0.68928
# Poissons Ratio (y) = -1.73699 2.53585
# Poissons Ratio (z) = 1.22488 0.81725
#
# Static dielectric constant tensor:
#      x y z
#    x 1.620340 0.000000 0.013410 
#    y 0.000000 1.616150 0.000000 
#    z 0.013410 0.000000 1.594610 
# 
# From -- ./inp_files/249098.got.cif
#   From: 2010.05.17/outbox.ucp.g08.bks.cvg/sg12_125_cif.got.tgz:249098.got - 2010.06.11 11:47:21.
