data_PCOD9224764
_publ_section_title
;
Structure prediction by ZEFSAII (Michael W. Deem and Ramdas Pophale) SiO2 
 PCOD9224764
Probable space group: C 2/M
;
_chemical_formula_sum "Si O2"
_cell_formula_units_Z 32
_cell_length_a 30.000000
_cell_length_b 9.000000
_cell_length_c 15.000000
_cell_angle_alpha 90.000000
_cell_angle_beta 50.000000
_cell_angle_gamma 90.000000
_cell_volume 3102.479995
_symmetry_space_group_name_H-M "C 2/M"
_symmetry_group_IT_number 12
_symmetry_cell_setting 'monoclinic'
loop_
_space_group_symop_operation_xyz
x,y,z
-x,y,-z
-x,-y,-z
x,-y,z
1/2+x,1/2+y,z
1/2-x,1/2+y,-z
1/2-x,1/2-y,-z
1/2+x,1/2-y,z
loop_
_atom_site_type_symbol
_atom_site_label
_atom_site_fract_x
_atom_site_fract_y
_atom_site_fract_z
Si Si1 0.102497 0.677287 0.027591
Si Si2 0.981860 0.173391 0.626837
Si Si3 0.608769 0.322091 0.518807
Si Si4 0.365139 0.178463 0.332936
Si Si5 0.514701 0.327863 0.875968
Si Si6 0.138834 0.321988 0.169163
Si Si7 0.194308 0.321465 0.273878
Si Si8 0.300931 0.823248 0.241237
O O1 0.090584 0.500000 0.049314
O O2 0.042064 0.764594 0.100792
O O3 0.141458 0.724125 0.062546
O O4 0.140234 0.702198 0.890871
O O5 0.925447 0.270048 0.718789
O O6 0.000000 0.185993 0.500000
O O7 0.039811 0.212920 0.608086
O O8 0.967853 0.000000 0.661992
O O9 0.614535 0.500000 0.503904
O O10 0.640301 0.260135 0.565831
O O11 0.638223 0.242637 0.397228
O O12 0.428170 0.231155 0.216073
O O13 0.316347 0.220491 0.322623
O O14 0.364414 0.000000 0.344218
O O15 0.525637 0.500000 0.836491
O O16 0.500000 0.322719 0.000000
O O17 0.141299 0.500000 0.167528
O O18 0.185964 0.270711 0.181620
O O19 0.195007 0.500000 0.276485
O O20 0.249382 0.259058 0.256508
O O21 0.288612 0.000000 0.255641
#
# Coordination Sequence:
#
# PCOD9224764 Si02
#       8
#     8   8   8   8   8   8   8   8
#     4  10  21  40  63  88 120 159 200 243 294 355
#     4  10  20  36  59  87 119 155 193 235 290 353
#     4  11  23  40  63  90 121 157 197 243 297 356
#     4  11  23  40  63  90 120 157 200 245 297 353
#     4  11  22  36  59  92 127 159 195 241 295 352
#     4  10  22  38  60  90 121 154 195 243 295 350
#     4  11  24  41  61  87 119 155 199 249 299 351
#     4  10  23  42  63  85 114 157 204 246 295 352
#
# _framework density 10.314329000000001
#
# number of rings (size 3 to 8) (size 9 to 14) (size 15 to 20)
#    0.000    1.500    2.500    2.250    0.000    7.250 
#    0.000    0.000    0.000    0.000    0.000    0.000 
#    0.000    0.000    0.000    0.000    0.000    0.000 
#
# Total GULP energy -178848.798280 kJ/mol
# GULP energy per Si atom -5589.024946 kJ/mol
# Density = 1.029085 g / cm^3
# Si number density = 10.314329 Si / 1000 Ang^3
#
#
#
# Elastic Constant Matrix: (Units=GPa)
#
#
# Indices 1 2 3 4 5 6 
#
# 1 156.2339 31.1891 4.3289 0.0000 23.6356 0.0000
# 2 31.1891 30.6782 -2.4411 0.0000 4.0552 -0.0001
# 3 4.3289 -2.4411 15.5705 0.0000 17.5870 0.0000
# 4 0.0000 0.0000 0.0000 20.3159 0.0000 -4.7762
# 5 23.6356 4.0552 17.5870 0.0000 35.8280 0.0000
# 6 0.0000 -0.0001 0.0000 -4.7762 0.0000 32.5963
#
#
#
# Elastic Compliance Matrix: (Units=1/GPa)
#
#
# Indices 1 2 3 4 5 6 
#
# 1 0.008911 -0.007766 0.004382 0.000000 -0.007151 0.000000
# 2 -0.007766 0.043280 0.019506 0.000000 -0.009350 0.000000
# 3 0.004382 0.019506 0.161200 0.000000 -0.084227 0.000000
# 4 0.000000 0.000000 0.000000 0.050979 0.000000 0.007470
# 5 -0.007151 -0.009350 -0.084227 0.000000 0.075032 0.000000
# 6 0.000000 0.000000 0.000000 0.007470 0.000000 0.031773
#
#
# Mechanical properties :
#
#
# Convention : Reuss Voigt Hill
#
# Bulk Modulus (GPa) = 4.07108 29.84846 16.95977
# Shear Modulus (GPa) = 11.88186 29.04174 20.46180
#
# Velocity S-wave (km/s) = 2.40258 3.75618 3.15288
# Velocity P-wave (km/s) = 3.11035 5.77172 4.63611
#
# Compressibility (1/GPa) = 0.24563499
#
# Stress axis : x y z
#
# Youngs Moduli (GPa) = 112.21663 23.10548 6.20347
#
# Poissons Ratio (x) = 0.17943 -0.02718
# Poissons Ratio (y) = 0.87146 -0.12100
# Poissons Ratio (z) = -0.49171 -0.45069
#
# Static dielectric constant tensor:
#      x y z
#    x 1.750310 0.000000 0.043640 
#    y 0.000000 1.685710 0.000000 
#    z 0.043640 0.000000 1.752160 
# 
# From -- ./inp_files/249826.got.cif
#   From: 2010.05.17/outbox.ucp.g08.bks.cvg/sg12_125_cif.got.tgz:249826.got - 2010.06.11 11:47:21.
