data_PCOD9224600
_publ_section_title
;
Structure prediction by ZEFSAII (Michael W. Deem and Ramdas Pophale) SiO2 
 PCOD9224600
Probable space group: C 2/M
;
_chemical_formula_sum "Si O2"
_cell_formula_units_Z 28
_cell_length_a 21.000000
_cell_length_b 9.000000
_cell_length_c 30.000000
_cell_angle_alpha 90.000000
_cell_angle_beta 30.000000
_cell_angle_gamma 90.000000
_cell_volume 2835.000000
_symmetry_space_group_name_H-M "C 2/M"
_symmetry_group_IT_number 12
_symmetry_cell_setting 'monoclinic'
loop_
_space_group_symop_operation_xyz
x,y,z
-x,y,-z
-x,-y,-z
x,-y,z
1/2+x,1/2+y,z
1/2-x,1/2+y,-z
1/2-x,1/2-y,-z
1/2+x,1/2-y,z
loop_
_atom_site_type_symbol
_atom_site_label
_atom_site_fract_x
_atom_site_fract_y
_atom_site_fract_z
Si Si1 0.381957 0.178898 0.103513
Si Si2 0.403399 0.822683 0.598544
Si Si3 0.861184 0.320076 0.903715
Si Si4 0.398776 0.328160 0.461761
Si Si5 0.839499 0.673432 0.816498
Si Si6 0.370458 0.172941 0.387238
Si Si7 0.630888 0.179690 0.784176
O O1 0.249789 0.237753 0.163071
O O2 0.390619 0.222246 0.150522
O O3 0.381558 0.000000 0.102704
O O4 0.500000 0.228571 0.000000
O O5 0.500000 0.775641 0.500000
O O6 0.488039 0.774085 0.589597
O O7 0.264083 0.748521 0.685866
O O8 0.388074 0.000000 0.605719
O O9 0.857886 0.500000 0.907803
O O10 0.825307 0.273785 0.875495
O O11 0.003736 0.277152 0.833595
O O12 0.750000 0.250000 0.000000
O O13 0.431403 0.500000 0.449808
O O14 0.377404 0.290115 0.423033
O O15 0.254734 0.298552 0.567226
O O16 0.803320 0.500000 0.834575
O O17 0.991117 0.681526 0.717731
O O18 0.354647 0.000000 0.412436
O O19 0.642485 0.000000 0.775063
#
# Coordination Sequence:
#
# PCOD9224600 Si02
#       7
#     8   8   8   8   8   8   8
#     4  10  21  38  60  88 119 152 193 242 297 354
#     4  11  25  41  57  82 119 159 201 250 302 354
#     4  10  22  40  62  88 120 155 197 245 297 357
#     4  10  20  35  58  84 112 150 193 235 286 344
#     4  10  21  36  57  85 114 148 190 235 288 348
#     4   9  19  35  56  83 115 148 184 235 291 342
#     4  10  22  40  64  90 119 159 205 250 298 358
#
# _framework density 9.8765429999999999
#
# number of rings (size 3 to 8) (size 9 to 14) (size 15 to 20)
#    0.000    2.000    0.000    2.571    2.000    7.714 
#    0.000    0.000    0.000    0.000    0.000    0.000 
#    0.000    0.000    0.000    0.000    0.000    0.000 
#
# Total GULP energy -156167.263066 kJ/mol
# GULP energy per Si atom -5577.402252 kJ/mol
# Density = 0.985406 g / cm^3
# Si number density = 9.876543 Si / 1000 Ang^3
#
#
#
# Elastic Constant Matrix: (Units=GPa)
#
#
# Indices 1 2 3 4 5 6 
#
# 1 52.3358 1.5732 -7.6946 0.0004 -11.3543 -0.0001
# 2 1.5732 10.7343 14.1225 0.0013 -0.9817 0.0020
# 3 -7.6946 14.1225 69.0312 -0.0005 -10.6235 0.0006
# 4 0.0004 0.0013 -0.0005 36.6077 -0.0004 -7.0563
# 5 -11.3543 -0.9817 -10.6235 -0.0004 35.1560 0.0009
# 6 -0.0001 0.0020 0.0006 -7.0563 0.0009 21.5635
#
#
#
# Elastic Compliance Matrix: (Units=1/GPa)
#
#
# Indices 1 2 3 4 5 6 
#
# 1 0.022156 -0.010203 0.005888 0.000000 0.008650 0.000001
# 2 -0.010203 0.132858 -0.029632 -0.000008 -0.008540 -0.000014
# 3 0.005888 -0.029632 0.022412 0.000002 0.007847 0.000002
# 4 0.000000 -0.000008 0.000002 0.029156 0.000001 0.009541
# 5 0.008650 -0.008540 0.007847 0.000001 0.033371 -0.000001
# 6 0.000001 -0.000014 0.000002 0.009541 -0.000001 0.049497
#
#
# Mechanical properties :
#
#
# Convention : Reuss Voigt Hill
#
# Bulk Modulus (GPa) = 9.12960 16.45596 12.79278
# Shear Modulus (GPa) = 12.69503 26.93878 19.81691
#
# Velocity S-wave (km/s) = 2.53788 3.69694 3.17082
# Velocity P-wave (km/s) = 3.63588 5.15481 4.46048
#
# Compressibility (1/GPa) = 0.10953383
#
# Stress axis : x y z
#
# Youngs Moduli (GPa) = 45.13351 7.52682 44.61848
#
# Poissons Ratio (x) = 0.07680 -0.26272
# Poissons Ratio (y) = 0.46050 1.32213
# Poissons Ratio (z) = -0.26576 0.22303
#
# Static dielectric constant tensor:
#      x y z
#    x 1.714920 0.000000 0.060290 
#    y 0.000000 1.672790 0.000000 
#    z 0.060290 0.000000 1.849330 
# 
# From -- ./inp_files/380648.got.cif
#   From: 2010.05.17/outbox.ucp.g08.bks.cvg/sg12_191_cif.got.tgz:380648.got - 2010.06.11 11:47:21.
