data_PCOD9224194
_publ_section_title
;
Structure prediction by ZEFSAII (Michael W. Deem and Ramdas Pophale) SiO2 
 PCOD9224194
Probable space group: C 2/M
;
_chemical_formula_sum "Si O2"
_cell_formula_units_Z 24
_cell_length_a 21.000000
_cell_length_b 15.000000
_cell_length_c 24.000000
_cell_angle_alpha 90.000000
_cell_angle_beta 20.000000
_cell_angle_gamma 90.000000
_cell_volume 2585.672284
_symmetry_space_group_name_H-M "C 2/M"
_symmetry_group_IT_number 12
_symmetry_cell_setting 'monoclinic'
loop_
_space_group_symop_operation_xyz
x,y,z
-x,y,-z
-x,-y,-z
x,-y,z
1/2+x,1/2+y,z
1/2-x,1/2+y,-z
1/2-x,1/2-y,-z
1/2+x,1/2-y,z
loop_
_atom_site_type_symbol
_atom_site_label
_atom_site_fract_x
_atom_site_fract_y
_atom_site_fract_z
Si Si1 0.048089 0.602107 0.288895
Si Si2 0.098679 0.898433 0.657520
Si Si3 0.594072 0.296554 0.282291
Si Si4 0.149945 0.898298 0.425498
Si Si5 0.240491 0.143374 0.000631
Si Si6 0.940332 0.602095 0.951170
O O1 0.088682 0.500000 0.274438
O O2 0.112498 0.689682 0.270098
O O3 0.149056 0.614226 0.145575
O O4 0.821790 0.610053 0.474715
O O5 0.012147 0.825551 0.687193
O O6 0.058813 0.000000 0.670446
O O7 0.976938 0.885252 0.814166
O O8 0.454678 0.337221 0.443147
O O9 0.799554 0.342018 0.106750
O O10 0.347868 0.866713 0.236596
O O11 0.000000 0.904609 0.500000
O O12 0.182791 0.000000 0.420652
O O13 0.342507 0.103498 0.970930
O O14 0.250000 0.250000 0.000000
O O15 0.950932 0.500000 0.963037
#
# Coordination Sequence:
#
# PCOD9224194 Si02
#       6
#     8   8   8   8   8   8
#     4  11  22  33  49  75 110 146 181 217 250 299
#     4  10  20  32  49  75 107 145 179 211 254 309
#     4  11  20  33  54  75 105 139 178 215 261 315
#     4  10  22  38  57  81 105 131 170 222 275 323
#     4  11  19  31  50  75 109 144 176 207 247 305
#     4  10  20  34  54  79 108 141 172 209 261 317
#
# _framework density 9.2819190000000003
#
# number of rings (size 3 to 8) (size 9 to 14) (size 15 to 20)
#    0.000    1.500    3.333    5.500    2.333    3.333 
#    0.000    2.500    0.000    0.500    0.000    1.167 
#    0.000    0.000    0.000    0.000    0.000    0.000 
#
# Total GULP energy -133794.226514 kJ/mol
# GULP energy per Si atom -5574.759438 kJ/mol
# Density = 0.926079 g / cm^3
# Si number density = 9.281919 Si / 1000 Ang^3
#
#
#
# Elastic Constant Matrix: (Units=GPa)
#
#
# Indices 1 2 3 4 5 6 
#
# 1 9.6388 7.1538 18.0023 0.0016 1.3670 -0.0015
# 2 7.1538 140.0629 48.3588 -0.0009 9.2125 0.0051
# 3 18.0023 48.3588 196.3419 0.0091 10.4884 0.0083
# 4 0.0016 -0.0009 0.0091 29.9522 0.0094 3.2665
# 5 1.3670 9.2125 10.4884 0.0094 15.5938 -0.0009
# 6 -0.0015 0.0051 0.0083 3.2665 -0.0009 7.4262
#
#
#
# Elastic Compliance Matrix: (Units=1/GPa)
#
#
# Indices 1 2 3 4 5 6 
#
# 1 0.126171 -0.002560 -0.010816 -0.000008 -0.002272 0.000042
# 2 -0.002560 0.008037 -0.001559 0.000003 -0.003475 -0.000006
# 3 -0.010816 -0.001559 0.006606 0.000000 -0.002574 -0.000009
# 4 -0.000008 0.000003 0.000000 0.035069 -0.000023 -0.015426
# 5 -0.002272 -0.003475 -0.002574 -0.000023 0.068112 0.000023
# 6 0.000042 -0.000006 -0.000009 -0.015426 0.000023 0.141445
#
#
# Mechanical properties :
#
#
# Convention : Reuss Voigt Hill
#
# Bulk Modulus (GPa) = 9.01363 54.78594 31.89978
# Shear Modulus (GPa) = 11.05478 28.76301 19.90890
#
# Velocity S-wave (km/s) = 2.44294 3.94053 3.27839
# Velocity P-wave (km/s) = 3.58096 7.09083 5.61708
#
# Compressibility (1/GPa) = 0.11094312
#
# Stress axis : x y z
#
# Youngs Moduli (GPa) = 7.92574 124.41943 151.36728
#
# Poissons Ratio (x) = 0.31855 1.63726
# Poissons Ratio (y) = 0.02029 0.23601
# Poissons Ratio (z) = 0.08573 0.19399
#
# Static dielectric constant tensor:
#      x y z
#    x 1.640220 0.000000 0.016740 
#    y 0.000000 1.691210 0.000010 
#    z 0.016740 0.000010 1.682620 
# 
# From -- ./inp_files/325712.got.cif
#   From: 2010.05.17/outbox.ucp.g08.bks.cvg/sg12_163_cif.got.tgz:325712.got - 2010.06.11 11:47:21.
