data_PCOD9224701
_publ_section_title
;
Structure prediction by ZEFSAII (Michael W. Deem and Ramdas Pophale) SiO2 
 PCOD9224701
Probable space group: C 2/M
;
_chemical_formula_sum "Si O2"
_cell_formula_units_Z 32
_cell_length_a 21.000000
_cell_length_b 9.000000
_cell_length_c 21.000000
_cell_angle_alpha 90.000000
_cell_angle_beta 60.000000
_cell_angle_gamma 90.000000
_cell_volume 3437.254828
_symmetry_space_group_name_H-M "C 2/M"
_symmetry_group_IT_number 12
_symmetry_cell_setting 'monoclinic'
loop_
_space_group_symop_operation_xyz
x,y,z
-x,y,-z
-x,-y,-z
x,-y,z
1/2+x,1/2+y,z
1/2-x,1/2+y,-z
1/2-x,1/2-y,-z
1/2+x,1/2-y,z
loop_
_atom_site_type_symbol
_atom_site_label
_atom_site_fract_x
_atom_site_fract_y
_atom_site_fract_z
Si Si1 0.982747 0.678832 0.690240
Si Si2 0.361880 0.323856 0.413459
Si Si3 0.728889 0.821379 0.837455
Si Si4 0.336240 0.821565 0.687753
Si Si5 0.939383 0.680648 0.081959
Si Si6 0.213830 0.677949 0.427792
Si Si7 0.310930 0.677234 0.925952
Si Si8 0.465068 0.821307 0.847286
O O1 0.985394 0.500000 0.684778
O O2 0.060270 0.744526 0.630603
O O3 0.912615 0.728421 0.682956
O O4 0.975138 0.719434 0.768459
O O5 0.372726 0.500000 0.408475
O O6 0.301432 0.288921 0.388515
O O7 0.323940 0.268760 0.497117
O O8 0.767100 0.749412 0.757831
O O9 0.644390 0.770354 0.888778
O O10 0.783258 0.785020 0.868666
O O11 0.727253 0.000000 0.832319
O O12 0.325716 0.787291 0.618735
O O13 0.333210 0.000000 0.696255
O O14 0.938282 0.500000 0.079125
O O15 0.969880 0.721114 0.136781
O O16 0.000000 0.731115 0.000000
O O17 0.206450 0.500000 0.443183
O O18 0.312478 0.500000 0.931373
O O19 0.389008 0.745849 0.904732
O O20 0.250000 0.750000 0.000000
O O21 0.457143 0.000000 0.855047
#
# Coordination Sequence:
#
# PCOD9224701 Si02
#       8
#     8   8   8   8   8   8   8   8
#     4  10  21  36  56  82 113 150 187 225 275 332
#     4  10  21  37  59  86 114 145 184 230 273 319
#     4  10  21  36  56  83 110 144 187 232 278 325
#     4  10  21  38  58  81 112 149 185 225 274 331
#     4   9  18  34  55  79 109 143 183 230 278 329
#     4   9  20  39  60  83 112 149 186 222 273 329
#     4  11  22  36  57  82 110 146 186 230 279 329
#     4  10  20  36  57  81 110 147 188 228 274 330
#
# _framework density 9.3097549999999991
#
# number of rings (size 3 to 8) (size 9 to 14) (size 15 to 20)
#    0.000    2.125    1.250    1.500    1.750    5.000 
#    0.000    3.125    0.000    1.500    0.000    0.000 
#    0.000    0.000    0.000    0.000    0.000    0.000 
#
# Total GULP energy -178479.512425 kJ/mol
# GULP energy per Si atom -5577.484763 kJ/mol
# Density = 0.928857 g / cm^3
# Si number density = 9.309755 Si / 1000 Ang^3
#
#
#
# Elastic Constant Matrix: (Units=GPa)
#
#
# Indices 1 2 3 4 5 6 
#
# 1 93.2441 0.9103 19.5493 0.0000 -3.0783 -0.0002
# 2 0.9103 -23.3028 3.7823 -0.0001 5.3168 -0.0004
# 3 19.5493 3.7823 45.6481 0.0000 -5.1458 0.0000
# 4 0.0000 -0.0001 0.0000 26.5938 0.0000 -7.8099
# 5 -3.0783 5.3168 -5.1458 0.0000 37.6331 0.0000
# 6 -0.0002 -0.0004 0.0000 -7.8099 0.0000 22.6685
#
#
#
# Elastic Compliance Matrix: (Units=1/GPa)
#
#
# Indices 1 2 3 4 5 6 
#
# 1 0.011783 -0.000276 -0.004987 0.000000 0.000321 0.000000
# 2 -0.000276 -0.040799 0.004211 0.000000 0.006317 -0.000001
# 3 -0.004987 0.004211 0.023950 0.000000 0.002272 0.000000
# 4 0.000000 0.000000 0.000000 0.041836 0.000000 0.014414
# 5 0.000321 0.006317 0.002272 0.000000 0.026017 0.000000
# 6 0.000000 -0.000001 0.000000 0.014414 0.000000 0.049080
#
#
# Mechanical properties :
#
#
# Convention : Reuss Voigt Hill
#
# Bulk Modulus (GPa) = -139.45173 18.23037 -60.61068
# Shear Modulus (GPa) = 44.81050 23.46890 34.13970
#
# Velocity S-wave (km/s) = 4.91108 3.55413 4.28664
# Velocity P-wave (km/s) = 6.54980 5.16282 2.85001
#
# Compressibility (1/GPa) = -0.00717094
#
# Stress axis : x y z
#
# Youngs Moduli (GPa) = 84.86469 -24.51021 41.75401
#
# Poissons Ratio (x) = -0.00676 0.20824
# Poissons Ratio (y) = 0.02342 -0.17582
# Poissons Ratio (z) = 0.42325 0.10321
#
# Static dielectric constant tensor:
#      x y z
#    x 1.656020 0.000000 0.026600 
#    y 0.000000 1.613010 0.000000 
#    z 0.026600 0.000000 1.661490 
# 
# From -- ./inp_files/319812.got.cif
#   From: 2010.05.17/outbox.ucp.g08.bks.cvg/sg12_160_cif.got.tgz:319812.got - 2010.06.11 11:47:21.
