data_PCOD9224154
_publ_section_title
;
Structure prediction by ZEFSAII (Michael W. Deem and Ramdas Pophale) SiO2 
 PCOD9224154
Probable space group: C 2/M
;
_chemical_formula_sum "Si O2"
_cell_formula_units_Z 26
_cell_length_a 15.000000
_cell_length_b 9.000000
_cell_length_c 30.000000
_cell_angle_alpha 90.000000
_cell_angle_beta 140.000000
_cell_angle_gamma 90.000000
_cell_volume 2603.289819
_symmetry_space_group_name_H-M "C 2/M"
_symmetry_group_IT_number 12
_symmetry_cell_setting 'monoclinic'
loop_
_space_group_symop_operation_xyz
x,y,z
-x,y,-z
-x,-y,-z
x,-y,z
1/2+x,1/2+y,z
1/2-x,1/2+y,-z
1/2-x,1/2-y,-z
1/2+x,1/2-y,z
loop_
_atom_site_type_symbol
_atom_site_label
_atom_site_fract_x
_atom_site_fract_y
_atom_site_fract_z
Si Si1 0.063146 0.265683 0.238926
Si Si2 0.297552 0.500000 0.587867
Si Si3 0.287489 0.669637 0.084129
Si Si4 0.726884 0.000000 0.656348
Si Si5 0.041803 0.829252 0.944308
Si Si6 0.918408 0.500000 0.576961
Si Si7 0.515094 0.218855 0.320607
Si Si8 0.295862 0.168967 0.800679
O O1 0.175263 0.135680 0.290859
O O2 0.126155 0.336148 0.217739
O O3 0.905318 0.220835 0.164405
O O4 0.049186 0.334868 0.283176
O O5 0.198751 0.500000 0.592824
O O6 0.204794 0.500000 0.507144
O O7 0.403277 0.368395 0.638520
O O8 0.249234 0.500000 0.079461
O O9 0.369167 0.671521 0.067866
O O10 0.146679 0.762355 0.021529
O O11 0.573439 0.000000 0.616766
O O12 0.902916 0.739817 0.877492
O O13 0.007721 0.000000 0.941702
O O14 0.921312 0.631012 0.613670
O O15 0.348351 0.240939 0.258993
O O16 0.262172 0.000000 0.800846
#
# Coordination Sequence:
#
# PCOD9224154 Si02
#       8
#     8   4   8   4   8   4   8   8
#     4  10  21  37  61  89 123 158 203 252 295 353
#     4  10  23  44  63  91 127 157 197 243 304 369
#     4   9  16  30  55  82 116 158 204 249 301 350
#     4  10  19  38  66  93 115 159 207 247 291 358
#     4   9  19  32  53  84 119 159 205 252 300 354
#     4  12  23  40  67  94 121 159 195 253 302 362
#     4  11  24  40  64  91 122 158 199 245 305 363
#     4  11  22  38  61  86 122 161 204 249 301 358
#
# _framework density 9.9873630000000002
#
# number of rings (size 3 to 8) (size 9 to 14) (size 15 to 20)
#    0.000    1.846    3.077    1.154    3.231    3.692 
#    0.000    0.769    0.000    3.692    0.000    0.000 
#    0.000    0.000    0.000    0.000    0.000    0.000 
#
# Total GULP energy -144737.995721 kJ/mol
# GULP energy per Si atom -5566.845989 kJ/mol
# Density = 0.996463 g / cm^3
# Si number density = 9.987363 Si / 1000 Ang^3
#
#
#
# Elastic Constant Matrix: (Units=GPa)
#
#
# Indices 1 2 3 4 5 6 
#
# 1 58.0326 11.6014 17.3533 0.0000 -6.6313 0.0000
# 2 11.6014 82.4998 29.0595 0.0000 -3.6144 0.0000
# 3 17.3533 29.0595 164.7880 0.0000 -5.7928 0.0000
# 4 0.0000 0.0000 0.0000 68.6776 0.0000 -15.1930
# 5 -6.6313 -3.6144 -5.7928 0.0000 35.2924 0.0000
# 6 0.0000 0.0000 0.0000 -15.1930 0.0000 19.6519
#
#
#
# Elastic Compliance Matrix: (Units=1/GPa)
#
#
# Indices 1 2 3 4 5 6 
#
# 1 0.018409 -0.001931 -0.001492 0.000000 0.003016 0.000000
# 2 -0.001931 0.013159 -0.002095 0.000000 0.000641 0.000000
# 3 -0.001492 -0.002095 0.006616 0.000000 0.000591 0.000000
# 4 0.000000 0.000000 0.000000 0.017565 0.000000 0.013579
# 5 0.003016 0.000641 0.000591 0.000000 0.029064 0.000000
# 6 0.000000 0.000000 0.000000 0.013579 0.000000 0.061384
#
#
# Mechanical properties :
#
#
# Convention : Reuss Voigt Hill
#
# Bulk Modulus (GPa) = 36.83550 46.81654 41.82602
# Shear Modulus (GPa) = 30.06975 41.21145 35.64060
#
# Velocity S-wave (km/s) = 3.88414 4.54715 4.22866
# Velocity P-wave (km/s) = 6.21261 7.14546 6.69530
#
# Compressibility (1/GPa) = 0.02714772
#
# Stress axis : x y z
#
# Youngs Moduli (GPa) = 54.32263 75.99556 151.15642
#
# Poissons Ratio (x) = 0.14675 0.22552
# Poissons Ratio (y) = 0.10490 0.31661
# Poissons Ratio (z) = 0.08105 0.15918
#
# Static dielectric constant tensor:
#      x y z
#    x 1.738770 0.000000 -0.029120 
#    y 0.000000 1.668630 0.000000 
#    z -0.029120 0.000000 1.623310 
# 
# From -- ./inp_files/375730.got.cif
#   From: 2010.05.17/outbox.ucp.g08.bks.cvg/sg12_188_cif.got.tgz:375730.got - 2010.06.11 11:47:21.
