data_PCOD9224454
_publ_section_title
;
Structure prediction by ZEFSAII (Michael W. Deem and Ramdas Pophale) SiO2 
 PCOD9224454
Probable space group: C 2/M
;
_chemical_formula_sum "Si O2"
_cell_formula_units_Z 32
_cell_length_a 30.000000
_cell_length_b 9.000000
_cell_length_c 24.000000
_cell_angle_alpha 90.000000
_cell_angle_beta 150.000000
_cell_angle_gamma 90.000000
_cell_volume 3240.000000
_symmetry_space_group_name_H-M "C 2/M"
_symmetry_group_IT_number 12
_symmetry_cell_setting 'monoclinic'
loop_
_space_group_symop_operation_xyz
x,y,z
-x,y,-z
-x,-y,-z
x,-y,z
1/2+x,1/2+y,z
1/2-x,1/2+y,-z
1/2-x,1/2-y,-z
1/2+x,1/2-y,z
loop_
_atom_site_type_symbol
_atom_site_label
_atom_site_fract_x
_atom_site_fract_y
_atom_site_fract_z
Si Si1 0.465543 0.825311 0.190616
Si Si2 0.658871 0.179431 0.423962
Si Si3 0.302578 0.320148 0.419374
Si Si4 0.397254 0.180289 0.823296
Si Si5 0.790913 0.680239 0.936324
Si Si6 0.466022 0.321379 0.523582
Si Si7 0.397954 0.174053 0.243700
Si Si8 0.906801 0.679926 0.963185
O O1 0.567238 0.770293 0.294247
O O2 0.438402 0.813468 0.225743
O O3 0.470002 0.000000 0.179803
O O4 0.378932 0.766741 0.064914
O O5 0.750000 0.250000 0.500000
O O6 0.653266 0.235863 0.481213
O O7 0.663229 0.000000 0.425700
O O8 0.304532 0.500000 0.429942
O O9 0.198627 0.272769 0.304048
O O10 0.364147 0.287605 0.432023
O O11 0.397657 0.221896 0.889041
O O12 0.396654 0.000000 0.818560
O O13 0.495390 0.229376 0.908281
O O14 0.782819 0.500000 0.932599
O O15 0.699617 0.752723 0.857210
O O16 0.820660 0.720367 0.905774
O O17 0.500000 0.270805 0.500000
O O18 0.473513 0.500000 0.533232
O O19 0.533830 0.253509 0.641268
O O20 0.390728 0.000000 0.249229
O O21 0.910084 0.500000 0.967945
#
# Coordination Sequence:
#
# PCOD9224454 Si02
#       8
#     8   8   8   8   8   8   8   8
#     4   9  20  38  58  80 110 147 188 235 286 336
#     4  11  23  40  60  85 118 153 193 236 283 342
#     4  10  20  35  59  87 116 149 188 235 289 341
#     4   8  15  28  49  80 112 141 176 223 275 332
#     4  10  20  34  58  84 105 140 189 239 284 331
#     4  10  22  38  59  88 118 150 194 246 289 334
#     4  11  22  39  57  79 114 152 186 230 288 349
#     4   8  15  28  50  80 110 138 177 229 279 322
#
# _framework density 9.8765429999999999
#
# number of rings (size 3 to 8) (size 9 to 14) (size 15 to 20)
#    0.000    2.375    1.250    1.875    3.500    0.250 
#    0.000    1.875    0.000    0.000    0.000    1.750 
#    0.000    0.000    0.000    0.000    0.000    0.000 
#
# Total GULP energy -178372.604850 kJ/mol
# GULP energy per Si atom -5574.143902 kJ/mol
# Density = 0.985406 g / cm^3
# Si number density = 9.876543 Si / 1000 Ang^3
#
#
#
# Elastic Constant Matrix: (Units=GPa)
#
#
# Indices 1 2 3 4 5 6 
#
# 1 37.7649 8.7806 2.3329 0.0000 20.6562 0.0000
# 2 8.7806 6.4297 2.5158 0.0000 8.8003 0.0000
# 3 2.3329 2.5158 84.8869 0.0000 27.6404 0.0000
# 4 0.0000 0.0000 0.0000 22.5357 0.0000 -0.1676
# 5 20.6562 8.8003 27.6404 0.0000 41.0533 0.0000
# 6 0.0000 0.0000 0.0000 -0.1676 0.0000 14.1304
#
#
#
# Elastic Compliance Matrix: (Units=1/GPa)
#
#
# Indices 1 2 3 4 5 6 
#
# 1 0.045212 -0.038891 0.005895 0.000000 -0.018381 0.000000
# 2 -0.038891 0.262396 0.006706 0.000000 -0.041194 0.000000
# 3 0.005895 0.006706 0.016463 0.000000 -0.015488 0.000000
# 4 0.000000 0.000000 0.000000 0.044378 0.000000 0.000526
# 5 -0.018381 -0.041194 -0.015488 0.000000 0.052865 0.000000
# 6 0.000000 0.000000 0.000000 0.000526 0.000000 0.070776
#
#
# Mechanical properties :
#
#
# Convention : Reuss Voigt Hill
#
# Bulk Modulus (GPa) = 3.68338 17.37111 10.52725
# Shear Modulus (GPa) = 7.87196 23.24070 15.55633
#
# Velocity S-wave (km/s) = 1.99846 3.43382 2.80936
# Velocity P-wave (km/s) = 2.68214 4.95326 3.98300
#
# Compressibility (1/GPa) = 0.27148944
#
# Stress axis : x y z
#
# Youngs Moduli (GPa) = 22.11821 3.81104 60.74363
#
# Poissons Ratio (x) = 0.14822 -0.35809
# Poissons Ratio (y) = 0.86020 -0.40732
# Poissons Ratio (z) = -0.13039 -0.02556
#
# Static dielectric constant tensor:
#      x y z
#    x 1.743660 0.000000 -0.018770 
#    y 0.000000 1.658090 0.000000 
#    z -0.018770 0.000000 1.714490 
# 
# From -- ./inp_files/353482.got.cif
#   From: 2010.05.17/outbox.ucp.g08.bks.cvg/sg12_177_cif.got.tgz:353482.got - 2010.06.11 11:47:21.
