data_PCOD9224341
_publ_section_title
;
Structure prediction by ZEFSAII (Michael W. Deem and Ramdas Pophale) SiO2 
 PCOD9224341
Probable space group: C 2/M
;
_chemical_formula_sum "Si O2"
_cell_formula_units_Z 28
_cell_length_a 18.000000
_cell_length_b 9.000000
_cell_length_c 27.000000
_cell_angle_alpha 90.000000
_cell_angle_beta 140.000000
_cell_angle_gamma 90.000000
_cell_volume 2811.553005
_symmetry_space_group_name_H-M "C 2/M"
_symmetry_group_IT_number 12
_symmetry_cell_setting 'monoclinic'
loop_
_space_group_symop_operation_xyz
x,y,z
-x,y,-z
-x,-y,-z
x,-y,z
1/2+x,1/2+y,z
1/2-x,1/2+y,-z
1/2-x,1/2-y,-z
1/2+x,1/2-y,z
loop_
_atom_site_type_symbol
_atom_site_label
_atom_site_fract_x
_atom_site_fract_y
_atom_site_fract_z
Si Si1 0.946656 0.670071 0.917865
Si Si2 0.972904 0.679372 0.623777
Si Si3 0.800628 0.677578 0.206663
Si Si4 0.840167 0.674670 0.656321
Si Si5 0.865466 0.161974 0.049692
Si Si6 0.948491 0.163028 0.202451
Si Si7 0.112900 0.671167 0.524458
O O1 0.931278 0.500000 0.894665
O O2 0.824056 0.750987 0.852206
O O3 0.041799 0.749853 0.933915
O O4 0.000000 0.672285 0.000000
O O5 0.977856 0.500000 0.622381
O O6 0.887406 0.713536 0.625338
O O7 0.922405 0.734614 0.546869
O O8 0.103091 0.726256 0.703702
O O9 0.791786 0.500000 0.203244
O O10 0.860261 0.731510 0.186384
O O11 0.853501 0.500000 0.669855
O O12 0.711768 0.729043 0.597596
O O13 0.926458 0.764807 0.734273
O O14 0.913092 0.145769 0.128699
O O15 0.843867 0.000000 0.015892
O O16 0.750000 0.250000 0.000000
O O17 0.948854 0.000000 0.227184
O O18 0.154939 0.500000 0.540780
O O19 0.000000 0.668011 0.500000
#
# Coordination Sequence:
#
# PCOD9224341 Si02
#       7
#     8   8   8   8   8   8   8
#     4  11  24  40  58  83 116 152 189 228 272 328
#     4   8  17  34  54  78 107 140 180 224 271 326
#     4  10  20  36  59  85 113 146 187 234 281 330
#     4  10  20  35  56  80 107 142 184 229 274 325
#     4  11  24  40  60  85 113 147 186 231 281 333
#     4  10  21  38  59  84 113 145 184 229 280 337
#     4  10  20  34  53  77 108 145 181 223 277 332
#
# _framework density 9.9589090000000002
#
# number of rings (size 3 to 8) (size 9 to 14) (size 15 to 20)
#    0.000    2.000    0.000    4.286    0.000    8.286 
#    0.000    6.429    0.000    0.000    0.000    0.000 
#    0.000    0.000    0.000    0.000    0.000    0.000 
#
# Total GULP energy -156134.388003 kJ/mol
# GULP energy per Si atom -5576.228143 kJ/mol
# Density = 0.993624 g / cm^3
# Si number density = 9.958909 Si / 1000 Ang^3
#
#
#
# Elastic Constant Matrix: (Units=GPa)
#
#
# Indices 1 2 3 4 5 6 
#
# 1 -7.8829 15.2639 62.9140 0.0000 40.0009 0.0000
# 2 15.2639 87.8131 55.2965 0.0000 21.9806 0.0000
# 3 62.9140 55.2965 53.4990 0.0000 16.1785 0.0000
# 4 0.0000 0.0000 0.0000 -2.0099 0.0000 -7.8116
# 5 40.0009 21.9806 16.1785 0.0000 29.3695 0.0000
# 6 0.0000 0.0000 0.0000 -7.8116 0.0000 12.7406
#
#
#
# Elastic Compliance Matrix: (Units=1/GPa)
#
#
# Indices 1 2 3 4 5 6 
#
# 1 -0.005010 -0.009208 0.013513 0.000000 0.006272 0.000000
# 2 -0.009208 0.016941 -0.007967 0.000000 0.004251 0.000000
# 3 0.013513 -0.007967 0.017756 0.000000 -0.022223 0.000000
# 4 0.000000 0.000000 0.000000 -0.147072 0.000000 -0.090174
# 5 0.006272 0.004251 -0.022223 0.000000 0.034567 0.000000
# 6 0.000000 0.000000 0.000000 -0.090174 0.000000 0.023201
#
#
# Mechanical properties :
#
#
# Convention : Reuss Voigt Hill
#
# Bulk Modulus (GPa) = 44.71856 44.48646 44.60251
# Shear Modulus (GPa) = -111.50886 8.01704 -51.74591
#
# Velocity S-wave (km/s) = -7.49039 2.00843 -5.10256
# Velocity P-wave (km/s) = 7.23241 5.26896 3.50327
#
# Compressibility (1/GPa) = 0.02236208
#
# Stress axis : x y z
#
# Youngs Moduli (GPa) = -199.58369 59.02778 56.32019
#
# Poissons Ratio (x) = 0.54355 -0.76107
# Poissons Ratio (y) = -1.83785 0.44871
# Poissons Ratio (z) = 2.69704 0.47028
#
# Static dielectric constant tensor:
#      x y z
#    x 1.655990 0.000000 -0.037640 
#    y 0.000000 1.632110 0.000000 
#    z -0.037640 0.000000 1.761930 
# 
# From -- ./inp_files/275314.got.cif
#   From: 2010.05.17/outbox.ucp.g08.bks.cvg/sg12_138_cif.got.tgz:275314.got - 2010.06.11 11:47:21.
