data_PCOD9224391
_publ_section_title
;
Structure prediction by ZEFSAII (Michael W. Deem and Ramdas Pophale) SiO2 
 PCOD9224391
Probable space group: C 2/M
;
_chemical_formula_sum "Si O2"
_cell_formula_units_Z 32
_cell_length_a 24.000000
_cell_length_b 9.000000
_cell_length_c 30.000000
_cell_angle_alpha 90.000000
_cell_angle_beta 30.000000
_cell_angle_gamma 90.000000
_cell_volume 3240.000000
_symmetry_space_group_name_H-M "C 2/M"
_symmetry_group_IT_number 12
_symmetry_cell_setting 'monoclinic'
loop_
_space_group_symop_operation_xyz
x,y,z
-x,y,-z
-x,-y,-z
x,-y,z
1/2+x,1/2+y,z
1/2-x,1/2+y,-z
1/2-x,1/2-y,-z
1/2+x,1/2-y,z
loop_
_atom_site_type_symbol
_atom_site_label
_atom_site_fract_x
_atom_site_fract_y
_atom_site_fract_z
Si Si1 0.764284 0.319814 0.538464
Si Si2 0.200336 0.322929 0.169847
Si Si3 0.407800 0.325599 0.599028
Si Si4 0.880086 0.674768 0.106325
Si Si5 0.309405 0.320678 0.915507
Si Si6 0.565995 0.322930 0.741482
Si Si7 0.480491 0.178154 0.636766
Si Si8 0.149119 0.672306 0.769534
O O1 0.759789 0.500000 0.539657
O O2 0.750000 0.250000 0.500000
O O3 0.665584 0.267531 0.639990
O O4 0.891747 0.276960 0.461271
O O5 0.197292 0.500000 0.164286
O O6 0.291169 0.278782 0.143811
O O7 0.235924 0.238933 0.100178
O O8 0.080849 0.274885 0.274726
O O9 0.500000 0.270229 0.500000
O O10 0.431011 0.500000 0.591038
O O11 0.413714 0.241122 0.641381
O O12 0.281651 0.313304 0.669924
O O13 0.846730 0.500000 0.124681
O O14 0.881068 0.705824 0.158435
O O15 0.000000 0.692342 0.000000
O O16 0.302048 0.500000 0.923308
O O17 0.439427 0.272973 0.821360
O O18 0.250000 0.250000 0.000000
O O19 0.566210 0.500000 0.736596
O O20 0.591923 0.277109 0.773767
O O21 0.476860 0.000000 0.639400
O O22 0.118287 0.500000 0.782595
#
# Coordination Sequence:
#
# PCOD9224391 Si02
#       8
#     8   8   8   8   8   8   8   8
#     4  10  21  38  59  86 118 155 198 243 294 352
#     4  11  23  40  63  93 123 156 200 248 300 359
#     4  10  20  34  54  83 117 154 197 238 283 344
#     4  10  22  40  62  89 119 157 201 248 303 357
#     4  11  25  44  65  90 119 157 201 250 304 357
#     4  10  23  41  61  88 122 158 199 246 299 355
#     4  10  21  36  57  86 119 153 192 239 292 349
#     4  10  21  37  58  87 122 158 197 242 295 352
#
# _framework density 9.8765429999999999
#
# number of rings (size 3 to 8) (size 9 to 14) (size 15 to 20)
#    0.000    1.750    1.250    2.250    1.750    4.000 
#    0.000    0.000    0.000    0.000    0.000    0.000 
#    0.000    0.000    0.000    0.000    0.000    0.000 
#
# Total GULP energy -178590.814608 kJ/mol
# GULP energy per Si atom -5580.962957 kJ/mol
# Density = 0.985406 g / cm^3
# Si number density = 9.876543 Si / 1000 Ang^3
#
#
#
# Elastic Constant Matrix: (Units=GPa)
#
#
# Indices 1 2 3 4 5 6 
#
# 1 43.8416 3.8394 19.8749 -0.0014 15.6964 0.0017
# 2 3.8394 1.8267 20.6081 -0.0032 1.0494 -0.0022
# 3 19.8749 20.6081 109.5441 0.0000 23.8938 0.0006
# 4 -0.0014 -0.0032 0.0000 25.7089 0.0002 8.0428
# 5 15.6964 1.0494 23.8938 0.0002 33.5979 -0.0010
# 6 0.0017 -0.0022 0.0006 8.0428 -0.0010 32.9246
#
#
#
# Elastic Compliance Matrix: (Units=1/GPa)
#
#
# Indices 1 2 3 4 5 6 
#
# 1 0.027341 0.016387 -0.006090 0.000004 -0.008954 -0.000002
# 2 0.016387 -0.395284 0.083287 -0.000042 -0.054540 -0.000020
# 3 -0.006090 0.083287 -0.006495 0.000009 0.004863 0.000004
# 4 0.000004 -0.000042 0.000009 0.042116 -0.000007 -0.010288
# 5 -0.008954 -0.054540 0.004863 -0.000007 0.032192 0.000000
# 6 -0.000002 -0.000020 0.000004 -0.010288 0.000000 0.032886
#
#
# Mechanical properties :
#
#
# Convention : Reuss Voigt Hill
#
# Bulk Modulus (GPa) = -5.33983 27.09526 10.87771
# Shear Modulus (GPa) = -9.67425 25.83894 8.08235
#
# Velocity S-wave (km/s) = -2.21545 3.62069 2.02499
# Velocity P-wave (km/s) = 3.04195 5.58801 3.31455
#
# Compressibility (1/GPa) = -0.18727181
#
# Stress axis : x y z
#
# Youngs Moduli (GPa) = 36.57525 -2.52983 -153.95355
#
# Poissons Ratio (x) = 0.04146 -0.93764
# Poissons Ratio (y) = -0.59936 12.82226
# Poissons Ratio (z) = 0.22276 0.21070
#
# Static dielectric constant tensor:
#      x y z
#    x 1.779480 0.000000 -0.053840 
#    y 0.000000 1.674490 0.000000 
#    z -0.053840 0.000000 1.720720 
# 
# From -- ./inp_files/382209.got.cif
#   From: 2010.05.17/outbox.ucp.g08.bks.cvg/sg12_192_cif.got.tgz:382209.got - 2010.06.11 11:47:21.
