data_PCOD9224474
_publ_section_title
;
Structure prediction by ZEFSAII (Michael W. Deem and Ramdas Pophale) SiO2 
 PCOD9224474
Probable space group: C 2/M
;
_chemical_formula_sum "Si O2"
_cell_formula_units_Z 32
_cell_length_a 24.000000
_cell_length_b 9.000000
_cell_length_c 18.000000
_cell_angle_alpha 90.000000
_cell_angle_beta 80.000000
_cell_angle_gamma 90.000000
_cell_volume 3828.932544
_symmetry_space_group_name_H-M "C 2/M"
_symmetry_group_IT_number 12
_symmetry_cell_setting 'monoclinic'
loop_
_space_group_symop_operation_xyz
x,y,z
-x,y,-z
-x,-y,-z
x,-y,z
1/2+x,1/2+y,z
1/2-x,1/2+y,-z
1/2-x,1/2-y,-z
1/2+x,1/2-y,z
loop_
_atom_site_type_symbol
_atom_site_label
_atom_site_fract_x
_atom_site_fract_y
_atom_site_fract_z
Si Si1 0.459048 0.823969 0.349777
Si Si2 0.769610 0.823273 0.072536
Si Si3 0.929407 0.175222 0.906674
Si Si4 0.035499 0.329529 0.815197
Si Si5 0.090881 0.677925 0.343855
Si Si6 0.067632 0.826603 0.498416
Si Si7 0.888837 0.329207 0.058309
Si Si8 0.341236 0.821738 0.817143
O O1 0.439458 0.792843 0.270909
O O2 0.526145 0.783196 0.335600
O O3 0.425063 0.742158 0.422032
O O4 0.456073 0.000000 0.365265
O O5 0.830632 0.758572 0.075935
O O6 0.723844 0.791748 0.147739
O O7 0.772294 0.000000 0.061859
O O8 0.750000 0.750000 0.000000
O O9 0.877360 0.239097 0.871434
O O10 0.985125 0.221738 0.849377
O O11 0.925002 0.000000 0.916751
O O12 0.927712 0.254713 0.986643
O O13 0.012653 0.500000 0.814807
O O14 0.080513 0.326475 0.870077
O O15 0.093407 0.500000 0.349854
O O16 0.099116 0.748495 0.422869
O O17 0.134315 0.723383 0.268990
O O18 0.000000 0.806257 0.500000
O O19 0.080011 0.000000 0.495184
O O20 0.878202 0.500000 0.038907
O O21 0.350366 0.000000 0.821821
#
# Coordination Sequence:
#
# PCOD9224474 Si02
#       8
#     8   8   8   8   8   8   8   8
#     4   9  16  29  49  70  95 130 170 201 237 299
#     4  11  22  36  56  77 100 132 171 216 262 304
#     4  12  23  33  51  76 104 134 169 213 258 304
#     4  10  21  37  54  73 100 138 176 210 252 304
#     4   9  16  29  49  70  95 129 168 203 239 295
#     4   9  17  27  41  67 103 133 158 194 245 298
#     4  11  23  38  55  72  99 137 176 216 256 301
#     4  10  20  35  54  74 100 135 172 209 254 305
#
# _framework density 8.3574210000000004
#
# number of rings (size 3 to 8) (size 9 to 14) (size 15 to 20)
#    0.000    1.875    2.500    2.625    0.000    5.500 
#    0.000    0.000    0.000    0.000    0.000    0.875 
#    0.000    0.000    0.000    0.000    0.000    0.000 
#
# Total GULP energy -178498.737343 kJ/mol
# GULP energy per Si atom -5578.085542 kJ/mol
# Density = 0.833840 g / cm^3
# Si number density = 8.357421 Si / 1000 Ang^3
#
#
#
# Elastic Constant Matrix: (Units=GPa)
#
#
# Indices 1 2 3 4 5 6 
#
# 1 14.6611 12.8172 4.4343 0.0000 -1.7132 0.0000
# 2 12.8172 39.1549 44.2980 0.0000 -4.1494 0.0000
# 3 4.4343 44.2980 139.5341 0.0000 -4.3956 0.0000
# 4 0.0000 0.0000 0.0000 8.8908 0.0000 -10.4704
# 5 -1.7132 -4.1494 -4.3956 0.0000 13.7708 0.0000
# 6 0.0000 0.0000 0.0000 -10.4704 0.0000 14.0887
#
#
#
# Elastic Compliance Matrix: (Units=1/GPa)
#
#
# Indices 1 2 3 4 5 6 
#
# 1 0.107246 -0.048482 0.012065 0.000000 0.002585 0.000000
# 2 -0.048482 0.062675 -0.018134 0.000000 0.007065 0.000000
# 3 0.012065 -0.018134 0.012542 0.000000 0.000040 0.000000
# 4 0.000000 0.000000 0.000000 0.901424 0.000000 0.669920
# 5 0.002585 0.007065 0.000040 0.000000 0.075080 0.000000
# 6 0.000000 0.000000 0.000000 0.669920 0.000000 0.568850
#
#
# Mechanical properties :
#
#
# Convention : Reuss Voigt Hill
#
# Bulk Modulus (GPa) = 13.63154 35.16101 24.39627
# Shear Modulus (GPa) = 2.68619 16.13675 9.41147
#
# Velocity S-wave (km/s) = 1.26908 3.11048 2.37546
# Velocity P-wave (km/s) = 3.21255 5.82937 4.70649
#
# Compressibility (1/GPa) = 0.07335931
#
# Stress axis : x y z
#
# Youngs Moduli (GPa) = 9.32436 15.95530 79.73434
#
# Poissons Ratio (x) = 0.77355 -0.96200
# Poissons Ratio (y) = 0.45207 1.44592
# Poissons Ratio (z) = -0.11250 0.28934
#
# Static dielectric constant tensor:
#      x y z
#    x 1.542930 0.000000 0.007490 
#    y 0.000000 1.575040 0.000000 
#    z 0.007490 0.000000 1.574410 
# 
# From -- ./inp_files/287543.got.cif
#   From: 2010.05.17/outbox.ucp.g08.bks.cvg/sg12_144_cif.got.tgz:287543.got - 2010.06.11 11:47:21.
