data_PCOD9224425
_publ_section_title
;
Structure prediction by ZEFSAII (Michael W. Deem and Ramdas Pophale) SiO2 
 PCOD9224425
Probable space group: C 2/M
;
_chemical_formula_sum "Si O2"
_cell_formula_units_Z 28
_cell_length_a 24.000000
_cell_length_b 9.000000
_cell_length_c 18.000000
_cell_angle_alpha 90.000000
_cell_angle_beta 50.000000
_cell_angle_gamma 90.000000
_cell_volume 2978.380795
_symmetry_space_group_name_H-M "C 2/M"
_symmetry_group_IT_number 12
_symmetry_cell_setting 'monoclinic'
loop_
_space_group_symop_operation_xyz
x,y,z
-x,y,-z
-x,-y,-z
x,-y,z
1/2+x,1/2+y,z
1/2-x,1/2+y,-z
1/2-x,1/2-y,-z
1/2+x,1/2-y,z
loop_
_atom_site_type_symbol
_atom_site_label
_atom_site_fract_x
_atom_site_fract_y
_atom_site_fract_z
Si Si1 0.268801 0.335704 0.682327
Si Si2 0.285185 0.327747 0.400979
Si Si3 0.895435 0.669958 0.111411
Si Si4 0.164712 0.174670 0.220726
Si Si5 0.677409 0.180497 0.968015
Si Si6 0.424006 0.176467 0.815149
Si Si7 0.555588 0.322488 0.788867
O O1 0.278759 0.500000 0.639878
O O2 0.265975 0.208722 0.624741
O O3 0.188316 0.335476 0.787962
O O4 0.325227 0.315009 0.699855
O O5 0.290531 0.500000 0.409843
O O6 0.250000 0.250000 0.500000
O O7 0.366398 0.274163 0.311948
O O8 0.921332 0.500000 0.087690
O O9 0.882798 0.731997 0.040093
O O10 0.942191 0.762802 0.128798
O O11 0.242021 0.232253 0.121331
O O12 0.097102 0.263046 0.246863
O O13 0.158167 0.000000 0.206939
O O14 0.679093 0.000000 0.959839
O O15 0.645982 0.219002 0.074429
O O16 0.492725 0.251796 0.793925
O O17 0.432319 0.000000 0.809557
O O18 0.551089 0.500000 0.792542
#
# Coordination Sequence:
#
# PCOD9224425 Si02
#       7
#     8   8   8   8   8   8   8
#     4   8  15  29  51  75  98 126 159 194 239 288
#     4  10  20  34  56  81 102 122 150 192 241 294
#     4   8  14  29  50  68  91 126 165 204 241 285
#     4   9  17  32  51  70  97 133 170 208 243 280
#     4   8  16  30  48  70  95 128 172 212 247 282
#     4  11  21  31  46  69  98 135 173 208 242 281
#     4  10  21  35  48  69 100 130 159 195 244 297
#
# _framework density 9.4010809999999996
#
# number of rings (size 3 to 8) (size 9 to 14) (size 15 to 20)
#    0.000    2.857    0.000    3.429    0.000    2.857 
#    0.000    7.143    0.000    0.857    0.000    6.000 
#    0.000    0.000    0.000    0.000    0.000    0.000 
#
# Total GULP energy -155938.636675 kJ/mol
# GULP energy per Si atom -5569.237024 kJ/mol
# Density = 0.937968 g / cm^3
# Si number density = 9.401081 Si / 1000 Ang^3
#
#
#
# Elastic Constant Matrix: (Units=GPa)
#
#
# Indices 1 2 3 4 5 6 
#
# 1 134.1349 42.3527 19.7867 -0.0003 3.8475 0.0001
# 2 42.3527 18.0350 12.9896 0.0011 1.7530 -0.0003
# 3 19.7867 12.9896 26.3539 0.0003 8.5793 -0.0001
# 4 -0.0003 0.0011 0.0003 10.3325 -0.0002 1.2404
# 5 3.8475 1.7530 8.5793 -0.0002 3.3210 0.0001
# 6 0.0001 -0.0003 -0.0001 1.2404 0.0001 29.4340
#
#
#
# Elastic Compliance Matrix: (Units=1/GPa)
#
#
# Indices 1 2 3 4 5 6 
#
# 1 -0.000063 0.049254 -0.099299 0.000003 0.230600 -0.000001
# 2 0.049254 -0.256726 0.402613 -0.000007 -0.961643 0.000003
# 3 -0.099299 0.402613 -0.340936 -0.000016 0.783280 0.000001
# 4 0.000003 -0.000007 -0.000016 0.097274 0.000050 -0.004099
# 5 0.230600 -0.961643 0.783280 0.000050 -1.481931 -0.000004
# 6 -0.000001 0.000003 0.000001 -0.004099 -0.000004 0.034147
#
#
# Mechanical properties :
#
#
# Convention : Reuss Voigt Hill
#
# Bulk Modulus (GPa) = 9.31006 36.53131 22.92068
# Shear Modulus (GPa) = -1.91017 15.51048 6.80015
#
# Velocity S-wave (km/s) = -1.00903 2.87528 1.90382
# Velocity P-wave (km/s) = 1.89864 5.52218 4.12912
#
# Compressibility (1/GPa) = 0.10741068
#
# Stress axis : x y z
#
# Youngs Moduli (GPa) = -15852.43787 -3.89521 -2.93311
#
# Poissons Ratio (x) = 0.19185 -0.29126
# Poissons Ratio (y) = 780.78849 1.18091
# Poissons Ratio (z) = -1574.13451 1.56826
#
# Static dielectric constant tensor:
#      x y z
#    x 1.697090 0.000000 0.024580 
#    y 0.000000 1.636310 0.000000 
#    z 0.024580 0.000000 1.688670 
# 
# From -- ./inp_files/288222.got.cif
#   From: 2010.05.17/outbox.ucp.g08.bks.cvg/sg12_145_cif.got.tgz:288222.got - 2010.06.11 11:47:21.
