data_PCOD9224017
_publ_section_title
;
Structure prediction by ZEFSAII (Michael W. Deem and Ramdas Pophale) SiO2 
 PCOD9224017
Probable space group: C 2/M
;
_chemical_formula_sum "Si O2"
_cell_formula_units_Z 20
_cell_length_a 15.000000
_cell_length_b 18.000000
_cell_length_c 24.000000
_cell_angle_alpha 90.000000
_cell_angle_beta 160.000000
_cell_angle_gamma 90.000000
_cell_volume 2216.290529
_symmetry_space_group_name_H-M "C 2/M"
_symmetry_group_IT_number 12
_symmetry_cell_setting 'monoclinic'
loop_
_space_group_symop_operation_xyz
x,y,z
-x,y,-z
-x,-y,-z
x,-y,z
1/2+x,1/2+y,z
1/2-x,1/2+y,-z
1/2-x,1/2-y,-z
1/2+x,1/2-y,z
loop_
_atom_site_type_symbol
_atom_site_label
_atom_site_fract_x
_atom_site_fract_y
_atom_site_fract_z
Si Si1 0.367665 0.684449 0.170010
Si Si2 0.966600 0.288310 0.328934
Si Si3 0.262864 0.774665 0.692404
Si Si4 0.172457 0.086750 0.431268
Si Si5 0.390633 0.089461 0.836821
O O1 0.330445 0.748600 0.195922
O O2 0.506770 0.728708 0.201718
O O3 0.586767 0.628946 0.324454
O O4 0.117034 0.633991 0.004931
O O5 0.250000 0.250000 0.500000
O O6 0.073243 0.373176 0.392265
O O7 0.809379 0.265914 0.291843
O O8 0.355342 0.858736 0.761365
O O9 0.000000 0.775993 0.500000
O O10 0.899380 0.093684 0.305760
O O11 0.221737 0.000000 0.451834
O O12 0.449090 0.000000 0.865494
#
# Coordination Sequence:
#
# PCOD9224017 Si02
#       5
#     8   8   8   8   8
#     4  11  21  37  59  86 119 154 195 236 285 348
#     4  10  19  37  57  85 119 150 198 233 281 352
#     4  12  21  38  61  86 116 158 198 232 287 352
#     4  10  19  35  60  88 115 148 189 245 293 330
#     4  11  23  38  59  90 120 148 192 250 299 331
#
# _framework density 9.0240880000000008
#
# number of rings (size 3 to 8) (size 9 to 14) (size 15 to 20)
#    0.000    1.200    8.000    1.800    0.000    2.000 
#    0.000    4.000    0.000    0.000    0.000    2.800 
#    0.000    0.000    0.000    0.000    0.000    0.000 
#
# Total GULP energy -111439.184255 kJ/mol
# GULP energy per Si atom -5571.959213 kJ/mol
# Density = 0.900355 g / cm^3
# Si number density = 9.024088 Si / 1000 Ang^3
#
#
#
# Elastic Constant Matrix: (Units=GPa)
#
#
# Indices 1 2 3 4 5 6 
#
# 1 120.3784 57.0817 24.4300 -0.0073 6.7963 0.0014
# 2 57.0817 178.4838 53.8644 -0.0103 -2.7209 0.0084
# 3 24.4300 53.8644 82.1118 -0.0128 -5.6627 0.0068
# 4 -0.0073 -0.0103 -0.0128 45.1218 -0.0020 0.8548
# 5 6.7963 -2.7209 -5.6627 -0.0020 15.6150 -0.0041
# 6 0.0014 0.0084 0.0068 0.8548 -0.0041 30.4925
#
#
#
# Elastic Compliance Matrix: (Units=1/GPa)
#
#
# Indices 1 2 3 4 5 6 
#
# 1 0.010318 -0.002921 -0.001537 0.000000 -0.005557 0.000000
# 2 -0.002921 0.007816 -0.004181 0.000000 0.001117 -0.000001
# 3 -0.001537 -0.004181 0.015769 0.000004 0.005659 -0.000002
# 4 0.000000 0.000000 0.000004 0.022174 0.000004 -0.000622
# 5 -0.005557 0.001117 0.005659 0.000004 0.068707 0.000008
# 6 0.000000 -0.000001 -0.000002 -0.000622 0.000008 0.032812
#
#
# Mechanical properties :
#
#
# Convention : Reuss Voigt Hill
#
# Bulk Modulus (GPa) = 60.15130 72.41402 66.28266
# Shear Modulus (GPa) = 27.71402 34.61904 31.16653
#
# Velocity S-wave (km/s) = 3.92287 4.38442 4.16005
# Velocity P-wave (km/s) = 7.34296 8.11422 7.73820
#
# Compressibility (1/GPa) = 0.01662474
#
# Stress axis : x y z
#
# Youngs Moduli (GPa) = 96.92057 127.94930 63.41646
#
# Poissons Ratio (x) = 0.37369 0.09748
# Poissons Ratio (y) = 0.28307 0.26514
# Poissons Ratio (z) = 0.14898 0.53495
#
# Static dielectric constant tensor:
#      x y z
#    x 1.668130 0.000000 -0.021300 
#    y 0.000000 1.683470 -0.000020 
#    z -0.021300 -0.000020 1.638830 
# 
# From -- ./inp_files/340581.got.cif
#   From: 2010.05.17/outbox.ucp.g08.bks.cvg/sg12_171_cif.got.tgz:340581.got - 2010.06.11 11:47:21.
