data_PCOD9224413
_publ_section_title
;
Structure prediction by ZEFSAII (Michael W. Deem and Ramdas Pophale) SiO2 
 PCOD9224413
Probable space group: C 2/M
;
_chemical_formula_sum "Si O2"
_cell_formula_units_Z 28
_cell_length_a 30.000000
_cell_length_b 9.000000
_cell_length_c 12.000000
_cell_angle_alpha 90.000000
_cell_angle_beta 110.000000
_cell_angle_gamma 90.000000
_cell_volume 3044.604091
_symmetry_space_group_name_H-M "C 2/M"
_symmetry_group_IT_number 12
_symmetry_cell_setting 'monoclinic'
loop_
_space_group_symop_operation_xyz
x,y,z
-x,y,-z
-x,-y,-z
x,-y,z
1/2+x,1/2+y,z
1/2-x,1/2+y,-z
1/2-x,1/2-y,-z
1/2+x,1/2-y,z
loop_
_atom_site_type_symbol
_atom_site_label
_atom_site_fract_x
_atom_site_fract_y
_atom_site_fract_z
Si Si1 0.301363 0.827982 0.654803
Si Si2 0.383488 0.325138 0.389165
Si Si3 0.042212 0.829692 0.953506
Si Si4 0.603644 0.331193 0.215184
Si Si5 0.446302 0.824885 0.632789
Si Si6 0.945759 0.327197 0.265651
Si Si7 0.291666 0.172850 0.380099
O O1 0.352598 0.777597 0.735913
O O2 0.300566 0.806941 0.520335
O O3 0.261822 0.727611 0.679079
O O4 0.291364 0.000000 0.667960
O O5 0.387192 0.500000 0.411351
O O6 0.410959 0.236369 0.509729
O O7 0.409221 0.276331 0.298444
O O8 0.329448 0.271586 0.347750
O O9 0.050416 0.720864 0.859032
O O10 0.032102 0.000000 0.906443
O O11 0.086467 0.834008 0.074283
O O12 0.000000 0.783669 0.000000
O O13 0.615782 0.500000 0.260143
O O14 0.563636 0.268716 0.264314
O O15 0.500738 0.807444 0.642941
O O16 0.437764 0.000000 0.645260
O O17 0.932839 0.500000 0.267781
O O18 0.297723 0.000000 0.358376
#
# Coordination Sequence:
#
# PCOD9224413 Si02
#       7
#     8   8   8   8   8   8   8
#     4  10  20  34  55  83 115 148 184 229 279 333
#     4  12  24  37  57  82 114 152 189 229 281 340
#     4  10  21  38  58  82 112 148 191 237 279 326
#     4  11  21  34  57  84 115 150 186 231 282 331
#     4  11  22  36  54  81 115 150 188 231 279 333
#     4  11  24  39  57  80 112 152 194 235 279 332
#     4  10  20  35  56  82 115 147 183 229 278 335
#
# _framework density 9.1965979999999998
#
# number of rings (size 3 to 8) (size 9 to 14) (size 15 to 20)
#    0.000    1.286    2.857    3.857    0.000    6.000 
#    0.000    0.000    0.000    0.857    0.000    0.000 
#    0.000    0.000    0.000    0.000    0.000    0.000 
#
# Total GULP energy -156349.113232 kJ/mol
# GULP energy per Si atom -5583.896901 kJ/mol
# Density = 0.917567 g / cm^3
# Si number density = 9.196598 Si / 1000 Ang^3
#
#
#
# Elastic Constant Matrix: (Units=GPa)
#
#
# Indices 1 2 3 4 5 6 
#
# 1 63.1317 20.8976 4.8663 0.0000 -4.3068 0.0000
# 2 20.8976 -10.6946 -2.0923 0.0000 -6.7701 0.0000
# 3 4.8663 -2.0923 25.0167 0.0000 -1.2376 0.0000
# 4 0.0000 0.0000 0.0000 19.2539 0.0000 -1.7760
# 5 -4.3068 -6.7701 -1.2376 0.0000 10.6622 0.0000
# 6 0.0000 0.0000 0.0000 -1.7760 0.0000 29.8386
#
#
#
# Elastic Compliance Matrix: (Units=1/GPa)
#
#
# Indices 1 2 3 4 5 6 
#
# 1 0.011996 0.014611 -0.000415 0.000000 0.014075 0.000000
# 2 0.014611 -0.047450 -0.008056 0.000000 -0.025162 0.000000
# 3 -0.000415 -0.008056 0.039345 0.000000 -0.000716 0.000000
# 4 0.000000 0.000000 0.000000 0.052224 0.000000 0.003108
# 5 0.014075 -0.025162 -0.000716 0.000000 0.083414 0.000000
# 6 0.000000 0.000000 0.000000 0.003108 0.000000 0.033699
#
#
# Mechanical properties :
#
#
# Convention : Reuss Voigt Hill
#
# Bulk Modulus (GPa) = 61.83764 13.86634 37.85199
# Shear Modulus (GPa) = 30.05947 15.53644 22.79796
#
# Velocity S-wave (km/s) = 4.04700 2.90950 3.52444
# Velocity P-wave (km/s) = 7.45187 4.34075 6.09805
#
# Compressibility (1/GPa) = 0.01617138
#
# Stress axis : x y z
#
# Youngs Moduli (GPa) = 83.36423 -21.07482 25.41627
#
# Poissons Ratio (x) = 0.30793 0.01055
# Poissons Ratio (y) = -1.21804 0.20474
# Poissons Ratio (z) = 0.03460 -0.16977
#
# Static dielectric constant tensor:
#      x y z
#    x 1.630940 0.000000 0.013170 
#    y 0.000000 1.611940 0.000000 
#    z 0.013170 0.000000 1.632950 
# 
# From -- ./inp_files/186838.got.cif
#   From: 2010.05.17/outbox.ucp.g08.bks.cvg/sg12_94_cif.got.tgz:186838.got - 2010.06.11 11:47:21.
