data_PCOD9224329
_publ_section_title
;
Structure prediction by ZEFSAII (Michael W. Deem and Ramdas Pophale) SiO2 
 PCOD9224329
Probable space group: C 2/M
;
_chemical_formula_sum "Si O2"
_cell_formula_units_Z 28
_cell_length_a 18.000000
_cell_length_b 9.000000
_cell_length_c 21.000000
_cell_angle_alpha 90.000000
_cell_angle_beta 120.000000
_cell_angle_gamma 90.000000
_cell_volume 2946.218424
_symmetry_space_group_name_H-M "C 2/M"
_symmetry_group_IT_number 12
_symmetry_cell_setting 'monoclinic'
loop_
_space_group_symop_operation_xyz
x,y,z
-x,y,-z
-x,-y,-z
x,-y,z
1/2+x,1/2+y,z
1/2-x,1/2+y,-z
1/2-x,1/2-y,-z
1/2+x,1/2-y,z
loop_
_atom_site_type_symbol
_atom_site_label
_atom_site_fract_x
_atom_site_fract_y
_atom_site_fract_z
Si Si1 0.425554 0.677480 0.166527
Si Si2 0.620656 0.178850 0.448060
Si Si3 0.068301 0.820498 0.974557
Si Si4 0.453448 0.177773 0.309102
Si Si5 0.257363 0.679375 0.605791
Si Si6 0.774285 0.677206 0.889373
Si Si7 0.756400 0.678933 0.255208
O O1 0.437080 0.500000 0.176289
O O2 0.453991 0.724201 0.107703
O O3 0.469613 0.751556 0.246630
O O4 0.323596 0.709845 0.130909
O O5 0.523316 0.223154 0.391529
O O6 0.675786 0.249154 0.414428
O O7 0.664880 0.218118 0.534305
O O8 0.625923 0.000000 0.445740
O O9 0.075415 0.000000 0.977643
O O10 0.158402 0.750748 0.034077
O O11 0.000000 0.778659 0.000000
O O12 0.357428 0.214160 0.290163
O O13 0.457347 0.000000 0.303709
O O14 0.265297 0.500000 0.607853
O O15 0.268910 0.725264 0.684128
O O16 0.784567 0.500000 0.892644
O O17 0.787613 0.743736 0.824126
O O18 0.745096 0.500000 0.245097
#
# Coordination Sequence:
#
# PCOD9224329 Si02
#       7
#     8   8   8   8   8   8   8
#     4   9  19  35  53  73  98 129 163 198 240 291
#     4   9  18  32  49  72 101 130 163 203 245 288
#     4  10  21  36  53  74 100 129 162 200 240 286
#     4   9  18  32  51  74  98 126 162 205 247 285
#     4   9  18  32  50  71  97 132 168 200 240 291
#     4  10  20  34  53  75  99 128 161 200 245 290
#     4   9  18  33  52  73  97 128 166 203 241 288
#
# _framework density 9.5037079999999996
#
# number of rings (size 3 to 8) (size 9 to 14) (size 15 to 20)
#    0.000    2.714    0.000    0.857    0.000    4.286 
#    0.000    7.143    0.000    0.000    0.000    8.000 
#    0.000    0.000    0.000    0.000    0.000    0.000 
#
# Total GULP energy -156137.750367 kJ/mol
# GULP energy per Si atom -5576.348227 kJ/mol
# Density = 0.948208 g / cm^3
# Si number density = 9.503708 Si / 1000 Ang^3
#
#
#
# Elastic Constant Matrix: (Units=GPa)
#
#
# Indices 1 2 3 4 5 6 
#
# 1 10.9854 1.7304 -15.3714 0.0000 -14.3794 0.0000
# 2 1.7304 -2.3523 -2.1346 0.0000 -1.6794 0.0000
# 3 -15.3714 -2.1346 28.8235 0.0000 -14.1294 0.0000
# 4 0.0000 0.0000 0.0000 29.9670 0.0000 -3.4847
# 5 -14.3794 -1.6794 -14.1294 0.0000 38.4964 0.0000
# 6 0.0000 0.0000 0.0000 -3.4847 0.0000 18.4936
#
#
#
# Elastic Compliance Matrix: (Units=1/GPa)
#
#
# Indices 1 2 3 4 5 6 
#
# 1 -0.084684 0.040098 -0.069311 0.000000 -0.055322 0.000000
# 2 0.040098 -0.383191 -0.009568 0.000000 -0.005251 0.000000
# 3 -0.069311 -0.009568 -0.019356 0.000000 -0.033411 0.000000
# 4 0.000000 0.000000 0.000000 0.034118 0.000000 0.006429
# 5 -0.055322 -0.005251 -0.033411 0.000000 -0.007180 0.000000
# 6 0.000000 0.000000 0.000000 0.006429 0.000000 0.055284
#
#
# Mechanical properties :
#
#
# Convention : Reuss Voigt Hill
#
# Bulk Modulus (GPa) = -1.77056 0.65616 -0.55720
# Shear Modulus (GPa) = -9.69535 20.94020 5.62242
#
# Velocity S-wave (km/s) = -2.26095 3.32277 1.72175
# Velocity P-wave (km/s) = 2.78377 3.88162 1.91280
#
# Compressibility (1/GPa) = -0.56479444
#
# Stress axis : x y z
#
# Youngs Moduli (GPa) = -11.80858 -2.60966 -51.66284
#
# Poissons Ratio (x) = 0.10464 -3.58081
# Poissons Ratio (y) = 0.47350 -0.49432
# Poissons Ratio (z) = -0.81847 -0.02497
#
# Static dielectric constant tensor:
#      x y z
#    x 1.675370 0.000000 0.022050 
#    y 0.000000 1.635860 0.000000 
#    z 0.022050 0.000000 1.665880 
# 
# From -- ./inp_files/281642.got.cif
#   From: 2010.05.17/outbox.ucp.g08.bks.cvg/sg12_141_cif.got.tgz:281642.got - 2010.06.11 11:47:21.
