data_PCOD9224197
_publ_section_title
;
Structure prediction by ZEFSAII (Michael W. Deem and Ramdas Pophale) SiO2 
 PCOD9224197
Probable space group: C 2/M
;
_chemical_formula_sum "Si O2"
_cell_formula_units_Z 20
_cell_length_a 18.000000
_cell_length_b 21.000000
_cell_length_c 9.000000
_cell_angle_alpha 90.000000
_cell_angle_beta 40.000000
_cell_angle_gamma 90.000000
_cell_volume 2186.763448
_symmetry_space_group_name_H-M "C 2/M"
_symmetry_group_IT_number 12
_symmetry_cell_setting 'monoclinic'
loop_
_space_group_symop_operation_xyz
x,y,z
-x,y,-z
-x,-y,-z
x,-y,z
1/2+x,1/2+y,z
1/2-x,1/2+y,-z
1/2-x,1/2-y,-z
1/2+x,1/2-y,z
loop_
_atom_site_type_symbol
_atom_site_label
_atom_site_fract_x
_atom_site_fract_y
_atom_site_fract_z
Si Si1 0.549277 0.069435 0.087292
Si Si2 0.919958 0.927455 0.977774
Si Si3 0.345480 0.828821 0.907270
Si Si4 0.650492 0.927720 0.364602
Si Si5 0.418945 0.691735 0.763621
O O1 0.637387 0.125397 0.980347
O O2 0.441832 0.078054 0.363532
O O3 0.602269 0.000000 0.032648
O O4 0.500000 0.071049 0.000000
O O5 0.943778 0.866211 0.837857
O O6 0.937426 0.000000 0.887839
O O7 0.782196 0.922735 0.220211
O O8 0.000000 0.923439 0.000000
O O9 0.371048 0.873456 0.724646
O O10 0.422316 0.765627 0.810161
O O11 0.212097 0.813502 0.091701
O O12 0.638370 0.000000 0.321245
O O13 0.500000 0.684551 0.500000
#
# Coordination Sequence:
#
# PCOD9224197 Si02
#       5
#     8   8   8   8   8
#     4  10  20  32  50  78 105 130 166 210 252 292
#     4   9  19  35  53  74 101 133 168 205 248 299
#     4  10  20  35  53  73 102 135 166 204 248 298
#     4   9  17  32  54  75  98 134 172 203 245 299
#     4  10  21  35  53  77 100 129 170 208 246 294
#
# _framework density 9.145937
#
# number of rings (size 3 to 8) (size 9 to 14) (size 15 to 20)
#    0.000    2.400    0.000    2.400    0.000    5.200 
#    0.000    2.000    0.000    9.600    0.000    0.000 
#    0.000    0.000    0.000    0.000    0.000    0.000 
#
# Total GULP energy -111335.264492 kJ/mol
# GULP energy per Si atom -5566.763225 kJ/mol
# Density = 0.912512 g / cm^3
# Si number density = 9.145937 Si / 1000 Ang^3
#
#
#
# Elastic Constant Matrix: (Units=GPa)
#
#
# Indices 1 2 3 4 5 6 
#
# 1 82.2892 50.7612 16.5561 0.0000 -1.4544 0.0000
# 2 50.7612 159.9054 34.4375 0.0000 6.6117 0.0000
# 3 16.5561 34.4375 46.3322 0.0000 1.1593 0.0000
# 4 0.0000 0.0000 0.0000 5.7045 0.0000 -14.1369
# 5 -1.4544 6.6117 1.1593 0.0000 10.6757 0.0000
# 6 0.0000 0.0000 0.0000 -14.1369 0.0000 15.0473
#
#
#
# Elastic Compliance Matrix: (Units=1/GPa)
#
#
# Indices 1 2 3 4 5 6 
#
# 1 0.015582 -0.004687 -0.002216 0.000000 0.005266 0.000000
# 2 -0.004687 0.009032 -0.004895 0.000000 -0.005700 0.000000
# 3 -0.002216 -0.004895 0.026016 0.000000 -0.000095 0.000000
# 4 0.000000 0.000000 0.000000 -0.131977 0.000000 -0.123992
# 5 0.005266 -0.005700 -0.000095 0.000000 0.097929 0.000000
# 6 0.000000 0.000000 0.000000 -0.123992 0.000000 -0.050033
#
#
# Mechanical properties :
#
#
# Convention : Reuss Voigt Hill
#
# Bulk Modulus (GPa) = 36.99190 54.67069 45.83130
# Shear Modulus (GPa) = -5940.54927 18.73696 -2960.90615
#
# Velocity S-wave (km/s) = -57.04993 3.20399 -40.27672
# Velocity P-wave (km/s) = 65.72158 6.60608 46.23681
#
# Compressibility (1/GPa) = 0.02703294
#
# Stress axis : x y z
#
# Youngs Moduli (GPa) = 64.17459 110.72265 38.43756
#
# Poissons Ratio (x) = 0.51896 0.08518
# Poissons Ratio (y) = 0.30079 0.18817
# Poissons Ratio (z) = 0.14222 0.54204
#
# Static dielectric constant tensor:
#      x y z
#    x 1.633630 0.000000 -0.015580 
#    y 0.000000 1.698100 0.000000 
#    z -0.015580 0.000000 1.616920 
# 
# From -- ./inp_files/46915.got.cif
#   From: 2010.05.17/outbox.ucp.g08.bks.cvg/sg12_24_cif.got.tgz:46915.got - 2010.06.11 11:47:21.
