data_PCOD9224149
_publ_section_title
;
Structure prediction by ZEFSAII (Michael W. Deem and Ramdas Pophale) SiO2 
 PCOD9224149
Probable space group: C 2/M
;
_chemical_formula_sum "Si O2"
_cell_formula_units_Z 24
_cell_length_a 12.000000
_cell_length_b 24.000000
_cell_length_c 12.000000
_cell_angle_alpha 90.000000
_cell_angle_beta 50.000000
_cell_angle_gamma 90.000000
_cell_volume 2647.449595
_symmetry_space_group_name_H-M "C 2/M"
_symmetry_group_IT_number 12
_symmetry_cell_setting 'monoclinic'
loop_
_space_group_symop_operation_xyz
x,y,z
-x,y,-z
-x,-y,-z
x,-y,z
1/2+x,1/2+y,z
1/2-x,1/2+y,-z
1/2-x,1/2-y,-z
1/2+x,1/2-y,z
loop_
_atom_site_type_symbol
_atom_site_label
_atom_site_fract_x
_atom_site_fract_y
_atom_site_fract_z
Si Si1 0.165531 0.065248 0.670563
Si Si2 0.642434 0.147233 0.829420
Si Si3 0.404098 0.356691 0.835341
Si Si4 0.924704 0.567987 0.328480
Si Si5 0.395658 0.271851 0.175107
Si Si6 0.766064 0.627200 0.821427
O O1 0.305808 0.077004 0.502712
O O2 0.195273 0.085785 0.776999
O O3 0.019979 0.096495 0.727128
O O4 0.142086 0.000000 0.683427
O O5 0.782096 0.148744 0.820082
O O6 0.636551 0.096802 0.744827
O O7 0.640080 0.208240 0.772267
O O8 0.500000 0.142315 0.000000
O O9 0.505812 0.303003 0.796141
O O10 0.321360 0.370534 0.005421
O O11 0.949026 0.500000 0.303377
O O12 0.072612 0.602742 0.260677
O O13 0.262819 0.312221 0.219853
O O14 0.500000 0.268378 0.000000
#
# Coordination Sequence:
#
# PCOD9224149 Si02
#       6
#     8   8   8   8   8   8
#     4  10  22  40  60  83 118 161 199 240 293 349
#     4  11  22  38  61  89 120 158 194 244 295 355
#     4  10  21  38  60  92 117 150 198 243 296 347
#     4  11  24  39  59  87 123 163 196 238 299 356
#     4   8  19  34  62  90 116 151 194 244 297 348
#     4  10  19  38  63  92 115 147 200 252 289 343
#
# _framework density 9.0653279999999992
#
# number of rings (size 3 to 8) (size 9 to 14) (size 15 to 20)
#    0.000    2.000    1.667    2.500    2.333    7.000 
#    0.000    5.000    7.333    0.000    0.000    0.000 
#    0.000    0.000    0.000    0.000    0.000    0.000 
#
# Total GULP energy -133813.032719 kJ/mol
# GULP energy per Si atom -5575.543030 kJ/mol
# Density = 0.904470 g / cm^3
# Si number density = 9.065328 Si / 1000 Ang^3
#
#
#
# Elastic Constant Matrix: (Units=GPa)
#
#
# Indices 1 2 3 4 5 6 
#
# 1 138.6732 49.6549 30.6502 0.0000 -5.7861 0.0000
# 2 49.6549 103.3502 33.6195 0.0000 -8.4805 0.0000
# 3 30.6502 33.6195 37.4268 0.0000 -11.8170 0.0000
# 4 0.0000 0.0000 0.0000 16.7488 0.0000 -2.0300
# 5 -5.7861 -8.4805 -11.8170 0.0000 22.9965 0.0000
# 6 0.0000 0.0000 0.0000 -2.0300 0.0000 16.0067
#
#
#
# Elastic Compliance Matrix: (Units=1/GPa)
#
#
# Indices 1 2 3 4 5 6 
#
# 1 0.009404 -0.002798 -0.005690 0.000000 -0.001590 0.000000
# 2 -0.002798 0.014547 -0.011106 0.000000 -0.001047 0.000000
# 3 -0.005690 -0.011106 0.047281 0.000000 0.018769 0.000000
# 4 0.000000 0.000000 0.000000 0.060638 0.000000 0.007690
# 5 -0.001590 -0.001047 0.018769 0.000000 0.052344 0.000000
# 6 0.000000 0.000000 0.000000 0.007690 0.000000 0.063449
#
#
# Mechanical properties :
#
#
# Convention : Reuss Voigt Hill
#
# Bulk Modulus (GPa) = 31.20731 56.36659 43.78695
# Shear Modulus (GPa) = 16.80482 22.18543 19.49513
#
# Velocity S-wave (km/s) = 3.04776 3.50185 3.28267
# Velocity P-wave (km/s) = 5.44380 6.89255 6.21056
#
# Compressibility (1/GPa) = 0.03204378
#
# Stress axis : x y z
#
# Youngs Moduli (GPa) = 106.33347 68.74245 21.14993
#
# Poissons Ratio (x) = 0.19232 0.12035
# Poissons Ratio (y) = 0.29749 0.23490
# Poissons Ratio (z) = 0.60507 0.76349
#
# Static dielectric constant tensor:
#      x y z
#    x 1.633480 0.000000 -0.005800 
#    y 0.000000 1.643430 0.000000 
#    z -0.005800 0.000000 1.606450 
# 
# From -- ./inp_files/51354.got.cif
#   From: 2010.05.17/outbox.ucp.g08.bks.cvg/sg12_26_cif.got.tgz:51354.got - 2010.06.11 11:47:21.
