data_PCOD9224842
_publ_section_title
;
Structure prediction by ZEFSAII (Michael W. Deem and Ramdas Pophale) SiO2 
 PCOD9224842
Probable space group: C 2/M
;
_chemical_formula_sum "Si O2"
_cell_formula_units_Z 28
_cell_length_a 15.000000
_cell_length_b 9.000000
_cell_length_c 24.000000
_cell_angle_alpha 90.000000
_cell_angle_beta 70.000000
_cell_angle_gamma 90.000000
_cell_volume 3044.604091
_symmetry_space_group_name_H-M "C 2/M"
_symmetry_group_IT_number 12
_symmetry_cell_setting 'monoclinic'
loop_
_space_group_symop_operation_xyz
x,y,z
-x,y,-z
-x,-y,-z
x,-y,z
1/2+x,1/2+y,z
1/2-x,1/2+y,-z
1/2-x,1/2-y,-z
1/2+x,1/2-y,z
loop_
_atom_site_type_symbol
_atom_site_label
_atom_site_fract_x
_atom_site_fract_y
_atom_site_fract_z
Si Si1 0.843651 0.822885 0.629517
Si Si2 0.561307 0.677549 0.615194
Si Si3 0.111984 0.330090 0.492770
Si Si4 0.802537 0.321154 0.071357
Si Si5 0.614563 0.178641 0.062887
Si Si6 0.587578 0.820164 0.842044
Si Si7 0.843776 0.821604 0.287255
O O1 0.840168 0.763203 0.566779
O O2 0.761685 0.742554 0.681542
O O3 0.949090 0.790186 0.630894
O O4 0.830431 0.000000 0.633264
O O5 0.573272 0.500000 0.605645
O O6 0.615916 0.758686 0.553089
O O7 0.598487 0.718636 0.668524
O O8 0.146323 0.500000 0.485344
O O9 0.000000 0.331254 0.500000
O O10 0.794409 0.500000 0.073121
O O11 0.702671 0.250272 0.076225
O O12 0.840056 0.276546 0.123931
O O13 0.873885 0.281831 0.005095
O O14 0.515887 0.221530 0.112168
O O15 0.621594 0.000000 0.064442
O O16 0.611258 0.746292 0.778150
O O17 0.590956 0.000000 0.835547
O O18 0.841735 0.000000 0.283960
#
# Coordination Sequence:
#
# PCOD9224842 Si02
#       7
#     8   8   8   8   8   8   8
#     4  10  20  37  59  80 106 141 179 219 267 323
#     4   9  20  38  57  77 105 141 178 219 268 321
#     4   9  17  31  55  85 110 134 171 221 272 317
#     4   9  18  34  57  83 110 140 175 217 265 316
#     4   9  18  34  57  84 110 138 176 220 264 312
#     4  10  21  37  55  76 107 146 182 215 260 319
#     4  11  24  39  54  77 108 142 183 225 265 312
#
# _framework density 9.1965979999999998
#
# number of rings (size 3 to 8) (size 9 to 14) (size 15 to 20)
#    0.000    2.429    0.000    1.714    0.000    8.000 
#    0.000    4.286    0.000    4.286    0.000    0.000 
#    0.000    0.000    0.000    0.000    0.000    0.000 
#
# Total GULP energy -156316.241926 kJ/mol
# GULP energy per Si atom -5582.722926 kJ/mol
# Density = 0.917567 g / cm^3
# Si number density = 9.196598 Si / 1000 Ang^3
#
#
#
# Elastic Constant Matrix: (Units=GPa)
#
#
# Indices 1 2 3 4 5 6 
#
# 1 54.9111 20.3052 36.0275 0.0000 9.6141 0.0000
# 2 20.3052 35.9325 33.8283 0.0000 3.8341 0.0000
# 3 36.0275 33.8283 119.3253 0.0000 15.3479 0.0000
# 4 0.0000 0.0000 0.0000 37.1684 0.0000 0.7087
# 5 9.6141 3.8341 15.3479 0.0000 23.3572 0.0000
# 6 0.0000 0.0000 0.0000 0.7087 0.0000 24.5213
#
#
#
# Elastic Compliance Matrix: (Units=1/GPa)
#
#
# Indices 1 2 3 4 5 6 
#
# 1 0.025698 -0.009967 -0.004133 0.000000 -0.006226 0.000000
# 2 -0.009967 0.041845 -0.009282 0.000000 0.003333 0.000000
# 3 -0.004133 -0.009282 0.012938 0.000000 -0.005277 0.000000
# 4 0.000000 0.000000 0.000000 0.026919 0.000000 -0.000778
# 5 -0.006226 0.003333 -0.005277 0.000000 0.048296 0.000000
# 6 0.000000 0.000000 0.000000 -0.000778 0.000000 0.040803
#
#
# Mechanical properties :
#
#
# Convention : Reuss Voigt Hill
#
# Bulk Modulus (GPa) = 29.65759 43.38789 36.52274
# Shear Modulus (GPa) = 19.64596 25.00991 22.32793
#
# Velocity S-wave (km/s) = 3.27174 3.69146 3.48792
# Velocity P-wave (km/s) = 5.51649 6.46603 6.01004
#
# Compressibility (1/GPa) = 0.03371818
#
# Stress axis : x y z
#
# Youngs Moduli (GPa) = 38.91291 23.89744 77.28881
#
# Poissons Ratio (x) = 0.23819 0.31940
# Poissons Ratio (y) = 0.38785 0.71743
# Poissons Ratio (z) = 0.16081 0.22183
#
# Static dielectric constant tensor:
#      x y z
#    x 1.641940 0.000000 -0.003900 
#    y 0.000000 1.615370 0.000000 
#    z -0.003900 0.000000 1.606670 
# 
# From -- ./inp_files/337874.got.cif
#   From: 2010.05.17/outbox.ucp.g08.bks.cvg/sg12_169_cif.got.tgz:337874.got - 2010.06.11 11:47:21.
