data_PCOD9224276
_publ_section_title
;
Structure prediction by ZEFSAII (Michael W. Deem and Ramdas Pophale) SiO2 
 PCOD9224276
Probable space group: C 2/M
;
_chemical_formula_sum "Si O2"
_cell_formula_units_Z 24
_cell_length_a 24.000000
_cell_length_b 9.000000
_cell_length_c 24.000000
_cell_angle_alpha 90.000000
_cell_angle_beta 30.000000
_cell_angle_gamma 90.000000
_cell_volume 2592.000000
_symmetry_space_group_name_H-M "C 2/M"
_symmetry_group_IT_number 12
_symmetry_cell_setting 'monoclinic'
loop_
_space_group_symop_operation_xyz
x,y,z
-x,y,-z
-x,-y,-z
x,-y,z
1/2+x,1/2+y,z
1/2-x,1/2+y,-z
1/2-x,1/2-y,-z
1/2+x,1/2-y,z
loop_
_atom_site_type_symbol
_atom_site_label
_atom_site_fract_x
_atom_site_fract_y
_atom_site_fract_z
Si Si1 0.431995 0.821781 0.730462
Si Si2 0.667242 0.827203 0.829597
Si Si3 0.364551 0.680019 0.376153
Si Si4 0.560231 0.321726 0.813206
Si Si5 0.824456 0.821703 0.058246
Si Si6 0.931039 0.826495 0.613567
O O1 0.525805 0.742425 0.686767
O O2 0.300689 0.776285 0.852686
O O3 0.453571 0.773242 0.647879
O O4 0.440209 0.000000 0.730075
O O5 0.614016 0.752945 0.821201
O O6 0.644230 0.747994 0.908740
O O7 0.801252 0.819192 0.710098
O O8 0.634246 0.000000 0.861078
O O9 0.360549 0.500000 0.384718
O O10 0.250000 0.750000 0.500000
O O11 0.381753 0.718203 0.295610
O O12 0.569493 0.500000 0.811443
O O13 0.427634 0.285098 0.928329
O O14 0.820090 0.000000 0.068755
O O15 0.000000 0.780411 0.500000
O O16 0.957225 0.000000 0.603994
#
# Coordination Sequence:
#
# PCOD9224276 Si02
#       6
#     8   8   8   8   8   8
#     4  10  21  38  60  86 114 148 190 238 286 339
#     4  10  20  33  54  88 122 150 188 236 286 337
#     4  11  25  43  61  83 114 153 196 241 288 341
#     4  10  22  39  59  83 114 156 196 232 284 345
#     4   9  19  38  61  85 117 153 189 232 286 346
#     4   9  19  35  55  81 113 153 192 234 286 336
#
# _framework density 9.2592590000000001
#
# number of rings (size 3 to 8) (size 9 to 14) (size 15 to 20)
#    0.000    2.167    0.000    2.000    2.333    6.333 
#    0.000    0.000    0.000    0.000    0.000    0.000 
#    0.000    0.000    0.000    0.000    0.000    0.000 
#
# Total GULP energy -133937.473877 kJ/mol
# GULP energy per Si atom -5580.728078 kJ/mol
# Density = 0.923818 g / cm^3
# Si number density = 9.259259 Si / 1000 Ang^3
#
#
#
# Elastic Constant Matrix: (Units=GPa)
#
#
# Indices 1 2 3 4 5 6 
#
# 1 112.7368 37.3572 55.8574 0.0002 -16.0884 -0.0002
# 2 37.3572 54.3538 38.2930 0.0022 -4.7780 -0.0013
# 3 55.8574 38.2930 135.9801 0.0000 12.5189 -0.0002
# 4 0.0002 0.0022 0.0000 26.4788 -0.0005 -4.4823
# 5 -16.0884 -4.7780 12.5189 -0.0005 18.1677 0.0002
# 6 -0.0002 -0.0013 -0.0002 -4.4823 0.0002 37.2471
#
#
#
# Elastic Compliance Matrix: (Units=1/GPa)
#
#
# Indices 1 2 3 4 5 6 
#
# 1 0.016642 -0.004745 -0.007199 0.000001 0.018450 0.000000
# 2 -0.004745 0.026658 -0.006211 -0.000002 0.007089 0.000001
# 3 -0.007199 -0.006211 0.013664 0.000000 -0.017424 0.000000
# 4 0.000001 -0.000002 0.000000 0.038551 0.000001 0.004639
# 5 0.018450 0.007089 -0.017424 0.000001 0.085252 0.000000
# 6 0.000000 0.000001 0.000000 0.004639 0.000000 0.027406
#
#
# Mechanical properties :
#
#
# Convention : Reuss Voigt Hill
#
# Bulk Modulus (GPa) = 48.41215 62.89843 55.65529
# Shear Modulus (GPa) = 19.89131 27.81625 23.85378
#
# Velocity S-wave (km/s) = 3.28095 3.87987 3.59291
# Velocity P-wave (km/s) = 6.36806 7.35595 6.87976
#
# Compressibility (1/GPa) = 0.02065597
#
# Stress axis : x y z
#
# Youngs Moduli (GPa) = 60.08862 37.51285 73.18445
#
# Poissons Ratio (x) = 0.17799 0.52683
# Poissons Ratio (y) = 0.28510 0.45452
# Poissons Ratio (z) = 0.43256 0.23298
#
# Static dielectric constant tensor:
#      x y z
#    x 1.600910 0.000000 -0.009930 
#    y 0.000000 1.630230 0.000000 
#    z -0.009930 0.000000 1.669200 
# 
# From -- ./inp_files/348767.got.cif
#   From: 2010.05.17/outbox.ucp.g08.bks.cvg/sg12_175_cif.got.tgz:348767.got - 2010.06.11 11:47:21.
