data_PCOD9224235
_publ_section_title
;
Structure prediction by ZEFSAII (Michael W. Deem and Ramdas Pophale) SiO2 
 PCOD9224235
Probable space group: C 2/M
;
_chemical_formula_sum "Si O2"
_cell_formula_units_Z 28
_cell_length_a 24.000000
_cell_length_b 9.000000
_cell_length_c 15.000000
_cell_angle_alpha 90.000000
_cell_angle_beta 120.000000
_cell_angle_gamma 90.000000
_cell_volume 2805.922308
_symmetry_space_group_name_H-M "C 2/M"
_symmetry_group_IT_number 12
_symmetry_cell_setting 'monoclinic'
loop_
_space_group_symop_operation_xyz
x,y,z
-x,y,-z
-x,-y,-z
x,-y,z
1/2+x,1/2+y,z
1/2-x,1/2+y,-z
1/2-x,1/2-y,-z
1/2+x,1/2-y,z
loop_
_atom_site_type_symbol
_atom_site_label
_atom_site_fract_x
_atom_site_fract_y
_atom_site_fract_z
Si Si1 0.228790 0.667984 0.846911
Si Si2 0.986260 0.827985 0.587882
Si Si3 0.983779 0.680434 0.200670
Si Si4 0.752889 0.822184 0.305636
Si Si5 0.340982 0.327715 0.534566
Si Si6 0.121352 0.676626 0.256483
Si Si7 0.153296 0.328649 0.968898
O O1 0.236050 0.500000 0.822125
O O2 0.208328 0.767114 0.747966
O O3 0.178896 0.671850 0.887841
O O4 0.296023 0.729981 0.938177
O O5 0.909315 0.829071 0.538907
O O6 0.000000 0.766825 0.500000
O O7 0.013994 0.743726 0.696824
O O8 0.008987 0.000000 0.608806
O O9 0.984180 0.500000 0.206811
O O10 0.920020 0.722560 0.095596
O O11 0.048326 0.732759 0.200913
O O12 0.786638 0.773920 0.423532
O O13 0.678791 0.768594 0.239322
O O14 0.752925 0.000000 0.307314
O O15 0.328448 0.500000 0.552527
O O16 0.351128 0.218594 0.624721
O O17 0.117143 0.500000 0.241047
O O18 0.156367 0.500000 0.004243
#
# Coordination Sequence:
#
# PCOD9224235 Si02
#       7
#     8   8   8   8   8   8   8
#     4  10  21  35  53  78 100 124 163 207 250 297
#     4   9  18  30  44  69 103 134 166 200 237 289
#     4   9  18  33  53  73  96 129 165 202 246 292
#     4  10  20  33  51  74 102 134 168 204 246 292
#     4   9  18  31  47  70 101 137 171 202 241 287
#     4   9  18  33  51  74 101 132 169 205 242 289
#     4   9  19  37  56  74  99 128 161 203 253 302
#
# _framework density 9.9788940000000004
#
# number of rings (size 3 to 8) (size 9 to 14) (size 15 to 20)
#    0.000    2.714    0.000    0.857    2.000    2.571 
#    0.000    0.714    0.000    4.286    0.000    0.000 
#    0.000    0.000    0.000    0.000    0.000    0.000 
#
# Total GULP energy -155990.070633 kJ/mol
# GULP energy per Si atom -5571.073951 kJ/mol
# Density = 0.995618 g / cm^3
# Si number density = 9.978894 Si / 1000 Ang^3
#
#
#
# Elastic Constant Matrix: (Units=GPa)
#
#
# Indices 1 2 3 4 5 6 
#
# 1 30.9563 4.7376 11.3878 0.0000 7.1636 0.0000
# 2 4.7376 -16.9340 -11.5555 0.0000 8.3136 0.0000
# 3 11.3878 -11.5555 2.9508 0.0000 18.0670 0.0000
# 4 0.0000 0.0000 0.0000 21.5814 0.0000 1.7651
# 5 7.1636 8.3136 18.0670 0.0000 32.1105 0.0000
# 6 0.0000 0.0000 0.0000 1.7651 0.0000 10.8829
#
#
#
# Elastic Compliance Matrix: (Units=1/GPa)
#
#
# Indices 1 2 3 4 5 6 
#
# 1 0.038251 0.029986 -0.028464 0.000000 -0.000282 0.000000
# 2 0.029986 0.080852 -0.151340 0.000000 0.057529 0.000000
# 3 -0.028464 -0.151340 0.172886 0.000000 -0.051742 0.000000
# 4 0.000000 0.000000 0.000000 0.046959 0.000000 -0.007617
# 5 -0.000282 0.057529 -0.051742 0.000000 0.045423 0.000000
# 6 0.000000 0.000000 0.000000 -0.007617 0.000000 0.093123
#
#
# Mechanical properties :
#
#
# Convention : Reuss Voigt Hill
#
# Bulk Modulus (GPa) = -130.76930 2.90141 -63.93395
# Shear Modulus (GPa) = 6.45512 13.74183 10.09847
#
# Velocity S-wave (km/s) = 1.80039 2.62686 2.25187
# Velocity P-wave (km/s) = 7.83220 3.26458 5.03418
#
# Compressibility (1/GPa) = -0.00764705
#
# Stress axis : x y z
#
# Youngs Moduli (GPa) = 26.14341 12.36834 5.78417
#
# Poissons Ratio (x) = -0.37088 0.16464
# Poissons Ratio (y) = -0.78394 0.87537
# Poissons Ratio (z) = 0.74414 1.87182
#
# Static dielectric constant tensor:
#      x y z
#    x 1.756080 0.000000 0.011760 
#    y 0.000000 1.691280 0.000000 
#    z 0.011760 0.000000 1.679530 
# 
# From -- ./inp_files/238335.got.cif
#   From: 2010.05.17/outbox.ucp.g08.bks.cvg/sg12_120_cif.got.tgz:238335.got - 2010.06.11 11:47:21.
