data_PCOD9224293
_publ_section_title
;
Structure prediction by ZEFSAII (Michael W. Deem and Ramdas Pophale) SiO2 
 PCOD9224293
Probable space group: C 2/M
;
_chemical_formula_sum "Si O2"
_cell_formula_units_Z 32
_cell_length_a 24.000000
_cell_length_b 9.000000
_cell_length_c 21.000000
_cell_angle_alpha 90.000000
_cell_angle_beta 50.000000
_cell_angle_gamma 90.000000
_cell_volume 3474.777594
_symmetry_space_group_name_H-M "C 2/M"
_symmetry_group_IT_number 12
_symmetry_cell_setting 'monoclinic'
loop_
_space_group_symop_operation_xyz
x,y,z
-x,y,-z
-x,-y,-z
x,-y,z
1/2+x,1/2+y,z
1/2-x,1/2+y,-z
1/2-x,1/2-y,-z
1/2+x,1/2-y,z
loop_
_atom_site_type_symbol
_atom_site_label
_atom_site_fract_x
_atom_site_fract_y
_atom_site_fract_z
Si Si1 0.185498 0.668514 0.233675
Si Si2 0.968338 0.823980 0.799957
Si Si3 0.537967 0.328625 0.345940
Si Si4 0.614413 0.326834 0.489289
Si Si5 0.673190 0.827264 0.563832
Si Si6 0.251421 0.672342 0.702815
Si Si7 0.184335 0.671103 0.083263
Si Si8 0.381114 0.322873 0.270767
O O1 0.199085 0.500000 0.244603
O O2 0.102924 0.715688 0.309405
O O3 0.236366 0.779499 0.234243
O O4 0.195632 0.679779 0.150985
O O5 0.984994 0.802705 0.711492
O O6 0.893803 0.743952 0.870971
O O7 0.034544 0.776886 0.797199
O O8 0.958537 0.000000 0.814272
O O9 0.565085 0.500000 0.329122
O O10 0.473077 0.317525 0.444812
O O11 0.628563 0.500000 0.499866
O O12 0.634254 0.204080 0.526515
O O13 0.671080 0.301093 0.390415
O O14 0.750000 0.750000 0.500000
O O15 0.636048 0.738274 0.647032
O O16 0.678866 0.000000 0.574854
O O17 0.235788 0.500000 0.706754
O O18 0.183270 0.760131 0.724746
O O19 0.182217 0.500000 0.066050
O O20 0.250000 0.750000 0.000000
O O21 0.378244 0.500000 0.271588
#
# Coordination Sequence:
#
# PCOD9224293 Si02
#       8
#     8   8   8   8   8   8   8   8
#     4  10  22  39  56  79 111 144 181 225 274 331
#     4   9  18  33  56  84 114 145 177 220 277 329
#     4   9  17  33  54  75 104 143 187 234 280 324
#     4  10  20  34  50  73 104 143 194 241 284 324
#     4  12  22  31  47  71 103 144 192 244 287 322
#     4  11  23  36  53  76 107 153 197 233 274 325
#     4  10  21  38  64  93 116 139 171 216 271 330
#     4  11  21  35  54  78 110 148 188 233 279 325
#
# _framework density 9.2092220000000005
#
# number of rings (size 3 to 8) (size 9 to 14) (size 15 to 20)
#    0.000    1.750    2.500    2.625    0.000    4.000 
#    0.000    2.500    0.000    0.750    0.000    5.250 
#    0.000    0.000    0.000    0.000    0.000    0.000 
#
# Total GULP energy -178275.368987 kJ/mol
# GULP energy per Si atom -5571.105281 kJ/mol
# Density = 0.918826 g / cm^3
# Si number density = 9.209222 Si / 1000 Ang^3
#
#
#
# Elastic Constant Matrix: (Units=GPa)
#
#
# Indices 1 2 3 4 5 6 
#
# 1 46.6289 59.1125 48.8910 0.0000 -13.3620 -0.0001
# 2 59.1125 16.2963 42.7516 0.0001 -17.3473 -0.0002
# 3 48.8910 42.7516 60.7255 0.0001 -35.8114 -0.0001
# 4 0.0000 0.0001 0.0001 17.0131 -0.0001 -2.2144
# 5 -13.3620 -17.3473 -35.8114 -0.0001 15.1537 0.0001
# 6 -0.0001 -0.0002 -0.0001 -2.2144 0.0001 24.4552
#
#
#
# Elastic Compliance Matrix: (Units=1/GPa)
#
#
# Indices 1 2 3 4 5 6 
#
# 1 0.001564 0.020535 0.002641 0.000000 0.031128 0.000000
# 2 0.020535 -0.021582 0.013288 0.000000 0.024803 0.000000
# 3 0.002641 0.013288 -0.038944 0.000000 -0.074493 0.000000
# 4 0.000000 0.000000 0.000000 0.059479 0.000000 0.005386
# 5 0.031128 0.024803 -0.074493 0.000000 -0.054209 0.000000
# 6 0.000000 0.000000 0.000000 0.005386 0.000000 0.041379
#
#
# Mechanical properties :
#
#
# Convention : Reuss Voigt Hill
#
# Bulk Modulus (GPa) = 71.60017 47.24010 59.42013
# Shear Modulus (GPa) = -62.04432 9.51743 -26.26344
#
# Velocity S-wave (km/s) = -5.81026 2.27564 -3.78025
# Velocity P-wave (km/s) = 2.46040 5.71040 3.64384
#
# Compressibility (1/GPa) = 0.01396645
#
# Stress axis : x y z
#
# Youngs Moduli (GPa) = 639.50549 -46.33408 -25.67793
#
# Poissons Ratio (x) = 0.95149 0.06782
# Poissons Ratio (y) = -13.13250 0.34121
# Poissons Ratio (z) = -1.68899 0.61569
#
# Static dielectric constant tensor:
#      x y z
#    x 1.701670 0.000000 -0.013840 
#    y 0.000000 1.859780 0.000000 
#    z -0.013840 0.000000 1.612600 
# 
# From -- ./inp_files/324182.got.cif
#   From: 2010.05.17/outbox.ucp.g08.bks.cvg/sg12_163_cif.got.tgz:324182.got - 2010.06.11 11:47:21.
