data_PCOD9224721
_publ_section_title
;
Structure prediction by ZEFSAII (Michael W. Deem and Ramdas Pophale) SiO2 
 PCOD9224721
Probable space group: C 2/M
;
_chemical_formula_sum "Si O2"
_cell_formula_units_Z 32
_cell_length_a 18.000000
_cell_length_b 21.000000
_cell_length_c 18.000000
_cell_angle_alpha 90.000000
_cell_angle_beta 30.000000
_cell_angle_gamma 90.000000
_cell_volume 3402.000000
_symmetry_space_group_name_H-M "C 2/M"
_symmetry_group_IT_number 12
_symmetry_cell_setting 'monoclinic'
loop_
_space_group_symop_operation_xyz
x,y,z
-x,y,-z
-x,-y,-z
x,-y,z
1/2+x,1/2+y,z
1/2-x,1/2+y,-z
1/2-x,1/2-y,-z
1/2+x,1/2-y,z
loop_
_atom_site_type_symbol
_atom_site_label
_atom_site_fract_x
_atom_site_fract_y
_atom_site_fract_z
Si Si1 0.179004 0.116634 0.220625
Si Si2 0.939801 0.797590 0.128638
Si Si3 0.985278 0.284502 0.316833
Si Si4 0.165145 0.168511 0.630120
Si Si5 0.927241 0.327662 0.917406
Si Si6 0.367137 0.750103 0.669433
Si Si7 0.137015 0.070157 0.529858
Si Si8 0.343769 0.927314 0.216171
O O1 0.122044 0.176454 0.317865
O O2 0.290882 0.080263 0.177957
O O3 0.039467 0.074730 0.321246
O O4 0.264876 0.146276 0.076326
O O5 0.898920 0.842766 0.232716
O O6 0.787724 0.762975 0.235934
O O7 0.046048 0.741627 0.068575
O O8 0.000000 0.826368 0.000000
O O9 0.949209 0.215729 0.312518
O O10 0.828134 0.300227 0.491953
O O11 0.029741 0.325031 0.206224
O O12 0.108925 0.285588 0.272981
O O13 0.187482 0.112161 0.554113
O O14 0.036490 0.375630 0.864761
O O15 0.500000 0.767790 0.500000
O O16 0.205851 0.087435 0.390707
O O17 0.189702 0.000000 0.499319
O O18 0.392787 0.000000 0.186158
#
# Coordination Sequence:
#
# PCOD9224721 Si02
#       8
#     8   8   8   8   8   8   8   8
#     4  12  23  33  52  82 119 149 184 227 271 321
#     4  11  21  36  56  86 116 140 182 226 286 336
#     4  10  21  34  56  82 111 145 190 220 280 337
#     4  10  20  36  58  81 109 147 182 234 273 330
#     4  11  22  37  53  79 117 153 184 229 272 330
#     4  12  21  33  55  82 111 151 177 224 278 336
#     4  11  23  39  58  81 108 150 198 231 268 322
#     4  11  22  37  56  77 110 155 196 225 260 324
#
# _framework density 9.4062319999999993
#
# number of rings (size 3 to 8) (size 9 to 14) (size 15 to 20)
#    0.000    1.000    6.250    1.875    0.000    4.000 
#    0.000    0.000    0.000    0.375    0.000    2.625 
#    0.000    0.000    0.000    0.000    0.000    0.000 
#
# Total GULP energy -178462.023673 kJ/mol
# GULP energy per Si atom -5576.938240 kJ/mol
# Density = 0.938482 g / cm^3
# Si number density = 9.406232 Si / 1000 Ang^3
#
#
#
# Elastic Constant Matrix: (Units=GPa)
#
#
# Indices 1 2 3 4 5 6 
#
# 1 36.1398 23.0825 12.0985 0.0038 18.4825 -0.0061
# 2 23.0825 4.7809 0.2217 -0.0021 -5.0325 -0.0077
# 3 12.0985 0.2217 87.2346 0.0072 15.9119 -0.0127
# 4 0.0038 -0.0021 0.0072 33.4980 -0.0006 -23.2198
# 5 18.4825 -5.0325 15.9119 -0.0006 25.5600 -0.0047
# 6 -0.0061 -0.0077 -0.0127 -23.2198 -0.0047 38.4064
#
#
#
# Elastic Compliance Matrix: (Units=1/GPa)
#
#
# Indices 1 2 3 4 5 6 
#
# 1 -0.005788 0.042396 -0.001795 0.000017 0.013650 0.000019
# 2 0.042396 -0.036162 0.001244 -0.000020 -0.038551 -0.000017
# 3 -0.001795 0.001244 0.012892 0.000000 -0.006483 0.000003
# 4 0.000017 -0.000020 0.000000 0.051388 -0.000009 0.031068
# 5 0.013650 -0.038551 -0.006483 -0.000009 0.025699 -0.000010
# 6 0.000019 -0.000017 0.000003 0.031068 -0.000010 0.044821
#
#
# Mechanical properties :
#
#
# Convention : Reuss Voigt Hill
#
# Bulk Modulus (GPa) = 18.30444 22.10674 20.20559
# Shear Modulus (GPa) = 182.68796 25.67637 104.18217
#
# Velocity S-wave (km/s) = 9.86513 3.69841 7.44980
# Velocity P-wave (km/s) = 11.81153 5.47853 9.20670
#
# Compressibility (1/GPa) = 0.05463156
#
# Stress axis : x y z
#
# Youngs Moduli (GPa) = -172.77019 -27.65301 77.57009
#
# Poissons Ratio (x) = 1.17238 0.13922
# Poissons Ratio (y) = 7.32479 -0.09649
# Poissons Ratio (z) = -0.31009 0.03440
#
# Static dielectric constant tensor:
#      x y z
#    x 1.712480 0.000040 0.062640 
#    y 0.000040 1.608150 0.000050 
#    z 0.062640 0.000050 1.772180 
# 
# From -- ./inp_files/89573.got.cif
#   From: 2010.05.17/outbox.ucp.g08.bks.cvg/sg12_45_cif.got.tgz:89573.got - 2010.06.11 11:47:21.
