data_PCOD9224477
_publ_section_title
;
Structure prediction by ZEFSAII (Michael W. Deem and Ramdas Pophale) SiO2 
 PCOD9224477
Probable space group: C 2/M
;
_chemical_formula_sum "Si O2"
_cell_formula_units_Z 32
_cell_length_a 30.000000
_cell_length_b 9.000000
_cell_length_c 15.000000
_cell_angle_alpha 90.000000
_cell_angle_beta 60.000000
_cell_angle_gamma 90.000000
_cell_volume 3507.402885
_symmetry_space_group_name_H-M "C 2/M"
_symmetry_group_IT_number 12
_symmetry_cell_setting 'monoclinic'
loop_
_space_group_symop_operation_xyz
x,y,z
-x,y,-z
-x,-y,-z
x,-y,z
1/2+x,1/2+y,z
1/2-x,1/2+y,-z
1/2-x,1/2-y,-z
1/2+x,1/2-y,z
loop_
_atom_site_type_symbol
_atom_site_label
_atom_site_fract_x
_atom_site_fract_y
_atom_site_fract_z
Si Si1 0.664053 0.821911 0.835162
Si Si2 0.039506 0.176521 0.535431
Si Si3 0.301920 0.178097 0.909691
Si Si4 0.887640 0.679298 0.294772
Si Si5 0.100602 0.321330 0.070096
Si Si6 0.493588 0.324523 0.228577
Si Si7 0.356028 0.821023 0.522511
Si Si8 0.273585 0.177907 0.742719
O O1 0.645917 0.774748 0.755800
O O2 0.718030 0.749980 0.805226
O O3 0.670133 0.000000 0.830463
O O4 0.621069 0.784910 0.951141
O O5 0.093434 0.260528 0.479159
O O6 0.000000 0.227445 0.500000
O O7 0.014806 0.199923 0.657316
O O8 0.048484 0.000000 0.515493
O O9 0.353220 0.225700 0.909932
O O10 0.304502 0.211464 0.802249
O O11 0.297525 0.000000 0.925437
O O12 0.250000 0.250000 0.000000
O O13 0.891768 0.500000 0.290799
O O14 0.861729 0.726105 0.414034
O O15 0.944440 0.747068 0.232890
O O16 0.094709 0.500000 0.083169
O O17 0.047139 0.244696 0.145199
O O18 0.492625 0.500000 0.212639
O O19 0.305376 0.769893 0.624950
O O20 0.356677 0.000000 0.524194
O O21 0.267723 0.000000 0.743504
#
# Coordination Sequence:
#
# PCOD9224477 Si02
#       8
#     8   8   8   8   8   8   8   8
#     4  10  21  37  57  79 103 140 185 219 257 313
#     4   9  19  35  52  75 106 138 174 216 260 310
#     4  10  20  35  54  76 107 143 176 216 262 311
#     4   9  19  38  59  77 104 140 178 221 262 308
#     4  10  21  36  54  78 108 141 178 217 259 312
#     4  10  21  36  55  80 108 138 175 218 267 316
#     4   9  19  35  54  78 106 137 174 215 261 313
#     4  10  21  35  53  81 112 139 173 219 267 313
#
# _framework density 9.1235599999999994
#
# number of rings (size 3 to 8) (size 9 to 14) (size 15 to 20)
#    0.000    2.375    1.250    0.375    1.750    3.750 
#    0.000    2.500    0.000    0.000    0.000    0.000 
#    0.000    0.000    0.000    0.000    0.000    0.000 
#
# Total GULP energy -178515.553614 kJ/mol
# GULP energy per Si atom -5578.611050 kJ/mol
# Density = 0.910279 g / cm^3
# Si number density = 9.123560 Si / 1000 Ang^3
#
#
#
# Elastic Constant Matrix: (Units=GPa)
#
#
# Indices 1 2 3 4 5 6 
#
# 1 -2.2555 0.5268 11.7911 0.0000 19.9719 0.0000
# 2 0.5268 -2.1206 21.6203 0.0000 1.2939 0.0000
# 3 11.7911 21.6203 59.5042 0.0000 -14.1742 0.0000
# 4 0.0000 0.0000 0.0000 15.6011 0.0000 -1.3200
# 5 19.9719 1.2939 -14.1742 0.0000 29.3486 0.0000
# 6 0.0000 0.0000 0.0000 -1.3200 0.0000 22.7808
#
#
#
# Elastic Compliance Matrix: (Units=1/GPa)
#
#
# Indices 1 2 3 4 5 6 
#
# 1 -0.059088 0.048033 0.003763 0.000000 0.039909 0.000000
# 2 0.048033 -0.125440 0.033437 0.000000 -0.011007 0.000000
# 3 0.003763 0.033437 0.003333 0.000000 -0.002425 0.000000
# 4 0.000000 0.000000 0.000000 0.064414 0.000000 0.003732
# 5 0.039909 -0.011007 -0.002425 0.000000 0.006229 0.000000
# 6 0.000000 0.000000 0.000000 0.003732 0.000000 0.044113
#
#
# Mechanical properties :
#
#
# Convention : Reuss Voigt Hill
#
# Bulk Modulus (GPa) = -93.21377 13.66718 -39.77330
# Shear Modulus (GPa) = -20.79164 14.95877 -2.91643
#
# Velocity S-wave (km/s) = -3.37923 2.86630 -1.26561
# Velocity P-wave (km/s) = 8.14988 4.29657 4.89694
#
# Compressibility (1/GPa) = -0.01072803
#
# Stress axis : x y z
#
# Youngs Moduli (GPa) = -16.92401 -7.97194 300.02128
#
# Poissons Ratio (x) = 0.38292 -1.12887
# Poissons Ratio (y) = 0.81291 -10.03196
# Poissons Ratio (z) = 0.06368 0.26656
#
# Static dielectric constant tensor:
#      x y z
#    x 1.596470 0.000000 0.033730 
#    y 0.000000 1.608570 0.000000 
#    z 0.033730 0.000000 1.631320 
# 
# From -- ./inp_files/249096.got.cif
#   From: 2010.05.17/outbox.ucp.g08.bks.cvg/sg12_125_cif.got.tgz:249096.got - 2010.06.11 11:47:21.
