data_PCOD9224242
_publ_section_title
;
Structure prediction by ZEFSAII (Michael W. Deem and Ramdas Pophale) SiO2 
 PCOD9224242
Probable space group: C 2/M
;
_chemical_formula_sum "Si O2"
_cell_formula_units_Z 28
_cell_length_a 30.000000
_cell_length_b 9.000000
_cell_length_c 21.000000
_cell_angle_alpha 90.000000
_cell_angle_beta 150.000000
_cell_angle_gamma 90.000000
_cell_volume 2835.000000
_symmetry_space_group_name_H-M "C 2/M"
_symmetry_group_IT_number 12
_symmetry_cell_setting 'monoclinic'
loop_
_space_group_symop_operation_xyz
x,y,z
-x,y,-z
-x,-y,-z
x,-y,z
1/2+x,1/2+y,z
1/2-x,1/2+y,-z
1/2-x,1/2-y,-z
1/2+x,1/2-y,z
loop_
_atom_site_type_symbol
_atom_site_label
_atom_site_fract_x
_atom_site_fract_y
_atom_site_fract_z
Si Si1 0.986943 0.178380 0.199374
Si Si2 0.425703 0.676808 0.257011
Si Si3 0.364142 0.676610 0.931609
Si Si4 0.380973 0.322526 0.446029
Si Si5 0.812078 0.678160 0.741334
Si Si6 0.669353 0.823371 0.744342
Si Si7 0.658570 0.177969 0.365171
O O1 0.924085 0.220187 0.180905
O O2 0.080706 0.259765 0.313127
O O3 0.000565 0.000000 0.220960
O O4 0.940960 0.214284 0.075810
O O5 0.409903 0.500000 0.242648
O O6 0.527882 0.706643 0.404314
O O7 0.361755 0.758400 0.227087
O O8 0.364629 0.500000 0.920862
O O9 0.366977 0.758941 0.868323
O O10 0.271316 0.712776 0.852385
O O11 0.374298 0.500000 0.428328
O O12 0.291252 0.274715 0.372806
O O13 0.384300 0.245953 0.381293
O O14 0.812765 0.500000 0.743896
O O15 0.849518 0.723791 0.719204
O O16 0.658838 0.000000 0.731858
O O17 0.750000 0.250000 0.500000
O O18 0.661818 0.000000 0.372364
#
# Coordination Sequence:
#
# PCOD9224242 Si02
#       7
#     8   8   8   8   8   8   8
#     4  10  22  40  58  78 109 147 186 227 270 322
#     4  10  20  34  53  76 105 144 185 224 271 325
#     4   9  20  38  57  79 109 145 184 226 274 324
#     4   9  17  32  53  76 103 138 179 218 265 327
#     4   9  19  36  58  81 108 143 181 223 268 321
#     4  10  20  33  51  78 109 139 177 226 275 323
#     4  11  23  39  60  87 115 143 178 221 272 326
#
# _framework density 9.8765429999999999
#
# number of rings (size 3 to 8) (size 9 to 14) (size 15 to 20)
#    0.000    2.286    0.000    2.143    0.000    8.571 
#    0.000    5.714    0.000    0.000    0.000    0.000 
#    0.000    0.000    0.000    0.000    0.000    0.000 
#
# Total GULP energy -156292.960376 kJ/mol
# GULP energy per Si atom -5581.891442 kJ/mol
# Density = 0.985406 g / cm^3
# Si number density = 9.876543 Si / 1000 Ang^3
#
#
#
# Elastic Constant Matrix: (Units=GPa)
#
#
# Indices 1 2 3 4 5 6 
#
# 1 87.0790 8.5665 9.9649 0.0000 -23.0946 0.0000
# 2 8.5665 -8.6764 24.8358 0.0000 -9.1761 0.0000
# 3 9.9649 24.8358 31.4984 0.0000 -12.6422 0.0000
# 4 0.0000 0.0000 0.0000 17.7204 0.0000 -1.8912
# 5 -23.0946 -9.1761 -12.6422 0.0000 17.6347 0.0000
# 6 0.0000 0.0000 0.0000 -1.8912 0.0000 29.5499
#
#
#
# Elastic Compliance Matrix: (Units=1/GPa)
#
#
# Indices 1 2 3 4 5 6 
#
# 1 0.018173 0.001228 0.004340 0.000000 0.027550 0.000000
# 2 0.001228 -0.035242 0.029040 0.000000 0.004090 0.000000
# 3 0.004340 0.029040 0.022215 0.000000 0.036720 0.000000
# 4 0.000000 0.000000 0.000000 0.056820 0.000000 0.003636
# 5 0.027550 0.004090 0.036720 0.000000 0.121238 0.000000
# 6 0.000000 0.000000 0.000000 0.003636 0.000000 0.034074
#
#
# Mechanical properties :
#
#
# Convention : Reuss Voigt Hill
#
# Bulk Modulus (GPa) = 13.44761 21.84837 17.64799
# Shear Modulus (GPa) = 28.92684 17.41660 23.17172
#
# Velocity S-wave (km/s) = 3.83093 2.97259 3.42872
# Velocity P-wave (km/s) = 5.13718 4.78189 4.96272
#
# Compressibility (1/GPa) = 0.07436266
#
# Stress axis : x y z
#
# Youngs Moduli (GPa) = 55.02687 -28.37546 45.01414
#
# Poissons Ratio (x) = 0.03486 -0.19534
# Poissons Ratio (y) = -0.06759 -1.30722
# Poissons Ratio (z) = -0.23879 0.82403
#
# Static dielectric constant tensor:
#      x y z
#    x 1.670540 0.000000 -0.011120 
#    y 0.000000 1.662050 0.000000 
#    z -0.011120 0.000000 1.703660 
# 
# From -- ./inp_files/319683.got.cif
#   From: 2010.05.17/outbox.ucp.g08.bks.cvg/sg12_160_cif.got.tgz:319683.got - 2010.06.11 11:47:21.
