data_PCOD9224363
_publ_section_title
;
Structure prediction by ZEFSAII (Michael W. Deem and Ramdas Pophale) SiO2 
 PCOD9224363
Probable space group: C 2/M
;
_chemical_formula_sum "Si O2"
_cell_formula_units_Z 20
_cell_length_a 15.000000
_cell_length_b 27.000000
_cell_length_c 15.000000
_cell_angle_alpha 90.000000
_cell_angle_beta 20.000000
_cell_angle_gamma 90.000000
_cell_volume 2077.772371
_symmetry_space_group_name_H-M "C 2/M"
_symmetry_group_IT_number 12
_symmetry_cell_setting 'monoclinic'
loop_
_space_group_symop_operation_xyz
x,y,z
-x,y,-z
-x,-y,-z
x,-y,z
1/2+x,1/2+y,z
1/2-x,1/2+y,-z
1/2-x,1/2-y,-z
1/2+x,1/2-y,z
loop_
_atom_site_type_symbol
_atom_site_label
_atom_site_fract_x
_atom_site_fract_y
_atom_site_fract_z
Si Si1 0.204396 0.729012 0.237619
Si Si2 0.342273 0.701602 0.468296
Si Si3 0.029271 0.441235 0.181106
Si Si4 0.307280 0.842157 0.923909
Si Si5 0.962584 0.059029 0.633332
O O1 0.217296 0.692876 0.139805
O O2 0.000000 0.705833 0.500000
O O3 0.035513 0.777184 0.363329
O O4 0.500000 0.736940 0.000000
O O5 0.250000 0.750000 0.500000
O O6 0.059633 0.675622 0.746220
O O7 0.534947 0.666809 0.230478
O O8 0.072295 0.500000 0.161101
O O9 0.129687 0.399678 0.155544
O O10 0.726352 0.434628 0.441973
O O11 0.203570 0.427335 0.930369
O O12 0.000000 0.081750 0.500000
O O13 0.932647 0.000000 0.649503
#
# Coordination Sequence:
#
# PCOD9224363 Si02
#       5
#     8   8   8   8   8
#     4  11  21  36  58  82 108 138 177 224 274 326
#     4  10  20  37  57  78 106 140 174 218 273 327
#     4  10  20  34  54  78 107 147 187 218 255 313
#     4  11  21  37  58  80 110 146 181 218 268 323
#     4   9  17  31  50  71  99 136 178 222 263 301
#
# _framework density 9.6256930000000001
#
# number of rings (size 3 to 8) (size 9 to 14) (size 15 to 20)
#    0.000    1.800    0.000    7.800    0.000    2.400 
#    0.000   10.000    0.000    1.200    0.000    0.000 
#    0.000    0.000    0.000    0.000    0.000    0.000 
#
# Total GULP energy -111395.043722 kJ/mol
# GULP energy per Si atom -5569.752186 kJ/mol
# Density = 0.960378 g / cm^3
# Si number density = 9.625693 Si / 1000 Ang^3
#
#
#
# Elastic Constant Matrix: (Units=GPa)
#
#
# Indices 1 2 3 4 5 6 
#
# 1 69.9634 12.1610 19.3024 0.0198 -19.1947 0.0104
# 2 12.1610 76.3579 3.2776 -0.0682 -10.8389 -0.0164
# 3 19.3024 3.2776 124.1057 -0.2462 -21.1094 0.1194
# 4 0.0198 -0.0682 -0.2462 31.2972 0.0091 -6.3469
# 5 -19.1947 -10.8389 -21.1094 0.0091 31.7180 0.0111
# 6 0.0104 -0.0164 0.1194 -6.3469 0.0111 14.1989
#
#
#
# Elastic Compliance Matrix: (Units=1/GPa)
#
#
# Indices 1 2 3 4 5 6 
#
# 1 0.017394 -0.001400 -0.001082 -0.000031 0.009328 -0.000026
# 2 -0.001400 0.013903 0.000580 0.000040 0.004290 0.000027
# 3 -0.001082 0.000580 0.009171 0.000062 0.005647 -0.000052
# 4 -0.000031 0.000040 0.000062 0.035137 0.000021 0.015706
# 5 0.009328 0.004290 0.005647 0.000021 0.042398 -0.000073
# 6 -0.000026 0.000027 -0.000052 0.015706 -0.000073 0.077449
#
#
# Mechanical properties :
#
#
# Convention : Reuss Voigt Hill
#
# Bulk Modulus (GPa) = 27.27296 37.76767 32.52032
# Shear Modulus (GPa) = 23.64319 31.15523 27.39921
#
# Velocity S-wave (km/s) = 3.50827 4.02722 3.77667
# Velocity P-wave (km/s) = 5.53246 6.42537 5.99556
#
# Compressibility (1/GPa) = 0.03666636
#
# Stress axis : x y z
#
# Youngs Moduli (GPa) = 57.49067 71.92547 109.03525
#
# Poissons Ratio (x) = 0.10068 0.11795
# Poissons Ratio (y) = 0.08047 -0.06327
# Poissons Ratio (z) = 0.06219 -0.04174
#
# Static dielectric constant tensor:
#      x y z
#    x 1.725180 -0.000190 0.063180 
#    y -0.000190 1.757690 0.000080 
#    z 0.063180 0.000080 1.689660 
# 
# From -- ./inp_files/219019.got.cif
#   From: 2010.05.17/outbox.ucp.g08.bks.cvg/sg12_110_cif.got.tgz:219019.got - 2010.06.11 11:47:21.
