data_PCOD9224126
_publ_section_title
;
Structure prediction by ZEFSAII (Michael W. Deem and Ramdas Pophale) SiO2 
 PCOD9224126
Probable space group: C 2/M
;
_chemical_formula_sum "Si O2"
_cell_formula_units_Z 32
_cell_length_a 24.000000
_cell_length_b 9.000000
_cell_length_c 30.000000
_cell_angle_alpha 90.000000
_cell_angle_beta 150.000000
_cell_angle_gamma 90.000000
_cell_volume 3240.000000
_symmetry_space_group_name_H-M "C 2/M"
_symmetry_group_IT_number 12
_symmetry_cell_setting 'monoclinic'
loop_
_space_group_symop_operation_xyz
x,y,z
-x,y,-z
-x,-y,-z
x,-y,z
1/2+x,1/2+y,z
1/2-x,1/2+y,-z
1/2-x,1/2-y,-z
1/2+x,1/2-y,z
loop_
_atom_site_type_symbol
_atom_site_label
_atom_site_fract_x
_atom_site_fract_y
_atom_site_fract_z
Si Si1 0.905926 0.667396 0.397553
Si Si2 0.461368 0.330719 0.351257
Si Si3 0.248083 0.828140 0.172251
Si Si4 0.025719 0.319454 0.772415
Si Si5 0.472278 0.825893 0.128414
Si Si6 0.840708 0.166766 0.789601
Si Si7 0.216346 0.824307 0.055082
Si Si8 0.131894 0.675457 0.415703
O O1 0.912013 0.500000 0.380720
O O2 0.929335 0.798525 0.379650
O O3 0.775052 0.681809 0.317921
O O4 0.000000 0.671343 0.500000
O O5 0.490213 0.500000 0.362554
O O6 0.354201 0.277868 0.249256
O O7 0.561863 0.221805 0.410027
O O8 0.187795 0.819857 0.177827
O O9 0.177697 0.795447 0.079313
O O10 0.287705 0.000000 0.194215
O O11 0.022612 0.500000 0.767631
O O12 0.992141 0.270132 0.798313
O O13 0.154738 0.278006 0.856460
O O14 0.942422 0.265565 0.676915
O O15 0.569488 0.784836 0.162173
O O16 0.455507 0.000000 0.120058
O O17 0.358741 0.755501 0.032652
O O18 0.885210 0.000000 0.812858
O O19 0.210760 0.000000 0.042919
O O20 0.143287 0.500000 0.419950
O O21 0.250000 0.750000 0.500000
#
# Coordination Sequence:
#
# PCOD9224126 Si02
#       8
#     8   8   8   8   8   8   8   8
#     4   9  19  37  61  85 110 148 198 243 285 339
#     4  11  21  34  55  85 117 148 184 232 293 350
#     4   9  18  36  62  83 106 147 195 238 280 335
#     4   9  20  39  61  81 112 153 193 234 287 348
#     4  11  23  37  54  83 119 154 187 235 292 345
#     4   9  19  36  56  81 112 149 191 233 282 342
#     4  10  19  37  63  85 106 147 197 241 290 343
#     4  11  22  40  61  85 115 150 195 243 292 345
#
# _framework density 9.8765429999999999
#
# number of rings (size 3 to 8) (size 9 to 14) (size 15 to 20)
#    0.000    2.125    1.250    3.000    0.000    4.250 
#    0.000    8.125    0.000    0.000    0.000    0.000 
#    0.000    0.000    0.000    0.000    0.000    0.000 
#
# Total GULP energy -178327.480366 kJ/mol
# GULP energy per Si atom -5572.733761 kJ/mol
# Density = 0.985406 g / cm^3
# Si number density = 9.876543 Si / 1000 Ang^3
#
#
#
# Elastic Constant Matrix: (Units=GPa)
#
#
# Indices 1 2 3 4 5 6 
#
# 1 33.5916 24.5101 20.5621 0.0000 6.2179 0.0000
# 2 24.5101 40.7382 40.0322 0.0000 -0.7454 0.0004
# 3 20.5621 40.0322 73.1781 0.0000 11.3765 0.0000
# 4 0.0000 0.0000 0.0000 29.0604 0.0000 2.9576
# 5 6.2179 -0.7454 11.3765 0.0000 10.1541 0.0000
# 6 0.0000 0.0004 0.0000 2.9576 0.0000 12.9721
#
#
#
# Elastic Compliance Matrix: (Units=1/GPa)
#
#
# Indices 1 2 3 4 5 6 
#
# 1 0.130583 -0.157863 0.077377 -0.000001 -0.178244 0.000004
# 2 -0.157863 0.267489 -0.145375 0.000001 0.279179 -0.000008
# 3 0.077377 -0.145375 0.097450 0.000000 -0.167235 0.000004
# 4 -0.000001 0.000001 0.000000 0.035228 0.000001 -0.008032
# 5 -0.178244 0.279179 -0.167235 0.000001 0.415491 -0.000008
# 6 0.000004 -0.000008 0.000004 -0.008032 -0.000008 0.078920
#
#
# Mechanical properties :
#
#
# Convention : Reuss Voigt Hill
#
# Bulk Modulus (GPa) = 22.83071 35.30187 29.06629
# Shear Modulus (GPa) = 3.35237 14.59757 8.97497
#
# Velocity S-wave (km/s) = 1.30416 2.72141 2.13388
# Velocity P-wave (km/s) = 3.72168 5.27116 4.56268
#
# Compressibility (1/GPa) = 0.04380066
#
# Stress axis : x y z
#
# Youngs Moduli (GPa) = 7.65797 3.73847 10.26169
#
# Poissons Ratio (x) = 0.59017 -0.79402
# Poissons Ratio (y) = 1.20891 1.49179
# Poissons Ratio (z) = -0.59255 0.54348
#
# Static dielectric constant tensor:
#      x y z
#    x 1.778850 0.000000 0.003740 
#    y 0.000000 1.682190 0.000000 
#    z 0.003740 0.000000 1.698660 
# 
# From -- ./inp_files/382472.got.cif
#   From: 2010.05.17/outbox.ucp.g08.bks.cvg/sg12_192_cif.got.tgz:382472.got - 2010.06.11 11:47:21.
