data_PCOD9224896
_publ_section_title
;
Structure prediction by ZEFSAII (Michael W. Deem and Ramdas Pophale) SiO2 
 PCOD9224896
Probable space group: C 2/M
;
_chemical_formula_sum "Si O2"
_cell_formula_units_Z 24
_cell_length_a 27.000000
_cell_length_b 9.000000
_cell_length_c 15.000000
_cell_angle_alpha 90.000000
_cell_angle_beta 40.000000
_cell_angle_gamma 90.000000
_cell_volume 2342.960837
_symmetry_space_group_name_H-M "C 2/M"
_symmetry_group_IT_number 12
_symmetry_cell_setting 'monoclinic'
loop_
_space_group_symop_operation_xyz
x,y,z
-x,y,-z
-x,-y,-z
x,-y,z
1/2+x,1/2+y,z
1/2-x,1/2+y,-z
1/2-x,1/2-y,-z
1/2+x,1/2-y,z
loop_
_atom_site_type_symbol
_atom_site_label
_atom_site_fract_x
_atom_site_fract_y
_atom_site_fract_z
Si Si1 0.177660 0.674025 0.388687
Si Si2 0.933975 0.676861 0.814216
Si Si3 0.408246 0.326436 0.341122
Si Si4 0.320406 0.165974 0.127685
Si Si5 0.087211 0.332391 0.349696
Si Si6 0.409190 0.665595 0.134486
O O1 0.161108 0.500000 0.421199
O O2 0.156096 0.753252 0.508970
O O3 0.261682 0.709599 0.239008
O O4 0.127571 0.741666 0.377256
O O5 0.950914 0.500000 0.780859
O O6 0.913024 0.739549 0.746269
O O7 0.009775 0.751281 0.749768
O O8 0.860573 0.692195 0.978404
O O9 0.415101 0.500000 0.351582
O O10 0.387986 0.310532 0.265949
O O11 0.386384 0.192646 0.108673
O O12 0.288044 0.000000 0.176012
O O13 0.121216 0.500000 0.293271
O O14 0.000000 0.347770 0.500000
O O15 0.380188 0.500000 0.146993
O O16 0.500000 0.654619 0.000000
#
# Coordination Sequence:
#
# PCOD9224896 Si02
#       6
#     8   8   8   8   8   8
#     4  11  23  40  62  85 119 161 197 239 294 352
#     4  10  20  37  61  88 118 155 197 238 288 349
#     4  11  22  37  61  90 119 150 194 247 292 344
#     4  11  24  39  59  89 124 154 193 248 295 343
#     4   9  17  34  61  88 114 152 200 238 282 351
#     4  10  21  39  62  87 117 155 197 239 290 354
#
# _framework density 10.243449
#
# number of rings (size 3 to 8) (size 9 to 14) (size 15 to 20)
#    0.000    1.667    3.333    1.500    0.000    3.667 
#    0.000    2.500    0.000    0.000    0.000    0.000 
#    0.000    0.000    0.000    0.000    0.000    0.000 
#
# Total GULP energy -133644.779551 kJ/mol
# GULP energy per Si atom -5568.532481 kJ/mol
# Density = 1.022013 g / cm^3
# Si number density = 10.243449 Si / 1000 Ang^3
#
#
#
# Elastic Constant Matrix: (Units=GPa)
#
#
# Indices 1 2 3 4 5 6 
#
# 1 19.9309 18.4181 32.5013 0.0001 13.4668 -0.0001
# 2 18.4181 23.2985 41.7883 0.0005 27.6055 -0.0001
# 3 32.5013 41.7883 70.1944 0.0000 19.8166 0.0000
# 4 0.0001 0.0005 0.0000 29.2742 0.0000 2.5452
# 5 13.4668 27.6055 19.8166 0.0000 21.8990 0.0000
# 6 -0.0001 -0.0001 0.0000 2.5452 0.0000 19.1429
#
#
#
# Elastic Compliance Matrix: (Units=1/GPa)
#
#
# Indices 1 2 3 4 5 6 
#
# 1 0.189181 -0.056973 -0.055215 0.000000 0.005446 0.000001
# 2 -0.056973 -0.041992 0.035651 0.000001 0.055709 -0.000001
# 3 -0.055215 0.035651 0.029131 0.000000 -0.037348 0.000000
# 4 0.000000 0.000001 0.000000 0.034559 -0.000001 -0.004595
# 5 0.005446 0.055709 -0.037348 -0.000001 0.005885 0.000001
# 6 0.000001 -0.000001 0.000000 -0.004595 0.000001 0.052850
#
#
# Mechanical properties :
#
#
# Convention : Reuss Voigt Hill
#
# Bulk Modulus (GPa) = 43.01610 33.20433 38.11021
# Shear Modulus (GPa) = 11.61614 15.44427 13.53021
#
# Velocity S-wave (km/s) = 2.38377 2.74863 2.57268
# Velocity P-wave (km/s) = 5.34967 5.12992 5.24094
#
# Compressibility (1/GPa) = 0.02324711
#
# Stress axis : x y z
#
# Youngs Moduli (GPa) = 5.28596 -23.81389 34.32717
#
# Poissons Ratio (x) = -1.35675 1.89536
# Poissons Ratio (y) = 0.30116 -1.22380
# Poissons Ratio (z) = 0.29186 0.84899
#
# Static dielectric constant tensor:
#      x y z
#    x 1.859020 0.000000 -0.038110 
#    y 0.000000 1.716810 0.000000 
#    z -0.038110 0.000000 1.725500 
# 
# From -- ./inp_files/230355.got.cif
#   From: 2010.05.17/outbox.ucp.g08.bks.cvg/sg12_116_cif.got.tgz:230355.got - 2010.06.11 11:47:21.
