data_PCOD9224885
_publ_section_title
;
Structure prediction by ZEFSAII (Michael W. Deem and Ramdas Pophale) SiO2 
 PCOD9224885
Probable space group: C 2/M
;
_chemical_formula_sum "Si O2"
_cell_formula_units_Z 28
_cell_length_a 18.000000
_cell_length_b 9.000000
_cell_length_c 18.000000
_cell_angle_alpha 90.000000
_cell_angle_beta 70.000000
_cell_angle_gamma 90.000000
_cell_volume 2740.143682
_symmetry_space_group_name_H-M "C 2/M"
_symmetry_group_IT_number 12
_symmetry_cell_setting 'monoclinic'
loop_
_space_group_symop_operation_xyz
x,y,z
-x,y,-z
-x,-y,-z
x,-y,z
1/2+x,1/2+y,z
1/2-x,1/2+y,-z
1/2-x,1/2-y,-z
1/2+x,1/2-y,z
loop_
_atom_site_type_symbol
_atom_site_label
_atom_site_fract_x
_atom_site_fract_y
_atom_site_fract_z
Si Si1 0.682853 0.826530 0.570832
Si Si2 0.873322 0.666305 0.865325
Si Si3 0.764210 0.321342 0.287936
Si Si4 0.035087 0.835498 0.569956
Si Si5 0.602269 0.166607 0.317791
Si Si6 0.788115 0.324204 0.109859
Si Si7 0.575544 0.667467 0.025898
O O1 0.750000 0.750000 0.500000
O O2 0.683799 0.784340 0.657842
O O3 0.601761 0.783653 0.560510
O O4 0.697076 0.000000 0.563569
O O5 0.865724 0.500000 0.897680
O O6 0.891416 0.657296 0.772663
O O7 0.790587 0.751350 0.896072
O O8 0.937121 0.755703 0.890687
O O9 0.748244 0.500000 0.294128
O O10 0.683813 0.228262 0.322685
O O11 0.796620 0.285279 0.194724
O O12 0.000000 0.832154 0.500000
O O13 0.962646 0.789532 0.645139
O O14 0.066648 0.000000 0.574608
O O15 0.584112 0.000000 0.352582
O O16 0.781817 0.500000 0.107398
O O17 0.860035 0.263025 0.038773
O O18 0.604312 0.500000 0.027082
O O19 0.500000 0.664742 0.000000
#
# Coordination Sequence:
#
# PCOD9224885 Si02
#       7
#     8   8   8   8   8   8   8
#     4  11  23  39  59  85 116 149 189 233 279 333
#     4  10  21  38  60  85 113 146 186 229 276 334
#     4   9  20  38  59  84 114 147 183 227 279 335
#     4  11  24  40  58  82 114 152 191 231 278 332
#     4  10  21  37  60  88 114 144 185 232 278 329
#     4  10  20  37  61  84 110 147 187 228 277 332
#     4  11  24  39  55  80 114 149 187 233 281 329
#
# _framework density 10.218442
#
# number of rings (size 3 to 8) (size 9 to 14) (size 15 to 20)
#    0.000    1.714    0.000    3.857    0.000   10.286 
#    0.000    4.286    0.000    0.000    0.000    0.000 
#    0.000    0.000    0.000    0.000    0.000    0.000 
#
# Total GULP energy -156208.997183 kJ/mol
# GULP energy per Si atom -5578.892757 kJ/mol
# Density = 1.019518 g / cm^3
# Si number density = 10.218442 Si / 1000 Ang^3
#
#
#
# Elastic Constant Matrix: (Units=GPa)
#
#
# Indices 1 2 3 4 5 6 
#
# 1 37.0793 25.5576 26.6605 0.0000 17.4211 0.0000
# 2 25.5576 61.0245 30.8883 0.0000 16.6395 0.0000
# 3 26.6605 30.8883 34.7678 0.0000 6.3376 0.0000
# 4 0.0000 0.0000 0.0000 40.1996 0.0000 -3.8503
# 5 17.4211 16.6395 6.3376 0.0000 20.4568 0.0000
# 6 0.0000 0.0000 0.0000 -3.8503 0.0000 31.5867
#
#
#
# Elastic Compliance Matrix: (Units=1/GPa)
#
#
# Indices 1 2 3 4 5 6 
#
# 1 0.134503 0.026073 -0.107636 0.000000 -0.102406 0.000000
# 2 0.026073 0.041679 -0.049595 0.000000 -0.040741 0.000000
# 3 -0.107636 -0.049595 0.139157 0.000000 0.088893 0.000000
# 4 0.000000 0.000000 0.000000 0.025170 0.000000 0.003068
# 5 -0.102406 -0.040741 0.088893 0.000000 0.141692 0.000000
# 6 0.000000 0.000000 0.000000 0.003068 0.000000 0.032033
#
#
# Mechanical properties :
#
#
# Convention : Reuss Voigt Hill
#
# Bulk Modulus (GPa) = 18.85988 33.23161 26.04574
# Shear Modulus (GPa) = 6.29544 21.76630 14.03087
#
# Velocity S-wave (km/s) = 1.75702 3.26705 2.62305
# Velocity P-wave (km/s) = 3.65575 5.52516 4.68465
#
# Compressibility (1/GPa) = 0.05302262
#
# Stress axis : x y z
#
# Youngs Moduli (GPa) = 7.43475 23.99266 7.18614
#
# Poissons Ratio (x) = -0.62556 0.77349
# Poissons Ratio (y) = -0.19385 0.35640
# Poissons Ratio (z) = 0.80025 1.18992
#
# Static dielectric constant tensor:
#      x y z
#    x 1.896020 0.000000 -0.015260 
#    y 0.000000 1.722220 0.000000 
#    z -0.015260 0.000000 1.767300 
# 
# From -- ./inp_files/275167.got.cif
#   From: 2010.05.17/outbox.ucp.g08.bks.cvg/sg12_138_cif.got.tgz:275167.got - 2010.06.11 11:47:21.
