data_PCOD9224118
_publ_section_title
;
Structure prediction by ZEFSAII (Michael W. Deem and Ramdas Pophale) SiO2 
 PCOD9224118
Probable space group: C 2/M
;
_chemical_formula_sum "Si O2"
_cell_formula_units_Z 20
_cell_length_a 18.000000
_cell_length_b 15.000000
_cell_length_c 21.000000
_cell_angle_alpha 90.000000
_cell_angle_beta 20.000000
_cell_angle_gamma 90.000000
_cell_volume 1939.254213
_symmetry_space_group_name_H-M "C 2/M"
_symmetry_group_IT_number 12
_symmetry_cell_setting 'monoclinic'
loop_
_space_group_symop_operation_xyz
x,y,z
-x,y,-z
-x,-y,-z
x,-y,z
1/2+x,1/2+y,z
1/2-x,1/2+y,-z
1/2-x,1/2-y,-z
1/2+x,1/2-y,z
loop_
_atom_site_type_symbol
_atom_site_label
_atom_site_fract_x
_atom_site_fract_y
_atom_site_fract_z
Si Si1 0.561818 0.254623 0.013582
Si Si2 0.255572 0.900822 0.296556
Si Si3 0.972996 0.173979 0.739660
Si Si4 0.623906 0.134196 0.656480
Si Si5 0.850256 0.904473 0.965398
O O1 0.394365 0.173862 0.150693
O O2 0.536168 0.322795 0.091795
O O3 0.500000 0.306448 0.000000
O O4 0.802638 0.213908 0.826585
O O5 0.330400 0.896964 0.309461
O O6 0.000000 0.881942 0.500000
O O7 0.292283 0.000000 0.240990
O O8 0.844201 0.118630 0.895770
O O9 0.162824 0.117015 0.556099
O O10 0.081981 0.259328 0.686285
O O11 0.399689 0.095311 0.811377
O O12 0.952640 0.000000 0.893983
#
# Coordination Sequence:
#
# PCOD9224118 Si02
#       5
#     8   8   8   8   8
#     4  11  22  40  60  87 123 160 199 245 297 356
#     4  11  22  36  57  87 121 154 191 245 307 356
#     4  10  20  37  64  89 113 159 203 240 299 349
#     4  10  19  37  61  88 118 153 198 249 293 350
#     4  11  22  39  63  89 122 159 200 248 294 350
#
# _framework density 10.313243
#
# number of rings (size 3 to 8) (size 9 to 14) (size 15 to 20)
#    0.000    1.400    4.000    3.000    0.000    2.400 
#    0.000    0.000    0.000    0.600    0.000    0.000 
#    0.000    0.000    0.000    0.000    0.000    0.000 
#
# Total GULP energy -111479.805106 kJ/mol
# GULP energy per Si atom -5573.990255 kJ/mol
# Density = 1.028977 g / cm^3
# Si number density = 10.313243 Si / 1000 Ang^3
#
#
#
# Elastic Constant Matrix: (Units=GPa)
#
#
# Indices 1 2 3 4 5 6 
#
# 1 79.1812 9.1242 27.8820 0.0005 -6.0929 0.0131
# 2 9.1242 53.2661 47.4367 -0.0630 -2.8370 0.0824
# 3 27.8820 47.4367 64.3218 -0.0824 -3.4170 0.0894
# 4 0.0005 -0.0630 -0.0824 -36.5307 0.0084 40.7767
# 5 -6.0929 -2.8370 -3.4170 0.0084 21.1155 -0.0174
# 6 0.0131 0.0824 0.0894 40.7767 -0.0174 -98.2685
#
#
#
# Elastic Compliance Matrix: (Units=1/GPa)
#
#
# Indices 1 2 3 4 5 6 
#
# 1 0.016997 0.010702 -0.015053 0.000024 0.003907 0.000007
# 2 0.010702 0.061452 -0.049785 0.000028 0.003288 0.000019
# 3 -0.015053 -0.049785 0.058706 -0.000067 -0.001533 -0.000018
# 4 0.000024 0.000028 -0.000067 -0.050993 0.000003 -0.021160
# 5 0.003907 0.003288 -0.001533 0.000003 0.048680 -0.000006
# 6 0.000007 0.000019 -0.000018 -0.021160 -0.000006 -0.018957
#
#
# Mechanical properties :
#
#
# Convention : Reuss Voigt Hill
#
# Bulk Modulus (GPa) = 34.62083 40.62831 37.62457
# Shear Modulus (GPa) = 21.38717 -15.24832 3.06942
#
# Velocity S-wave (km/s) = 3.22355 -2.72188 1.22120
# Velocity P-wave (km/s) = 5.53861 3.14034 4.50210
#
# Compressibility (1/GPa) = 0.02888435
#
# Stress axis : x y z
#
# Youngs Moduli (GPa) = 58.83282 16.27286 17.03389
#
# Poissons Ratio (x) = -0.17416 0.25642
# Poissons Ratio (y) = -0.62966 0.84803
# Poissons Ratio (z) = 0.88563 0.81014
#
# Static dielectric constant tensor:
#      x y z
#    x 1.731000 -0.000010 0.058150 
#    y -0.000010 1.762010 0.000010 
#    z 0.058150 0.000010 1.775920 
# 
# From -- ./inp_files/96637.got.cif
#   From: 2010.05.17/outbox.ucp.g08.bks.cvg/sg12_49_cif.got.tgz:96637.got - 2010.06.11 11:47:21.
