data_PCOD9224889
_publ_section_title
;
Structure prediction by ZEFSAII (Michael W. Deem and Ramdas Pophale) SiO2 
 PCOD9224889
Probable space group: C 2/M
;
_chemical_formula_sum "Si O2"
_cell_formula_units_Z 28
_cell_length_a 15.000000
_cell_length_b 30.000000
_cell_length_c 12.000000
_cell_angle_alpha 90.000000
_cell_angle_beta 30.000000
_cell_angle_gamma 90.000000
_cell_volume 2700.000000
_symmetry_space_group_name_H-M "C 2/M"
_symmetry_group_IT_number 12
_symmetry_cell_setting 'monoclinic'
loop_
_space_group_symop_operation_xyz
x,y,z
-x,y,-z
-x,-y,-z
x,-y,z
1/2+x,1/2+y,z
1/2-x,1/2+y,-z
1/2-x,1/2-y,-z
1/2+x,1/2-y,z
loop_
_atom_site_type_symbol
_atom_site_label
_atom_site_fract_x
_atom_site_fract_y
_atom_site_fract_z
Si Si1 0.737081 0.904768 0.974856
Si Si2 0.084240 0.948118 0.677161
Si Si3 0.776811 0.823005 0.353361
Si Si4 0.105223 0.419630 0.502854
Si Si5 0.340535 0.716991 0.052511
Si Si6 0.292980 0.053542 0.225596
Si Si7 0.077621 0.307799 0.141076
O O1 0.782921 0.928525 0.808412
O O2 0.907600 0.916734 0.869178
O O3 0.556649 0.921738 0.231903
O O4 0.679297 0.854188 0.006905
O O5 0.225416 0.946041 0.627450
O O6 0.195105 0.933631 0.446225
O O7 0.027909 0.000000 0.726261
O O8 0.699751 0.870761 0.394340
O O9 0.632845 0.812139 0.604571
O O10 0.985925 0.815206 0.159682
O O11 0.771685 0.791734 0.250787
O O12 0.000000 0.429746 0.500000
O O13 0.396466 0.768049 0.973790
O O14 0.179211 0.707109 0.143724
O O15 0.287494 0.000000 0.228280
O O16 0.500000 0.067816 0.000000
#
# Coordination Sequence:
#
# PCOD9224889 Si02
#       7
#     8   8   8   8   8   8   8
#     4  11  22  40  64  95 130 168 211 264 320 382
#     4  11  24  42  67  97 128 168 215 264 323 388
#     4  10  20  38  60  85 117 163 208 252 309 375
#     4  11  24  41  64  91 127 173 220 268 317 377
#     4  10  20  37  61  85 117 162 206 251 307 373
#     4  10  20  40  67  93 125 166 207 256 324 393
#     4  10  21  37  57  88 124 156 203 255 310 366
#
# _framework density 10.370369999999999
#
# number of rings (size 3 to 8) (size 9 to 14) (size 15 to 20)
#    0.000    1.571    1.429    4.286    0.000    3.714 
#    2.571    7.857    0.000    0.000    0.000    0.000 
#    0.000    0.000    0.000    0.000    0.000    0.000 
#
# Total GULP energy -156146.303917 kJ/mol
# GULP energy per Si atom -5576.653711 kJ/mol
# Density = 1.034677 g / cm^3
# Si number density = 10.370370 Si / 1000 Ang^3
#
#
#
# Elastic Constant Matrix: (Units=GPa)
#
#
# Indices 1 2 3 4 5 6 
#
# 1 81.0522 12.2272 7.2990 0.0002 -14.1160 -0.0001
# 2 12.2272 63.1361 30.5756 -0.0001 -5.1296 0.0001
# 3 7.2990 30.5756 81.2059 0.0003 -20.2869 -0.0001
# 4 0.0002 -0.0001 0.0003 22.0369 -0.0002 -2.6545
# 5 -14.1160 -5.1296 -20.2869 -0.0002 37.4835 0.0000
# 6 -0.0001 0.0001 -0.0001 -2.6545 0.0000 31.1055
#
#
#
# Elastic Compliance Matrix: (Units=1/GPa)
#
#
# Indices 1 2 3 4 5 6 
#
# 1 0.013583 -0.002755 0.001156 0.000000 0.005364 0.000000
# 2 -0.002755 0.020003 -0.007932 0.000000 -0.002593 0.000000
# 3 0.001156 -0.007932 0.017385 0.000000 0.008759 0.000000
# 4 0.000000 0.000000 0.000000 0.045850 0.000000 0.003913
# 5 0.005364 -0.002593 0.008759 0.000000 0.033084 0.000000
# 6 0.000000 0.000000 0.000000 0.003913 0.000000 0.032483
#
#
# Mechanical properties :
#
#
# Convention : Reuss Voigt Hill
#
# Bulk Modulus (GPa) = 31.33680 36.17753 33.75716
# Shear Modulus (GPa) = 26.03015 29.81133 27.92074
#
# Velocity S-wave (km/s) = 3.54648 3.79533 3.67301
# Velocity P-wave (km/s) = 5.64904 6.05695 5.85655
#
# Compressibility (1/GPa) = 0.03191136
#
# Stress axis : x y z
#
# Youngs Moduli (GPa) = 73.61921 49.99310 57.52066
#
# Poissons Ratio (x) = 0.13772 -0.06652
# Poissons Ratio (y) = 0.20281 0.45623
# Poissons Ratio (z) = -0.08514 0.39652
#
# Static dielectric constant tensor:
#      x y z
#    x 1.780920 0.000000 -0.012300 
#    y 0.000000 1.776410 0.000000 
#    z -0.012300 0.000000 1.717880 
# 
# From -- ./inp_files/150417.got.cif
#   From: 2010.05.17/outbox.ucp.g08.bks.cvg/sg12_76_cif.got.tgz:150417.got - 2010.06.11 11:47:21.
