data_PCOD9224159
_publ_section_title
;
Structure prediction by ZEFSAII (Michael W. Deem and Ramdas Pophale) SiO2 
 PCOD9224159
Probable space group: C 2/M
;
_chemical_formula_sum "Si O2"
_cell_formula_units_Z 32
_cell_length_a 21.000000
_cell_length_b 18.000000
_cell_length_c 24.000000
_cell_angle_alpha 90.000000
_cell_angle_beta 160.000000
_cell_angle_gamma 90.000000
_cell_volume 3102.806740
_symmetry_space_group_name_H-M "C 2/M"
_symmetry_group_IT_number 12
_symmetry_cell_setting 'monoclinic'
loop_
_space_group_symop_operation_xyz
x,y,z
-x,y,-z
-x,-y,-z
x,-y,z
1/2+x,1/2+y,z
1/2-x,1/2+y,-z
1/2-x,1/2-y,-z
1/2+x,1/2-y,z
loop_
_atom_site_type_symbol
_atom_site_label
_atom_site_fract_x
_atom_site_fract_y
_atom_site_fract_z
Si Si1 0.610408 0.355329 0.860306
Si Si2 0.524624 0.182369 0.776046
Si Si3 0.652115 0.087374 0.271230
Si Si4 0.900356 0.085880 0.977395
Si Si5 0.965812 0.832700 0.406543
Si Si6 0.307391 0.414556 0.685946
Si Si7 0.512811 0.825564 0.638754
Si Si8 0.192969 0.410459 0.092010
O O1 0.537909 0.270935 0.795027
O O2 0.447030 0.406832 0.748435
O O3 0.690960 0.383484 0.867448
O O4 0.769842 0.350309 0.039636
O O5 0.410676 0.141446 0.730459
O O6 0.449326 0.170766 0.651619
O O7 0.872905 0.104140 0.454862
O O8 0.617742 0.000000 0.254078
O O9 0.521541 0.104961 0.108590
O O10 0.720206 0.138323 0.817707
O O11 0.845017 0.000000 0.948074
O O12 0.000000 0.081702 0.000000
O O13 0.060433 0.111820 0.153489
O O14 0.989891 0.758505 0.387983
O O15 0.788201 0.871506 0.225754
O O16 0.000000 0.803720 0.500000
O O17 0.259014 0.500000 0.657787
O O18 0.122124 0.371042 0.514133
O O19 0.203928 0.500000 0.108498
#
# Coordination Sequence:
#
# PCOD9224159 Si02
#       8
#     8   8   8   8   8   8   8   8
#     4  10  19  39  64  97 134 169 210 266 330 400
#     4  10  21  39  67  96 135 169 209 267 332 394
#     4  10  24  44  68 100 134 172 217 273 335 398
#     4  10  24  46  67  91 130 176 219 268 320 383
#     4  12  28  45  65  96 131 175 227 278 329 390
#     4  11  24  39  65  98 129 170 216 265 324 394
#     4  12  25  43  65  99 132 173 217 267 328 393
#     4  10  22  43  69  95 130 175 220 273 335 393
#
# _framework density 10.313243
#
# number of rings (size 3 to 8) (size 9 to 14) (size 15 to 20)
#    0.000    1.375    2.500    1.875    3.500    5.000 
#    0.000    3.125    0.000    0.000    0.000    0.000 
#    0.000    0.000    0.000    0.000    0.000    0.000 
#
# Total GULP energy -178168.393046 kJ/mol
# GULP energy per Si atom -5567.762283 kJ/mol
# Density = 1.028977 g / cm^3
# Si number density = 10.313243 Si / 1000 Ang^3
#
#
#
# Elastic Constant Matrix: (Units=GPa)
#
#
# Indices 1 2 3 4 5 6 
#
# 1 88.4891 10.9328 41.3420 0.0015 -31.8382 0.0019
# 2 10.9328 81.4421 44.2771 0.0216 -10.6626 -0.0028
# 3 41.3420 44.2771 142.4153 0.0378 -49.4618 -0.0104
# 4 0.0015 0.0216 0.0378 39.2029 0.0034 -8.3820
# 5 -31.8382 -10.6626 -49.4618 0.0034 39.1079 0.0015
# 6 0.0019 -0.0028 -0.0104 -8.3820 0.0015 21.1399
#
#
#
# Elastic Compliance Matrix: (Units=1/GPa)
#
#
# Indices 1 2 3 4 5 6 
#
# 1 0.015999 -0.000441 -0.000045 -0.000002 0.012847 -0.000003
# 2 -0.000441 0.015013 -0.005783 -0.000003 -0.003580 -0.000002
# 3 -0.000045 -0.005783 0.014752 -0.000012 0.017045 0.000000
# 4 -0.000002 -0.000003 -0.000012 0.027871 -0.000021 0.011051
# 5 0.012847 -0.003580 0.017045 -0.000021 0.056611 -0.000006
# 6 -0.000003 -0.000002 0.000000 0.011051 -0.000006 0.051686
#
#
# Mechanical properties :
#
#
# Convention : Reuss Voigt Hill
#
# Bulk Modulus (GPa) = 30.09656 56.16115 43.12885
# Shear Modulus (GPa) = 24.32547 34.27646 29.30097
#
# Velocity S-wave (km/s) = 3.43787 4.08090 3.77311
# Velocity P-wave (km/s) = 5.51194 7.03504 6.31954
#
# Compressibility (1/GPa) = 0.03322639
#
# Stress axis : x y z
#
# Youngs Moduli (GPa) = 62.50415 66.60851 67.78513
#
# Poissons Ratio (x) = 0.02938 0.00306
# Poissons Ratio (y) = 0.02757 0.39199
# Poissons Ratio (z) = 0.00283 0.38518
#
# Static dielectric constant tensor:
#      x y z
#    x 1.800420 -0.000010 0.055010 
#    y -0.000010 1.718670 -0.000010 
#    z 0.055010 -0.000010 1.776870 
# 
# From -- ./inp_files/347918.got.cif
#   From: 2010.05.17/outbox.ucp.g08.bks.cvg/sg12_174_cif.got.tgz:347918.got - 2010.06.11 11:47:21.
