data_PCOD9224291
_publ_section_title
;
Structure prediction by ZEFSAII (Michael W. Deem and Ramdas Pophale) SiO2 
 PCOD9224291
Probable space group: C 2/M
;
_chemical_formula_sum "Si O2"
_cell_formula_units_Z 28
_cell_length_a 15.000000
_cell_length_b 21.000000
_cell_length_c 18.000000
_cell_angle_alpha 90.000000
_cell_angle_beta 150.000000
_cell_angle_gamma 90.000000
_cell_volume 2835.000000
_symmetry_space_group_name_H-M "C 2/M"
_symmetry_group_IT_number 12
_symmetry_cell_setting 'monoclinic'
loop_
_space_group_symop_operation_xyz
x,y,z
-x,y,-z
-x,-y,-z
x,-y,z
1/2+x,1/2+y,z
1/2-x,1/2+y,-z
1/2-x,1/2-y,-z
1/2+x,1/2-y,z
loop_
_atom_site_type_symbol
_atom_site_label
_atom_site_fract_x
_atom_site_fract_y
_atom_site_fract_z
Si Si1 0.969818 0.793167 0.828371
Si Si2 0.709680 0.362537 0.794650
Si Si3 0.665220 0.159875 0.946989
Si Si4 0.382207 0.072511 0.788618
Si Si5 0.380026 0.230209 0.339398
Si Si6 0.855950 0.070525 0.515975
Si Si7 0.291288 0.818248 0.493625
O O1 0.824788 0.786798 0.789594
O O2 0.847111 0.822545 0.674872
O O3 0.041767 0.723168 0.855669
O O4 0.156475 0.830686 0.973261
O O5 0.858625 0.383064 0.842933
O O6 0.623625 0.297511 0.703703
O O7 0.562127 0.417369 0.681602
O O8 0.764511 0.348809 0.917972
O O9 0.536444 0.099624 0.846374
O O10 0.199868 0.075759 0.610204
O O11 0.418933 0.000000 0.836566
O O12 0.500000 0.238731 0.500000
O O13 0.501585 0.181957 0.380517
O O14 0.751918 0.125241 0.483087
O O15 0.803401 0.000000 0.502294
O O16 0.250000 0.750000 0.500000
#
# Coordination Sequence:
#
# PCOD9224291 Si02
#       7
#     8   8   8   8   8   8   8
#     4  10  21  37  54  83 116 150 189 245 293 343
#     4  12  21  36  57  88 116 157 191 236 292 356
#     4  11  22  36  56  81 122 154 191 232 290 356
#     4  11  24  38  55  83 121 160 193 233 291 359
#     4  10  20  33  60  86 115 145 192 245 292 344
#     4  11  23  39  60  85 117 156 202 246 291 348
#     4  11  19  36  61  88 112 150 200 247 297 345
#
# _framework density 9.8765429999999999
#
# number of rings (size 3 to 8) (size 9 to 14) (size 15 to 20)
#    0.000    1.143    4.286    3.000    0.000    4.000 
#    0.000    0.000    0.000    4.714    0.000    2.000 
#    0.000    0.000    0.000    0.000    0.000    0.000 
#
# Total GULP energy -156264.012927 kJ/mol
# GULP energy per Si atom -5580.857605 kJ/mol
# Density = 0.985406 g / cm^3
# Si number density = 9.876543 Si / 1000 Ang^3
#
#
#
# Elastic Constant Matrix: (Units=GPa)
#
#
# Indices 1 2 3 4 5 6 
#
# 1 61.0516 25.8278 36.5864 -0.0301 28.7616 -0.0072
# 2 25.8278 74.8293 25.0264 -0.0292 1.2507 -0.0085
# 3 36.5864 25.0264 61.8529 -0.0474 25.6470 -0.0205
# 4 -0.0301 -0.0292 -0.0474 17.9203 -0.0176 6.5345
# 5 28.7616 1.2507 25.6470 -0.0176 43.0994 -0.0007
# 6 -0.0072 -0.0085 -0.0205 6.5345 -0.0007 12.9390
#
#
#
# Elastic Compliance Matrix: (Units=1/GPa)
#
#
# Indices 1 2 3 4 5 6 
#
# 1 0.033141 -0.007918 -0.009724 0.000003 -0.016100 -0.000005
# 2 -0.007918 0.017985 -0.006064 0.000011 0.008370 -0.000007
# 3 -0.009724 -0.006064 0.028688 0.000032 -0.010406 0.000019
# 4 0.000003 0.000011 0.000032 0.068398 0.000006 -0.034543
# 5 -0.016100 0.008370 -0.010406 0.000006 0.039896 -0.000021
# 6 -0.000005 -0.000007 0.000019 -0.034543 -0.000021 0.094731
#
#
# Mechanical properties :
#
#
# Convention : Reuss Voigt Hill
#
# Bulk Modulus (GPa) = 30.86224 41.40167 36.13195
# Shear Modulus (GPa) = 14.66059 22.14463 18.40261
#
# Velocity S-wave (km/s) = 2.72728 3.35187 3.05558
# Velocity P-wave (km/s) = 5.05720 5.99876 5.54799
#
# Compressibility (1/GPa) = 0.03240205
#
# Stress axis : x y z
#
# Youngs Moduli (GPa) = 30.17408 55.60238 34.85821
#
# Poissons Ratio (x) = 0.44024 0.33895
# Poissons Ratio (y) = 0.23891 0.21139
# Poissons Ratio (z) = 0.29341 0.33719
#
# Static dielectric constant tensor:
#      x y z
#    x 1.740110 0.000010 0.024000 
#    y 0.000010 1.670880 0.000010 
#    z 0.024000 0.000010 1.772700 
# 
# From -- ./inp_files/64099.got.cif
#   From: 2010.05.17/outbox.ucp.g08.bks.cvg/sg12_33_cif.got.tgz:64099.got - 2010.06.11 11:47:21.
