data_PCOD9224336
_publ_section_title
;
Structure prediction by ZEFSAII (Michael W. Deem and Ramdas Pophale) SiO2 
 PCOD9224336
Probable space group: C 2/M
;
_chemical_formula_sum "Si O2"
_cell_formula_units_Z 32
_cell_length_a 18.000000
_cell_length_b 9.000000
_cell_length_c 30.000000
_cell_angle_alpha 90.000000
_cell_angle_beta 140.000000
_cell_angle_gamma 90.000000
_cell_volume 3123.947783
_symmetry_space_group_name_H-M "C 2/M"
_symmetry_group_IT_number 12
_symmetry_cell_setting 'monoclinic'
loop_
_space_group_symop_operation_xyz
x,y,z
-x,y,-z
-x,-y,-z
x,-y,z
1/2+x,1/2+y,z
1/2-x,1/2+y,-z
1/2-x,1/2-y,-z
1/2+x,1/2-y,z
loop_
_atom_site_type_symbol
_atom_site_label
_atom_site_fract_x
_atom_site_fract_y
_atom_site_fract_z
Si Si1 0.574943 0.336962 0.416355
Si Si2 0.289734 0.178276 0.190395
Si Si3 0.372719 0.821267 0.061711
Si Si4 0.284886 0.174489 0.677386
Si Si5 0.279002 0.833205 0.580944
Si Si6 0.858876 0.674049 0.317302
Si Si7 0.542197 0.179890 0.805230
Si Si8 0.552312 0.168358 0.072636
O O1 0.523814 0.500000 0.388902
O O2 0.625420 0.277324 0.393346
O O3 0.680962 0.341473 0.498955
O O4 0.480743 0.226162 0.391574
O O5 0.345110 0.234627 0.261332
O O6 0.358934 0.239975 0.180598
O O7 0.159597 0.226328 0.126774
O O8 0.298416 0.000000 0.194142
O O9 0.437259 0.769633 0.135592
O O10 0.450686 0.777032 0.056767
O O11 0.361943 0.000000 0.057595
O O12 0.250000 0.750000 0.000000
O O13 0.223643 0.206673 0.602617
O O14 0.240506 0.264196 0.698017
O O15 0.417089 0.214221 0.729555
O O16 0.274442 0.000000 0.682706
O O17 0.330400 0.000000 0.609586
O O18 0.853583 0.500000 0.313234
O O19 0.549099 0.000000 0.809117
O O20 0.585742 0.000000 0.101701
O O21 0.500000 0.162681 0.000000
#
# Coordination Sequence:
#
# PCOD9224336 Si02
#       8
#     8   8   8   8   8   8   8   8
#     4  10  20  35  57  83 110 144 184 222 270 332
#     4  10  21  37  57  79 104 139 182 225 269 319
#     4  10  20  34  53  77 105 137 174 213 256 311
#     4  10  20  37  59  79 106 144 181 221 274 332
#     4   9  19  36  58  83 110 141 180 227 274 325
#     4  11  23  37  53  78 112 144 181 231 279 323
#     4   9  18  34  56  78 100 133 177 219 262 316
#     4  10  21  36  54  80 113 143 173 217 272 324
#
# _framework density 10.243449
#
# number of rings (size 3 to 8) (size 9 to 14) (size 15 to 20)
#    0.000    2.125    0.000    3.000    0.000    6.250 
#    0.000    3.750    0.000    0.000    0.000    0.000 
#    0.000    0.000    0.000    0.000    0.000    0.000 
#
# Total GULP energy -178219.327106 kJ/mol
# GULP energy per Si atom -5569.353972 kJ/mol
# Density = 1.022013 g / cm^3
# Si number density = 10.243449 Si / 1000 Ang^3
#
#
#
# Elastic Constant Matrix: (Units=GPa)
#
#
# Indices 1 2 3 4 5 6 
#
# 1 117.4544 30.1888 41.4007 0.0000 -3.8972 0.0000
# 2 30.1888 -13.2662 30.2299 0.0000 -4.8287 0.0000
# 3 41.4007 30.2299 38.9210 0.0000 -5.7244 0.0000
# 4 0.0000 0.0000 0.0000 1.6641 0.0000 14.9102
# 5 -3.8972 -4.8287 -5.7244 0.0000 12.3512 0.0000
# 6 0.0000 0.0000 0.0000 14.9102 0.0000 22.3638
#
#
#
# Elastic Compliance Matrix: (Units=1/GPa)
#
#
# Indices 1 2 3 4 5 6 
#
# 1 0.013681 -0.000705 -0.014391 0.000000 -0.002629 0.000000
# 2 -0.000705 -0.027168 0.021738 0.000000 -0.000769 0.000000
# 3 -0.014391 0.021738 0.026506 0.000000 0.016242 0.000000
# 4 0.000000 0.000000 0.000000 -0.120821 0.000000 0.080553
# 5 -0.002629 -0.000769 0.016242 0.000000 0.087362 0.000000
# 6 0.000000 0.000000 0.000000 0.080553 0.000000 -0.008991
#
#
# Mechanical properties :
#
#
# Convention : Reuss Voigt Hill
#
# Bulk Modulus (GPa) = 38.01923 38.52754 38.27339
# Shear Modulus (GPa) = -147.28263 10.02847 -68.62708
#
# Velocity S-wave (km/s) = -8.48806 2.21488 -5.79403
# Velocity P-wave (km/s) = 8.80141 5.03862 5.10280
#
# Compressibility (1/GPa) = 0.02630248
#
# Stress axis : x y z
#
# Youngs Moduli (GPa) = 73.09620 -36.80756 37.72742
#
# Poissons Ratio (x) = -0.02595 0.54295
# Poissons Ratio (y) = 0.05153 -0.82013
# Poissons Ratio (z) = 1.05195 0.80014
#
# Static dielectric constant tensor:
#      x y z
#    x 1.742470 0.000000 -0.035220 
#    y 0.000000 1.719580 0.000000 
#    z -0.035220 0.000000 1.678760 
# 
# From -- ./inp_files/378322.got.cif
#   From: 2010.05.17/outbox.ucp.g08.bks.cvg/sg12_190_cif.got.tgz:378322.got - 2010.06.11 11:47:21.
