data_PCOD9224302
_publ_section_title
;
Structure prediction by ZEFSAII (Michael W. Deem and Ramdas Pophale) SiO2 
 PCOD9224302
Probable space group: C 2/M
;
_chemical_formula_sum "Si O2"
_cell_formula_units_Z 32
_cell_length_a 15.000000
_cell_length_b 9.000000
_cell_length_c 27.000000
_cell_angle_alpha 90.000000
_cell_angle_beta 110.000000
_cell_angle_gamma 90.000000
_cell_volume 3425.179603
_symmetry_space_group_name_H-M "C 2/M"
_symmetry_group_IT_number 12
_symmetry_cell_setting 'monoclinic'
loop_
_space_group_symop_operation_xyz
x,y,z
-x,y,-z
-x,-y,-z
x,-y,z
1/2+x,1/2+y,z
1/2-x,1/2+y,-z
1/2-x,1/2-y,-z
1/2+x,1/2-y,z
loop_
_atom_site_type_symbol
_atom_site_label
_atom_site_fract_x
_atom_site_fract_y
_atom_site_fract_z
Si Si1 0.984296 0.829886 0.237745
Si Si2 0.808922 0.826952 0.688738
Si Si3 0.293686 0.322463 0.576707
Si Si4 0.274589 0.676503 0.230253
Si Si5 0.545735 0.177703 0.866451
Si Si6 0.754866 0.176784 0.878735
Si Si7 0.591672 0.176876 0.484863
Si Si8 0.932954 0.326812 0.940269
O O1 0.887266 0.790413 0.246971
O O2 0.000827 0.727748 0.193439
O O3 0.077207 0.823095 0.288088
O O4 0.972948 0.000000 0.217734
O O5 0.783084 0.764715 0.630415
O O6 0.767130 0.742121 0.727590
O O7 0.779129 0.000000 0.686886
O O8 0.309548 0.500000 0.581603
O O9 0.380582 0.252832 0.562073
O O10 0.190467 0.298191 0.532838
O O11 0.260278 0.500000 0.225716
O O12 0.231604 0.750369 0.172749
O O13 0.654401 0.228458 0.881736
O O14 0.490458 0.232042 0.903732
O O15 0.547088 0.000000 0.869944
O O16 0.839514 0.231046 0.928841
O O17 0.752914 0.000000 0.872944
O O18 0.500000 0.227253 0.500000
O O19 0.579506 0.000000 0.474801
O O20 0.906604 0.500000 0.926702
O O21 0.000000 0.321278 0.000000
#
# Coordination Sequence:
#
# PCOD9224302 Si02
#       8
#     8   8   8   8   8   8   8   8
#     4   9  19  34  51  72  99 131 165 201 244 297
#     4  10  20  34  51  74 106 137 165 205 254 299
#     4   9  19  34  51  74 103 134 169 209 254 302
#     4  10  20  34  52  75 101 131 167 203 245 298
#     4   9  19  35  53  73  99 131 166 204 247 297
#     4  10  20  35  54  75 100 131 168 208 248 295
#     4   9  18  34  54  74  99 133 173 215 256 300
#     4  10  21  36  53  75 103 133 166 207 255 303
#
# _framework density 9.3425759999999993
#
# number of rings (size 3 to 8) (size 9 to 14) (size 15 to 20)
#    0.000    2.500    0.000    1.500    0.000    6.500 
#    0.000    0.000    0.000    0.000    0.000    0.000 
#    0.000    0.000    0.000    0.000    0.000    0.000 
#
# Total GULP energy -178338.219891 kJ/mol
# GULP energy per Si atom -5573.069372 kJ/mol
# Density = 0.932131 g / cm^3
# Si number density = 9.342576 Si / 1000 Ang^3
#
#
#
# Elastic Constant Matrix: (Units=GPa)
#
#
# Indices 1 2 3 4 5 6 
#
# 1 56.1608 18.4366 5.3784 0.0000 -7.4298 0.0000
# 2 18.4366 14.8368 4.5386 0.0000 5.3403 0.0000
# 3 5.3784 4.5386 1.3042 0.0000 11.9615 0.0000
# 4 0.0000 0.0000 0.0000 26.4362 0.0000 -11.6686
# 5 -7.4298 5.3403 11.9615 0.0000 -4.2971 0.0000
# 6 0.0000 0.0000 0.0000 -11.6686 0.0000 34.2007
#
#
#
# Elastic Compliance Matrix: (Units=1/GPa)
#
#
# Indices 1 2 3 4 5 6 
#
# 1 0.030888 -0.051865 0.042747 0.000000 0.001130 0.000000
# 2 -0.051865 0.181500 -0.124724 0.000000 -0.031947 0.000000
# 3 0.042747 -0.124724 0.117753 0.000000 0.098866 0.000000
# 4 0.000000 0.000000 0.000000 0.044533 0.000000 0.015194
# 5 0.001130 -0.031947 0.098866 0.000000 0.000834 0.000000
# 6 0.000000 0.000000 0.000000 0.015194 0.000000 0.034423
#
#
# Mechanical properties :
#
#
# Convention : Reuss Voigt Hill
#
# Bulk Modulus (GPa) = 16.01102 14.33434 15.17268
# Shear Modulus (GPa) = 7.15886 14.19787 10.67837
#
# Velocity S-wave (km/s) = 1.95950 2.75952 2.39318
# Velocity P-wave (km/s) = 3.70229 4.22392 3.97168
#
# Compressibility (1/GPa) = 0.06245698
#
# Stress axis : x y z
#
# Youngs Moduli (GPa) = 32.37503 5.50964 8.49234
#
# Poissons Ratio (x) = 0.28576 -0.36302
# Poissons Ratio (y) = 1.67913 1.05920
# Poissons Ratio (z) = -1.38394 0.68719
#
# Static dielectric constant tensor:
#      x y z
#    x 1.646450 0.000000 0.021450 
#    y 0.000000 1.643170 0.000000 
#    z 0.021450 0.000000 1.632420 
# 
# From -- ./inp_files/359902.got.cif
#   From: 2010.05.17/outbox.ucp.g08.bks.cvg/sg12_180_cif.got.tgz:359902.got - 2010.06.11 11:47:21.
