data_PCOD9224295
_publ_section_title
;
Structure prediction by ZEFSAII (Michael W. Deem and Ramdas Pophale) SiO2 
 PCOD9224295
Probable space group: C 2/M
;
_chemical_formula_sum "Si O2"
_cell_formula_units_Z 28
_cell_length_a 30.000000
_cell_length_b 9.000000
_cell_length_c 12.000000
_cell_angle_alpha 90.000000
_cell_angle_beta 120.000000
_cell_angle_gamma 90.000000
_cell_volume 2805.922308
_symmetry_space_group_name_H-M "C 2/M"
_symmetry_group_IT_number 12
_symmetry_cell_setting 'monoclinic'
loop_
_space_group_symop_operation_xyz
x,y,z
-x,y,-z
-x,-y,-z
x,-y,z
1/2+x,1/2+y,z
1/2-x,1/2+y,-z
1/2-x,1/2-y,-z
1/2+x,1/2-y,z
loop_
_atom_site_type_symbol
_atom_site_label
_atom_site_fract_x
_atom_site_fract_y
_atom_site_fract_z
Si Si1 0.443911 0.174826 0.481181
Si Si2 0.279750 0.676229 0.365131
Si Si3 0.595906 0.320367 0.900124
Si Si4 0.825817 0.326933 0.639042
Si Si5 0.347198 0.322248 0.244164
Si Si6 0.988849 0.325146 0.771487
Si Si7 0.079789 0.824554 0.135841
O O1 0.500000 0.210924 0.500000
O O2 0.398191 0.271316 0.374018
O O3 0.448627 0.192676 0.620072
O O4 0.434342 0.000000 0.444650
O O5 0.293079 0.500000 0.395774
O O6 0.219863 0.687318 0.325985
O O7 0.306409 0.776578 0.493198
O O8 0.299317 0.722300 0.265556
O O9 0.594399 0.500000 0.895102
O O10 0.640655 0.271133 0.868847
O O11 0.541062 0.253314 0.795865
O O12 0.595686 0.275773 0.030418
O O13 0.842159 0.500000 0.657390
O O14 0.871022 0.218068 0.729894
O O15 0.344255 0.500000 0.233987
O O16 0.998274 0.500000 0.798813
O O17 0.966936 0.254018 0.857044
O O18 0.069462 0.000000 0.120246
#
# Coordination Sequence:
#
# PCOD9224295 Si02
#       7
#     8   8   8   8   8   8   8
#     4  10  20  34  50  75 110 140 168 213 268 314
#     4   9  19  36  59  85 111 139 172 218 271 322
#     4  10  22  38  54  75 107 146 183 221 264 315
#     4  10  20  36  58  84 111 138 175 221 269 319
#     4  10  20  35  56  80 106 141 182 218 261 317
#     4  11  22  36  56  80 107 141 181 224 269 318
#     4  11  23  38  55  76 107 144 183 224 267 315
#
# _framework density 9.9788940000000004
#
# number of rings (size 3 to 8) (size 9 to 14) (size 15 to 20)
#    0.000    1.857    1.429    2.571    0.000    7.714 
#    0.000    0.714    0.000    0.000    0.000    0.000 
#    0.000    0.000    0.000    0.000    0.000    0.000 
#
# Total GULP energy -156159.300034 kJ/mol
# GULP energy per Si atom -5577.117858 kJ/mol
# Density = 0.995618 g / cm^3
# Si number density = 9.978894 Si / 1000 Ang^3
#
#
#
# Elastic Constant Matrix: (Units=GPa)
#
#
# Indices 1 2 3 4 5 6 
#
# 1 119.1392 7.3314 14.5689 0.0000 -49.0450 0.0000
# 2 7.3314 5.5288 1.5848 0.0000 -12.2837 0.0000
# 3 14.5689 1.5848 35.8928 0.0000 -24.0238 0.0000
# 4 0.0000 0.0000 0.0000 11.6243 0.0000 -10.7899
# 5 -49.0450 -12.2837 -24.0238 0.0000 38.5191 0.0000
# 6 0.0000 0.0000 0.0000 -10.7899 0.0000 16.7605
#
#
#
# Elastic Compliance Matrix: (Units=1/GPa)
#
#
# Indices 1 2 3 4 5 6 
#
# 1 0.000882 -0.074113 -0.020862 0.000000 -0.035523 0.000000
# 2 -0.074113 -0.253924 -0.130572 0.000000 -0.256777 0.000000
# 3 -0.020862 -0.130572 -0.006102 0.000000 -0.072007 0.000000
# 4 0.000000 0.000000 0.000000 0.213763 0.000000 0.137615
# 5 -0.035523 -0.256777 -0.072007 0.000000 -0.146064 0.000000
# 6 0.000000 0.000000 0.000000 0.137615 0.000000 0.148256
#
#
# Mechanical properties :
#
#
# Convention : Reuss Voigt Hill
#
# Bulk Modulus (GPa) = -1.40798 23.05899 10.82550
# Shear Modulus (GPa) = 29.21291 22.51917 25.86604
#
# Velocity S-wave (km/s) = 3.83003 3.36272 3.60396
# Velocity P-wave (km/s) = 4.34187 5.16296 4.77011
#
# Compressibility (1/GPa) = -0.71023651
#
# Stress axis : x y z
#
# Youngs Moduli (GPa) = 1133.83763 -3.93818 -163.87328
#
# Poissons Ratio (x) = -0.29187 -3.41865
# Poissons Ratio (y) = 84.03159 -21.39724
# Poissons Ratio (z) = 23.65360 -0.51422
#
# Static dielectric constant tensor:
#      x y z
#    x 1.740440 0.000000 -0.015300 
#    y 0.000000 1.660950 0.000000 
#    z -0.015300 0.000000 1.745100 
# 
# From -- ./inp_files/180829.got.cif
#   From: 2010.05.17/outbox.ucp.g08.bks.cvg/sg12_91_cif.got.tgz:180829.got - 2010.06.11 11:47:21.
