data_PCOD9224169
_publ_section_title
;
Structure prediction by ZEFSAII (Michael W. Deem and Ramdas Pophale) SiO2 
 PCOD9224169
Probable space group: C 2/M
;
_chemical_formula_sum "Si O2"
_cell_formula_units_Z 32
_cell_length_a 18.000000
_cell_length_b 27.000000
_cell_length_c 24.000000
_cell_angle_alpha 90.000000
_cell_angle_beta 160.000000
_cell_angle_gamma 90.000000
_cell_volume 3989.322952
_symmetry_space_group_name_H-M "C 2/M"
_symmetry_group_IT_number 12
_symmetry_cell_setting 'monoclinic'
loop_
_space_group_symop_operation_xyz
x,y,z
-x,y,-z
-x,-y,-z
x,-y,z
1/2+x,1/2+y,z
1/2-x,1/2+y,-z
1/2-x,1/2-y,-z
1/2+x,1/2-y,z
loop_
_atom_site_type_symbol
_atom_site_label
_atom_site_fract_x
_atom_site_fract_y
_atom_site_fract_z
Si Si1 0.211552 0.724449 0.861439
Si Si2 0.181683 0.210295 0.380172
Si Si3 0.044712 0.193378 0.466937
Si Si4 0.571427 0.443583 0.138455
Si Si5 0.373599 0.056496 0.244662
Si Si6 0.198717 0.231938 0.204406
Si Si7 0.262089 0.855810 0.332704
Si Si8 0.129202 0.649460 0.382906
O O1 0.261911 0.715467 0.831401
O O2 0.049756 0.769237 0.761949
O O3 0.085833 0.675831 0.794095
O O4 0.452296 0.734707 0.052232
O O5 0.307647 0.257390 0.441765
O O6 0.184307 0.168575 0.335086
O O7 0.299275 0.187085 0.517041
O O8 0.172370 0.151956 0.521389
O O9 0.000000 0.181857 0.500000
O O10 0.811059 0.214459 0.283872
O O11 0.597575 0.500000 0.178361
O O12 0.758620 0.435431 0.223493
O O13 0.597516 0.398050 0.198065
O O14 0.335373 0.440832 0.943428
O O15 0.550744 0.097400 0.352612
O O16 0.457671 0.000000 0.302217
O O17 0.293710 0.189418 0.311050
O O18 0.500000 0.879969 0.500000
#
# Coordination Sequence:
#
# PCOD9224169 Si02
#       8
#     8   8   8   8   8   8   8   8
#     4  10  20  29  48  67  93 134 165 193 231 283
#     4  11  19  32  45  68 100 133 160 195 234 279
#     4  11  19  34  48  67 101 131 159 197 239 278
#     4   9  19  34  50  71 100 127 160 197 239 287
#     4   9  18  34  54  74  94 122 159 206 244 279
#     4  11  18  32  45  66  97 130 164 193 234 281
#     4  12  20  29  47  68  99 134 161 196 237 277
#     4  11  19  33  51  71  95 128 165 196 239 289
#
# _framework density 8.0214110000000005
#
# number of rings (size 3 to 8) (size 9 to 14) (size 15 to 20)
#    0.000    1.500    5.000    3.750    0.000    2.750 
#    2.250    0.625    0.000    0.375    0.000    0.000 
#    0.000    1.000    0.000    0.000    0.000    0.000 
#
# Total GULP energy -178167.973592 kJ/mol
# GULP energy per Si atom -5567.749175 kJ/mol
# Density = 0.800315 g / cm^3
# Si number density = 8.021411 Si / 1000 Ang^3
#
#
#
# Elastic Constant Matrix: (Units=GPa)
#
#
# Indices 1 2 3 4 5 6 
#
# 1 73.7549 23.5955 8.4954 -0.0662 8.7660 -0.0828
# 2 23.5955 63.2926 16.8156 0.0317 7.9781 0.0273
# 3 8.4954 16.8156 47.9979 0.0095 17.0937 -0.0224
# 4 -0.0662 0.0317 0.0095 23.9674 -0.0232 0.6522
# 5 8.7660 7.9781 17.0937 -0.0232 20.5929 -0.0431
# 6 -0.0828 0.0273 -0.0224 0.6522 -0.0431 20.3677
#
#
#
# Elastic Compliance Matrix: (Units=1/GPa)
#
#
# Indices 1 2 3 4 5 6 
#
# 1 0.015849 -0.005502 0.001087 0.000044 -0.005518 0.000060
# 2 -0.005502 0.019414 -0.005655 -0.000038 -0.000486 -0.000054
# 3 0.001087 -0.005655 0.031244 -0.000025 -0.024207 -0.000004
# 4 0.000044 -0.000038 -0.000025 0.041760 0.000061 -0.001337
# 5 -0.005518 -0.000486 -0.024207 0.000061 0.071191 0.000100
# 6 0.000060 -0.000054 -0.000004 -0.001337 0.000100 0.049141
#
#
# Mechanical properties :
#
#
# Convention : Reuss Voigt Hill
#
# Bulk Modulus (GPa) = 21.56645 31.42871 26.49758
# Shear Modulus (GPa) = 18.92545 22.06153 20.49349
#
# Velocity S-wave (km/s) = 3.43838 3.71234 3.57798
# Velocity P-wave (km/s) = 5.40699 6.16509 5.79844
#
# Compressibility (1/GPa) = 0.04636831
#
# Stress axis : x y z
#
# Youngs Moduli (GPa) = 63.09438 51.50798 32.00630
#
# Poissons Ratio (x) = 0.28340 -0.03480
# Poissons Ratio (y) = 0.34715 0.18099
# Poissons Ratio (z) = -0.06861 0.29127
#
# Static dielectric constant tensor:
#      x y z
#    x 1.561660 0.000000 -0.044970 
#    y 0.000000 1.527430 0.000000 
#    z -0.044970 0.000000 1.678370 
# 
# From -- ./inp_files/345162.got.cif
#   From: 2010.05.17/outbox.ucp.g08.bks.cvg/sg12_173_cif.got.tgz:345162.got - 2010.06.11 11:47:21.
