data_PCOD9224622
_publ_section_title
;
Structure prediction by ZEFSAII (Michael W. Deem and Ramdas Pophale) SiO2 
 PCOD9224622
Probable space group: C 2/M
;
_chemical_formula_sum "Si O2"
_cell_formula_units_Z 32
_cell_length_a 18.000000
_cell_length_b 15.000000
_cell_length_c 15.000000
_cell_angle_alpha 90.000000
_cell_angle_beta 50.000000
_cell_angle_gamma 90.000000
_cell_volume 3102.479995
_symmetry_space_group_name_H-M "C 2/M"
_symmetry_group_IT_number 12
_symmetry_cell_setting 'monoclinic'
loop_
_space_group_symop_operation_xyz
x,y,z
-x,y,-z
-x,-y,-z
x,-y,z
1/2+x,1/2+y,z
1/2-x,1/2+y,-z
1/2-x,1/2-y,-z
1/2+x,1/2-y,z
loop_
_atom_site_type_symbol
_atom_site_label
_atom_site_fract_x
_atom_site_fract_y
_atom_site_fract_z
Si Si1 0.771888 0.727469 0.843489
Si Si2 0.940627 0.399368 0.784229
Si Si3 0.430554 0.393820 0.392342
Si Si4 0.304143 0.272608 0.613598
Si Si5 0.137913 0.902316 0.161028
Si Si6 0.581676 0.899980 0.507894
Si Si7 0.082599 0.744461 0.752363
Si Si8 0.941348 0.854679 0.969521
O O1 0.843488 0.650543 0.825795
O O2 0.805902 0.754233 0.717839
O O3 0.790938 0.818098 0.884933
O O4 0.661544 0.692316 0.927297
O O5 0.920486 0.500000 0.832930
O O6 0.017017 0.407760 0.644874
O O7 0.002690 0.331401 0.795163
O O8 0.404631 0.500000 0.400343
O O9 0.374891 0.348934 0.519180
O O10 0.548325 0.391783 0.299985
O O11 0.408392 0.323046 0.329483
O O12 0.339103 0.177323 0.545665
O O13 0.191406 0.291621 0.678975
O O14 0.087740 0.900219 0.102117
O O15 0.182983 0.000000 0.139564
O O16 0.500000 0.871716 0.500000
O O17 0.619091 0.000000 0.455490
O O18 0.030823 0.789441 0.876168
O O19 0.000000 0.908377 0.000000
#
# Coordination Sequence:
#
# PCOD9224622 Si02
#       8
#     8   8   8   8   8   8   8   8
#     4  12  23  41  68  95 131 168 216 269 322 389
#     4  11  23  40  65  95 125 163 214 265 322 386
#     4  10  22  40  63  93 130 172 216 260 319 389
#     4  12  23  37  65  96 132 173 214 261 326 390
#     4  10  23  43  67  95 130 171 216 267 322 384
#     4  10  20  35  58  93 132 163 203 261 320 382
#     4  11  23  44  63  91 133 173 217 269 323 382
#     4  11  23  44  68  93 128 170 215 274 328 376
#
# _framework density 10.314329000000001
#
# number of rings (size 3 to 8) (size 9 to 14) (size 15 to 20)
#    0.000    1.125    6.250    0.750    0.000    2.250 
#    0.000    1.250    0.000    0.750    0.000    0.000 
#    0.000    0.000    0.000    0.000    0.000    0.000 
#
# Total GULP energy -178312.033569 kJ/mol
# GULP energy per Si atom -5572.251049 kJ/mol
# Density = 1.029085 g / cm^3
# Si number density = 10.314329 Si / 1000 Ang^3
#
#
#
# Elastic Constant Matrix: (Units=GPa)
#
#
# Indices 1 2 3 4 5 6 
#
# 1 96.4921 59.1110 29.6504 0.0000 -18.4973 0.0000
# 2 59.1110 145.6401 42.3908 0.0000 -6.0598 0.0000
# 3 29.6504 42.3908 100.5079 0.0000 -12.1212 0.0000
# 4 0.0000 0.0000 0.0000 -13.8366 0.0000 -5.9401
# 5 -18.4973 -6.0598 -12.1212 0.0000 25.6085 0.0000
# 6 0.0000 0.0000 0.0000 -5.9401 0.0000 4.0866
#
#
#
# Elastic Compliance Matrix: (Units=1/GPa)
#
#
# Indices 1 2 3 4 5 6 
#
# 1 0.016144 -0.005817 -0.001134 0.000000 0.009748 0.000000
# 2 -0.005817 0.009925 -0.002857 0.000000 -0.003205 0.000000
# 3 -0.001134 -0.002857 0.011993 0.000000 0.004182 0.000000
# 4 0.000000 0.000000 0.000000 -0.044502 0.000000 -0.064686
# 5 0.009748 -0.003205 0.004182 0.000000 0.047312 0.000000
# 6 0.000000 0.000000 0.000000 -0.064686 0.000000 0.150678
#
#
# Mechanical properties :
#
#
# Convention : Reuss Voigt Hill
#
# Bulk Modulus (GPa) = 54.20629 67.21606 60.71118
# Shear Modulus (GPa) = 23.00825 17.27088 20.13957
#
# Velocity S-wave (km/s) = 3.34331 2.89663 3.12795
# Velocity P-wave (km/s) = 6.42167 6.62132 6.52226
#
# Compressibility (1/GPa) = 0.01844804
#
# Stress axis : x y z
#
# Youngs Moduli (GPa) = 61.94292 100.75344 83.38155
#
# Poissons Ratio (x) = 0.58606 0.09452
# Poissons Ratio (y) = 0.36031 0.23819
# Poissons Ratio (z) = 0.07022 0.28782
#
# Static dielectric constant tensor:
#      x y z
#    x 1.471560 0.000000 -0.218890 
#    y 0.000000 1.820330 0.000000 
#    z -0.218890 0.000000 1.495080 
# 
# From -- ./inp_files/225655.got.cif
#   From: 2010.05.17/outbox.ucp.g08.bks.cvg/sg12_113_cif.got.tgz:225655.got - 2010.06.11 11:47:21.
