data_PCOD9224206
_publ_section_title
;
Structure prediction by ZEFSAII (Michael W. Deem and Ramdas Pophale) SiO2 
 PCOD9224206
Probable space group: C 2/M
;
_chemical_formula_sum "Si O2"
_cell_formula_units_Z 28
_cell_length_a 24.000000
_cell_length_b 9.000000
_cell_length_c 21.000000
_cell_angle_alpha 90.000000
_cell_angle_beta 50.000000
_cell_angle_gamma 90.000000
_cell_volume 3474.777594
_symmetry_space_group_name_H-M "C 2/M"
_symmetry_group_IT_number 12
_symmetry_cell_setting 'monoclinic'
loop_
_space_group_symop_operation_xyz
x,y,z
-x,y,-z
-x,-y,-z
x,-y,z
1/2+x,1/2+y,z
1/2-x,1/2+y,-z
1/2-x,1/2-y,-z
1/2+x,1/2-y,z
loop_
_atom_site_type_symbol
_atom_site_label
_atom_site_fract_x
_atom_site_fract_y
_atom_site_fract_z
Si Si1 0.633597 0.178565 0.474231
Si Si2 0.560720 0.678743 0.749502
Si Si3 0.291944 0.169083 0.209186
Si Si4 0.555284 0.678992 0.902336
Si Si5 0.506960 0.678737 0.652274
Si Si6 0.214434 0.329865 0.632171
Si Si7 0.869127 0.820117 0.664534
O O1 0.571731 0.239278 0.567009
O O2 0.712302 0.241539 0.438656
O O3 0.619784 0.242384 0.412484
O O4 0.634507 0.000000 0.471816
O O5 0.567643 0.500000 0.746858
O O6 0.540878 0.725357 0.837787
O O7 0.509036 0.714911 0.726689
O O8 0.638733 0.748689 0.673181
O O9 0.363167 0.264604 0.141737
O O10 0.286082 0.164448 0.290314
O O11 0.211037 0.222083 0.249823
O O12 0.302752 0.000000 0.178319
O O13 0.554111 0.500000 0.903102
O O14 0.500000 0.727817 0.000000
O O15 0.518116 0.500000 0.638944
O O16 0.432627 0.713284 0.668477
O O17 0.283836 0.000000 0.392950
O O18 0.867979 0.000000 0.654824
#
# Coordination Sequence:
#
# PCOD9224206 Si02
#       7
#     8   8   8   8   8   8   8
#     4  11  21  31  46  69  94 122 161 204 238 271
#     4   9  18  32  49  70  94 122 157 192 232 282
#     4   8  15  28  47  70  91 115 151 189 225 269
#     4   9  17  30  50  75  98 117 142 183 234 284
#     4  10  20  33  48  65  91 128 163 196 233 274
#     4   9  17  31  49  67  92 125 158 195 237 279
#     4   9  18  33  50  67  91 125 163 198 231 269
#
# _framework density 8.0580700000000007
#
# number of rings (size 3 to 8) (size 9 to 14) (size 15 to 20)
#    0.000    2.714    0.000    3.000    0.000    7.143 
#    0.000    0.000    0.000    0.857    0.000    0.000 
#    0.000    0.000    0.000    0.000    0.000    1.857 
#
# Total GULP energy -155941.583430 kJ/mol
# GULP energy per Si atom -5569.342265 kJ/mol
# Density = 0.803973 g / cm^3
# Si number density = 8.058070 Si / 1000 Ang^3
#
#
#
# Elastic Constant Matrix: (Units=GPa)
#
#
# Indices 1 2 3 4 5 6 
#
# 1 95.8515 22.4979 47.8189 0.0000 3.0787 0.0000
# 2 22.4979 40.8649 28.8384 -0.0001 -0.8091 0.0001
# 3 47.8189 28.8384 105.3043 0.0000 -6.2800 0.0000
# 4 0.0000 -0.0001 0.0000 19.9042 0.0000 -5.5976
# 5 3.0787 -0.8091 -6.2800 0.0000 22.0772 0.0000
# 6 0.0000 0.0001 0.0000 -5.5976 0.0000 20.4707
#
#
#
# Elastic Compliance Matrix: (Units=1/GPa)
#
#
# Indices 1 2 3 4 5 6 
#
# 1 0.014291 -0.003973 -0.005625 0.000000 -0.003739 0.000000
# 2 -0.003973 0.031473 -0.006829 0.000000 -0.000235 0.000000
# 3 -0.005625 -0.006829 0.014193 0.000000 0.004572 0.000000
# 4 0.000000 0.000000 0.000000 0.054426 0.000000 0.014883
# 5 -0.003739 -0.000235 0.004572 0.000000 0.047109 0.000000
# 6 0.000000 0.000000 0.000000 0.014883 0.000000 0.052920
#
#
# Mechanical properties :
#
#
# Convention : Reuss Voigt Hill
#
# Bulk Modulus (GPa) = 36.89440 48.92569 42.91004
# Shear Modulus (GPa) = 19.50837 22.01476 20.76156
#
# Velocity S-wave (km/s) = 3.48298 3.69996 3.59311
# Velocity P-wave (km/s) = 6.25439 6.97689 6.62550
#
# Compressibility (1/GPa) = 0.02710439
#
# Stress axis : x y z
#
# Youngs Moduli (GPa) = 69.97181 31.77366 70.45554
#
# Poissons Ratio (x) = 0.12623 0.39630
# Poissons Ratio (y) = 0.27798 0.48114
# Poissons Ratio (z) = 0.39358 0.21698
#
# Static dielectric constant tensor:
#      x y z
#    x 1.573880 0.000000 0.001920 
#    y 0.000000 1.549370 0.000000 
#    z 0.001920 0.000000 1.528200 
# 
# From -- ./inp_files/287338.got.cif
#   From: 2010.05.17/outbox.ucp.g08.bks.cvg/sg12_144_cif.got.tgz:287338.got - 2010.06.11 11:47:21.
