data_PCOD9224301
_publ_section_title
;
Structure prediction by ZEFSAII (Michael W. Deem and Ramdas Pophale) SiO2 
 PCOD9224301
Probable space group: C 2/M
;
_chemical_formula_sum "Si O2"
_cell_formula_units_Z 32
_cell_length_a 12.000000
_cell_length_b 18.000000
_cell_length_c 30.000000
_cell_angle_alpha 90.000000
_cell_angle_beta 30.000000
_cell_angle_gamma 90.000000
_cell_volume 3240.000000
_symmetry_space_group_name_H-M "C 2/M"
_symmetry_group_IT_number 12
_symmetry_cell_setting 'monoclinic'
loop_
_space_group_symop_operation_xyz
x,y,z
-x,y,-z
-x,-y,-z
x,-y,z
1/2+x,1/2+y,z
1/2-x,1/2+y,-z
1/2-x,1/2-y,-z
1/2+x,1/2-y,z
loop_
_atom_site_type_symbol
_atom_site_label
_atom_site_fract_x
_atom_site_fract_y
_atom_site_fract_z
Si Si1 0.670147 0.586293 0.899911
Si Si2 0.941573 0.145014 0.339154
Si Si3 0.425494 0.190725 0.207794
Si Si4 0.650759 0.589205 0.721446
Si Si5 0.363906 0.911743 0.480073
Si Si6 0.451828 0.417839 0.568250
Si Si7 0.100834 0.291100 0.686564
Si Si8 0.893269 0.832776 0.169293
O O1 0.723204 0.500000 0.870497
O O2 0.561099 0.625618 0.893620
O O3 0.888896 0.630014 0.842589
O O4 0.500000 0.587484 0.000000
O O5 0.991566 0.110460 0.273234
O O6 0.752041 0.101046 0.431853
O O7 0.829051 0.225250 0.369838
O O8 0.181497 0.156450 0.280364
O O9 0.412150 0.238268 0.258265
O O10 0.491221 0.250411 0.146578
O O11 0.654677 0.500000 0.723569
O O12 0.581807 0.619291 0.794109
O O13 0.898350 0.616369 0.619544
O O14 0.169825 0.883248 0.514880
O O15 0.379221 0.000000 0.469047
O O16 0.500000 0.426721 0.500000
O O17 0.406922 0.500000 0.603406
O O18 0.250163 0.362533 0.640541
O O19 0.867651 0.316432 0.747335
#
# Coordination Sequence:
#
# PCOD9224301 Si02
#       8
#     8   8   8   8   8   8   8   8
#     4  10  23  43  71 102 125 152 196 249 304 370
#     4  11  21  36  56  81 116 159 204 251 292 352
#     4  10  21  40  63  89 122 158 202 243 301 369
#     4  11  22  36  55  81 117 162 205 252 302 353
#     4  10  21  35  51  76 113 156 209 257 297 345
#     4  10  20  34  51  73 104 146 202 260 314 356
#     4  10  20  36  55  80 109 149 199 251 294 351
#     4  10  21  39  62  88 124 158 196 243 304 366
#
# _framework density 9.8765429999999999
#
# number of rings (size 3 to 8) (size 9 to 14) (size 15 to 20)
#    0.000    1.750    2.500    1.875    0.000    7.000 
#    0.000    2.500    0.000    0.000    0.000    2.625 
#    0.000    0.000    0.000    0.000    0.000    0.000 
#
# Total GULP energy -178149.062216 kJ/mol
# GULP energy per Si atom -5567.158194 kJ/mol
# Density = 0.985406 g / cm^3
# Si number density = 9.876543 Si / 1000 Ang^3
#
#
#
# Elastic Constant Matrix: (Units=GPa)
#
#
# Indices 1 2 3 4 5 6 
#
# 1 106.4538 16.7808 14.7551 -0.1067 10.1436 0.0072
# 2 16.7808 59.1651 12.2801 -0.0663 -0.4206 0.0083
# 3 14.7551 12.2801 35.7414 -0.7656 8.1357 0.0446
# 4 -0.1067 -0.0663 -0.7656 -261.8140 -0.1133 23.1304
# 5 10.1436 -0.4206 8.1357 -0.1133 29.3996 0.0062
# 6 0.0072 0.0083 0.0446 23.1304 0.0062 31.5758
#
#
#
# Elastic Compliance Matrix: (Units=1/GPa)
#
#
# Indices 1 2 3 4 5 6 
#
# 1 0.010436 -0.002391 -0.002838 0.000006 -0.002849 -0.000001
# 2 -0.002391 0.018873 -0.006133 0.000012 0.002792 -0.000005
# 3 -0.002838 -0.006133 0.033140 -0.000089 -0.008280 0.000022
# 4 0.000006 0.000012 -0.000089 -0.003587 0.000008 0.002628
# 5 -0.002849 0.002792 -0.008280 0.000008 0.037328 -0.000002
# 6 -0.000001 -0.000005 0.000022 0.002628 -0.000002 0.029745
#
#
# Mechanical properties :
#
#
# Convention : Reuss Voigt Hill
#
# Bulk Modulus (GPa) = 25.17270 32.11025 28.64147
# Shear Modulus (GPa) = 30.88340 -29.66477 0.60932
#
# Velocity S-wave (km/s) = 3.95837 -3.87948 0.55600
# Velocity P-wave (km/s) = 5.80197 1.94322 3.86567
#
# Compressibility (1/GPa) = 0.03972558
#
# Stress axis : x y z
#
# Youngs Moduli (GPa) = 95.82672 52.98645 30.17487
#
# Poissons Ratio (x) = 0.12669 0.08563
# Poissons Ratio (y) = 0.22912 0.18505
# Poissons Ratio (z) = 0.27194 0.32494
#
# Static dielectric constant tensor:
#      x y z
#    x 1.735210 0.000000 0.028050 
#    y 0.000000 1.786990 0.000000 
#    z 0.028050 0.000000 1.702910 
# 
# From -- ./inp_files/374439.got.cif
#   From: 2010.05.17/outbox.ucp.g08.bks.cvg/sg12_188_cif.got.tgz:374439.got - 2010.06.11 11:47:21.
