data_PCOD9224934
_publ_section_title
;
Structure prediction by ZEFSAII (Michael W. Deem and Ramdas Pophale) SiO2 
 PCOD9224934
Probable space group: C 2/M
;
_chemical_formula_sum "Si O2"
_cell_formula_units_Z 32
_cell_length_a 9.000000
_cell_length_b 21.000000
_cell_length_c 24.000000
_cell_angle_alpha 90.000000
_cell_angle_beta 130.000000
_cell_angle_gamma 90.000000
_cell_volume 3474.777594
_symmetry_space_group_name_H-M "C 2/M"
_symmetry_group_IT_number 12
_symmetry_cell_setting 'monoclinic'
loop_
_space_group_symop_operation_xyz
x,y,z
-x,y,-z
-x,-y,-z
x,-y,z
1/2+x,1/2+y,z
1/2-x,1/2+y,-z
1/2-x,1/2-y,-z
1/2+x,1/2-y,z
loop_
_atom_site_type_symbol
_atom_site_label
_atom_site_fract_x
_atom_site_fract_y
_atom_site_fract_z
Si Si1 0.434743 0.316805 0.919956
Si Si2 0.628176 0.925632 0.823683
Si Si3 0.287765 0.072825 0.830603
Si Si4 0.707290 0.329688 0.547201
Si Si5 0.628869 0.428059 0.326123
Si Si6 0.514126 0.072647 0.669410
Si Si7 0.720878 0.813676 0.562742
Si Si8 0.208064 0.685388 0.080225
O O1 0.304274 0.376854 0.872113
O O2 0.619767 0.310880 0.923687
O O3 0.309829 0.251469 0.889743
O O4 0.500000 0.324701 0.000000
O O5 0.470874 0.914373 0.834477
O O6 0.533019 0.916658 0.739927
O O7 0.689343 0.000000 0.841628
O O8 0.269709 0.125110 0.874206
O O9 0.091669 0.075116 0.747219
O O10 0.306489 0.000000 0.856675
O O11 0.500000 0.363354 0.500000
O O12 0.876556 0.375462 0.607969
O O13 0.720479 0.260680 0.581636
O O14 0.702642 0.313634 0.481053
O O15 0.660582 0.500000 0.358204
O O16 0.676263 0.367359 0.375887
O O17 0.775165 0.423406 0.308896
O O18 0.443447 0.000000 0.643431
O O19 0.500000 0.833956 0.500000
O O20 0.000000 0.679068 0.000000
#
# Coordination Sequence:
#
# PCOD9224934 Si02
#       8
#     8   8   8   8   8   8   8   8
#     4  11  22  39  63  90 122 156 194 238 287 342
#     4  10  22  40  60  85 120 155 194 241 290 345
#     4  10  22  40  60  86 118 154 197 242 289 344
#     4  10  22  36  55  80 112 147 184 235 289 349
#     4  10  21  37  59  82 109 147 192 238 286 342
#     4  10  21  38  57  81 112 148 190 236 288 346
#     4  10  20  38  56  79 111 144 188 234 286 346
#     4  11  22  39  63  90 122 155 195 240 285 341
#
# _framework density 9.2092220000000005
#
# number of rings (size 3 to 8) (size 9 to 14) (size 15 to 20)
#    0.000    1.750    1.250    3.750    1.750    4.000 
#    0.000    2.500    0.000    0.000    0.000    0.000 
#    0.000    0.000    0.000    0.000    0.000    0.000 
#
# Total GULP energy -178403.601781 kJ/mol
# GULP energy per Si atom -5575.112556 kJ/mol
# Density = 0.918826 g / cm^3
# Si number density = 9.209222 Si / 1000 Ang^3
#
#
#
# Elastic Constant Matrix: (Units=GPa)
#
#
# Indices 1 2 3 4 5 6 
#
# 1 123.9299 50.4538 28.2919 -0.0001 6.0789 0.0000
# 2 50.4538 121.9158 52.3997 -0.0001 -1.5438 0.0000
# 3 28.2919 52.3997 43.3666 0.0002 2.2585 0.0000
# 4 -0.0001 -0.0001 0.0002 90.6758 0.0000 8.9766
# 5 6.0789 -1.5438 2.2585 0.0000 33.1070 0.0000
# 6 0.0000 0.0000 0.0000 8.9766 0.0000 28.2876
#
#
#
# Elastic Compliance Matrix: (Units=1/GPa)
#
#
# Indices 1 2 3 4 5 6 
#
# 1 0.010007 -0.002907 -0.002923 0.000000 -0.001774 0.000000
# 2 -0.002907 0.018072 -0.020082 0.000000 0.002747 0.000000
# 3 -0.002923 -0.020082 0.049428 0.000000 -0.003772 0.000000
# 4 0.000000 0.000000 0.000000 0.011386 0.000000 -0.003613
# 5 -0.001774 0.002747 -0.003772 0.000000 0.030916 0.000000
# 6 0.000000 0.000000 0.000000 -0.003613 0.000000 0.036498
#
#
# Mechanical properties :
#
#
# Convention : Reuss Voigt Hill
#
# Bulk Modulus (GPa) = 38.93905 61.27815 50.10860
# Shear Modulus (GPa) = 23.07411 40.95186 32.01299
#
# Velocity S-wave (km/s) = 3.54329 4.72043 4.17357
# Velocity P-wave (km/s) = 6.15850 7.94054 7.10560
#
# Compressibility (1/GPa) = 0.02568116
#
# Stress axis : x y z
#
# Youngs Moduli (GPa) = 99.92956 55.33466 20.23141
#
# Poissons Ratio (x) = 0.16088 0.05914
# Poissons Ratio (y) = 0.29054 0.40630
# Poissons Ratio (z) = 0.29210 1.11125
#
# Static dielectric constant tensor:
#      x y z
#    x 1.534040 0.000000 0.011970 
#    y 0.000000 1.646250 0.000000 
#    z 0.011970 0.000000 1.599580 
# 
# From -- ./inp_files/301716.got.cif
#   From: 2010.05.17/outbox.ucp.g08.bks.cvg/sg12_151_cif.got.tgz:301716.got - 2010.06.11 11:47:21.
