data_PCOD9224075
_publ_section_title
;
Structure prediction by ZEFSAII (Michael W. Deem and Ramdas Pophale) SiO2 
 PCOD9224075
Probable space group: C 2/M
;
_chemical_formula_sum "Si O2"
_cell_formula_units_Z 32
_cell_length_a 30.000000
_cell_length_b 9.000000
_cell_length_c 18.000000
_cell_angle_alpha 90.000000
_cell_angle_beta 140.000000
_cell_angle_gamma 90.000000
_cell_volume 3123.947783
_symmetry_space_group_name_H-M "C 2/M"
_symmetry_group_IT_number 12
_symmetry_cell_setting 'monoclinic'
loop_
_space_group_symop_operation_xyz
x,y,z
-x,y,-z
-x,-y,-z
x,-y,z
1/2+x,1/2+y,z
1/2-x,1/2+y,-z
1/2-x,1/2-y,-z
1/2+x,1/2-y,z
loop_
_atom_site_type_symbol
_atom_site_label
_atom_site_fract_x
_atom_site_fract_y
_atom_site_fract_z
Si Si1 0.567319 0.680371 0.191077
Si Si2 0.909817 0.326599 0.222831
Si Si3 0.680945 0.332274 0.620011
Si Si4 0.151515 0.326743 0.001701
Si Si5 0.804711 0.825347 0.200191
Si Si6 0.183789 0.818257 0.455880
Si Si7 0.517991 0.662345 0.436794
Si Si8 0.912625 0.821868 0.949003
O O1 0.566321 0.500000 0.192321
O O2 0.614475 0.727437 0.321003
O O3 0.598455 0.725578 0.150409
O O4 0.487105 0.727886 0.078603
O O5 0.894771 0.500000 0.200693
O O6 0.897647 0.265009 0.125194
O O7 0.860478 0.253009 0.220767
O O8 0.986064 0.290833 0.347239
O O9 0.711873 0.500000 0.657806
O O10 0.702528 0.260988 0.725656
O O11 0.688943 0.267367 0.548278
O O12 0.598822 0.344206 0.527299
O O13 0.136875 0.500000 0.998065
O O14 0.228830 0.316518 0.068634
O O15 0.143449 0.240163 0.067141
O O16 0.823294 0.000000 0.231516
O O17 0.250000 0.750000 0.500000
O O18 0.184969 0.000000 0.457233
O O19 0.500000 0.684827 0.500000
O O20 0.488452 0.500000 0.377329
O O21 0.913603 0.000000 0.949730
#
# Coordination Sequence:
#
# PCOD9224075 Si02
#       8
#     8   8   8   8   8   8   8   8
#     4   8  17  35  56  80 111 140 177 230 275 321
#     4  11  23  37  53  82 118 146 177 227 286 327
#     4   9  19  35  58  84 107 141 190 233 268 323
#     4  10  23  37  54  81 114 144 180 232 281 324
#     4  10  20  39  59  76 106 150 192 226 265 327
#     4  10  21  37  57  83 115 146 183 228 277 329
#     4  10  19  36  61  85 108 144 194 231 266 330
#     4   9  18  35  59  81 103 142 187 226 275 328
#
# _framework density 10.243449
#
# number of rings (size 3 to 8) (size 9 to 14) (size 15 to 20)
#    0.000    2.375    1.250    1.500    3.500    1.750 
#    0.000    3.125    0.000    0.000    0.000    0.000 
#    0.000    0.000    0.000    0.000    0.000    0.000 
#
# Total GULP energy -178223.243105 kJ/mol
# GULP energy per Si atom -5569.476347 kJ/mol
# Density = 1.022013 g / cm^3
# Si number density = 10.243449 Si / 1000 Ang^3
#
#
#
# Elastic Constant Matrix: (Units=GPa)
#
#
# Indices 1 2 3 4 5 6 
#
# 1 64.5550 4.7119 -0.6999 0.0000 -8.5109 0.0000
# 2 4.7119 4.9884 6.6203 0.0000 -3.1498 0.0000
# 3 -0.6999 6.6203 -7.0293 0.0000 -3.0567 0.0000
# 4 0.0000 0.0000 0.0000 93.2002 0.0000 -20.7769
# 5 -8.5109 -3.1498 -3.0567 0.0000 24.6438 0.0000
# 6 0.0000 0.0000 0.0000 -20.7769 0.0000 29.8777
#
#
#
# Elastic Compliance Matrix: (Units=1/GPa)
#
#
# Indices 1 2 3 4 5 6 
#
# 1 0.016244 -0.003552 -0.006835 0.000000 0.004308 0.000000
# 2 -0.003552 0.102567 0.087087 0.000000 0.022685 0.000000
# 3 -0.006835 0.087087 -0.060132 0.000000 0.001312 0.000000
# 4 0.000000 0.000000 0.000000 0.012698 0.000000 0.008830
# 5 0.004308 0.022685 0.001312 0.000000 0.045128 0.000000
# 6 0.000000 0.000000 0.000000 0.008830 0.000000 0.039610
#
#
# Mechanical properties :
#
#
# Convention : Reuss Voigt Hill
#
# Bulk Modulus (GPa) = 4.71524 9.30875 7.01199
# Shear Modulus (GPa) = 68.11240 33.00313 50.55776
#
# Velocity S-wave (km/s) = 5.77226 4.01800 4.97309
# Velocity P-wave (km/s) = 6.83607 5.10680 6.03371
#
# Compressibility (1/GPa) = 0.21207845
#
# Stress axis : x y z
#
# Youngs Moduli (GPa) = 61.56207 9.74975 -16.63010
#
# Poissons Ratio (x) = 0.03463 -0.11367
# Poissons Ratio (y) = 0.21864 1.44826
# Poissons Ratio (z) = 0.42081 -0.84908
#
# Static dielectric constant tensor:
#      x y z
#    x 1.696020 0.000000 0.120770 
#    y 0.000000 1.712200 0.000000 
#    z 0.120770 0.000000 1.314700 
# 
# From -- ./inp_files/295876.got.cif
#   From: 2010.05.17/outbox.ucp.g08.bks.cvg/sg12_148_cif.got.tgz:295876.got - 2010.06.11 11:47:21.
