data_PCOD9224733
_publ_section_title
;
Structure prediction by ZEFSAII (Michael W. Deem and Ramdas Pophale) SiO2 
 PCOD9224733
Probable space group: C 2/M
;
_chemical_formula_sum "Si O2"
_cell_formula_units_Z 24
_cell_length_a 24.000000
_cell_length_b 9.000000
_cell_length_c 12.000000
_cell_angle_alpha 90.000000
_cell_angle_beta 70.000000
_cell_angle_gamma 90.000000
_cell_volume 2435.683273
_symmetry_space_group_name_H-M "C 2/M"
_symmetry_group_IT_number 12
_symmetry_cell_setting 'monoclinic'
loop_
_space_group_symop_operation_xyz
x,y,z
-x,y,-z
-x,-y,-z
x,-y,z
1/2+x,1/2+y,z
1/2-x,1/2+y,-z
1/2-x,1/2-y,-z
1/2+x,1/2-y,z
loop_
_atom_site_type_symbol
_atom_site_label
_atom_site_fract_x
_atom_site_fract_y
_atom_site_fract_z
Si Si1 0.659715 0.323500 0.503687
Si Si2 0.070641 0.825960 0.955496
Si Si3 0.067705 0.331202 0.420540
Si Si4 0.383287 0.680673 0.831123
Si Si5 0.658045 0.178003 0.742796
Si Si6 0.727907 0.321710 0.226909
O O1 0.660298 0.500000 0.520084
O O2 0.598206 0.263940 0.496878
O O3 0.672366 0.244229 0.611704
O O4 0.701018 0.289740 0.368275
O O5 0.095711 0.777088 0.059631
O O6 0.086691 0.000000 0.930649
O O7 0.096739 0.734389 0.834678
O O8 0.000000 0.814543 0.000000
O O9 0.092567 0.500000 0.399843
O O10 0.077959 0.252279 0.294630
O O11 0.000000 0.340364 0.500000
O O12 0.386988 0.500000 0.820755
O O13 0.316494 0.729163 0.839677
O O14 0.705351 0.231617 0.804373
O O15 0.660055 0.000000 0.733086
O O16 0.729543 0.500000 0.214840
#
# Coordination Sequence:
#
# PCOD9224733 Si02
#       6
#     8   8   8   8   8   8
#     4  10  20  36  58  84 116 152 190 229 278 340
#     4  10  23  41  58  81 112 151 197 239 279 335
#     4  10  21  35  54  84 117 147 184 233 287 336
#     4   9  19  38  60  80 109 150 194 237 276 332
#     4  11  22  36  57  85 117 151 188 236 292 338
#     4   8  17  35  58  85 114 146 187 235 286 339
#
# _framework density 9.8534980000000001
#
# number of rings (size 3 to 8) (size 9 to 14) (size 15 to 20)
#    0.000    2.333    0.000    3.000    2.333    3.000 
#    0.000    7.500    0.000    0.000    0.000    0.000 
#    0.000    0.000    0.000    0.000    0.000    0.000 
#
# Total GULP energy -133760.459127 kJ/mol
# GULP energy per Si atom -5573.352464 kJ/mol
# Density = 0.983107 g / cm^3
# Si number density = 9.853498 Si / 1000 Ang^3
#
#
#
# Elastic Constant Matrix: (Units=GPa)
#
#
# Indices 1 2 3 4 5 6 
#
# 1 59.6447 20.6085 17.1610 0.0000 12.7727 0.0000
# 2 20.6085 39.0418 16.5553 0.0000 3.1578 0.0000
# 3 17.1610 16.5553 10.1518 0.0000 31.6491 0.0000
# 4 0.0000 0.0000 0.0000 2.9389 0.0000 15.0997
# 5 12.7727 3.1578 31.6491 0.0000 32.3027 0.0000
# 6 0.0000 0.0000 0.0000 15.0997 0.0000 14.2071
#
#
#
# Elastic Compliance Matrix: (Units=1/GPa)
#
#
# Indices 1 2 3 4 5 6 
#
# 1 0.022179 -0.010457 -0.001808 0.000000 -0.005976 0.000000
# 2 -0.010457 0.026018 0.014463 0.000000 -0.012579 0.000000
# 3 -0.001808 0.014463 -0.039014 0.000000 0.037526 0.000000
# 4 0.000000 0.000000 0.000000 -0.076281 0.000000 0.081073
# 5 -0.005976 -0.012579 0.037526 0.000000 -0.002217 0.000000
# 6 0.000000 0.000000 0.000000 0.081073 0.000000 -0.015780
#
#
# Mechanical properties :
#
#
# Convention : Reuss Voigt Hill
#
# Bulk Modulus (GPa) = 73.64954 24.16534 48.90744
# Shear Modulus (GPa) = -58.84962 13.52397 -22.66283
#
# Velocity S-wave (km/s) = -5.47057 2.62248 -3.39483
# Velocity P-wave (km/s) = 1.56506 4.63237 3.08297
#
# Compressibility (1/GPa) = 0.01357782
#
# Stress axis : x y z
#
# Youngs Moduli (GPa) = 45.08734 38.43459 -25.63169
#
# Poissons Ratio (x) = 0.40193 -0.04634
# Poissons Ratio (y) = 0.47150 0.37070
# Poissons Ratio (z) = 0.08152 -0.55587
#
# Static dielectric constant tensor:
#      x y z
#    x 1.790540 0.000000 -0.024070 
#    y 0.000000 1.666440 0.000000 
#    z -0.024070 0.000000 1.653400 
# 
# From -- ./inp_files/172946.got.cif
#   From: 2010.05.17/outbox.ucp.g08.bks.cvg/sg12_87_cif.got.tgz:172946.got - 2010.06.11 11:47:21.
