data_PCOD9224902
_publ_section_title
;
Structure prediction by ZEFSAII (Michael W. Deem and Ramdas Pophale) SiO2 
 PCOD9224902
Probable space group: C 2/M
;
_chemical_formula_sum "Si O2"
_cell_formula_units_Z 24
_cell_length_a 27.000000
_cell_length_b 9.000000
_cell_length_c 21.000000
_cell_angle_alpha 90.000000
_cell_angle_beta 30.000000
_cell_angle_gamma 90.000000
_cell_volume 2551.500000
_symmetry_space_group_name_H-M "C 2/M"
_symmetry_group_IT_number 12
_symmetry_cell_setting 'monoclinic'
loop_
_space_group_symop_operation_xyz
x,y,z
-x,y,-z
-x,-y,-z
x,-y,z
1/2+x,1/2+y,z
1/2-x,1/2+y,-z
1/2-x,1/2-y,-z
1/2+x,1/2-y,z
loop_
_atom_site_type_symbol
_atom_site_label
_atom_site_fract_x
_atom_site_fract_y
_atom_site_fract_z
Si Si1 0.536244 0.179755 0.607318
Si Si2 0.797733 0.678892 0.882689
Si Si3 0.359441 0.322185 0.386097
Si Si4 0.772138 0.174294 0.667875
Si Si5 0.834054 0.326211 0.080146
Si Si6 0.434227 0.820490 0.177758
O O1 0.416438 0.218823 0.736872
O O2 0.581017 0.250253 0.621830
O O3 0.624195 0.238972 0.461143
O O4 0.540648 0.000000 0.602968
O O5 0.796346 0.500000 0.889641
O O6 0.721323 0.731666 0.912498
O O7 0.750000 0.750000 0.000000
O O8 0.350347 0.500000 0.402718
O O9 0.250000 0.250000 0.500000
O O10 0.420592 0.273618 0.256463
O O11 0.736804 0.186051 0.779781
O O12 0.668291 0.216805 0.746783
O O13 0.790433 0.000000 0.631797
O O14 0.836294 0.500000 0.057243
O O15 0.949766 0.291437 0.971093
O O16 0.428953 0.000000 0.192580
#
# Coordination Sequence:
#
# PCOD9224902 Si02
#       6
#     8   8   8   8   8   8
#     4  11  24  41  61  88 123 160 202 252 304 355
#     4  11  25  44  65  89 119 158 203 253 305 359
#     4  12  23  36  58  89 122 156 197 245 300 357
#     4  10  21  38  62  91 123 162 203 245 300 362
#     4  10  22  40  63  91 123 161 204 249 299 359
#     4  10  20  37  61  90 125 161 201 249 300 354
#
# _framework density 9.4062319999999993
#
# number of rings (size 3 to 8) (size 9 to 14) (size 15 to 20)
#    0.000    1.333    1.667    4.000    0.000   10.667 
#    0.000    3.333    0.000    3.000    0.000    0.000 
#    0.000    0.000    0.000    0.000    0.000    0.000 
#
# Total GULP energy -133684.876479 kJ/mol
# GULP energy per Si atom -5570.203187 kJ/mol
# Density = 0.938482 g / cm^3
# Si number density = 9.406232 Si / 1000 Ang^3
#
#
#
# Elastic Constant Matrix: (Units=GPa)
#
#
# Indices 1 2 3 4 5 6 
#
# 1 67.7891 20.2491 28.0341 0.0008 -16.0404 -0.0003
# 2 20.2491 69.6163 45.9782 0.0011 -8.3031 -0.0008
# 3 28.0341 45.9782 156.0001 0.0014 -25.8229 -0.0009
# 4 0.0008 0.0011 0.0014 41.3086 -0.0008 -7.9101
# 5 -16.0404 -8.3031 -25.8229 -0.0008 41.8776 0.0004
# 6 -0.0003 -0.0008 -0.0009 -7.9101 0.0004 31.3880
#
#
#
# Elastic Compliance Matrix: (Units=1/GPa)
#
#
# Indices 1 2 3 4 5 6 
#
# 1 0.017599 -0.003698 -0.001201 0.000000 0.005267 0.000000
# 2 -0.003698 0.018617 -0.004951 0.000000 -0.000778 0.000000
# 3 -0.001201 -0.004951 0.008739 0.000000 0.003947 0.000000
# 4 0.000000 0.000000 0.000000 0.025435 0.000000 0.006410
# 5 0.005267 -0.000778 0.003947 0.000000 0.028176 0.000000
# 6 0.000000 0.000000 0.000000 0.006410 0.000000 0.033475
#
#
# Mechanical properties :
#
#
# Convention : Reuss Voigt Hill
#
# Bulk Modulus (GPa) = 39.59580 53.54760 46.57170
# Shear Modulus (GPa) = 31.21879 36.19113 33.70496
#
# Velocity S-wave (km/s) = 4.07808 4.39086 4.23736
# Velocity P-wave (km/s) = 6.57782 7.36423 6.98210
#
# Compressibility (1/GPa) = 0.02525520
#
# Stress axis : x y z
#
# Youngs Moduli (GPa) = 56.82083 53.71337 114.43300
#
# Poissons Ratio (x) = 0.19861 0.13743
# Poissons Ratio (y) = 0.21010 0.56661
# Poissons Ratio (z) = 0.06824 0.26596
#
# Static dielectric constant tensor:
#      x y z
#    x 1.692260 0.000000 0.028350 
#    y 0.000000 1.636430 0.000000 
#    z 0.028350 0.000000 1.688880 
# 
# From -- ./inp_files/327176.got.cif
#   From: 2010.05.17/outbox.ucp.g08.bks.cvg/sg12_164_cif.got.tgz:327176.got - 2010.06.11 11:47:21.
