data_PCOD9224861
_publ_section_title
;
Structure prediction by ZEFSAII (Michael W. Deem and Ramdas Pophale) SiO2 
 PCOD9224861
Probable space group: C 2/M
;
_chemical_formula_sum "Si O2"
_cell_formula_units_Z 32
_cell_length_a 30.000000
_cell_length_b 9.000000
_cell_length_c 15.000000
_cell_angle_alpha 90.000000
_cell_angle_beta 130.000000
_cell_angle_gamma 90.000000
_cell_volume 3102.479995
_symmetry_space_group_name_H-M "C 2/M"
_symmetry_group_IT_number 12
_symmetry_cell_setting 'monoclinic'
loop_
_space_group_symop_operation_xyz
x,y,z
-x,y,-z
-x,-y,-z
x,-y,z
1/2+x,1/2+y,z
1/2-x,1/2+y,-z
1/2-x,1/2-y,-z
1/2+x,1/2-y,z
loop_
_atom_site_type_symbol
_atom_site_label
_atom_site_fract_x
_atom_site_fract_y
_atom_site_fract_z
Si Si1 0.240673 0.670724 0.310277
Si Si2 0.640359 0.673739 0.789757
Si Si3 0.442064 0.673027 0.482246
Si Si4 0.903051 0.320929 0.105109
Si Si5 0.512816 0.829863 0.121139
Si Si6 0.136737 0.177473 0.288954
Si Si7 0.270909 0.169357 0.916287
Si Si8 0.859074 0.677451 0.513386
O O1 0.249120 0.500000 0.355522
O O2 0.183266 0.741946 0.282899
O O3 0.234142 0.658769 0.196249
O O4 0.297576 0.773076 0.392355
O O5 0.641895 0.500000 0.819258
O O6 0.612428 0.676744 0.655936
O O7 0.593355 0.762722 0.789364
O O8 0.708215 0.730268 0.872196
O O9 0.500000 0.719790 0.500000
O O10 0.452287 0.500000 0.521814
O O11 0.416379 0.764496 0.533240
O O12 0.900998 0.500000 0.096657
O O13 0.956165 0.278359 0.106880
O O14 0.836149 0.262016 0.006032
O O15 0.569211 0.725333 0.192744
O O16 0.527089 0.000000 0.170798
O O17 0.500000 0.841287 0.000000
O O18 0.147539 0.240287 0.401036
O O19 0.143520 0.000000 0.290646
O O20 0.274323 0.000000 0.957072
O O21 0.862413 0.500000 0.526036
#
# Coordination Sequence:
#
# PCOD9224861 Si02
#       8
#     8   8   8   8   8   8   8   8
#     4  11  21  41  68  92 123 163 208 256 312 371
#     4  10  20  37  59  88 123 161 203 248 306 368
#     4  10  22  41  64  90 124 167 208 251 312 375
#     4  10  21  36  59  90 121 157 204 255 304 362
#     4  10  22  43  66  90 123 165 211 256 313 375
#     4  12  26  42  63  92 126 163 208 258 312 371
#     4   9  18  36  62  88 119 161 204 246 302 367
#     4  12  25  42  64  94 127 161 207 257 313 371
#
# _framework density 10.314329000000001
#
# number of rings (size 3 to 8) (size 9 to 14) (size 15 to 20)
#    0.000    1.500    1.250    4.125    1.750    3.500 
#    0.000    2.500    0.000    0.000    0.000    0.000 
#    0.000    0.000    0.000    0.000    0.000    0.000 
#
# Total GULP energy -178266.339694 kJ/mol
# GULP energy per Si atom -5570.823115 kJ/mol
# Density = 1.029085 g / cm^3
# Si number density = 10.314329 Si / 1000 Ang^3
#
#
#
# Elastic Constant Matrix: (Units=GPa)
#
#
# Indices 1 2 3 4 5 6 
#
# 1 203.3766 39.7927 0.5727 0.0000 10.3404 0.0000
# 2 39.7927 78.5007 4.9929 0.0000 5.6881 0.0000
# 3 0.5727 4.9929 29.6882 0.0000 4.7381 0.0000
# 4 0.0000 0.0000 0.0000 16.9320 0.0000 -4.2143
# 5 10.3404 5.6881 4.7381 0.0000 32.4257 0.0000
# 6 0.0000 0.0000 0.0000 -4.2143 0.0000 39.7957
#
#
#
# Elastic Compliance Matrix: (Units=1/GPa)
#
#
# Indices 1 2 3 4 5 6 
#
# 1 0.005520 -0.002736 0.000571 0.000000 -0.001364 0.000000
# 2 -0.002736 0.014359 -0.002149 0.000000 -0.001332 0.000000
# 3 0.000571 -0.002149 0.034815 0.000000 -0.004892 0.000000
# 4 0.000000 0.000000 0.000000 0.060659 0.000000 0.006424
# 5 -0.001364 -0.001332 -0.004892 0.000000 0.032223 0.000000
# 6 0.000000 0.000000 0.000000 0.006424 0.000000 0.025809
#
#
# Mechanical properties :
#
#
# Convention : Reuss Voigt Hill
#
# Bulk Modulus (GPa) = 21.70808 44.69801 33.20304
# Shear Modulus (GPa) = 25.33354 35.57781 30.45567
#
# Velocity S-wave (km/s) = 3.50819 4.15743 3.84653
# Velocity P-wave (km/s) = 5.19192 6.69034 5.98818
#
# Compressibility (1/GPa) = 0.04606581
#
# Stress axis : x y z
#
# Youngs Moduli (GPa) = 181.16020 69.64414 28.72351
#
# Poissons Ratio (x) = 0.19052 -0.01641
# Poissons Ratio (y) = 0.49559 0.06174
# Poissons Ratio (z) = -0.10349 0.14969
#
# Static dielectric constant tensor:
#      x y z
#    x 1.702050 0.000000 0.000430 
#    y 0.000000 1.753640 0.000000 
#    z 0.000430 0.000000 2.065150 
# 
# From -- ./inp_files/249971.got.cif
#   From: 2010.05.17/outbox.ucp.g08.bks.cvg/sg12_125_cif.got.tgz:249971.got - 2010.06.11 11:47:21.
