data_PCOD9224743
_publ_section_title
;
Structure prediction by ZEFSAII (Michael W. Deem and Ramdas Pophale) SiO2 
 PCOD9224743
Probable space group: C 2/M
;
_chemical_formula_sum "Si O2"
_cell_formula_units_Z 25
_cell_length_a 15.000000
_cell_length_b 24.000000
_cell_length_c 12.000000
_cell_angle_alpha 90.000000
_cell_angle_beta 40.000000
_cell_angle_gamma 90.000000
_cell_volume 2776.842474
_symmetry_space_group_name_H-M "C 2/M"
_symmetry_group_IT_number 12
_symmetry_cell_setting 'monoclinic'
loop_
_space_group_symop_operation_xyz
x,y,z
-x,y,-z
-x,-y,-z
x,-y,z
1/2+x,1/2+y,z
1/2-x,1/2+y,-z
1/2-x,1/2-y,-z
1/2+x,1/2-y,z
loop_
_atom_site_type_symbol
_atom_site_label
_atom_site_fract_x
_atom_site_fract_y
_atom_site_fract_z
Si Si1 0.765221 0.086438 0.217902
Si Si2 0.270065 0.712348 0.150330
Si Si3 0.088956 0.856618 0.527867
Si Si4 0.478877 0.254959 0.764992
Si Si5 0.500000 0.000000 0.500000
Si Si6 0.372463 0.815963 0.200748
Si Si7 0.494730 0.564293 0.189167
O O1 0.742626 0.153227 0.233920
O O2 0.868962 0.074367 0.221929
O O3 0.625124 0.049229 0.361916
O O4 0.860617 0.074223 0.016444
O O5 0.139175 0.729562 0.200899
O O6 0.306103 0.762489 0.200198
O O7 0.400913 0.711041 0.939277
O O8 0.250966 0.859929 0.340147
O O9 0.033041 0.898890 0.674892
O O10 0.000000 0.859835 0.500000
O O11 0.069139 0.796349 0.604773
O O12 0.564389 0.207091 0.744896
O O13 0.500000 0.835442 0.000000
O O14 0.492303 0.500000 0.224368
#
# Coordination Sequence:
#
# PCOD9224743 Si02
#       7
#     8   8   8   8   2   8   8
#     4  11  22  41  66  95 120 158 202 268 326 366
#     4  10  20  36  61  93 130 162 203 250 314 372
#     4  12  23  39  63  91 127 168 216 250 299 373
#     4  10  20  36  58  92 129 171 200 245 306 379
#     4  12  24  38  64 100 122 146 198 276 340 360
#     4  10  22  37  59  92 134 166 205 255 307 372
#     4  11  23  44  67  87 119 164 217 266 306 367
#
# _framework density 9.003031
#
# number of rings (size 3 to 8) (size 9 to 14) (size 15 to 20)
#    0.000    1.280    4.800    1.920    4.480    2.880 
#    0.000    0.000    0.000    0.480    0.000    0.000 
#    0.000    0.000    0.000    0.000    0.000    0.000 
#
# Total GULP energy -139323.372282 kJ/mol
# GULP energy per Si atom -5572.934891 kJ/mol
# Density = 0.898254 g / cm^3
# Si number density = 9.003031 Si / 1000 Ang^3
#
#
#
# Elastic Constant Matrix: (Units=GPa)
#
#
# Indices 1 2 3 4 5 6 
#
# 1 58.4147 -19.7371 33.8213 0.0000 -9.1543 0.0000
# 2 -19.7371 28.7657 24.1035 0.0000 -3.0156 0.0000
# 3 33.8213 24.1035 128.8699 0.0000 -10.5404 0.0000
# 4 0.0000 0.0000 0.0000 24.8884 0.0000 1.4251
# 5 -9.1543 -3.0156 -10.5404 0.0000 30.7444 0.0000
# 6 0.0000 0.0000 0.0000 1.4251 0.0000 14.7204
#
#
#
# Elastic Compliance Matrix: (Units=1/GPa)
#
#
# Indices 1 2 3 4 5 6 
#
# 1 0.050902 0.055243 -0.022644 0.000000 0.012812 0.000000
# 2 0.055243 0.101240 -0.032179 0.000000 0.015347 0.000000
# 3 -0.022644 -0.032179 0.019457 0.000000 -0.003228 0.000000
# 4 0.000000 0.000000 0.000000 0.040403 0.000000 -0.003911
# 5 0.012812 0.015347 -0.003228 0.000000 0.036740 0.000000
# 6 0.000000 0.000000 0.000000 -0.003911 0.000000 0.068312
#
#
# Mechanical properties :
#
#
# Convention : Reuss Voigt Hill
#
# Bulk Modulus (GPa) = 5.79912 32.49175 19.14543
# Shear Modulus (GPa) = 13.37997 25.92813 19.65405
#
# Velocity S-wave (km/s) = 2.72891 3.79881 3.30741
# Velocity P-wave (km/s) = 3.62724 6.10944 5.02405
#
# Compressibility (1/GPa) = 0.17243997
#
# Stress axis : x y z
#
# Youngs Moduli (GPa) = 19.64543 9.87756 51.39514
#
# Poissons Ratio (x) = -0.54566 1.16377
# Poissons Ratio (y) = -1.08527 1.65382
# Poissons Ratio (z) = 0.44484 0.31785
#
# Static dielectric constant tensor:
#      x y z
#    x 1.605770 0.000000 -0.007750 
#    y 0.000000 1.618220 0.000000 
#    z -0.007750 0.000000 1.652600 
# 
# From -- ./inp_files/65495.got.cif
#   From: 2010.05.17/outbox.ucp.g08.bks.cvg/sg12_33_cif.got.tgz:65495.got - 2010.06.11 11:47:21.
