data_PCOD9224801
_publ_section_title
;
Structure prediction by ZEFSAII (Michael W. Deem and Ramdas Pophale) SiO2 
 PCOD9224801
Probable space group: C 2/M
;
_chemical_formula_sum "Si O2"
_cell_formula_units_Z 32
_cell_length_a 24.000000
_cell_length_b 18.000000
_cell_length_c 21.000000
_cell_angle_alpha 90.000000
_cell_angle_beta 20.000000
_cell_angle_gamma 90.000000
_cell_volume 3102.806740
_symmetry_space_group_name_H-M "C 2/M"
_symmetry_group_IT_number 12
_symmetry_cell_setting 'monoclinic'
loop_
_space_group_symop_operation_xyz
x,y,z
-x,y,-z
-x,-y,-z
x,-y,z
1/2+x,1/2+y,z
1/2-x,1/2+y,-z
1/2-x,1/2-y,-z
1/2+x,1/2-y,z
loop_
_atom_site_type_symbol
_atom_site_label
_atom_site_fract_x
_atom_site_fract_y
_atom_site_fract_z
Si Si1 0.379586 0.082138 0.069041
Si Si2 0.914267 0.356329 0.525870
Si Si3 0.650170 0.589169 0.629376
Si Si4 0.587679 0.583570 0.839823
Si Si5 0.684668 0.764733 0.829517
Si Si6 0.351591 0.349704 0.874411
Si Si7 0.494628 0.911330 0.803447
Si Si8 0.199233 0.278432 0.158383
O O1 0.471034 0.105167 0.904802
O O2 0.307435 0.000000 0.135383
O O3 0.500000 0.075543 0.000000
O O4 0.264930 0.149833 0.212623
O O5 0.779355 0.414457 0.649877
O O6 0.807854 0.281494 0.653317
O O7 0.000000 0.377084 0.500000
O O8 0.056399 0.337852 0.323926
O O9 0.663701 0.500000 0.621284
O O10 0.589185 0.616244 0.765709
O O11 0.511692 0.605194 0.724558
O O12 0.832168 0.617232 0.412234
O O13 0.521260 0.500000 0.905059
O O14 0.500000 0.612755 0.000000
O O15 0.705005 0.729430 0.878033
O O16 0.500000 0.765761 0.000000
O O17 0.381089 0.297580 0.781412
O O18 0.316317 0.301588 0.975576
O O19 0.175940 0.387614 0.046923
O O20 0.503971 0.000000 0.788670
#
# Coordination Sequence:
#
# PCOD9224801 Si02
#       8
#     8   8   8   8   8   8   8   8
#     4   9  18  34  60  89 118 154 200 253 304 359
#     4  10  22  37  60  86 120 157 196 251 304 365
#     4  10  23  40  63  92 119 158 206 249 304 371
#     4  10  22  41  62  89 120 152 204 259 307 368
#     4  10  20  36  61  86 115 159 201 245 309 363
#     4  11  22  39  61  83 128 159 198 254 303 354
#     4  10  20  39  64  89 121 161 204 246 303 370
#     4  10  23  40  52  89 121 154 205 249 294 373
#
# _framework density 10.313243
#
# number of rings (size 3 to 8) (size 9 to 14) (size 15 to 20)
#    0.000    2.000    1.250    1.500    5.250    2.250 
#    0.000    2.500    0.000    4.125    0.000    0.000 
#    0.000    0.000    0.000    0.000    0.000    0.000 
#
# Total GULP energy -178177.123323 kJ/mol
# GULP energy per Si atom -5568.035104 kJ/mol
# Density = 1.028977 g / cm^3
# Si number density = 10.313243 Si / 1000 Ang^3
#
#
#
# Elastic Constant Matrix: (Units=GPa)
#
#
# Indices 1 2 3 4 5 6 
#
# 1 124.0119 -4.1684 34.9272 -0.0128 -8.9435 -0.0054
# 2 -4.1684 47.1524 1.8961 -0.0406 5.9604 -0.0149
# 3 34.9272 1.8961 56.5978 -0.0849 -13.4404 -0.0365
# 4 -0.0128 -0.0406 -0.0849 19.9624 0.0302 -4.4631
# 5 -8.9435 5.9604 -13.4404 0.0302 35.2679 0.0084
# 6 -0.0054 -0.0149 -0.0365 -4.4631 0.0084 12.7343
#
#
#
# Elastic Compliance Matrix: (Units=1/GPa)
#
#
# Indices 1 2 3 4 5 6 
#
# 1 0.009818 0.001116 -0.006102 -0.000022 -0.000024 -0.000020
# 2 0.001116 0.021957 -0.002461 0.000050 -0.004366 0.000040
# 3 -0.006102 -0.002461 0.023362 0.000099 0.007772 0.000091
# 4 -0.000022 0.000050 0.000099 0.054354 -0.000027 0.019050
# 5 -0.000024 -0.004366 0.007772 -0.000027 0.032048 -0.000014
# 6 -0.000020 0.000040 0.000091 0.019050 -0.000014 0.085205
#
#
# Mechanical properties :
#
#
# Convention : Reuss Voigt Hill
#
# Bulk Modulus (GPa) = 24.84835 32.56356 28.70595
# Shear Modulus (GPa) = 19.60373 26.60006 23.10189
#
# Velocity S-wave (km/s) = 3.08623 3.59501 3.35029
# Velocity P-wave (km/s) = 4.97722 5.74923 5.37709
#
# Compressibility (1/GPa) = 0.04024412
#
# Stress axis : x y z
#
# Youngs Moduli (GPa) = 101.85227 45.54270 42.80365
#
# Poissons Ratio (x) = -0.05084 0.26119
# Poissons Ratio (y) = -0.11371 0.10535
# Poissons Ratio (z) = 0.62152 0.11209
#
# Static dielectric constant tensor:
#      x y z
#    x 1.751620 0.000000 0.006650 
#    y 0.000000 1.815820 0.000010 
#    z 0.006650 0.000010 1.731890 
# 
# From -- ./inp_files/326111.got.cif
#   From: 2010.05.17/outbox.ucp.g08.bks.cvg/sg12_164_cif.got.tgz:326111.got - 2010.06.11 11:47:21.
