data_PCOD9224241
_publ_section_title
;
Structure prediction by ZEFSAII (Michael W. Deem and Ramdas Pophale) SiO2 
 PCOD9224241
Probable space group: C 2/M
;
_chemical_formula_sum "Si O2"
_cell_formula_units_Z 32
_cell_length_a 30.000000
_cell_length_b 9.000000
_cell_length_c 18.000000
_cell_angle_alpha 90.000000
_cell_angle_beta 140.000000
_cell_angle_gamma 90.000000
_cell_volume 3123.947783
_symmetry_space_group_name_H-M "C 2/M"
_symmetry_group_IT_number 12
_symmetry_cell_setting 'monoclinic'
loop_
_space_group_symop_operation_xyz
x,y,z
-x,y,-z
-x,-y,-z
x,-y,z
1/2+x,1/2+y,z
1/2-x,1/2+y,-z
1/2-x,1/2-y,-z
1/2+x,1/2-y,z
loop_
_atom_site_type_symbol
_atom_site_label
_atom_site_fract_x
_atom_site_fract_y
_atom_site_fract_z
Si Si1 0.239657 0.338743 0.373312
Si Si2 0.372273 0.174672 0.204100
Si Si3 0.476958 0.335778 0.758172
Si Si4 0.140361 0.823789 0.964502
Si Si5 0.017779 0.168162 0.409930
Si Si6 0.859744 0.328321 0.350068
Si Si7 0.294635 0.671454 0.801821
Si Si8 0.149008 0.660143 0.404647
O O1 0.253744 0.500000 0.358566
O O2 0.189184 0.252702 0.253375
O O3 0.200056 0.350900 0.400438
O O4 0.312038 0.264217 0.487642
O O5 0.343493 0.253989 0.094535
O O6 0.450518 0.227619 0.322300
O O7 0.336356 0.209246 0.236190
O O8 0.370783 0.000000 0.188547
O O9 0.462550 0.500000 0.769751
O O10 0.557771 0.303930 0.869937
O O11 0.461954 0.336722 0.650704
O O12 0.423251 0.218099 0.718890
O O13 0.154880 0.000000 0.977547
O O14 0.176756 0.764565 0.084801
O O15 0.079304 0.228996 0.539153
O O16 0.998111 0.000000 0.406255
O O17 0.884238 0.500000 0.380277
O O18 0.788685 0.321131 0.303830
O O19 0.316474 0.500000 0.826545
O O20 0.138913 0.500000 0.427814
#
# Coordination Sequence:
#
# PCOD9224241 Si02
#       8
#     8   8   8   8   8   8   8   8
#     4  10  21  36  54  80 111 137 166 208 254 303
#     4  10  20  34  52  75 104 137 172 213 261 308
#     4   9  18  33  53  77 104 134 172 215 255 300
#     4   9  20  38  56  75 101 135 176 218 255 298
#     4  10  20  33  51  77 107 137 171 213 259 307
#     4  10  21  34  50  76 106 135 171 215 261 310
#     4  10  21  38  57  75 101 138 176 213 256 305
#     4  10  20  34  55  82 109 137 168 204 252 308
#
# _framework density 10.243449
#
# number of rings (size 3 to 8) (size 9 to 14) (size 15 to 20)
#    0.000    2.250    0.000    3.375    0.000   10.000 
#    0.000    0.625    0.000    3.750    0.000    0.000 
#    0.000    0.000    0.000    0.000    0.000    0.000 
#
# Total GULP energy -178269.272049 kJ/mol
# GULP energy per Si atom -5570.914752 kJ/mol
# Density = 1.022013 g / cm^3
# Si number density = 10.243449 Si / 1000 Ang^3
#
#
#
# Elastic Constant Matrix: (Units=GPa)
#
#
# Indices 1 2 3 4 5 6 
#
# 1 10.7592 22.1701 14.0792 0.0000 -4.6559 0.0000
# 2 22.1701 33.6294 33.3707 0.0000 -5.9228 0.0000
# 3 14.0792 33.3707 80.6997 0.0000 -45.7158 0.0000
# 4 0.0000 0.0000 0.0000 18.0658 0.0000 -7.6188
# 5 -4.6559 -5.9228 -45.7158 0.0000 13.0353 0.0000
# 6 0.0000 0.0000 0.0000 -7.6188 0.0000 12.9644
#
#
#
# Elastic Compliance Matrix: (Units=1/GPa)
#
#
# Indices 1 2 3 4 5 6 
#
# 1 -0.381177 0.228009 0.046843 0.000000 0.131735 0.000000
# 2 0.228009 -0.106022 -0.023216 0.000000 -0.048153 0.000000
# 3 0.046843 -0.023216 -0.017555 0.000000 -0.055383 0.000000
# 4 0.000000 0.000000 0.000000 0.073592 0.000000 0.043248
# 5 0.131735 -0.048153 -0.055383 0.000000 -0.092343 0.000000
# 6 0.000000 0.000000 0.000000 0.043248 0.000000 0.102550
#
#
# Mechanical properties :
#
#
# Convention : Reuss Voigt Hill
#
# Bulk Modulus (GPa) = -674.93060 29.36981 -322.78039
# Shear Modulus (GPa) = -5.40704 12.51097 3.55197
#
# Velocity S-wave (km/s) = -1.62634 2.47388 1.31816
# Velocity P-wave (km/s) = 18.26710 4.74627 12.47317
#
# Compressibility (1/GPa) = -0.00148163
#
# Stress axis : x y z
#
# Youngs Moduli (GPa) = -2.62345 -9.43201 -56.96525
#
# Poissons Ratio (x) = 2.15058 2.66843
# Poissons Ratio (y) = 0.59817 -1.32249
# Poissons Ratio (z) = 0.12289 -0.21897
#
# Static dielectric constant tensor:
#      x y z
#    x 1.819940 0.000000 -0.020160 
#    y 0.000000 1.752900 0.000000 
#    z -0.020160 0.000000 1.682760 
# 
# From -- ./inp_files/295686.got.cif
#   From: 2010.05.17/outbox.ucp.g08.bks.cvg/sg12_148_cif.got.tgz:295686.got - 2010.06.11 11:47:21.
