data_PCOD9224160
_publ_section_title
;
Structure prediction by ZEFSAII (Michael W. Deem and Ramdas Pophale) SiO2 
 PCOD9224160
Probable space group: C 2/M
;
_chemical_formula_sum "Si O2"
_cell_formula_units_Z 32
_cell_length_a 18.000000
_cell_length_b 9.000000
_cell_length_c 30.000000
_cell_angle_alpha 90.000000
_cell_angle_beta 140.000000
_cell_angle_gamma 90.000000
_cell_volume 3123.947783
_symmetry_space_group_name_H-M "C 2/M"
_symmetry_group_IT_number 12
_symmetry_cell_setting 'monoclinic'
loop_
_space_group_symop_operation_xyz
x,y,z
-x,y,-z
-x,-y,-z
x,-y,z
1/2+x,1/2+y,z
1/2-x,1/2+y,-z
1/2-x,1/2-y,-z
1/2+x,1/2-y,z
loop_
_atom_site_type_symbol
_atom_site_label
_atom_site_fract_x
_atom_site_fract_y
_atom_site_fract_z
Si Si1 0.328026 0.822022 0.130968
Si Si2 0.012095 0.321734 0.140368
Si Si3 0.592446 0.679639 0.504885
Si Si4 0.411175 0.168790 0.268600
Si Si5 0.415689 0.178984 0.000783
Si Si6 0.590449 0.673418 0.644156
Si Si7 0.809996 0.173240 0.722043
Si Si8 0.839143 0.670717 0.649002
O O1 0.421763 0.777223 0.137192
O O2 0.365196 0.791345 0.198708
O O3 0.209104 0.744898 0.064758
O O4 0.316700 0.000000 0.122394
O O5 0.023688 0.500000 0.146382
O O6 0.131865 0.249198 0.208899
O O7 0.966339 0.274131 0.071528
O O8 0.500000 0.727225 0.500000
O O9 0.597510 0.500000 0.509732
O O10 0.536242 0.716307 0.431541
O O11 0.722499 0.729788 0.573081
O O12 0.382821 0.285373 0.293240
O O13 0.549997 0.166418 0.330902
O O14 0.371569 0.000000 0.261417
O O15 0.408975 0.000000 0.997733
O O16 0.500000 0.226061 0.000000
O O17 0.607627 0.500000 0.643591
O O18 0.681265 0.766555 0.657674
O O19 0.871603 0.230787 0.706115
O O20 0.814471 0.000000 0.728234
O O21 0.821074 0.500000 0.656709
#
# Coordination Sequence:
#
# PCOD9224160 Si02
#       8
#     8   8   8   8   8   8   8   8
#     4  10  21  39  63  87 117 160 200 236 290 355
#     4  10  21  41  64  86 118 162 202 237 293 357
#     4   9  17  33  61  88 111 152 206 246 289 360
#     4  10  22  39  59  88 124 158 197 245 298 352
#     4  10  23  40  60  91 123 152 195 246 294 345
#     4  11  23  39  60  86 119 159 202 247 302 359
#     4  12  24  37  59  92 122 152 202 254 298 348
#     4  10  19  39  65  86 118 161 200 242 298 358
#
# _framework density 10.243449
#
# number of rings (size 3 to 8) (size 9 to 14) (size 15 to 20)
#    0.000    1.750    2.500    1.875    1.750    2.750 
#    0.000    1.875    0.000    0.000    0.000    0.000 
#    0.000    0.000    0.000    0.000    0.000    0.000 
#
# Total GULP energy -178473.278873 kJ/mol
# GULP energy per Si atom -5577.289965 kJ/mol
# Density = 1.022013 g / cm^3
# Si number density = 10.243449 Si / 1000 Ang^3
#
#
#
# Elastic Constant Matrix: (Units=GPa)
#
#
# Indices 1 2 3 4 5 6 
#
# 1 47.6496 29.8798 40.5157 0.0000 -4.4245 0.0000
# 2 29.8798 -1.1684 41.9490 0.0001 -3.3355 -0.0001
# 3 40.5157 41.9490 127.8240 0.0000 9.8815 0.0000
# 4 0.0000 0.0001 0.0000 8.0176 0.0000 10.4215
# 5 -4.4245 -3.3355 9.8815 0.0000 24.6162 0.0000
# 6 0.0000 -0.0001 0.0000 10.4215 0.0000 -9.2933
#
#
#
# Elastic Compliance Matrix: (Units=1/GPa)
#
#
# Indices 1 2 3 4 5 6 
#
# 1 0.022239 0.019252 -0.014322 0.000000 0.012355 0.000000
# 2 0.019252 -0.043038 0.008468 0.000000 -0.005771 0.000000
# 3 -0.014322 0.008468 0.010005 0.000000 -0.005443 0.000000
# 4 0.000000 0.000000 0.000000 0.050751 0.000000 0.056911
# 5 0.012355 -0.005771 -0.005443 0.000000 0.044247 0.000000
# 6 0.000000 0.000000 0.000000 0.056911 0.000000 -0.043784
#
#
# Mechanical properties :
#
#
# Convention : Reuss Voigt Hill
#
# Bulk Modulus (GPa) = 62.49419 44.33269 53.41344
# Shear Modulus (GPa) = 263.72990 8.79882 136.26436
#
# Velocity S-wave (km/s) = 11.35828 2.07465 8.16439
# Velocity P-wave (km/s) = 14.23322 5.23693 10.72404
#
# Compressibility (1/GPa) = 0.01600149
#
# Stress axis : x y z
#
# Youngs Moduli (GPa) = 44.96515 -23.23539 99.95301
#
# Poissons Ratio (x) = 0.44733 1.43156
# Poissons Ratio (y) = -0.86566 -0.84640
# Poissons Ratio (z) = 0.64400 0.19676
#
# Static dielectric constant tensor:
#      x y z
#    x 1.849240 0.000000 0.005490 
#    y 0.000000 1.694610 0.000000 
#    z 0.005490 0.000000 1.736830 
# 
# From -- ./inp_files/378284.got.cif
#   From: 2010.05.17/outbox.ucp.g08.bks.cvg/sg12_190_cif.got.tgz:378284.got - 2010.06.11 11:47:21.
