data_PCOD9224883
_publ_section_title
;
Structure prediction by ZEFSAII (Michael W. Deem and Ramdas Pophale) SiO2 
 PCOD9224883
Probable space group: C 2/M
;
_chemical_formula_sum "Si O2"
_cell_formula_units_Z 32
_cell_length_a 24.000000
_cell_length_b 9.000000
_cell_length_c 30.000000
_cell_angle_alpha 90.000000
_cell_angle_beta 150.000000
_cell_angle_gamma 90.000000
_cell_volume 3240.000000
_symmetry_space_group_name_H-M "C 2/M"
_symmetry_group_IT_number 12
_symmetry_cell_setting 'monoclinic'
loop_
_space_group_symop_operation_xyz
x,y,z
-x,y,-z
-x,-y,-z
x,-y,z
1/2+x,1/2+y,z
1/2-x,1/2+y,-z
1/2-x,1/2-y,-z
1/2+x,1/2-y,z
loop_
_atom_site_type_symbol
_atom_site_label
_atom_site_fract_x
_atom_site_fract_y
_atom_site_fract_z
Si Si1 0.518081 0.170777 0.565398
Si Si2 0.101647 0.826837 0.359231
Si Si3 0.756204 0.676727 0.741989
Si Si4 0.324892 0.673402 0.486999
Si Si5 0.131109 0.827496 0.097670
Si Si6 0.675939 0.674537 0.027107
Si Si7 0.030936 0.678808 0.163749
Si Si8 0.078466 0.320959 0.819440
O O1 0.500000 0.173654 0.500000
O O2 0.636831 0.246150 0.656886
O O3 0.415626 0.253799 0.517847
O O4 0.520206 0.000000 0.582328
O O5 0.204848 0.752038 0.404693
O O6 0.128647 0.813818 0.430323
O O7 0.986883 0.747132 0.267317
O O8 0.095150 0.000000 0.343397
O O9 0.741704 0.500000 0.728333
O O10 0.814654 0.720869 0.828787
O O11 0.846262 0.726906 0.766893
O O12 0.310092 0.500000 0.465911
O O13 0.186422 0.813267 0.087638
O O14 0.141553 0.000000 0.119863
O O15 0.000000 0.797875 0.000000
O O16 0.660827 0.500000 0.005859
O O17 0.792985 0.727895 0.087678
O O18 0.566306 0.759390 0.935331
O O19 0.029509 0.500000 0.160465
O O20 0.992964 0.723013 0.186804
O O21 0.079737 0.500000 0.816811
#
# Coordination Sequence:
#
# PCOD9224883 Si02
#       8
#     8   8   8   8   8   8   8   8
#     4  11  26  45  66  94 126 161 205 257 310 369
#     4  10  22  40  63  93 121 156 203 249 302 361
#     4  11  24  40  61  90 122 163 207 252 310 371
#     4  10  22  42  66  91 123 158 197 248 306 364
#     4  10  20  37  60  88 121 160 205 254 307 364
#     4  10  21  37  59  86 118 158 203 250 305 358
#     4  10  22  39  58  84 120 159 202 249 302 362
#     4  10  22  38  58  87 120 158 204 250 302 359
#
# _framework density 9.8765429999999999
#
# number of rings (size 3 to 8) (size 9 to 14) (size 15 to 20)
#    0.000    1.750    1.250    1.875    3.500    4.750 
#    0.000    0.000    0.000    0.000    0.000    0.000 
#    0.000    0.000    0.000    0.000    0.000    0.000 
#
# Total GULP energy -178793.358015 kJ/mol
# GULP energy per Si atom -5587.292438 kJ/mol
# Density = 0.985406 g / cm^3
# Si number density = 9.876543 Si / 1000 Ang^3
#
#
#
# Elastic Constant Matrix: (Units=GPa)
#
#
# Indices 1 2 3 4 5 6 
#
# 1 67.1477 32.2290 7.5890 0.0000 21.8438 0.0000
# 2 32.2290 43.9893 13.9841 0.0002 6.9807 -0.0002
# 3 7.5890 13.9841 42.7747 0.0002 16.5649 0.0000
# 4 0.0000 0.0002 0.0002 20.5667 0.0000 8.2019
# 5 21.8438 6.9807 16.5649 0.0000 23.8702 0.0000
# 6 0.0000 -0.0002 0.0000 8.2019 0.0000 23.3197
#
#
#
# Elastic Compliance Matrix: (Units=1/GPa)
#
#
# Indices 1 2 3 4 5 6 
#
# 1 0.039541 -0.028241 0.017821 0.000000 -0.040292 0.000000
# 2 -0.028241 0.045630 -0.020168 0.000000 0.026495 0.000001
# 3 0.017821 -0.020168 0.042176 0.000000 -0.039678 0.000000
# 4 0.000000 0.000000 0.000000 0.056555 0.000000 -0.019891
# 5 -0.040292 0.026495 -0.039678 0.000000 0.098552 0.000000
# 6 0.000000 0.000001 0.000000 -0.019891 0.000000 0.049878
#
#
# Mechanical properties :
#
#
# Convention : Reuss Voigt Hill
#
# Bulk Modulus (GPa) = 15.11219 29.05731 22.08475
# Shear Modulus (GPa) = 12.03183 20.22527 16.12855
#
# Velocity S-wave (km/s) = 2.47070 3.20332 2.86056
# Velocity P-wave (km/s) = 3.97571 5.33141 4.70267
#
# Compressibility (1/GPa) = 0.06617173
#
# Stress axis : x y z
#
# Youngs Moduli (GPa) = 25.29047 21.91523 23.71030
#
# Poissons Ratio (x) = 0.61890 -0.42254
# Poissons Ratio (y) = 0.71422 0.47818
# Poissons Ratio (z) = -0.45070 0.44198
#
# Static dielectric constant tensor:
#      x y z
#    x 1.712860 0.000000 -0.012110 
#    y 0.000000 1.671530 0.000000 
#    z -0.012110 0.000000 1.661490 
# 
# From -- ./inp_files/382477.got.cif
#   From: 2010.05.17/outbox.ucp.g08.bks.cvg/sg12_192_cif.got.tgz:382477.got - 2010.06.11 11:47:21.
