data_PCOD9224961
_publ_section_title
;
Structure prediction by ZEFSAII (Michael W. Deem and Ramdas Pophale) SiO2 
 PCOD9224961
Probable space group: C 2/M
;
_chemical_formula_sum "Si O2"
_cell_formula_units_Z 32
_cell_length_a 18.000000
_cell_length_b 9.000000
_cell_length_c 30.000000
_cell_angle_alpha 90.000000
_cell_angle_beta 140.000000
_cell_angle_gamma 90.000000
_cell_volume 3123.947783
_symmetry_space_group_name_H-M "C 2/M"
_symmetry_group_IT_number 12
_symmetry_cell_setting 'monoclinic'
loop_
_space_group_symop_operation_xyz
x,y,z
-x,y,-z
-x,-y,-z
x,-y,z
1/2+x,1/2+y,z
1/2-x,1/2+y,-z
1/2-x,1/2-y,-z
1/2+x,1/2-y,z
loop_
_atom_site_type_symbol
_atom_site_label
_atom_site_fract_x
_atom_site_fract_y
_atom_site_fract_z
Si Si1 0.125577 0.669043 0.536821
Si Si2 0.498755 0.166765 0.170238
Si Si3 0.741943 0.181500 0.322131
Si Si4 0.763865 0.327050 0.836926
Si Si5 0.509472 0.170443 0.936420
Si Si6 0.123562 0.823905 0.445314
Si Si7 0.390684 0.179479 0.309472
Si Si8 0.736633 0.331654 0.927408
O O1 0.162899 0.500000 0.540309
O O2 0.215010 0.742062 0.612603
O O3 0.100056 0.783574 0.485638
O O4 0.000000 0.651082 0.500000
O O5 0.609138 0.223300 0.248620
O O6 0.531718 0.163055 0.133579
O O7 0.377492 0.248412 0.110937
O O8 0.476557 0.000000 0.176431
O O9 0.823789 0.247172 0.320782
O O10 0.749906 0.000000 0.327019
O O11 0.769844 0.500000 0.823263
O O12 0.682404 0.233010 0.767101
O O13 0.719998 0.335493 0.866802
O O14 0.893934 0.262902 0.904083
O O15 0.520454 0.000000 0.958532
O O16 0.637617 0.234377 0.001996
O O17 0.250000 0.750000 0.500000
O O18 0.021624 0.744021 0.370370
O O19 0.123878 0.000000 0.437182
O O20 0.392883 0.000000 0.314169
O O21 0.735827 0.500000 0.945245
#
# Coordination Sequence:
#
# PCOD9224961 Si02
#       8
#     8   8   8   8   8   8   8   8
#     4  11  23  40  65  97 130 162 203 254 302 361
#     4  10  21  37  58  84 120 159 198 248 304 362
#     4  11  22  39  64  91 119 163 212 254 303 363
#     4  10  20  38  61  86 118 160 206 250 300 365
#     4   9  17  35  60  86 114 156 207 250 298 362
#     4  12  26  45  69  96 129 166 205 251 308 369
#     4  12  24  40  63  92 124 159 201 254 308 365
#     4  10  21  35  58  88 119 155 200 254 306 359
#
# _framework density 10.243449
#
# number of rings (size 3 to 8) (size 9 to 14) (size 15 to 20)
#    0.000    1.375    2.500    3.750    0.000    4.500 
#    0.000    3.125    0.000    1.500    0.000    0.000 
#    0.000    0.000    0.000    0.000    0.000    0.000 
#
# Total GULP energy -178355.417954 kJ/mol
# GULP energy per Si atom -5573.606811 kJ/mol
# Density = 1.022013 g / cm^3
# Si number density = 10.243449 Si / 1000 Ang^3
#
#
#
# Elastic Constant Matrix: (Units=GPa)
#
#
# Indices 1 2 3 4 5 6 
#
# 1 42.9326 10.6045 8.8683 0.0000 9.7595 0.0000
# 2 10.6045 92.1187 29.7835 0.0000 8.8573 0.0000
# 3 8.8683 29.7835 127.9430 0.0000 16.4166 0.0000
# 4 0.0000 0.0000 0.0000 29.1857 0.0000 1.2210
# 5 9.7595 8.8573 16.4166 0.0000 26.1710 0.0000
# 6 0.0000 0.0000 0.0000 1.2210 0.0000 16.4437
#
#
#
# Elastic Compliance Matrix: (Units=1/GPa)
#
#
# Indices 1 2 3 4 5 6 
#
# 1 0.025847 -0.002069 -0.000177 0.000000 -0.008827 0.000000
# 2 -0.002069 0.012052 -0.002434 0.000000 -0.001781 0.000000
# 3 -0.000177 -0.002434 0.009005 0.000000 -0.004759 0.000000
# 4 0.000000 0.000000 0.000000 0.034370 0.000000 -0.002552
# 5 -0.008827 -0.001781 -0.004759 0.000000 0.045090 0.000000
# 6 0.000000 0.000000 0.000000 -0.002552 0.000000 0.061003
#
#
# Mechanical properties :
#
#
# Convention : Reuss Voigt Hill
#
# Bulk Modulus (GPa) = 26.63574 40.16742 33.40158
# Shear Modulus (GPa) = 23.89576 28.60927 26.25251
#
# Velocity S-wave (km/s) = 3.41895 3.74099 3.58359
# Velocity P-wave (km/s) = 5.34932 6.18942 5.78464
#
# Compressibility (1/GPa) = 0.03754354
#
# Stress axis : x y z
#
# Youngs Moduli (GPa) = 38.68969 82.97508 111.04400
#
# Poissons Ratio (x) = 0.17171 0.01968
# Poissons Ratio (y) = 0.08006 0.27024
# Poissons Ratio (z) = 0.00686 0.20193
#
# Static dielectric constant tensor:
#      x y z
#    x 1.838070 0.000000 -0.027490 
#    y 0.000000 1.754340 0.000000 
#    z -0.027490 0.000000 1.701080 
# 
# From -- ./inp_files/378493.got.cif
#   From: 2010.05.17/outbox.ucp.g08.bks.cvg/sg12_190_cif.got.tgz:378493.got - 2010.06.11 11:47:21.
