data_PCOD9224333
_publ_section_title
;
Structure prediction by ZEFSAII (Michael W. Deem and Ramdas Pophale) SiO2 
 PCOD9224333
Probable space group: C 2/M
;
_chemical_formula_sum "Si O2"
_cell_formula_units_Z 32
_cell_length_a 21.000000
_cell_length_b 9.000000
_cell_length_c 21.000000
_cell_angle_alpha 90.000000
_cell_angle_beta 120.000000
_cell_angle_gamma 90.000000
_cell_volume 3437.254828
_symmetry_space_group_name_H-M "C 2/M"
_symmetry_group_IT_number 12
_symmetry_cell_setting 'monoclinic'
loop_
_space_group_symop_operation_xyz
x,y,z
-x,y,-z
-x,-y,-z
x,-y,z
1/2+x,1/2+y,z
1/2-x,1/2+y,-z
1/2-x,1/2-y,-z
1/2+x,1/2-y,z
loop_
_atom_site_type_symbol
_atom_site_label
_atom_site_fract_x
_atom_site_fract_y
_atom_site_fract_z
Si Si1 0.592512 0.823334 0.416672
Si Si2 0.057417 0.177850 0.271068
Si Si3 0.672791 0.820998 0.586640
Si Si4 0.458596 0.332484 0.411697
Si Si5 0.307506 0.320102 0.736530
Si Si6 0.401484 0.177826 0.166706
Si Si7 0.255867 0.680030 0.850185
Si Si8 0.820366 0.678025 0.000743
O O1 0.599790 0.735157 0.355002
O O2 0.647695 0.780477 0.502213
O O3 0.510651 0.776110 0.398138
O O4 0.597436 0.000000 0.409714
O O5 0.109536 0.225556 0.238282
O O6 0.975957 0.244782 0.226198
O O7 0.052641 0.000000 0.270570
O O8 0.617925 0.742694 0.608874
O O9 0.753321 0.779196 0.651308
O O10 0.663882 0.000000 0.586549
O O11 0.500000 0.345551 0.500000
O O12 0.452539 0.500000 0.381707
O O13 0.307367 0.500000 0.738457
O O14 0.274738 0.271917 0.787877
O O15 0.327195 0.221678 0.168583
O O16 0.385464 0.209348 0.083686
O O17 0.409091 0.000000 0.177918
O O18 0.259533 0.500000 0.856490
O O19 0.315138 0.750160 0.928512
O O20 0.812788 0.500000 0.992900
O O21 0.750000 0.750000 0.000000
#
# Coordination Sequence:
#
# PCOD9224333 Si02
#       8
#     8   8   8   8   8   8   8   8
#     4  10  20  34  53  76 104 142 188 230 275 331
#     4  11  23  37  54  78 111 147 185 232 280 326
#     4   9  18  34  56  77 101 143 190 227 271 332
#     4   9  17  30  49  77 108 131 164 222 280 323
#     4   9  20  38  56  78 110 147 186 228 276 328
#     4   9  19  35  57  84 111 142 180 222 269 324
#     4   9  18  35  60  85 110 143 181 223 270 324
#     4   9  17  32  56  86 115 142 176 220 268 320
#
# _framework density 9.3097549999999991
#
# number of rings (size 3 to 8) (size 9 to 14) (size 15 to 20)
#    0.000    2.625    0.000    2.250    1.750    5.000 
#    0.000    3.750    0.000    3.750    0.000    0.000 
#    0.000    0.000    0.000    0.000    0.000    0.000 
#
# Total GULP energy -178297.559021 kJ/mol
# GULP energy per Si atom -5571.798719 kJ/mol
# Density = 0.928857 g / cm^3
# Si number density = 9.309755 Si / 1000 Ang^3
#
#
#
# Elastic Constant Matrix: (Units=GPa)
#
#
# Indices 1 2 3 4 5 6 
#
# 1 87.4971 15.9899 50.1536 0.0000 -11.0240 0.0000
# 2 15.9899 35.1093 29.9794 0.0000 0.1699 0.0000
# 3 50.1536 29.9794 115.0169 0.0000 -10.5719 0.0000
# 4 0.0000 0.0000 0.0000 31.0867 0.0000 -0.9902
# 5 -11.0240 0.1699 -10.5719 0.0000 10.3993 0.0000
# 6 0.0000 0.0000 0.0000 -0.9902 0.0000 14.6693
#
#
#
# Elastic Compliance Matrix: (Units=1/GPa)
#
#
# Indices 1 2 3 4 5 6 
#
# 1 0.016570 -0.003082 -0.005298 0.000000 0.012230 0.000000
# 2 -0.003082 0.038470 -0.009973 0.000000 -0.014034 0.000000
# 3 -0.005298 -0.009973 0.014453 0.000000 0.009240 0.000000
# 4 0.000000 0.000000 0.000000 0.032237 0.000000 0.002176
# 5 0.012230 -0.014034 0.009240 0.000000 0.118747 0.000000
# 6 0.000000 0.000000 0.000000 0.002176 0.000000 0.068317
#
#
# Mechanical properties :
#
#
# Convention : Reuss Voigt Hill
#
# Bulk Modulus (GPa) = 30.49986 47.76322 39.13154
# Shear Modulus (GPa) = 14.86194 20.66442 17.76318
#
# Velocity S-wave (km/s) = 2.82829 3.33502 3.09205
# Velocity P-wave (km/s) = 5.20402 6.36693 5.81462
#
# Compressibility (1/GPa) = 0.03278703
#
# Stress axis : x y z
#
# Youngs Moduli (GPa) = 60.35081 25.99419 69.18744
#
# Poissons Ratio (x) = 0.08011 0.36655
# Poissons Ratio (y) = 0.18599 0.69004
# Poissons Ratio (z) = 0.31974 0.25925
#
# Static dielectric constant tensor:
#      x y z
#    x 1.654570 0.000000 -0.031200 
#    y 0.000000 1.627560 0.000000 
#    z -0.031200 0.000000 1.682650 
# 
# From -- ./inp_files/320164.got.cif
#   From: 2010.05.17/outbox.ucp.g08.bks.cvg/sg12_161_cif.got.tgz:320164.got - 2010.06.11 11:47:21.
