data_PCOD9224243
_publ_section_title
;
Structure prediction by ZEFSAII (Michael W. Deem and Ramdas Pophale) SiO2 
 PCOD9224243
Probable space group: C 2/M
;
_chemical_formula_sum "Si O2"
_cell_formula_units_Z 20
_cell_length_a 27.000000
_cell_length_b 9.000000
_cell_length_c 18.000000
_cell_angle_alpha 90.000000
_cell_angle_beta 150.000000
_cell_angle_gamma 90.000000
_cell_volume 2187.000000
_symmetry_space_group_name_H-M "C 2/M"
_symmetry_group_IT_number 12
_symmetry_cell_setting 'monoclinic'
loop_
_space_group_symop_operation_xyz
x,y,z
-x,y,-z
-x,-y,-z
x,-y,z
1/2+x,1/2+y,z
1/2-x,1/2+y,-z
1/2-x,1/2-y,-z
1/2+x,1/2-y,z
loop_
_atom_site_type_symbol
_atom_site_label
_atom_site_fract_x
_atom_site_fract_y
_atom_site_fract_z
Si Si1 0.983990 0.176530 0.770313
Si Si2 0.914831 0.326219 0.827782
Si Si3 0.515701 0.673310 0.434068
Si Si4 0.807050 0.178447 0.426917
Si Si5 0.357285 0.822673 0.124243
O O1 0.955699 0.228532 0.814539
O O2 0.886055 0.216899 0.594149
O O3 0.082628 0.257867 0.868638
O O4 0.998105 0.000000 0.783811
O O5 0.904039 0.500000 0.790348
O O6 0.805564 0.269351 0.710501
O O7 0.000000 0.322803 0.000000
O O8 0.500000 0.676285 0.500000
O O9 0.503417 0.500000 0.392586
O O10 0.627737 0.721530 0.559831
O O11 0.433508 0.772780 0.287758
O O12 0.798218 0.000000 0.413955
O O13 0.347685 0.000000 0.106764
O O14 0.250000 0.750000 0.000000
#
# Coordination Sequence:
#
# PCOD9224243 Si02
#       5
#     8   8   8   8   8
#     4  10  20  36  56  76 102 139 183 226 270 321
#     4  10  20  33  51  78 110 142 178 221 270 323
#     4   9  18  34  56  81 111 147 185 225 270 319
#     4   8  16  32  52  75 104 140 180 218 259 311
#     4  11  22  37  57  81 110 142 180 224 273 329
#
# _framework density 9.1449470000000002
#
# number of rings (size 3 to 8) (size 9 to 14) (size 15 to 20)
#    0.000    2.400    0.000    4.200    0.000    2.400 
#    0.000    8.000    0.000    0.000    0.000    0.000 
#    0.000    0.000    0.000    0.000    0.000    0.000 
#
# Total GULP energy -111378.713353 kJ/mol
# GULP energy per Si atom -5568.935668 kJ/mol
# Density = 0.912413 g / cm^3
# Si number density = 9.144947 Si / 1000 Ang^3
#
#
#
# Elastic Constant Matrix: (Units=GPa)
#
#
# Indices 1 2 3 4 5 6 
#
# 1 151.4385 57.5747 72.5941 0.0000 28.6134 0.0000
# 2 57.5747 84.3124 44.9321 0.0000 16.3938 0.0000
# 3 72.5941 44.9321 80.6697 0.0000 47.2469 0.0000
# 4 0.0000 0.0000 0.0000 19.6441 0.0000 -8.7510
# 5 28.6134 16.3938 47.2469 0.0000 38.3803 0.0000
# 6 0.0000 0.0000 0.0000 -8.7510 0.0000 -27.5500
#
#
#
# Elastic Compliance Matrix: (Units=1/GPa)
#
#
# Indices 1 2 3 4 5 6 
#
# 1 0.014772 -0.001256 -0.023145 0.000000 0.018016 0.000000
# 2 -0.001256 0.020070 -0.019985 0.000000 0.016966 0.000000
# 3 -0.023145 -0.019985 0.104834 0.000000 -0.103262 0.000000
# 4 0.000000 0.000000 0.000000 0.044596 0.000000 -0.014165
# 5 0.018016 0.016966 -0.103262 0.000000 0.132494 0.000000
# 6 0.000000 0.000000 0.000000 -0.014165 0.000000 -0.031798
#
#
# Mechanical properties :
#
#
# Convention : Reuss Voigt Hill
#
# Bulk Modulus (GPa) = 19.64484 74.06917 46.85701
# Shear Modulus (GPa) = 12.79729 15.51618 14.15674
#
# Velocity S-wave (km/s) = 2.64804 2.91580 2.78514
# Velocity P-wave (km/s) = 4.48482 7.20563 6.00145
#
# Compressibility (1/GPa) = 0.05090394
#
# Stress axis : x y z
#
# Youngs Moduli (GPa) = 67.69729 49.82584 9.53885
#
# Poissons Ratio (x) = 0.06256 0.22078
# Poissons Ratio (y) = 0.08500 0.19064
# Poissons Ratio (z) = 1.56686 0.99579
#
# Static dielectric constant tensor:
#      x y z
#    x 1.670550 0.000000 -0.022920 
#    y 0.000000 1.624030 0.000000 
#    z -0.022920 0.000000 1.618910 
# 
# From -- ./inp_files/162369.got.cif
#   From: 2010.05.17/outbox.ucp.g08.bks.cvg/sg12_82_cif.got.tgz:162369.got - 2010.06.11 11:47:21.
