data_PCOD9224021
_publ_section_title
;
Structure prediction by ZEFSAII (Michael W. Deem and Ramdas Pophale) SiO2 
 PCOD9224021
Probable space group: C 2/M
;
_chemical_formula_sum "Si O2"
_cell_formula_units_Z 32
_cell_length_a 15.000000
_cell_length_b 9.000000
_cell_length_c 30.000000
_cell_angle_alpha 90.000000
_cell_angle_beta 50.000000
_cell_angle_gamma 90.000000
_cell_volume 3102.479995
_symmetry_space_group_name_H-M "C 2/M"
_symmetry_group_IT_number 12
_symmetry_cell_setting 'monoclinic'
loop_
_space_group_symop_operation_xyz
x,y,z
-x,y,-z
-x,-y,-z
x,-y,z
1/2+x,1/2+y,z
1/2-x,1/2+y,-z
1/2-x,1/2-y,-z
1/2+x,1/2-y,z
loop_
_atom_site_type_symbol
_atom_site_label
_atom_site_fract_x
_atom_site_fract_y
_atom_site_fract_z
Si Si1 0.766864 0.822155 0.946289
Si Si2 0.531939 0.320104 0.854804
Si Si3 0.749017 0.174078 0.548235
Si Si4 0.156416 0.178054 0.390647
Si Si5 0.629760 0.678133 0.730969
Si Si6 0.908460 0.323545 0.757328
Si Si7 0.480821 0.173024 0.637847
Si Si8 0.325795 0.323449 0.109393
O O1 0.684732 0.759302 0.933953
O O2 0.898523 0.781572 0.889077
O O3 0.757850 0.000000 0.952309
O O4 0.750000 0.750000 0.000000
O O5 0.539860 0.500000 0.853218
O O6 0.612860 0.272638 0.787818
O O7 0.572617 0.269018 0.890326
O O8 0.750000 0.250000 0.500000
O O9 0.831370 0.229663 0.561873
O O10 0.615634 0.188187 0.608048
O O11 0.773938 0.000000 0.533622
O O12 0.265237 0.243481 0.328165
O O13 0.047233 0.232628 0.396925
O O14 0.161423 0.000000 0.389562
O O15 0.645343 0.500000 0.724757
O O16 0.509944 0.725092 0.745759
O O17 0.938991 0.500000 0.750136
O O18 0.903954 0.288508 0.705954
O O19 0.790392 0.303262 0.823019
O O20 0.459454 0.000000 0.633969
O O21 0.338562 0.500000 0.096790
#
# Coordination Sequence:
#
# PCOD9224021 Si02
#       8
#     8   8   8   8   8   8   8   8
#     4  11  23  41  60  83 115 151 197 246 289 341
#     4   9  20  38  60  85 117 154 191 232 285 351
#     4  10  23  42  62  83 117 156 199 248 297 347
#     4  11  23  40  60  89 122 154 193 244 297 347
#     4  11  20  35  61  90 120 157 196 234 287 354
#     4  10  19  35  60  88 123 154 188 237 294 350
#     4  10  21  40  62  87 120 159 196 239 293 354
#     4  10  20  37  62  87 113 153 192 232 289 346
#
# _framework density 10.314329000000001
#
# number of rings (size 3 to 8) (size 9 to 14) (size 15 to 20)
#    0.000    1.750    2.500    1.875    0.000    5.000 
#    0.000    8.750    0.000    0.000    0.000    0.000 
#    0.000    0.000    0.000    0.000    0.000    0.000 
#
# Total GULP energy -178754.538032 kJ/mol
# GULP energy per Si atom -5586.079314 kJ/mol
# Density = 1.029085 g / cm^3
# Si number density = 10.314329 Si / 1000 Ang^3
#
#
#
# Elastic Constant Matrix: (Units=GPa)
#
#
# Indices 1 2 3 4 5 6 
#
# 1 102.9906 25.3782 5.0808 0.0000 39.5492 0.0001
# 2 25.3782 37.6358 14.3386 0.0000 16.1744 0.0000
# 3 5.0808 14.3386 57.6585 0.0000 37.5327 0.0000
# 4 0.0000 0.0000 0.0000 28.8476 0.0000 5.5557
# 5 39.5492 16.1744 37.5327 0.0000 42.6541 0.0000
# 6 0.0001 0.0000 0.0000 5.5557 0.0000 32.1540
#
#
#
# Elastic Compliance Matrix: (Units=1/GPa)
#
#
# Indices 1 2 3 4 5 6 
#
# 1 0.037097 -0.012376 0.044812 0.000000 -0.069136 0.000000
# 2 -0.012376 0.035873 -0.015087 0.000000 0.011148 0.000000
# 3 0.044812 -0.015087 0.094730 0.000000 -0.119185 0.000000
# 4 0.000000 0.000000 0.000000 0.035858 0.000000 -0.006196
# 5 -0.069136 0.011148 -0.119185 0.000000 0.188195 0.000000
# 6 0.000000 0.000000 0.000000 -0.006196 0.000000 0.032171
#
#
# Mechanical properties :
#
#
# Convention : Reuss Voigt Hill
#
# Bulk Modulus (GPa) = 4.94074 31.98669 18.46371
# Shear Modulus (GPa) = 10.94832 30.96363 20.95598
#
# Velocity S-wave (km/s) = 2.30627 3.87848 3.19073
# Velocity P-wave (km/s) = 3.08092 5.96627 4.74808
#
# Compressibility (1/GPa) = 0.20239877
#
# Stress axis : x y z
#
# Youngs Moduli (GPa) = 26.95625 27.87630 10.55633
#
# Poissons Ratio (x) = 0.34500 -0.47305
# Poissons Ratio (y) = 0.33361 0.15926
# Poissons Ratio (z) = -1.20797 0.42057
#
# Static dielectric constant tensor:
#      x y z
#    x 1.772470 0.000000 -0.013930 
#    y 0.000000 1.693700 0.000000 
#    z -0.013930 0.000000 1.741130 
# 
# From -- ./inp_files/338882.got.cif
#   From: 2010.05.17/outbox.ucp.g08.bks.cvg/sg12_170_cif.got.tgz:338882.got - 2010.06.11 11:47:21.
