data_PCOD9224361
_publ_section_title
;
Structure prediction by ZEFSAII (Michael W. Deem and Ramdas Pophale) SiO2 
 PCOD9224361
Probable space group: C 2/M
;
_chemical_formula_sum "Si O2"
_cell_formula_units_Z 24
_cell_length_a 21.000000
_cell_length_b 9.000000
_cell_length_c 15.000000
_cell_angle_alpha 90.000000
_cell_angle_beta 70.000000
_cell_angle_gamma 90.000000
_cell_volume 2664.028580
_symmetry_space_group_name_H-M "C 2/M"
_symmetry_group_IT_number 12
_symmetry_cell_setting 'monoclinic'
loop_
_space_group_symop_operation_xyz
x,y,z
-x,y,-z
-x,-y,-z
x,-y,z
1/2+x,1/2+y,z
1/2-x,1/2+y,-z
1/2-x,1/2-y,-z
1/2+x,1/2-y,z
loop_
_atom_site_type_symbol
_atom_site_label
_atom_site_fract_x
_atom_site_fract_y
_atom_site_fract_z
Si Si1 0.593384 0.822539 0.376751
Si Si2 0.362935 0.677013 0.281791
Si Si3 0.554808 0.177597 0.599989
Si Si4 0.233789 0.171034 0.274125
Si Si5 0.075128 0.178690 0.938507
Si Si6 0.798112 0.671026 0.046537
O O1 0.524234 0.777762 0.360150
O O2 0.581090 0.793144 0.487460
O O3 0.659880 0.740606 0.313050
O O4 0.601225 0.000000 0.362690
O O5 0.360373 0.500000 0.286346
O O6 0.401018 0.740995 0.348320
O O7 0.287430 0.740582 0.308429
O O8 0.403584 0.721091 0.172250
O O9 0.558115 0.000000 0.612005
O O10 0.262511 0.178374 0.160155
O O11 0.231968 0.000000 0.303195
O O12 0.130408 0.247868 0.977337
O O13 0.078493 0.000000 0.942590
O O14 0.000000 0.227090 0.000000
O O15 0.808065 0.500000 0.017471
O O16 0.750000 0.750000 0.000000
#
# Coordination Sequence:
#
# PCOD9224361 Si02
#       6
#     8   8   8   8   8   8
#     4   9  19  36  56  77 103 137 173 210 257 308
#     4  10  20  34  54  78 104 137 174 211 256 308
#     4   9  19  36  55  76 105 137 170 212 258 305
#     4  10  21  36  54  77 105 136 172 215 257 300
#     4   9  19  36  55  76 105 137 170 213 260 304
#     4  10  21  36  54  77 105 137 173 212 255 304
#
# _framework density 9.0089120000000005
#
# number of rings (size 3 to 8) (size 9 to 14) (size 15 to 20)
#    0.000    2.500    0.000    2.500    0.000    6.333 
#    0.000    6.667    0.000    0.000    0.000    0.000 
#    0.000    0.000    0.000    0.000    0.000    0.000 
#
# Total GULP energy -133905.183029 kJ/mol
# GULP energy per Si atom -5579.382626 kJ/mol
# Density = 0.898841 g / cm^3
# Si number density = 9.008912 Si / 1000 Ang^3
#
#
#
# Elastic Constant Matrix: (Units=GPa)
#
#
# Indices 1 2 3 4 5 6 
#
# 1 78.0323 27.2678 6.0678 0.0000 2.7320 0.0000
# 2 27.2678 18.0321 14.5859 0.0000 4.0826 0.0000
# 3 6.0678 14.5859 -9.2112 0.0000 0.6643 0.0000
# 4 0.0000 0.0000 0.0000 25.7767 0.0000 2.4490
# 5 2.7320 4.0826 0.6643 0.0000 39.4182 0.0000
# 6 0.0000 0.0000 0.0000 2.4490 0.0000 35.0331
#
#
#
# Elastic Compliance Matrix: (Units=1/GPa)
#
#
# Indices 1 2 3 4 5 6 
#
# 1 0.020444 -0.018425 -0.015654 0.000000 0.000755 0.000000
# 2 -0.018425 0.041320 0.053012 0.000000 -0.003896 0.000000
# 3 -0.015654 0.053012 -0.035206 0.000000 -0.003812 0.000000
# 4 0.000000 0.000000 0.000000 0.039054 0.000000 -0.002730
# 5 0.000755 -0.003896 -0.003812 0.000000 0.025784 0.000000
# 6 0.000000 0.000000 0.000000 -0.002730 0.000000 0.028735
#
#
# Mechanical properties :
#
#
# Convention : Reuss Voigt Hill
#
# Bulk Modulus (GPa) = 15.52183 20.29958 17.91070
# Shear Modulus (GPa) = 48.19743 22.64104 35.41924
#
# Velocity S-wave (km/s) = 5.17764 3.54869 4.43853
# Velocity P-wave (km/s) = 6.66163 5.29922 6.01910
#
# Compressibility (1/GPa) = 0.06442541
#
# Stress axis : x y z
#
# Youngs Moduli (GPa) = 48.91324 24.20152 -28.40437
#
# Poissons Ratio (x) = 0.44591 -0.44463
# Poissons Ratio (y) = 0.90121 1.50577
# Poissons Ratio (z) = 0.76566 -1.28297
#
# Static dielectric constant tensor:
#      x y z
#    x 1.582500 0.000000 -0.007500 
#    y 0.000000 1.602870 0.000000 
#    z -0.007500 0.000000 1.603310 
# 
# From -- ./inp_files/229862.got.cif
#   From: 2010.05.17/outbox.ucp.g08.bks.cvg/sg12_115_cif.got.tgz:229862.got - 2010.06.11 11:47:21.
