data_PCOD9224510
_publ_section_title
;
Structure prediction by ZEFSAII (Michael W. Deem and Ramdas Pophale) SiO2 
 PCOD9224510
Probable space group: C 2/M
;
_chemical_formula_sum "Si O2"
_cell_formula_units_Z 28
_cell_length_a 24.000000
_cell_length_b 15.000000
_cell_length_c 9.000000
_cell_angle_alpha 90.000000
_cell_angle_beta 120.000000
_cell_angle_gamma 90.000000
_cell_volume 2805.922308
_symmetry_space_group_name_H-M "C 2/M"
_symmetry_group_IT_number 12
_symmetry_cell_setting 'monoclinic'
loop_
_space_group_symop_operation_xyz
x,y,z
-x,y,-z
-x,-y,-z
x,-y,z
1/2+x,1/2+y,z
1/2-x,1/2+y,-z
1/2-x,1/2-y,-z
1/2+x,1/2-y,z
loop_
_atom_site_type_symbol
_atom_site_label
_atom_site_fract_x
_atom_site_fract_y
_atom_site_fract_z
Si Si1 0.398598 0.902092 0.140900
Si Si2 0.251522 0.101118 0.854745
Si Si3 0.013858 0.716110 0.338197
Si Si4 0.015619 0.097135 0.698313
Si Si5 0.746417 0.277656 0.324089
Si Si6 0.839808 0.102735 0.981427
Si Si7 0.131728 0.399590 0.548016
O O1 0.451372 0.827814 0.181062
O O2 0.386720 0.902050 0.302455
O O3 0.424450 0.000000 0.135266
O O4 0.328367 0.891765 0.978184
O O5 0.234069 0.187535 0.736896
O O6 0.237473 0.000000 0.778835
O O7 0.214139 0.108542 0.961000
O O8 0.022405 0.817009 0.297393
O O9 0.000000 0.717664 0.500000
O O10 0.076265 0.657143 0.396217
O O11 0.000000 0.093598 0.500000
O O12 0.997844 0.000000 0.735305
O O13 0.090743 0.113500 0.843170
O O14 0.750000 0.250000 0.500000
O O15 0.681732 0.323346 0.168555
O O16 0.800463 0.352329 0.373772
O O17 0.838421 0.000000 0.921724
O O18 0.133868 0.500000 0.494150
#
# Coordination Sequence:
#
# PCOD9224510 Si02
#       7
#     8   8   8   8   8   8   8
#     4   9  16  30  53  84 112 139 183 245 303 349
#     4  10  21  35  57  85 111 147 197 256 306 352
#     4   9  17  27  49  82 115 149 180 234 296 347
#     4   9  18  30  51  87 120 146 185 245 313 363
#     4  12  25  37  56  84 120 166 202 239 295 365
#     4  10  20  37  62  87 116 155 200 254 311 359
#     4  10  20  35  55  81 115 153 194 239 297 360
#
# _framework density 9.9788940000000004
#
# number of rings (size 3 to 8) (size 9 to 14) (size 15 to 20)
#    0.000    2.143    1.429    2.143    6.000    2.857 
#    0.000    0.000    0.000    3.429    0.000    8.000 
#    0.000    0.000    0.000    0.000    0.000    0.000 
#
# Total GULP energy -156069.880238 kJ/mol
# GULP energy per Si atom -5573.924294 kJ/mol
# Density = 0.995618 g / cm^3
# Si number density = 9.978894 Si / 1000 Ang^3
#
#
#
# Elastic Constant Matrix: (Units=GPa)
#
#
# Indices 1 2 3 4 5 6 
#
# 1 13.5103 32.2825 18.9092 0.0000 19.6699 0.0000
# 2 32.2825 181.6616 47.6554 0.0000 15.1250 0.0000
# 3 18.9092 47.6554 65.1136 0.0000 13.0261 0.0000
# 4 0.0000 0.0000 0.0000 25.3340 0.0000 18.5527
# 5 19.6699 15.1250 13.0261 0.0000 22.4355 0.0000
# 6 0.0000 0.0000 0.0000 18.5527 0.0000 12.6373
#
#
#
# Elastic Compliance Matrix: (Units=1/GPa)
#
#
# Indices 1 2 3 4 5 6 
#
# 1 -0.165227 0.015889 0.010768 0.000000 0.127897 0.000000
# 2 0.015889 0.005359 -0.005687 0.000000 -0.014241 0.000000
# 3 0.010768 -0.005687 0.019816 0.000000 -0.017112 0.000000
# 4 0.000000 0.000000 0.000000 -0.525438 0.000000 0.771394
# 5 0.127897 -0.014241 -0.017112 0.000000 -0.048024 0.000000
# 6 0.000000 0.000000 0.000000 0.771394 0.000000 -1.053349
#
#
# Mechanical properties :
#
#
# Convention : Reuss Voigt Hill
#
# Bulk Modulus (GPa) = -10.19229 50.88663 20.34717
# Shear Modulus (GPa) = -2.71517 22.84390 10.06437
#
# Velocity S-wave (km/s) = -1.16765 3.38688 2.24806
# Velocity P-wave (km/s) = 2.63361 6.39117 4.11772
#
# Compressibility (1/GPa) = -0.09811341
#
# Stress axis : x y z
#
# Youngs Moduli (GPa) = -6.05228 186.60795 50.46308
#
# Poissons Ratio (x) = -2.96496 -0.54337
# Poissons Ratio (y) = 0.09616 0.28700
# Poissons Ratio (z) = 0.06517 1.06129
#
# Static dielectric constant tensor:
#      x y z
#    x 1.657790 0.000000 0.011470 
#    y 0.000000 1.757390 0.000000 
#    z 0.011470 0.000000 1.702960 
# 
# From -- ./inp_files/96943.got.cif
#   From: 2010.05.17/outbox.ucp.g08.bks.cvg/sg12_49_cif.got.tgz:96943.got - 2010.06.11 11:47:21.
