data_PCOD9224908
_publ_section_title
;
Structure prediction by ZEFSAII (Michael W. Deem and Ramdas Pophale) SiO2 
 PCOD9224908
Probable space group: C 2/M
;
_chemical_formula_sum "Si O2"
_cell_formula_units_Z 28
_cell_length_a 18.000000
_cell_length_b 15.000000
_cell_length_c 12.000000
_cell_angle_alpha 90.000000
_cell_angle_beta 120.000000
_cell_angle_gamma 90.000000
_cell_volume 2805.922308
_symmetry_space_group_name_H-M "C 2/M"
_symmetry_group_IT_number 12
_symmetry_cell_setting 'monoclinic'
loop_
_space_group_symop_operation_xyz
x,y,z
-x,y,-z
-x,-y,-z
x,-y,z
1/2+x,1/2+y,z
1/2-x,1/2+y,-z
1/2-x,1/2-y,-z
1/2+x,1/2-y,z
loop_
_atom_site_type_symbol
_atom_site_label
_atom_site_fract_x
_atom_site_fract_y
_atom_site_fract_z
Si Si1 0.808836 0.399022 0.740050
Si Si2 0.853963 0.704778 0.987005
Si Si3 0.776382 0.106963 0.941639
Si Si4 0.555262 0.231889 0.438929
Si Si5 0.000720 0.395790 0.213830
Si Si6 0.158916 0.897873 0.446075
Si Si7 0.201141 0.600711 0.637660
O O1 0.801861 0.500000 0.783494
O O2 0.898389 0.397420 0.740403
O O3 0.728245 0.385929 0.598245
O O4 0.818441 0.323696 0.839874
O O5 0.791806 0.649868 0.024134
O O6 0.945545 0.658367 0.081023
O O7 0.848439 0.812738 0.996340
O O8 0.731067 0.108737 0.787032
O O9 0.797168 0.000000 0.979188
O O10 0.500000 0.266671 0.500000
O O11 0.497663 0.164225 0.322506
O O12 0.591978 0.317219 0.401219
O O13 0.633443 0.173379 0.546273
O O14 0.972693 0.500000 0.202961
O O15 0.214825 0.891610 0.376256
O O16 0.124831 0.000000 0.428736
O O17 0.165622 0.500000 0.592987
#
# Coordination Sequence:
#
# PCOD9224908 Si02
#       7
#     8   8   8   8   8   8   8
#     4  10  20  37  62  88 114 152 202 252 297 351
#     4  11  22  37  58  87 122 160 194 241 305 357
#     4  10  22  38  60  88 117 156 204 246 292 356
#     4  12  24  36  58  93 127 158 193 247 311 361
#     4  11  23  38  57  87 121 154 197 247 303 359
#     4  10  22  41  64  88 116 161 209 246 293 357
#     4  10  20  39  65  89 117 155 201 252 297 351
#
# _framework density 9.9788940000000004
#
# number of rings (size 3 to 8) (size 9 to 14) (size 15 to 20)
#    0.000    1.429    1.429    4.286    2.000    4.857 
#    0.000    0.714    0.000    1.714    0.000    0.000 
#    0.000    0.000    0.000    0.000    0.000    0.000 
#
# Total GULP energy -156344.324905 kJ/mol
# GULP energy per Si atom -5583.725889 kJ/mol
# Density = 0.995618 g / cm^3
# Si number density = 9.978894 Si / 1000 Ang^3
#
#
#
# Elastic Constant Matrix: (Units=GPa)
#
#
# Indices 1 2 3 4 5 6 
#
# 1 25.0307 7.2024 -4.2174 0.0000 -8.6721 0.0000
# 2 7.2024 121.9219 8.3863 0.0000 6.8820 0.0000
# 3 -4.2174 8.3863 46.5026 0.0000 -11.1350 0.0000
# 4 0.0000 0.0000 0.0000 25.3212 0.0000 -7.0591
# 5 -8.6721 6.8820 -11.1350 0.0000 24.8949 0.0000
# 6 0.0000 0.0000 0.0000 -7.0591 0.0000 26.4201
#
#
#
# Elastic Compliance Matrix: (Units=1/GPa)
#
#
# Indices 1 2 3 4 5 6 
#
# 1 0.051995 -0.005266 0.011592 0.000000 0.024753 0.000000
# 2 -0.005266 0.009091 -0.003537 0.000000 -0.005930 0.000000
# 3 0.011592 -0.003537 0.027320 0.000000 0.017236 0.000000
# 4 0.000000 0.000000 0.000000 0.042671 0.000000 0.011401
# 5 0.024753 -0.005930 0.017236 0.000000 0.058140 0.000000
# 6 0.000000 0.000000 0.000000 0.011401 0.000000 0.040896
#
#
# Mechanical properties :
#
#
# Convention : Reuss Voigt Hill
#
# Bulk Modulus (GPa) = 10.63994 24.02198 17.33096
# Shear Modulus (GPa) = 19.54162 27.46616 23.50389
#
# Velocity S-wave (km/s) = 3.13253 3.71376 3.43546
# Velocity P-wave (km/s) = 4.29260 5.51832 4.94360
#
# Compressibility (1/GPa) = 0.09398552
#
# Stress axis : x y z
#
# Youngs Moduli (GPa) = 19.23245 109.99833 36.60265
#
# Poissons Ratio (x) = 0.57927 -0.42431
# Poissons Ratio (y) = 0.10128 0.12946
# Poissons Ratio (z) = -0.22295 0.38905
#
# Static dielectric constant tensor:
#      x y z
#    x 1.726730 0.000000 -0.019160 
#    y 0.000000 1.714520 0.000000 
#    z -0.019160 0.000000 1.712920 
# 
# From -- ./inp_files/156525.got.cif
#   From: 2010.05.17/outbox.ucp.g08.bks.cvg/sg12_79_cif.got.tgz:156525.got - 2010.06.11 11:47:21.
