data_PCOD9224954
_publ_section_title
;
Structure prediction by ZEFSAII (Michael W. Deem and Ramdas Pophale) SiO2 
 PCOD9224954
Probable space group: C 2/M
;
_chemical_formula_sum "Si O2"
_cell_formula_units_Z 32
_cell_length_a 18.000000
_cell_length_b 9.000000
_cell_length_c 30.000000
_cell_angle_alpha 90.000000
_cell_angle_beta 40.000000
_cell_angle_gamma 90.000000
_cell_volume 3123.947783
_symmetry_space_group_name_H-M "C 2/M"
_symmetry_group_IT_number 12
_symmetry_cell_setting 'monoclinic'
loop_
_space_group_symop_operation_xyz
x,y,z
-x,y,-z
-x,-y,-z
x,-y,z
1/2+x,1/2+y,z
1/2-x,1/2+y,-z
1/2-x,1/2-y,-z
1/2+x,1/2-y,z
loop_
_atom_site_type_symbol
_atom_site_label
_atom_site_fract_x
_atom_site_fract_y
_atom_site_fract_z
Si Si1 0.623043 0.827414 0.934883
Si Si2 0.555568 0.681569 0.697001
Si Si3 0.399644 0.830664 0.154602
Si Si4 0.707364 0.673820 0.711326
Si Si5 0.373698 0.674482 0.937414
Si Si6 0.128367 0.177136 0.565806
Si Si7 0.024588 0.673403 0.437389
Si Si8 0.356686 0.678221 0.846164
O O1 0.660190 0.830531 0.866154
O O2 0.730529 0.753535 0.909250
O O3 0.612905 0.000000 0.955531
O O4 0.500000 0.756862 0.000000
O O5 0.556571 0.500000 0.696003
O O6 0.641297 0.727549 0.697272
O O7 0.586122 0.730889 0.633726
O O8 0.431610 0.734889 0.771194
O O9 0.328351 0.755168 0.226857
O O10 0.521594 0.754494 0.086781
O O11 0.422629 0.000000 0.157074
O O12 0.677335 0.500000 0.731261
O O13 0.841683 0.684043 0.637365
O O14 0.365405 0.500000 0.950401
O O15 0.415070 0.694120 0.866916
O O16 0.250000 0.750000 0.000000
O O17 0.250000 0.250000 0.500000
O O18 0.044221 0.226599 0.565339
O O19 0.138248 0.000000 0.562809
O O20 0.988319 0.500000 0.449435
O O21 0.000000 0.714654 0.500000
O O22 0.343981 0.500000 0.845580
#
# Coordination Sequence:
#
# PCOD9224954 Si02
#       8
#     8   8   8   8   8   8   8   8
#     4   9  18  32  51  78 110 145 190 239 281 333
#     4   9  18  35  59  84 110 153 203 239 282 350
#     4  11  22  35  56  86 117 149 192 243 297 351
#     4  10  20  38  61  84 115 156 197 241 293 352
#     4  11  21  36  60  84 112 148 194 245 294 351
#     4  11  23  39  64  93 124 157 200 248 296 353
#     4  10  22  41  65  90 122 164 206 243 293 360
#     4   9  17  32  56  80 106 148 198 238 277 339
#
# _framework density 10.243449
#
# number of rings (size 3 to 8) (size 9 to 14) (size 15 to 20)
#    0.000    2.000    1.250    2.625    1.750    4.750 
#    0.000    2.500    0.000    8.250    0.000    0.000 
#    0.000    0.000    0.000    0.000    0.000    0.000 
#
# Total GULP energy -178339.402571 kJ/mol
# GULP energy per Si atom -5573.106330 kJ/mol
# Density = 1.022013 g / cm^3
# Si number density = 10.243449 Si / 1000 Ang^3
#
#
#
# Elastic Constant Matrix: (Units=GPa)
#
#
# Indices 1 2 3 4 5 6 
#
# 1 76.1395 22.6580 41.0221 0.0000 5.7588 0.0004
# 2 22.6580 43.5644 28.5842 0.0001 7.3832 -0.0007
# 3 41.0221 28.5842 113.6584 0.0000 17.0652 0.0000
# 4 0.0000 0.0001 0.0000 29.9711 0.0000 2.4481
# 5 5.7588 7.3832 17.0652 0.0000 26.5481 0.0000
# 6 0.0004 -0.0007 0.0000 2.4481 0.0000 21.8500
#
#
#
# Elastic Compliance Matrix: (Units=1/GPa)
#
#
# Indices 1 2 3 4 5 6 
#
# 1 0.017526 -0.006037 -0.004968 0.000000 0.001071 -0.000001
# 2 -0.006037 0.029875 -0.004741 0.000000 -0.003951 0.000001
# 3 -0.004968 -0.004741 0.012644 0.000000 -0.005732 0.000000
# 4 0.000000 0.000000 0.000000 0.033674 0.000000 -0.003773
# 5 0.001071 -0.003951 -0.005732 0.000000 0.042218 0.000000
# 6 -0.000001 0.000001 0.000000 -0.003773 0.000000 0.046189
#
#
# Mechanical properties :
#
#
# Convention : Reuss Voigt Hill
#
# Bulk Modulus (GPa) = 35.02293 46.43232 40.72762
# Shear Modulus (GPa) = 22.40779 25.08037 23.74408
#
# Velocity S-wave (km/s) = 3.31080 3.50267 3.40809
# Velocity P-wave (km/s) = 5.63450 6.25075 5.95061
#
# Compressibility (1/GPa) = 0.02855273
#
# Stress axis : x y z
#
# Youngs Moduli (GPa) = 57.05803 33.47292 79.08687
#
# Poissons Ratio (x) = 0.20208 0.39291
# Poissons Ratio (y) = 0.34446 0.37496
# Poissons Ratio (z) = 0.28347 0.15870
#
# Static dielectric constant tensor:
#      x y z
#    x 1.312530 0.000000 0.089820 
#    y 0.000000 1.646930 0.000000 
#    z 0.089820 0.000000 1.717840 
# 
# From -- ./inp_files/378238.got.cif
#   From: 2010.05.17/outbox.ucp.g08.bks.cvg/sg12_190_cif.got.tgz:378238.got - 2010.06.11 11:47:21.
