data_PCOD9224254
_publ_section_title
;
Structure prediction by ZEFSAII (Michael W. Deem and Ramdas Pophale) SiO2 
 PCOD9224254
Probable space group: C 2/M
;
_chemical_formula_sum "Si O2"
_cell_formula_units_Z 32
_cell_length_a 24.000000
_cell_length_b 9.000000
_cell_length_c 30.000000
_cell_angle_alpha 90.000000
_cell_angle_beta 30.000000
_cell_angle_gamma 90.000000
_cell_volume 3240.000000
_symmetry_space_group_name_H-M "C 2/M"
_symmetry_group_IT_number 12
_symmetry_cell_setting 'monoclinic'
loop_
_space_group_symop_operation_xyz
x,y,z
-x,y,-z
-x,-y,-z
x,-y,z
1/2+x,1/2+y,z
1/2-x,1/2+y,-z
1/2-x,1/2-y,-z
1/2+x,1/2-y,z
loop_
_atom_site_type_symbol
_atom_site_label
_atom_site_fract_x
_atom_site_fract_y
_atom_site_fract_z
Si Si1 0.505530 0.679624 0.446094
Si Si2 0.261487 0.318434 0.756657
Si Si3 0.128813 0.675981 0.085256
Si Si4 0.662500 0.177710 0.918849
Si Si5 0.613907 0.673125 0.184095
Si Si6 0.079245 0.672725 0.641928
Si Si7 0.306516 0.323664 0.519461
Si Si8 0.027775 0.681052 0.886517
O O1 0.500000 0.737736 0.500000
O O2 0.517711 0.500000 0.439571
O O3 0.616235 0.733317 0.343140
O O4 0.387030 0.705839 0.504985
O O5 0.267052 0.500000 0.754723
O O6 0.216736 0.264955 0.835747
O O7 0.157286 0.277082 0.797135
O O8 0.142078 0.500000 0.071258
O O9 0.083001 0.721038 0.164920
O O10 0.044015 0.729117 0.106137
O O11 0.250000 0.750000 0.000000
O O12 0.759157 0.197822 0.888660
O O13 0.648633 0.000000 0.921879
O O14 0.544808 0.231210 0.020105
O O15 0.602863 0.500000 0.180438
O O16 0.526389 0.719649 0.282302
O O17 0.046510 0.500000 0.664998
O O18 0.173562 0.698869 0.614722
O O19 0.145589 0.716096 0.551574
O O20 0.319956 0.500000 0.497963
O O21 0.026209 0.500000 0.888399
#
# Coordination Sequence:
#
# PCOD9224254 Si02
#       8
#     8   8   8   8   8   8   8   8
#     4   9  17  29  47  73 105 138 172 214 264 313
#     4   9  16  26  45  73 102 132 167 214 268 312
#     4  11  21  35  52  74 106 142 178 214 258 311
#     4   9  16  28  47  72 102 133 168 214 268 315
#     4  11  21  34  53  78 108 141 177 217 262 315
#     4  10  20  33  52  80 108 138 176 219 266 317
#     4   9  18  34  54  76 107 141 174 220 271 317
#     4   9  17  29  46  72 104 133 168 217 266 310
#
# _framework density 9.8765429999999999
#
# number of rings (size 3 to 8) (size 9 to 14) (size 15 to 20)
#    0.000    2.375    1.250    2.250    0.000    5.000 
#    0.000    3.750    0.000    0.375    0.000   11.375 
#    0.000    0.000    0.000    0.000    0.000    0.000 
#
# Total GULP energy -178259.300163 kJ/mol
# GULP energy per Si atom -5570.603130 kJ/mol
# Density = 0.985406 g / cm^3
# Si number density = 9.876543 Si / 1000 Ang^3
#
#
#
# Elastic Constant Matrix: (Units=GPa)
#
#
# Indices 1 2 3 4 5 6 
#
# 1 65.3286 12.1400 -15.3729 -0.0051 -2.7600 0.0101
# 2 12.1400 14.1587 -0.1742 -0.0028 -7.2726 -0.0026
# 3 -15.3729 -0.1742 30.3190 0.0047 -8.0250 -0.0131
# 4 -0.0051 -0.0028 0.0047 21.4576 0.0033 -0.1824
# 5 -2.7600 -7.2726 -8.0250 0.0033 24.0557 -0.0122
# 6 0.0101 -0.0026 -0.0131 -0.1824 -0.0122 14.3824
#
#
#
# Elastic Compliance Matrix: (Units=1/GPa)
#
#
# Indices 1 2 3 4 5 6 
#
# 1 0.021162 -0.017653 0.010813 0.000000 0.000698 -0.000008
# 2 -0.017653 0.100084 -0.000990 0.000005 0.027902 0.000053
# 3 0.010813 -0.000990 0.042458 -0.000009 0.015105 0.000044
# 4 0.000000 0.000005 -0.000009 0.046609 -0.000007 0.000591
# 5 0.000698 0.027902 0.015105 -0.000007 0.055125 0.000065
# 6 -0.000008 0.000053 0.000044 0.000591 0.000065 0.069537
#
#
# Mechanical properties :
#
#
# Convention : Reuss Voigt Hill
#
# Bulk Modulus (GPa) = 6.75478 11.44357 9.09918
# Shear Modulus (GPa) = 12.50060 19.52670 16.01365
#
# Velocity S-wave (km/s) = 2.51837 3.14751 2.85035
# Velocity P-wave (km/s) = 3.44721 4.36062 3.93054
#
# Compressibility (1/GPa) = 0.14804330
#
# Stress axis : x y z
#
# Youngs Moduli (GPa) = 47.25530 9.99165 23.55279
#
# Poissons Ratio (x) = 0.17638 -0.25468
# Poissons Ratio (y) = 0.83419 0.02332
# Poissons Ratio (z) = -0.51098 0.00989
#
# Static dielectric constant tensor:
#      x y z
#    x 1.783290 0.000000 0.024430 
#    y 0.000000 1.653010 0.000000 
#    z 0.024430 0.000000 1.788850 
# 
# From -- ./inp_files/382367.got.cif
#   From: 2010.05.17/outbox.ucp.g08.bks.cvg/sg12_192_cif.got.tgz:382367.got - 2010.06.11 11:47:21.
