data_PCOD9224434
_publ_section_title
;
Structure prediction by ZEFSAII (Michael W. Deem and Ramdas Pophale) SiO2 
 PCOD9224434
Probable space group: C 2/M
;
_chemical_formula_sum "Si O2"
_cell_formula_units_Z 28
_cell_length_a 30.000000
_cell_length_b 9.000000
_cell_length_c 12.000000
_cell_angle_alpha 90.000000
_cell_angle_beta 120.000000
_cell_angle_gamma 90.000000
_cell_volume 2805.922308
_symmetry_space_group_name_H-M "C 2/M"
_symmetry_group_IT_number 12
_symmetry_cell_setting 'monoclinic'
loop_
_space_group_symop_operation_xyz
x,y,z
-x,y,-z
-x,-y,-z
x,-y,z
1/2+x,1/2+y,z
1/2-x,1/2+y,-z
1/2-x,1/2-y,-z
1/2+x,1/2-y,z
loop_
_atom_site_type_symbol
_atom_site_label
_atom_site_fract_x
_atom_site_fract_y
_atom_site_fract_z
Si Si1 0.646366 0.175129 0.350984
Si Si2 0.101994 0.821728 0.644397
Si Si3 0.517002 0.171861 0.900467
Si Si4 0.698788 0.825002 0.642537
Si Si5 0.947860 0.823366 0.639408
Si Si6 0.693445 0.819875 0.172804
Si Si7 0.882351 0.327461 0.101782
O O1 0.691105 0.190844 0.499379
O O2 0.600625 0.268723 0.348092
O O3 0.661973 0.219835 0.246206
O O4 0.631844 0.000000 0.330546
O O5 0.153635 0.759937 0.651120
O O6 0.059062 0.776208 0.498320
O O7 0.099854 0.758686 0.766301
O O8 0.102379 0.000000 0.649729
O O9 0.494053 0.254700 0.765851
O O10 0.577193 0.175210 0.950130
O O11 0.499549 0.000000 0.875679
O O12 0.500000 0.231859 0.000000
O O13 0.751776 0.754215 0.744874
O O14 0.695527 0.000000 0.663636
O O15 0.950907 0.000000 0.643981
O O16 0.696643 0.000000 0.176084
O O17 0.668587 0.772310 0.024298
O O18 0.876446 0.500000 0.127362
#
# Coordination Sequence:
#
# PCOD9224434 Si02
#       7
#     8   8   8   8   8   8   8
#     4   9  18  34  56  82 113 147 182 223 272 329
#     4  10  22  40  58  78 109 147 185 227 275 322
#     4  10  21  39  62  86 113 145 179 217 269 330
#     4  10  20  34  56  84 111 143 185 228 271 326
#     4  10  21  36  57  84 112 144 182 227 276 322
#     4  10  20  35  55  80 112 147 182 225 278 327
#     4  10  22  38  57  81 108 143 187 228 266 321
#
# _framework density 9.9788940000000004
#
# number of rings (size 3 to 8) (size 9 to 14) (size 15 to 20)
#    0.000    2.143    0.000    2.571    0.000    7.714 
#    0.000    4.286    0.000    0.000    0.000    0.000 
#    0.000    0.000    0.000    0.000    0.000    0.000 
#
# Total GULP energy -156155.724248 kJ/mol
# GULP energy per Si atom -5576.990152 kJ/mol
# Density = 0.995618 g / cm^3
# Si number density = 9.978894 Si / 1000 Ang^3
#
#
#
# Elastic Constant Matrix: (Units=GPa)
#
#
# Indices 1 2 3 4 5 6 
#
# 1 42.9964 10.1156 39.4402 0.0000 -10.8224 0.0000
# 2 10.1156 31.8772 41.3090 0.0000 -4.6757 0.0000
# 3 39.4402 41.3090 137.5700 0.0000 -10.4012 0.0000
# 4 0.0000 0.0000 0.0000 24.6521 0.0000 -1.4284
# 5 -10.8224 -4.6757 -10.4012 0.0000 35.0149 0.0000
# 6 0.0000 0.0000 0.0000 -1.4284 0.0000 21.3900
#
#
#
# Elastic Compliance Matrix: (Units=1/GPa)
#
#
# Indices 1 2 3 4 5 6 
#
# 1 0.033705 0.003618 -0.010153 0.000000 0.007885 0.000000
# 2 0.003618 0.051928 -0.016389 0.000000 0.003184 0.000000
# 3 -0.010153 -0.016389 0.015036 0.000000 -0.000860 0.000000
# 4 0.000000 0.000000 0.000000 0.040722 0.000000 0.002719
# 5 0.007885 0.003184 -0.000860 0.000000 0.031166 0.000000
# 6 0.000000 0.000000 0.000000 0.002719 0.000000 0.046932
#
#
# Mechanical properties :
#
#
# Convention : Reuss Voigt Hill
#
# Bulk Modulus (GPa) = 18.24148 43.79702 31.01925
# Shear Modulus (GPa) = 17.62982 24.31665 20.97323
#
# Velocity S-wave (km/s) = 2.97535 3.49435 3.24524
# Velocity P-wave (km/s) = 4.57859 6.18653 5.44227
#
# Compressibility (1/GPa) = 0.05482010
#
# Stress axis : x y z
#
# Youngs Moduli (GPa) = 29.66961 19.25753 66.50645
#
# Poissons Ratio (x) = -0.06968 0.67525
# Poissons Ratio (y) = -0.10735 1.08999
# Poissons Ratio (z) = 0.30124 0.31562
#
# Static dielectric constant tensor:
#      x y z
#    x 1.732210 0.000000 0.049540 
#    y 0.000000 1.668950 0.000000 
#    z 0.049540 0.000000 1.729400 
# 
# From -- ./inp_files/180620.got.cif
#   From: 2010.05.17/outbox.ucp.g08.bks.cvg/sg12_91_cif.got.tgz:180620.got - 2010.06.11 11:47:21.
