data_PCOD9224034
_publ_section_title
;
Structure prediction by ZEFSAII (Michael W. Deem and Ramdas Pophale) SiO2 
 PCOD9224034
Probable space group: C 2/M
;
_chemical_formula_sum "Si O2"
_cell_formula_units_Z 28
_cell_length_a 12.000000
_cell_length_b 18.000000
_cell_length_c 15.000000
_cell_angle_alpha 90.000000
_cell_angle_beta 60.000000
_cell_angle_gamma 90.000000
_cell_volume 2805.922308
_symmetry_space_group_name_H-M "C 2/M"
_symmetry_group_IT_number 12
_symmetry_cell_setting 'monoclinic'
loop_
_space_group_symop_operation_xyz
x,y,z
-x,y,-z
-x,-y,-z
x,-y,z
1/2+x,1/2+y,z
1/2-x,1/2+y,-z
1/2-x,1/2-y,-z
1/2+x,1/2-y,z
loop_
_atom_site_type_symbol
_atom_site_label
_atom_site_fract_x
_atom_site_fract_y
_atom_site_fract_z
Si Si1 0.531941 0.414993 0.593704
Si Si2 0.765472 0.674877 0.441505
Si Si3 0.029493 0.587515 0.887170
Si Si4 0.660994 0.727448 0.945652
Si Si5 0.784249 0.831659 0.744023
Si Si6 0.510346 0.086881 0.389505
Si Si7 0.693677 0.088410 0.161443
O O1 0.500000 0.414278 0.500000
O O2 0.526875 0.500000 0.626441
O O3 0.674571 0.382445 0.531789
O O4 0.428350 0.365830 0.689821
O O5 0.750000 0.750000 0.500000
O O6 0.726315 0.690892 0.355278
O O7 0.906768 0.640922 0.387281
O O8 0.015778 0.500000 0.893699
O O9 0.174211 0.606222 0.801525
O O10 0.924441 0.612841 0.856876
O O11 0.000000 0.613110 0.000000
O O12 0.735851 0.771712 0.835770
O O13 0.690226 0.640959 0.913905
O O14 0.500000 0.736099 0.000000
O O15 0.750000 0.750000 0.000000
O O16 0.500000 0.098265 0.500000
O O17 0.643770 0.099683 0.283205
O O18 0.477646 0.000000 0.385053
O O19 0.717108 0.000000 0.140366
#
# Coordination Sequence:
#
# PCOD9224034 Si02
#       7
#     8   8   8   8   8   8   8
#     4   9  20  37  58  90 127 161 201 256 322 394
#     4  11  24  36  61  92 130 171 214 269 327 400
#     4  10  19  35  64  96 122 159 218 279 332 395
#     4  12  28  47  71  99 138 176 227 291 347 404
#     4  11  22  39  64  89 127 170 215 266 338 398
#     4  10  22  40  65  93 129 174 224 273 325 403
#     4  10  22  42  68  95 128 176 224 271 334 406
#
# _framework density 9.9788940000000004
#
# number of rings (size 3 to 8) (size 9 to 14) (size 15 to 20)
#    0.000    1.571    1.429    3.000    4.000    2.000 
#    0.000    0.714    0.000    0.000    0.000    0.000 
#    0.000    0.000    0.000    0.000    0.000    0.000 
#
# Total GULP energy -155961.960585 kJ/mol
# GULP energy per Si atom -5570.070021 kJ/mol
# Density = 0.995618 g / cm^3
# Si number density = 9.978894 Si / 1000 Ang^3
#
#
#
# Elastic Constant Matrix: (Units=GPa)
#
#
# Indices 1 2 3 4 5 6 
#
# 1 51.1445 30.6788 32.7300 0.0000 -5.8958 0.0000
# 2 30.6788 83.7475 44.9341 0.0000 -6.8121 0.0000
# 3 32.7300 44.9341 133.7935 0.0000 -1.6849 0.0000
# 4 0.0000 0.0000 0.0000 40.8991 0.0000 -7.3239
# 5 -5.8958 -6.8121 -1.6849 0.0000 40.2642 0.0000
# 6 0.0000 0.0000 0.0000 -7.3239 0.0000 4.1601
#
#
#
# Elastic Compliance Matrix: (Units=1/GPa)
#
#
# Indices 1 2 3 4 5 6 
#
# 1 0.026918 -0.007491 -0.004038 0.000000 0.002505 0.000000
# 2 -0.007491 0.016858 -0.003809 0.000000 0.001596 0.000000
# 3 -0.004038 -0.003809 0.009731 0.000000 -0.000829 0.000000
# 4 0.000000 0.000000 0.000000 0.035708 0.000000 0.062863
# 5 0.002505 0.001596 -0.000829 0.000000 0.025438 0.000000
# 6 0.000000 0.000000 0.000000 0.062863 0.000000 0.351050
#
#
# Mechanical properties :
#
#
# Convention : Reuss Voigt Hill
#
# Bulk Modulus (GPa) = 43.79784 53.93015 48.86399
# Shear Modulus (GPa) = 9.92084 27.75419 18.83752
#
# Velocity S-wave (km/s) = 2.23197 3.73318 3.07558
# Velocity P-wave (km/s) = 5.35118 6.75744 6.09500
#
# Compressibility (1/GPa) = 0.02283218
#
# Stress axis : x y z
#
# Youngs Moduli (GPa) = 37.14921 59.31798 102.76568
#
# Poissons Ratio (x) = 0.44433 0.41495
# Poissons Ratio (y) = 0.27827 0.39146
# Poissons Ratio (z) = 0.15000 0.22596
#
# Static dielectric constant tensor:
#      x y z
#    x 1.750610 0.000000 0.010320 
#    y 0.000000 1.718120 0.000000 
#    z 0.010320 0.000000 1.709380 
# 
# From -- ./inp_files/206587.got.cif
#   From: 2010.05.17/outbox.ucp.g08.bks.cvg/sg12_104_cif.got.tgz:206587.got - 2010.06.11 11:47:21.
