data_PCOD9224387
_publ_section_title
;
Structure prediction by ZEFSAII (Michael W. Deem and Ramdas Pophale) SiO2 
 PCOD9224387
Probable space group: C 2/M
;
_chemical_formula_sum "Si O2"
_cell_formula_units_Z 32
_cell_length_a 30.000000
_cell_length_b 9.000000
_cell_length_c 18.000000
_cell_angle_alpha 90.000000
_cell_angle_beta 40.000000
_cell_angle_gamma 90.000000
_cell_volume 3123.947783
_symmetry_space_group_name_H-M "C 2/M"
_symmetry_group_IT_number 12
_symmetry_cell_setting 'monoclinic'
loop_
_space_group_symop_operation_xyz
x,y,z
-x,y,-z
-x,-y,-z
x,-y,z
1/2+x,1/2+y,z
1/2-x,1/2+y,-z
1/2-x,1/2-y,-z
1/2+x,1/2-y,z
loop_
_atom_site_type_symbol
_atom_site_label
_atom_site_fract_x
_atom_site_fract_y
_atom_site_fract_z
Si Si1 0.888058 0.819881 0.338172
Si Si2 0.706987 0.827901 0.942404
Si Si3 0.164809 0.325953 0.149039
Si Si4 0.656683 0.331030 0.867758
Si Si5 0.701904 0.176824 0.667805
Si Si6 0.077206 0.675334 0.405652
Si Si7 0.000952 0.172932 0.080718
Si Si8 0.146222 0.822296 0.459176
O O1 0.822168 0.756680 0.376946
O O2 0.897649 0.776889 0.411770
O O3 0.951905 0.765609 0.206489
O O4 0.882169 0.000000 0.345907
O O5 0.651080 0.796232 0.079445
O O6 0.702832 0.000000 0.927014
O O7 0.777299 0.786507 0.894956
O O8 0.704559 0.734042 0.870682
O O9 0.189057 0.500000 0.120892
O O10 0.106006 0.312016 0.285460
O O11 0.675090 0.500000 0.824872
O O12 0.654357 0.236348 0.795734
O O13 0.580695 0.328655 0.000933
O O14 0.777038 0.212581 0.607116
O O15 0.697674 0.000000 0.663200
O O16 0.074064 0.500000 0.427755
O O17 0.123157 0.748503 0.411901
O O18 0.000000 0.739028 0.500000
O O19 0.977573 0.000000 0.100952
O O20 0.000000 0.242185 0.000000
O O21 0.142712 0.000000 0.453272
#
# Coordination Sequence:
#
# PCOD9224387 Si02
#       8
#     8   8   8   8   8   8   8   8
#     4  10  20  38  60  81 111 150 190 231 277 328
#     4  10  20  34  54  83 114 140 178 233 278 321
#     4   9  19  37  58  79 108 146 182 220 277 336
#     4  11  21  34  55  81 110 148 188 223 271 330
#     4  11  22  36  55  84 118 148 186 233 278 324
#     4  10  22  40  61  83 110 146 187 231 279 335
#     4   9  17  33  55  77 102 139 185 223 257 313
#     4  10  23  39  57  84 114 146 186 232 279 331
#
# _framework density 10.243449
#
# number of rings (size 3 to 8) (size 9 to 14) (size 15 to 20)
#    0.000    2.000    1.250    2.250    0.000    5.750 
#    0.000    1.875    0.000    0.000    0.000    0.000 
#    0.000    0.000    0.000    0.000    0.000    0.000 
#
# Total GULP energy -178276.207893 kJ/mol
# GULP energy per Si atom -5571.131497 kJ/mol
# Density = 1.022013 g / cm^3
# Si number density = 10.243449 Si / 1000 Ang^3
#
#
#
# Elastic Constant Matrix: (Units=GPa)
#
#
# Indices 1 2 3 4 5 6 
#
# 1 31.9031 3.0662 -6.3226 -0.0013 8.4700 0.0028
# 2 3.0662 6.8009 6.9081 -0.0015 -3.3147 0.0006
# 3 -6.3226 6.9081 77.7938 -0.0130 3.0024 -0.0009
# 4 -0.0013 -0.0015 -0.0130 15.1552 0.0018 -0.7020
# 5 8.4700 -3.3147 3.0024 0.0018 18.1307 -0.0002
# 6 0.0028 0.0006 -0.0009 -0.7020 -0.0002 6.8627
#
#
#
# Elastic Compliance Matrix: (Units=1/GPa)
#
#
# Indices 1 2 3 4 5 6 
#
# 1 0.045605 -0.044643 0.008865 0.000010 -0.030935 -0.000013
# 2 -0.044643 0.226333 -0.026297 -0.000013 0.066589 -0.000005
# 3 0.008865 -0.026297 0.016360 0.000014 -0.011658 0.000002
# 4 0.000010 -0.000013 0.000014 0.066298 -0.000016 0.006782
# 5 -0.030935 0.066589 -0.011658 -0.000016 0.083711 0.000006
# 6 -0.000013 -0.000005 0.000002 0.006782 0.000006 0.146409
#
#
# Mechanical properties :
#
#
# Convention : Reuss Voigt Hill
#
# Bulk Modulus (GPa) = 6.09203 13.75569 9.92386
# Shear Modulus (GPa) = 6.54807 15.55278 11.05043
#
# Velocity S-wave (km/s) = 1.78974 2.75827 2.32500
# Velocity P-wave (km/s) = 2.69276 4.10768 3.47304
#
# Compressibility (1/GPa) = 0.16414880
#
# Stress axis : x y z
#
# Youngs Moduli (GPa) = 21.92729 4.41826 61.12445
#
# Poissons Ratio (x) = 0.19724 -0.54185
# Poissons Ratio (y) = 0.97890 1.60738
# Poissons Ratio (z) = -0.19438 0.11619
#
# Static dielectric constant tensor:
#      x y z
#    x 1.755440 -0.000010 -0.008860 
#    y -0.000010 1.715410 0.000000 
#    z -0.008860 0.000000 1.904470 
# 
# From -- ./inp_files/295591.got.cif
#   From: 2010.05.17/outbox.ucp.g08.bks.cvg/sg12_148_cif.got.tgz:295591.got - 2010.06.11 11:47:21.
