data_PCOD9224892
_publ_section_title
;
Structure prediction by ZEFSAII (Michael W. Deem and Ramdas Pophale) SiO2 
 PCOD9224892
Probable space group: C 2/M
;
_chemical_formula_sum "Si O2"
_cell_formula_units_Z 32
_cell_length_a 18.000000
_cell_length_b 9.000000
_cell_length_c 30.000000
_cell_angle_alpha 90.000000
_cell_angle_beta 140.000000
_cell_angle_gamma 90.000000
_cell_volume 3123.947783
_symmetry_space_group_name_H-M "C 2/M"
_symmetry_group_IT_number 12
_symmetry_cell_setting 'monoclinic'
loop_
_space_group_symop_operation_xyz
x,y,z
-x,y,-z
-x,-y,-z
x,-y,z
1/2+x,1/2+y,z
1/2-x,1/2+y,-z
1/2-x,1/2-y,-z
1/2+x,1/2-y,z
loop_
_atom_site_type_symbol
_atom_site_label
_atom_site_fract_x
_atom_site_fract_y
_atom_site_fract_z
Si Si1 0.447118 0.820382 0.910753
Si Si2 0.972240 0.327182 0.581649
Si Si3 0.658828 0.321682 0.048966
Si Si4 0.014883 0.167954 0.690319
Si Si5 0.738282 0.830869 0.571310
Si Si6 0.871554 0.680199 0.777804
Si Si7 0.341627 0.674261 0.380673
Si Si8 0.418224 0.178125 0.188062
O O1 0.381802 0.743266 0.921921
O O2 0.390859 0.776452 0.837812
O O3 0.444998 0.000000 0.914266
O O4 0.578237 0.760369 0.975924
O O5 0.985323 0.500000 0.595757
O O6 0.044275 0.269806 0.572963
O O7 0.028457 0.243309 0.648983
O O8 0.838954 0.299051 0.507719
O O9 0.640427 0.500000 0.038959
O O10 0.794864 0.290690 0.108938
O O11 0.875627 0.167630 0.630028
O O12 0.068808 0.250415 0.757307
O O13 0.059310 0.000000 0.709765
O O14 0.710190 0.709073 0.595186
O O15 0.704637 0.000000 0.569950
O O16 0.873263 0.500000 0.778110
O O17 0.753792 0.724436 0.699452
O O18 0.977911 0.730966 0.795818
O O19 0.365558 0.500000 0.386078
O O20 0.427511 0.000000 0.197417
#
# Coordination Sequence:
#
# PCOD9224892 Si02
#       8
#     8   8   8   8   8   8   8   8
#     4  10  20  37  61  86 117 155 191 232 286 338
#     4  11  24  40  59  84 118 156 196 241 299 355
#     4  10  21  37  59  88 119 150 190 236 283 341
#     4  11  23  39  60  88 117 149 199 248 290 347
#     4  10  22  41  61  84 117 155 193 244 298 352
#     4   9  20  38  59  84 115 153 193 235 285 341
#     4  11  22  38  61  88 118 154 198 245 290 346
#     4  10  21  40  61  83 116 158 193 234 295 348
#
# _framework density 10.243449
#
# number of rings (size 3 to 8) (size 9 to 14) (size 15 to 20)
#    0.000    1.750    1.250    3.375    1.750    4.500 
#    0.000    3.125    0.000    0.000    0.000    0.000 
#    0.000    0.000    0.000    0.000    0.000    0.000 
#
# Total GULP energy -178643.489633 kJ/mol
# GULP energy per Si atom -5582.609051 kJ/mol
# Density = 1.022013 g / cm^3
# Si number density = 10.243449 Si / 1000 Ang^3
#
#
#
# Elastic Constant Matrix: (Units=GPa)
#
#
# Indices 1 2 3 4 5 6 
#
# 1 38.1954 16.6381 10.3977 0.0000 2.4457 0.0000
# 2 16.6381 16.9022 24.2151 0.0000 3.4308 0.0000
# 3 10.3977 24.2151 34.4412 0.0000 8.5750 0.0000
# 4 0.0000 0.0000 0.0000 27.5852 0.0000 -5.8128
# 5 2.4457 3.4308 8.5750 0.0000 33.0286 0.0000
# 6 0.0000 0.0000 0.0000 -5.8128 0.0000 18.1153
#
#
#
# Elastic Compliance Matrix: (Units=1/GPa)
#
#
# Indices 1 2 3 4 5 6 
#
# 1 0.003459 0.094331 -0.069346 0.000000 0.007949 0.000000
# 2 0.094331 -0.354978 0.228425 0.000000 -0.029417 0.000000
# 3 -0.069346 0.228425 -0.113328 0.000000 0.010830 0.000000
# 4 0.000000 0.000000 0.000000 0.038880 0.000000 0.012476
# 5 0.007949 -0.029417 0.010830 0.000000 0.029932 0.000000
# 6 0.000000 0.000000 0.000000 0.012476 0.000000 0.059205
#
#
# Mechanical properties :
#
#
# Convention : Reuss Voigt Hill
#
# Bulk Modulus (GPa) = 23.82489 21.33784 22.58136
# Shear Modulus (GPa) = -6.02657 18.29834 6.13589
#
# Velocity S-wave (km/s) = -1.71699 2.99184 1.73249
# Velocity P-wave (km/s) = 2.77918 4.72999 3.87922
#
# Compressibility (1/GPa) = 0.04197291
#
# Stress axis : x y z
#
# Youngs Moduli (GPa) = 289.11464 -2.81708 -8.82391
#
# Poissons Ratio (x) = 0.26574 -0.61190
# Poissons Ratio (y) = -27.27242 2.01560
# Poissons Ratio (z) = 20.04893 0.64349
#
# Static dielectric constant tensor:
#      x y z
#    x 1.767620 0.000000 0.033830 
#    y 0.000000 1.695420 0.000000 
#    z 0.033830 0.000000 1.718490 
# 
# From -- ./inp_files/378348.got.cif
#   From: 2010.05.17/outbox.ucp.g08.bks.cvg/sg12_190_cif.got.tgz:378348.got - 2010.06.11 11:47:21.
