data_PCOD9224500
_publ_section_title
;
Structure prediction by ZEFSAII (Michael W. Deem and Ramdas Pophale) SiO2 
 PCOD9224500
Probable space group: C 2/M
;
_chemical_formula_sum "Si O2"
_cell_formula_units_Z 32
_cell_length_a 30.000000
_cell_length_b 9.000000
_cell_length_c 18.000000
_cell_angle_alpha 90.000000
_cell_angle_beta 40.000000
_cell_angle_gamma 90.000000
_cell_volume 3123.947783
_symmetry_space_group_name_H-M "C 2/M"
_symmetry_group_IT_number 12
_symmetry_cell_setting 'monoclinic'
loop_
_space_group_symop_operation_xyz
x,y,z
-x,y,-z
-x,-y,-z
x,-y,z
1/2+x,1/2+y,z
1/2-x,1/2+y,-z
1/2-x,1/2-y,-z
1/2+x,1/2-y,z
loop_
_atom_site_type_symbol
_atom_site_label
_atom_site_fract_x
_atom_site_fract_y
_atom_site_fract_z
Si Si1 0.789616 0.324158 0.338402
Si Si2 0.648298 0.820633 0.461207
Si Si3 0.999188 0.829485 0.916179
Si Si4 0.078860 0.678334 0.396215
Si Si5 0.781989 0.823720 0.059402
Si Si6 0.894886 0.678157 0.326200
Si Si7 0.351818 0.671091 0.827296
Si Si8 0.344161 0.331211 0.134527
O O1 0.777101 0.500000 0.358527
O O2 0.721844 0.241338 0.394770
O O3 0.825062 0.273353 0.370422
O O4 0.842328 0.282333 0.204554
O O5 0.621755 0.768359 0.414336
O O6 0.601013 0.777862 0.592712
O O7 0.652157 0.000000 0.453250
O O8 0.042985 0.739134 0.802026
O O9 0.025639 0.000000 0.884409
O O10 0.000000 0.773950 0.000000
O O11 0.918495 0.831239 0.000458
O O12 0.080868 0.500000 0.397481
O O13 0.104776 0.727053 0.282608
O O14 0.000000 0.729688 0.500000
O O15 0.725539 0.708437 0.102536
O O16 0.791961 0.800650 0.134057
O O17 0.762306 0.000000 0.074752
O O18 0.847871 0.801617 0.920774
O O19 0.894339 0.500000 0.324409
O O20 0.369789 0.500000 0.792017
O O21 0.332130 0.500000 0.178154
#
# Coordination Sequence:
#
# PCOD9224500 Si02
#       8
#     8   8   8   8   8   8   8   8
#     4  11  22  35  55  84 114 143 182 230 275 317
#     4  10  22  40  59  80 108 145 186 225 272 329
#     4  10  20  35  55  79 107 143 183 219 261 317
#     4  10  22  40  60  80 107 145 185 224 272 332
#     4   9  19  35  55  80 110 145 180 218 269 328
#     4  10  22  38  56  80 112 148 184 226 273 320
#     4  10  20  35  56  82 111 139 176 227 276 320
#     4  10  20  35  55  79 110 148 185 218 264 325
#
# _framework density 10.243449
#
# number of rings (size 3 to 8) (size 9 to 14) (size 15 to 20)
#    0.000    2.000    1.250    1.875    0.000    7.500 
#    0.000    0.000    0.000    0.000    0.000    0.000 
#    0.000    0.000    0.000    0.000    0.000    0.000 
#
# Total GULP energy -178325.611731 kJ/mol
# GULP energy per Si atom -5572.675367 kJ/mol
# Density = 1.022013 g / cm^3
# Si number density = 10.243449 Si / 1000 Ang^3
#
#
#
# Elastic Constant Matrix: (Units=GPa)
#
#
# Indices 1 2 3 4 5 6 
#
# 1 30.9036 4.2010 -2.2447 -0.0019 6.9673 0.0020
# 2 4.2010 -3.0177 -0.2758 -0.0007 4.1073 0.0019
# 3 -2.2447 -0.2758 75.4956 -0.0052 -1.8600 0.0026
# 4 -0.0019 -0.0007 -0.0052 25.9346 -0.0013 3.5078
# 5 6.9673 4.1073 -1.8600 -0.0013 19.5946 -0.0003
# 6 0.0020 0.0019 0.0026 3.5078 -0.0003 17.7010
#
#
#
# Elastic Compliance Matrix: (Units=1/GPa)
#
#
# Indices 1 2 3 4 5 6 
#
# 1 0.032968 0.023314 0.000658 0.000003 -0.016547 -0.000007
# 2 0.023314 -0.241324 0.000856 -0.000005 0.042377 0.000025
# 3 0.000658 0.000856 0.013289 0.000003 0.000848 -0.000003
# 4 0.000003 -0.000005 0.000003 0.039620 0.000003 -0.007852
# 5 -0.016547 0.042377 0.000848 0.000003 0.048116 -0.000002
# 6 -0.000007 0.000025 -0.000003 -0.007852 -0.000002 0.058050
#
#
# Mechanical properties :
#
#
# Convention : Reuss Voigt Hill
#
# Bulk Modulus (GPa) = -6.87699 11.86030 2.49166
# Shear Modulus (GPa) = -33.92000 19.42612 -7.24694
#
# Velocity S-wave (km/s) = -4.07343 3.08266 -1.88283
# Velocity P-wave (km/s) = 5.04855 4.29793 1.87293
#
# Compressibility (1/GPa) = -0.14541243
#
# Stress axis : x y z
#
# Youngs Moduli (GPa) = 30.33274 -4.14381 75.24807
#
# Poissons Ratio (x) = 0.09661 -0.04949
# Poissons Ratio (y) = -0.70717 -0.06439
# Poissons Ratio (z) = -0.01995 0.00355
#
# Static dielectric constant tensor:
#      x y z
#    x 1.772350 -0.000010 0.003660 
#    y -0.000010 1.703310 0.000000 
#    z 0.003660 0.000000 1.897300 
# 
# From -- ./inp_files/295631.got.cif
#   From: 2010.05.17/outbox.ucp.g08.bks.cvg/sg12_148_cif.got.tgz:295631.got - 2010.06.11 11:47:21.
