data_PCOD9224715
_publ_section_title
;
Structure prediction by ZEFSAII (Michael W. Deem and Ramdas Pophale) SiO2 
 PCOD9224715
Probable space group: C 2/M
;
_chemical_formula_sum "Si O2"
_cell_formula_units_Z 32
_cell_length_a 21.000000
_cell_length_b 18.000000
_cell_length_c 24.000000
_cell_angle_alpha 90.000000
_cell_angle_beta 20.000000
_cell_angle_gamma 90.000000
_cell_volume 3102.806740
_symmetry_space_group_name_H-M "C 2/M"
_symmetry_group_IT_number 12
_symmetry_cell_setting 'monoclinic'
loop_
_space_group_symop_operation_xyz
x,y,z
-x,y,-z
-x,-y,-z
x,-y,z
1/2+x,1/2+y,z
1/2-x,1/2+y,-z
1/2-x,1/2-y,-z
1/2+x,1/2-y,z
loop_
_atom_site_type_symbol
_atom_site_label
_atom_site_fract_x
_atom_site_fract_y
_atom_site_fract_z
Si Si1 0.003031 0.840925 0.354333
Si Si2 0.414684 0.089352 0.008078
Si Si3 0.816003 0.910922 0.187144
Si Si4 0.003418 0.081668 0.847232
Si Si5 0.599934 0.861904 0.738152
Si Si6 0.491620 0.179266 0.623262
Si Si7 0.417720 0.922374 0.782896
Si Si8 0.086934 0.198801 0.699516
O O1 0.193330 0.888078 0.189959
O O2 0.066152 0.764852 0.332241
O O3 0.822838 0.870658 0.538292
O O4 0.924656 0.814726 0.357466
O O5 0.429111 0.000000 0.990147
O O6 0.500000 0.108425 0.000000
O O7 0.528766 0.124774 0.860610
O O8 0.860784 0.893779 0.214688
O O9 0.634275 0.869829 0.313589
O O10 0.793460 0.000000 0.200750
O O11 0.000000 0.889967 0.000000
O O12 0.961578 0.137277 0.831669
O O13 0.063958 0.000000 0.777091
O O14 0.802991 0.073647 0.040267
O O15 0.488417 0.914954 0.787611
O O16 0.548261 0.779850 0.756586
O O17 0.467550 0.147396 0.705072
O O18 0.713428 0.178250 0.437652
O O19 0.497067 0.000000 0.694041
#
# Coordination Sequence:
#
# PCOD9224715 Si02
#       8
#     8   8   8   8   8   8   8   8
#     4  11  24  45  70 101 134 169 219 278 341 404
#     4  11  28  50  70  99 134 172 226 285 340 404
#     4  10  20  36  57  85 127 174 219 260 308 384
#     4  10  23  37  55  90 130 173 220 264 318 386
#     4  11  23  44  71 100 133 174 220 276 342 400
#     4  11  21  38  62  92 129 166 214 268 324 387
#     4  11  20  35  62  95 126 169 220 265 324 394
#     4  11  23  41  63  94 136 170 214 279 333 393
#
# _framework density 10.313243
#
# number of rings (size 3 to 8) (size 9 to 14) (size 15 to 20)
#    0.000    1.250    3.750    2.250    1.750    7.000 
#    0.000    5.000    0.000    0.000    0.000    0.000 
#    0.000    0.000    0.000    0.000    0.000    0.000 
#
# Total GULP energy -178336.716237 kJ/mol
# GULP energy per Si atom -5573.022382 kJ/mol
# Density = 1.028977 g / cm^3
# Si number density = 10.313243 Si / 1000 Ang^3
#
#
#
# Elastic Constant Matrix: (Units=GPa)
#
#
# Indices 1 2 3 4 5 6 
#
# 1 118.9570 40.4199 48.0790 0.0010 -1.9502 0.0069
# 2 40.4199 32.0563 51.2349 -0.0256 -5.8794 -0.0026
# 3 48.0790 51.2349 84.5374 -0.0234 6.4575 -0.0111
# 4 0.0010 -0.0256 -0.0234 11.6366 -0.0002 10.6655
# 5 -1.9502 -5.8794 6.4575 -0.0002 35.8589 -0.0027
# 6 0.0069 -0.0026 -0.0111 10.6655 -0.0027 4.2666
#
#
#
# Elastic Compliance Matrix: (Units=1/GPa)
#
#
# Indices 1 2 3 4 5 6 
#
# 1 0.006844 0.038989 -0.028430 -0.000060 0.011885 0.000096
# 2 0.038989 -0.363742 0.205496 0.000441 -0.094524 -0.000909
# 3 -0.028430 0.205496 -0.100381 -0.000239 0.050223 0.000538
# 4 -0.000060 0.000441 -0.000239 -0.066557 0.000124 0.166376
# 5 0.011885 -0.094524 0.050223 0.000124 0.003991 -0.000253
# 6 0.000096 -0.000909 0.000538 0.166376 -0.000253 -0.181525
#
#
# Mechanical properties :
#
#
# Convention : Reuss Voigt Hill
#
# Bulk Modulus (GPa) = -39.73106 57.22427 8.74660
# Shear Modulus (GPa) = -4.37878 16.74022 6.18072
#
# Velocity S-wave (km/s) = -1.45860 2.85193 1.73292
# Velocity P-wave (km/s) = 4.70538 6.21675 2.87292
#
# Compressibility (1/GPa) = -0.02516922
#
# Stress axis : x y z
#
# Youngs Moduli (GPa) = 146.11842 -2.74920 -9.96200
#
# Poissons Ratio (x) = 0.10719 -0.28322
# Poissons Ratio (y) = -5.69708 2.04715
# Poissons Ratio (z) = 4.15416 0.56495
#
# Static dielectric constant tensor:
#      x y z
#    x 1.726390 0.000000 0.037770 
#    y 0.000000 1.878710 0.000070 
#    z 0.037770 0.000070 1.806310 
# 
# From -- ./inp_files/347874.got.cif
#   From: 2010.05.17/outbox.ucp.g08.bks.cvg/sg12_174_cif.got.tgz:347874.got - 2010.06.11 11:47:21.
