data_PCOD9224475
_publ_section_title
;
Structure prediction by ZEFSAII (Michael W. Deem and Ramdas Pophale) SiO2 
 PCOD9224475
Probable space group: C 2/M
;
_chemical_formula_sum "Si O2"
_cell_formula_units_Z 28
_cell_length_a 15.000000
_cell_length_b 9.000000
_cell_length_c 24.000000
_cell_angle_alpha 90.000000
_cell_angle_beta 70.000000
_cell_angle_gamma 90.000000
_cell_volume 3044.604091
_symmetry_space_group_name_H-M "C 2/M"
_symmetry_group_IT_number 12
_symmetry_cell_setting 'monoclinic'
loop_
_space_group_symop_operation_xyz
x,y,z
-x,y,-z
-x,-y,-z
x,-y,z
1/2+x,1/2+y,z
1/2-x,1/2+y,-z
1/2-x,1/2-y,-z
1/2+x,1/2-y,z
loop_
_atom_site_type_symbol
_atom_site_label
_atom_site_fract_x
_atom_site_fract_y
_atom_site_fract_z
Si Si1 0.334584 0.324243 0.864188
Si Si2 0.640490 0.176600 0.254834
Si Si3 0.636479 0.823742 0.956598
Si Si4 0.548455 0.321297 0.662158
Si Si5 0.449033 0.678450 0.567600
Si Si6 0.485131 0.322712 0.920504
Si Si7 0.739422 0.820740 0.348284
O O1 0.333133 0.500000 0.851394
O O2 0.320214 0.231018 0.812056
O O3 0.247302 0.296386 0.924584
O O4 0.433717 0.290565 0.873325
O O5 0.536963 0.249793 0.284648
O O6 0.709241 0.220206 0.291474
O O7 0.630701 0.000000 0.258506
O O8 0.579895 0.767910 0.913954
O O9 0.621056 0.000000 0.968453
O O10 0.589074 0.730955 0.016314
O O11 0.544796 0.500000 0.669582
O O12 0.517601 0.285781 0.605231
O O13 0.654680 0.272826 0.656413
O O14 0.500000 0.724031 0.500000
O O15 0.436180 0.500000 0.569960
O O16 0.346561 0.753089 0.597420
O O17 0.500586 0.500000 0.921741
O O18 0.736779 0.000000 0.353305
#
# Coordination Sequence:
#
# PCOD9224475 Si02
#       7
#     8   8   8   8   8   8   8
#     4  10  22  37  53  74 102 135 168 204 254 307
#     4  10  21  35  52  75 100 127 169 217 252 294
#     4  10  20  35  54  77 104 133 166 206 251 301
#     4   9  18  35  55  72 101 140 170 204 253 303
#     4   9  18  32  51  78 108 136 169 208 249 296
#     4  10  20  35  54  76 102 133 167 204 249 304
#     4   9  19  35  53  74 100 135 173 207 251 300
#
# _framework density 9.1965979999999998
#
# number of rings (size 3 to 8) (size 9 to 14) (size 15 to 20)
#    0.000    2.429    0.000    2.571    0.000    5.429 
#    0.000    4.286    0.000    0.000    0.000    0.000 
#    0.000    0.000    0.000    0.000    0.000    0.000 
#
# Total GULP energy -156156.880699 kJ/mol
# GULP energy per Si atom -5577.031454 kJ/mol
# Density = 0.917567 g / cm^3
# Si number density = 9.196598 Si / 1000 Ang^3
#
#
#
# Elastic Constant Matrix: (Units=GPa)
#
#
# Indices 1 2 3 4 5 6 
#
# 1 118.7994 14.7676 10.7652 0.0000 -1.0900 0.0000
# 2 14.7676 7.8204 7.3870 0.0000 2.5993 0.0000
# 3 10.7652 7.3870 45.4859 0.0000 2.8852 0.0000
# 4 0.0000 0.0000 0.0000 26.5148 0.0000 -5.0818
# 5 -1.0900 2.5993 2.8852 0.0000 9.7273 0.0000
# 6 0.0000 0.0000 0.0000 -5.0818 0.0000 28.2127
#
#
#
# Elastic Compliance Matrix: (Units=1/GPa)
#
#
# Indices 1 2 3 4 5 6 
#
# 1 0.011542 -0.025198 0.000868 0.000000 0.007769 0.000000
# 2 -0.025198 0.217740 -0.026017 0.000000 -0.053291 0.000000
# 3 0.000868 -0.026017 0.026048 0.000000 -0.000677 0.000000
# 4 0.000000 0.000000 0.000000 0.039063 0.000000 0.007036
# 5 0.007769 -0.053291 -0.000677 0.000000 0.118116 0.000000
# 6 0.000000 0.000000 0.000000 0.007036 0.000000 0.036712
#
#
# Mechanical properties :
#
#
# Convention : Reuss Voigt Hill
#
# Bulk Modulus (GPa) = 6.46685 26.43834 16.45260
# Shear Modulus (GPa) = 8.31309 22.17004 15.24157
#
# Velocity S-wave (km/s) = 2.12826 3.47557 2.88176
# Velocity P-wave (km/s) = 3.09238 5.52370 4.47628
#
# Compressibility (1/GPa) = 0.15463474
#
# Stress axis : x y z
#
# Youngs Moduli (GPa) = 86.63653 4.59264 38.39116
#
# Poissons Ratio (x) = 0.11572 -0.03331
# Poissons Ratio (y) = 2.18305 0.99883
# Poissons Ratio (z) = -0.07516 0.11949
#
# Static dielectric constant tensor:
#      x y z
#    x 1.629240 0.000000 0.022670 
#    y 0.000000 1.612140 0.000000 
#    z 0.022670 0.000000 1.650740 
# 
# From -- ./inp_files/337847.got.cif
#   From: 2010.05.17/outbox.ucp.g08.bks.cvg/sg12_169_cif.got.tgz:337847.got - 2010.06.11 11:47:21.
