data_PCOD9224227
_publ_section_title
;
Structure prediction by ZEFSAII (Michael W. Deem and Ramdas Pophale) SiO2 
 PCOD9224227
Probable space group: C 2/M
;
_chemical_formula_sum "Si O2"
_cell_formula_units_Z 28
_cell_length_a 27.000000
_cell_length_b 9.000000
_cell_length_c 12.000000
_cell_angle_alpha 90.000000
_cell_angle_beta 110.000000
_cell_angle_gamma 90.000000
_cell_volume 2740.143682
_symmetry_space_group_name_H-M "C 2/M"
_symmetry_group_IT_number 12
_symmetry_cell_setting 'monoclinic'
loop_
_space_group_symop_operation_xyz
x,y,z
-x,y,-z
-x,-y,-z
x,-y,z
1/2+x,1/2+y,z
1/2-x,1/2+y,-z
1/2-x,1/2-y,-z
1/2+x,1/2-y,z
loop_
_atom_site_type_symbol
_atom_site_label
_atom_site_fract_x
_atom_site_fract_y
_atom_site_fract_z
Si Si1 0.717176 0.831210 0.631587
Si Si2 0.424603 0.674368 0.749580
Si Si3 0.095889 0.823342 0.009909
Si Si4 0.805956 0.672456 0.015819
Si Si5 0.971100 0.679079 0.238551
Si Si6 0.815733 0.334395 0.649692
Si Si7 0.124939 0.671595 0.703838
O O1 0.769401 0.735529 0.688168
O O2 0.707110 0.845004 0.492702
O O3 0.664770 0.761144 0.644973
O O4 0.725002 0.000000 0.682368
O O5 0.430437 0.500000 0.732459
O O6 0.427616 0.698745 0.885263
O O7 0.469607 0.762767 0.718763
O O8 0.366269 0.730929 0.679093
O O9 0.154708 0.755756 0.039801
O O10 0.098185 0.000000 0.989642
O O11 0.057693 0.743613 0.892897
O O12 0.797690 0.500000 0.977906
O O13 0.750000 0.750000 0.000000
O O14 0.840952 0.673396 0.156193
O O15 0.969816 0.500000 0.235032
O O16 0.932830 0.730874 0.310249
O O17 0.830539 0.500000 0.698908
O O18 0.116920 0.500000 0.662265
#
# Coordination Sequence:
#
# PCOD9224227 Si02
#       7
#     8   8   8   8   8   8   8
#     4   9  18  37  60  79 107 142 175 216 272 332
#     4  11  23  37  55  77 108 148 184 221 269 324
#     4  10  21  36  53  75 106 147 186 217 264 322
#     4  10  20  33  50  77 111 142 179 222 263 316
#     4  10  20  36  57  82 109 139 179 227 269 318
#     4  10  21  35  55  84 109 135 178 228 270 316
#     4   8  17  34  56  77 102 141 177 209 266 328
#
# _framework density 10.218442
#
# number of rings (size 3 to 8) (size 9 to 14) (size 15 to 20)
#    0.000    2.286    0.000    3.429    2.000    4.571 
#    0.000    4.286    0.000    4.286    0.000    0.000 
#    0.000    0.000    0.000    0.000    0.000    0.000 
#
# Total GULP energy -156202.487104 kJ/mol
# GULP energy per Si atom -5578.660254 kJ/mol
# Density = 1.019518 g / cm^3
# Si number density = 10.218442 Si / 1000 Ang^3
#
#
#
# Elastic Constant Matrix: (Units=GPa)
#
#
# Indices 1 2 3 4 5 6 
#
# 1 175.9355 46.6315 -5.6170 0.0000 -21.1233 0.0000
# 2 46.6315 60.4215 4.1104 0.0000 -15.2569 0.0000
# 3 -5.6170 4.1104 1.8725 0.0000 -6.8513 0.0000
# 4 0.0000 0.0000 0.0000 15.4826 0.0000 2.8591
# 5 -21.1233 -15.2569 -6.8513 0.0000 18.2887 0.0000
# 6 0.0000 0.0000 0.0000 2.8591 0.0000 41.0582
#
#
#
# Elastic Compliance Matrix: (Units=1/GPa)
#
#
# Indices 1 2 3 4 5 6 
#
# 1 0.002902 -0.003404 -0.048700 0.000000 -0.017732 0.000000
# 2 -0.003404 0.023447 0.012141 0.000000 0.020176 0.000000
# 3 -0.048700 0.012141 -0.519411 0.000000 -0.240701 0.000000
# 4 0.000000 0.000000 0.000000 0.065430 0.000000 -0.004556
# 5 -0.017732 0.020176 -0.240701 0.000000 -0.039142 0.000000
# 6 0.000000 0.000000 0.000000 -0.004556 0.000000 0.024673
#
#
# Mechanical properties :
#
#
# Convention : Reuss Voigt Hill
#
# Bulk Modulus (GPa) = -1.74523 36.49768 17.37622
# Shear Modulus (GPa) = -9.03881 27.83953 9.40036
#
# Velocity S-wave (km/s) = -2.10533 3.69483 2.14702
# Velocity P-wave (km/s) = 2.60109 6.00832 3.82976
#
# Compressibility (1/GPa) = -0.57298929
#
# Stress axis : x y z
#
# Youngs Moduli (GPa) = 344.53282 42.65025 -1.92526
#
# Poissons Ratio (x) = 0.14520 -0.09376
# Poissons Ratio (y) = 1.17295 0.02337
# Poissons Ratio (z) = 16.77886 -0.51783
#
# Static dielectric constant tensor:
#      x y z
#    x 1.748300 0.000000 -0.020720 
#    y 0.000000 1.718890 0.000000 
#    z -0.020720 0.000000 1.748930 
# 
# From -- ./inp_files/181020.got.cif
#   From: 2010.05.17/outbox.ucp.g08.bks.cvg/sg12_91_cif.got.tgz:181020.got - 2010.06.11 11:47:21.
