data_PCOD9224588
_publ_section_title
;
Structure prediction by ZEFSAII (Michael W. Deem and Ramdas Pophale) SiO2 
 PCOD9224588
Probable space group: C 2/M
;
_chemical_formula_sum "Si O2"
_cell_formula_units_Z 28
_cell_length_a 30.000000
_cell_length_b 9.000000
_cell_length_c 12.000000
_cell_angle_alpha 90.000000
_cell_angle_beta 60.000000
_cell_angle_gamma 90.000000
_cell_volume 2805.922308
_symmetry_space_group_name_H-M "C 2/M"
_symmetry_group_IT_number 12
_symmetry_cell_setting 'monoclinic'
loop_
_space_group_symop_operation_xyz
x,y,z
-x,y,-z
-x,-y,-z
x,-y,z
1/2+x,1/2+y,z
1/2-x,1/2+y,-z
1/2-x,1/2-y,-z
1/2+x,1/2-y,z
loop_
_atom_site_type_symbol
_atom_site_label
_atom_site_fract_x
_atom_site_fract_y
_atom_site_fract_z
Si Si1 0.413133 0.680721 0.872378
Si Si2 0.790150 0.318840 0.538823
Si Si3 0.285528 0.827224 0.210178
Si Si4 0.600738 0.172496 0.867233
Si Si5 0.598452 0.321439 0.642461
Si Si6 0.697566 0.671057 0.030849
Si Si7 0.007757 0.323325 0.622504
O O1 0.414539 0.500000 0.879181
O O2 0.360505 0.722653 0.870071
O O3 0.460748 0.747361 0.746479
O O4 0.412066 0.753554 0.997468
O O5 0.787964 0.500000 0.543143
O O6 0.750000 0.250000 0.500000
O O7 0.766942 0.238673 0.676853
O O8 0.847010 0.257393 0.448992
O O9 0.336568 0.831120 0.222930
O O10 0.279460 0.000000 0.179762
O O11 0.301874 0.704796 0.100437
O O12 0.580690 0.265509 0.787396
O O13 0.583696 0.000000 0.886449
O O14 0.602977 0.500000 0.634940
O O15 0.558438 0.260054 0.602411
O O16 0.701594 0.500000 0.055348
O O17 0.750000 0.750000 0.000000
O O18 0.010713 0.500000 0.644073
O O19 0.000000 0.306940 0.500000
#
# Coordination Sequence:
#
# PCOD9224588 Si02
#       7
#     8   8   8   8   8   8   8
#     4  10  22  41  66  94 126 164 208 262 323 381
#     4  12  23  37  59  90 129 169 209 254 311 374
#     4  10  20  35  57  86 123 165 205 254 312 371
#     4  10  20  37  63  94 129 163 205 257 314 381
#     4  12  25  41  65  95 130 170 215 266 321 383
#     4  10  21  37  59  89 125 163 208 260 312 375
#     4  11  26  48  70  92 123 165 216 270 322 380
#
# _framework density 9.9788940000000004
#
# number of rings (size 3 to 8) (size 9 to 14) (size 15 to 20)
#    0.000    1.286    1.429    4.714    0.000    5.714 
#    0.000    5.714    0.000    0.000    0.000    0.000 
#    0.000    0.000    0.000    0.000    0.000    0.000 
#
# Total GULP energy -156116.130538 kJ/mol
# GULP energy per Si atom -5575.576091 kJ/mol
# Density = 0.995618 g / cm^3
# Si number density = 9.978894 Si / 1000 Ang^3
#
#
#
# Elastic Constant Matrix: (Units=GPa)
#
#
# Indices 1 2 3 4 5 6 
#
# 1 110.2774 37.9867 30.2536 0.0000 -10.4006 0.0000
# 2 37.9867 116.2413 23.2991 0.0000 -7.2820 0.0000
# 3 30.2536 23.2991 78.2011 0.0000 -21.4804 0.0000
# 4 0.0000 0.0000 0.0000 33.8202 0.0000 -0.6571
# 5 -10.4006 -7.2820 -21.4804 0.0000 28.6656 0.0000
# 6 0.0000 0.0000 0.0000 -0.6571 0.0000 35.9243
#
#
#
# Elastic Compliance Matrix: (Units=1/GPa)
#
#
# Indices 1 2 3 4 5 6 
#
# 1 0.011020 -0.002914 -0.003148 0.000000 0.000899 0.000000
# 2 -0.002914 0.009923 -0.001797 0.000000 0.000117 0.000000
# 3 -0.003148 -0.001797 0.017757 0.000000 0.011707 0.000000
# 4 0.000000 0.000000 0.000000 0.029579 0.000000 0.000541
# 5 0.000899 0.000117 0.011707 0.000000 0.044014 0.000000
# 6 0.000000 0.000000 0.000000 0.000541 0.000000 0.027846
#
#
# Mechanical properties :
#
#
# Convention : Reuss Voigt Hill
#
# Bulk Modulus (GPa) = 43.51387 54.19985 48.85686
# Shear Modulus (GPa) = 30.57796 33.89405 32.23600
#
# Velocity S-wave (km/s) = 3.91849 4.12550 4.02333
# Velocity P-wave (km/s) = 6.50562 7.06464 6.79089
#
# Compressibility (1/GPa) = 0.02298118
#
# Stress axis : x y z
#
# Youngs Moduli (GPa) = 90.74166 100.78057 56.31716
#
# Poissons Ratio (x) = 0.29367 0.17730
# Poissons Ratio (y) = 0.26442 0.10119
# Poissons Ratio (z) = 0.28568 0.18109
#
# Static dielectric constant tensor:
#      x y z
#    x 2.370320 0.000000 0.671650 
#    y 0.000000 1.653230 0.000000 
#    z 0.671650 0.000000 2.519710 
# 
# From -- ./inp_files/187181.got.cif
#   From: 2010.05.17/outbox.ucp.g08.bks.cvg/sg12_94_cif.got.tgz:187181.got - 2010.06.11 11:47:21.
