data_PCOD9224914
_publ_section_title
;
Structure prediction by ZEFSAII (Michael W. Deem and Ramdas Pophale) SiO2 
 PCOD9224914
Probable space group: C 2/M
;
_chemical_formula_sum "Si O2"
_cell_formula_units_Z 32
_cell_length_a 30.000000
_cell_length_b 9.000000
_cell_length_c 18.000000
_cell_angle_alpha 90.000000
_cell_angle_beta 40.000000
_cell_angle_gamma 90.000000
_cell_volume 3123.947783
_symmetry_space_group_name_H-M "C 2/M"
_symmetry_group_IT_number 12
_symmetry_cell_setting 'monoclinic'
loop_
_space_group_symop_operation_xyz
x,y,z
-x,y,-z
-x,-y,-z
x,-y,z
1/2+x,1/2+y,z
1/2-x,1/2+y,-z
1/2-x,1/2-y,-z
1/2+x,1/2-y,z
loop_
_atom_site_type_symbol
_atom_site_label
_atom_site_fract_x
_atom_site_fract_y
_atom_site_fract_z
Si Si1 0.174652 0.677235 0.776702
Si Si2 0.282603 0.179348 0.032719
Si Si3 0.963194 0.673676 0.966905
Si Si4 0.178407 0.177726 0.615605
Si Si5 0.575709 0.180526 0.382270
Si Si6 0.036010 0.175868 0.735143
Si Si7 0.216954 0.321191 0.263798
Si Si8 0.074002 0.676805 0.218036
O O1 0.177049 0.500000 0.763366
O O2 0.156815 0.755831 0.722614
O O3 0.245906 0.743767 0.715146
O O4 0.116530 0.709032 0.913160
O O5 0.251995 0.258708 0.143841
O O6 0.272097 0.000000 0.048750
O O7 0.250000 0.250000 0.000000
O O8 0.364658 0.207871 0.918172
O O9 0.968415 0.500000 0.938225
O O10 0.998506 0.769571 0.858475
O O11 0.000000 0.689521 0.000000
O O12 0.250000 0.250000 0.500000
O O13 0.116545 0.215781 0.638426
O O14 0.184663 0.000000 0.612424
O O15 0.500000 0.235424 0.500000
O O16 0.636527 0.221638 0.360212
O O17 0.594091 0.227249 0.275016
O O18 0.573916 0.000000 0.384508
O O19 0.996471 0.250762 0.718192
O O20 0.029838 0.000000 0.738203
O O21 0.223964 0.500000 0.257838
O O22 0.065551 0.500000 0.231209
#
# Coordination Sequence:
#
# PCOD9224914 Si02
#       8
#     8   8   8   8   8   8   8   8
#     4  11  23  40  63  92 124 159 201 247 298 361
#     4  11  21  36  59  89 122 159 199 245 302 361
#     4  10  20  37  62  89 119 159 198 236 292 363
#     4  11  25  44  64  88 120 160 205 253 304 357
#     4   9  19  38  61  84 112 151 201 248 288 344
#     4  11  24  39  60  92 124 154 195 251 305 355
#     4  11  22  38  60  90 123 156 199 247 300 361
#     4  10  21  38  60  87 118 156 200 242 295 367
#
# _framework density 10.243449
#
# number of rings (size 3 to 8) (size 9 to 14) (size 15 to 20)
#    0.000    1.500    2.500    2.625    0.000    7.750 
#    0.000    1.250    0.000    2.625    0.000    0.000 
#    0.000    0.000    0.000    0.000    0.000    0.000 
#
# Total GULP energy -178799.173723 kJ/mol
# GULP energy per Si atom -5587.474179 kJ/mol
# Density = 1.022013 g / cm^3
# Si number density = 10.243449 Si / 1000 Ang^3
#
#
#
# Elastic Constant Matrix: (Units=GPa)
#
#
# Indices 1 2 3 4 5 6 
#
# 1 94.1945 16.6300 6.0425 0.0008 -35.6698 -0.0004
# 2 16.6300 26.6258 14.5116 0.0032 -22.7585 0.0030
# 3 6.0425 14.5116 39.3483 -0.0022 -28.9582 0.0027
# 4 0.0008 0.0032 -0.0022 24.3822 0.0016 1.9173
# 5 -35.6698 -22.7585 -28.9582 0.0016 31.4791 -0.0024
# 6 -0.0004 0.0030 0.0027 1.9173 -0.0024 33.0351
#
#
#
# Elastic Compliance Matrix: (Units=1/GPa)
#
#
# Indices 1 2 3 4 5 6 
#
# 1 -0.012992 -0.042574 -0.048888 0.000008 -0.090474 0.000001
# 2 -0.042574 0.004906 -0.087198 0.000001 -0.124909 -0.000003
# 3 -0.048888 -0.087198 -0.068373 0.000019 -0.181336 -0.000001
# 4 0.000008 0.000001 0.000019 0.041202 0.000025 -0.002391
# 5 -0.090474 -0.124909 -0.181336 0.000025 -0.327871 0.000000
# 6 0.000001 -0.000003 -0.000001 -0.002391 0.000000 0.030410
#
#
# Mechanical properties :
#
#
# Convention : Reuss Voigt Hill
#
# Bulk Modulus (GPa) = -2.30532 26.05964 11.87716
# Shear Modulus (GPa) = -41.66912 25.97827 -7.84543
#
# Velocity S-wave (km/s) = -4.51481 3.56482 -1.95903
# Velocity P-wave (km/s) = 5.32032 5.44901 0.83244
#
# Compressibility (1/GPa) = -0.43377848
#
# Stress axis : x y z
#
# Youngs Moduli (GPa) = -76.96942 203.82231 -14.62559
#
# Poissons Ratio (x) = 8.67744 -0.71501
# Poissons Ratio (y) = -3.27686 -1.27533
# Poissons Ratio (z) = -3.76287 17.77295
#
# Static dielectric constant tensor:
#      x y z
#    x 1.782420 0.000000 -0.020410 
#    y 0.000000 1.681210 0.000000 
#    z -0.020410 0.000000 1.733370 
# 
# From -- ./inp_files/295450.got.cif
#   From: 2010.05.17/outbox.ucp.g08.bks.cvg/sg12_148_cif.got.tgz:295450.got - 2010.06.11 11:47:21.
