data_PCOD9224581
_publ_section_title
;
Structure prediction by ZEFSAII (Michael W. Deem and Ramdas Pophale) SiO2 
 PCOD9224581
Probable space group: C 2/M
;
_chemical_formula_sum "Si O2"
_cell_formula_units_Z 32
_cell_length_a 30.000000
_cell_length_b 9.000000
_cell_length_c 18.000000
_cell_angle_alpha 90.000000
_cell_angle_beta 40.000000
_cell_angle_gamma 90.000000
_cell_volume 3123.947783
_symmetry_space_group_name_H-M "C 2/M"
_symmetry_group_IT_number 12
_symmetry_cell_setting 'monoclinic'
loop_
_space_group_symop_operation_xyz
x,y,z
-x,y,-z
-x,-y,-z
x,-y,z
1/2+x,1/2+y,z
1/2-x,1/2+y,-z
1/2-x,1/2-y,-z
1/2+x,1/2-y,z
loop_
_atom_site_type_symbol
_atom_site_label
_atom_site_fract_x
_atom_site_fract_y
_atom_site_fract_z
Si Si1 0.904356 0.829161 0.162167
Si Si2 0.108154 0.674625 0.976209
Si Si3 0.750789 0.329105 0.578633
Si Si4 0.498918 0.319194 0.585759
Si Si5 0.221885 0.827277 0.920446
Si Si6 0.348881 0.325117 0.827856
Si Si7 0.383241 0.676991 0.456762
Si Si8 0.033553 0.672859 0.779789
O O1 0.910144 0.774111 0.071119
O O2 0.824046 0.822822 0.288662
O O3 0.942980 0.717642 0.167790
O O4 0.927913 0.000000 0.141459
O O5 0.107409 0.500000 0.958105
O O6 0.181686 0.726694 0.913246
O O7 0.048930 0.698365 0.114309
O O8 0.770118 0.500000 0.542394
O O9 0.750000 0.250000 0.500000
O O10 0.808504 0.249821 0.553845
O O11 0.500000 0.268424 0.500000
O O12 0.500568 0.500000 0.584064
O O13 0.428121 0.276522 0.717286
O O14 0.567034 0.269412 0.541366
O O15 0.298491 0.769043 0.839787
O O16 0.220980 0.000000 0.899683
O O17 0.180110 0.812612 0.051739
O O18 0.344220 0.500000 0.813361
O O19 0.376660 0.500000 0.466076
O O20 0.422881 0.726049 0.331323
O O21 0.047493 0.500000 0.746846
#
# Coordination Sequence:
#
# PCOD9224581 Si02
#       8
#     8   8   8   8   8   8   8   8
#     4  11  24  40  60  86 117 155 196 243 298 354
#     4  11  24  39  57  85 119 155 196 242 298 361
#     4  11  23  40  62  88 119 155 199 247 295 352
#     4   9  19  36  58  86 118 152 194 242 293 352
#     4  10  20  35  57  85 115 150 192 242 294 353
#     4   9  18  35  59  84 113 150 193 241 293 350
#     4  11  22  37  62  92 120 158 204 248 299 354
#     4  11  23  39  60  85 117 155 198 245 295 354
#
# _framework density 10.243449
#
# number of rings (size 3 to 8) (size 9 to 14) (size 15 to 20)
#    0.000    1.625    1.250    3.375    0.000    7.500 
#    0.000    2.500    0.000    2.625    0.000    0.000 
#    0.000    0.000    0.000    0.000    0.000    0.000 
#
# Total GULP energy -178805.835623 kJ/mol
# GULP energy per Si atom -5587.682363 kJ/mol
# Density = 1.022013 g / cm^3
# Si number density = 10.243449 Si / 1000 Ang^3
#
#
#
# Elastic Constant Matrix: (Units=GPa)
#
#
# Indices 1 2 3 4 5 6 
#
# 1 84.9989 13.8167 16.3127 -0.0025 -24.4837 -0.0015
# 2 13.8167 55.6689 15.1259 -0.0112 -11.7383 0.0065
# 3 16.3127 15.1259 50.6666 -0.0070 -12.0513 0.0007
# 4 -0.0025 -0.0112 -0.0070 14.2256 0.0013 -5.6285
# 5 -24.4837 -11.7383 -12.0513 0.0013 23.9940 0.0008
# 6 -0.0015 0.0065 0.0007 -5.6285 0.0008 22.9693
#
#
#
# Elastic Compliance Matrix: (Units=1/GPa)
#
#
# Indices 1 2 3 4 5 6 
#
# 1 0.016769 -0.000352 -0.001437 0.000001 0.016218 0.000001
# 2 -0.000352 0.020834 -0.004279 0.000012 0.007684 -0.000003
# 3 -0.001437 -0.004279 0.023429 0.000008 0.008209 0.000002
# 4 0.000001 0.000012 0.000008 0.077843 0.000006 0.019075
# 5 0.016218 0.007684 0.008209 0.000006 0.066108 -0.000002
# 6 0.000001 -0.000003 0.000002 0.019075 -0.000002 0.048211
#
#
# Mechanical properties :
#
#
# Convention : Reuss Voigt Hill
#
# Bulk Modulus (GPa) = 20.45083 31.31610 25.88346
# Shear Modulus (GPa) = 17.75399 21.97638 19.86518
#
# Velocity S-wave (km/s) = 2.94700 3.27877 3.11730
# Velocity P-wave (km/s) = 4.64584 5.44544 5.06146
#
# Compressibility (1/GPa) = 0.04889776
#
# Stress axis : x y z
#
# Youngs Moduli (GPa) = 59.63283 47.99958 42.68191
#
# Poissons Ratio (x) = 0.01690 0.06131
# Poissons Ratio (y) = 0.02099 0.18262
# Poissons Ratio (z) = 0.08566 0.20537
#
# Static dielectric constant tensor:
#      x y z
#    x 1.746510 0.000000 -0.006260 
#    y 0.000000 1.680120 0.000000 
#    z -0.006260 0.000000 1.736360 
# 
# From -- ./inp_files/295548.got.cif
#   From: 2010.05.17/outbox.ucp.g08.bks.cvg/sg12_148_cif.got.tgz:295548.got - 2010.06.11 11:47:21.
