data_PCOD9224993
_publ_section_title
;
Structure prediction by ZEFSAII (Michael W. Deem and Ramdas Pophale) SiO2 
 PCOD9224993
Probable space group: C 2/M
;
_chemical_formula_sum "Si O2"
_cell_formula_units_Z 28
_cell_length_a 21.000000
_cell_length_b 9.000000
_cell_length_c 30.000000
_cell_angle_alpha 90.000000
_cell_angle_beta 30.000000
_cell_angle_gamma 90.000000
_cell_volume 2835.000000
_symmetry_space_group_name_H-M "C 2/M"
_symmetry_group_IT_number 12
_symmetry_cell_setting 'monoclinic'
loop_
_space_group_symop_operation_xyz
x,y,z
-x,y,-z
-x,-y,-z
x,-y,z
1/2+x,1/2+y,z
1/2-x,1/2+y,-z
1/2-x,1/2-y,-z
1/2+x,1/2-y,z
loop_
_atom_site_type_symbol
_atom_site_label
_atom_site_fract_x
_atom_site_fract_y
_atom_site_fract_z
Si Si1 0.558639 0.319447 0.012978
Si Si2 0.774834 0.677856 0.672994
Si Si3 0.665644 0.176888 0.118108
Si Si4 0.555291 0.671661 0.354008
Si Si5 0.010348 0.320377 0.853744
Si Si6 0.536526 0.177170 0.681261
Si Si7 0.800099 0.827765 0.566568
O O1 0.550607 0.500000 0.020298
O O2 0.487939 0.244660 0.097441
O O3 0.500000 0.278202 0.000000
O O4 0.704245 0.271834 0.936695
O O5 0.768762 0.500000 0.678838
O O6 0.847931 0.740574 0.672211
O O7 0.635764 0.752625 0.755731
O O8 0.831481 0.732443 0.591420
O O9 0.610855 0.230155 0.103337
O O10 0.554276 0.200946 0.221320
O O11 0.682860 0.000000 0.101895
O O12 0.597899 0.500000 0.323363
O O13 0.524384 0.743063 0.324700
O O14 0.421588 0.672573 0.461169
O O15 0.013393 0.500000 0.852302
O O16 0.677400 0.224817 0.612325
O O17 0.542041 0.000000 0.668451
O O18 0.774294 0.000000 0.595986
#
# Coordination Sequence:
#
# PCOD9224993 Si02
#       7
#     8   8   8   8   8   8   8
#     4  10  22  39  62  94 128 159 197 246 301 364
#     4  12  25  40  62  90 121 160 209 259 310 368
#     4   9  19  38  63  88 121 164 202 244 300 357
#     4  11  24  39  59  90 126 163 204 255 313 365
#     4  11  22  41  65  88 121 162 206 252 303 362
#     4  10  20  38  63  89 123 166 208 249 303 362
#     4  10  21  41  64  87 122 164 205 255 311 365
#
# _framework density 9.8765429999999999
#
# number of rings (size 3 to 8) (size 9 to 14) (size 15 to 20)
#    0.000    1.571    1.429    3.429    2.000    3.714 
#    0.000    1.429    0.000    0.000    0.000    0.000 
#    0.000    0.000    0.000    0.000    0.000    0.000 
#
# Total GULP energy -156270.796649 kJ/mol
# GULP energy per Si atom -5581.099880 kJ/mol
# Density = 0.985406 g / cm^3
# Si number density = 9.876543 Si / 1000 Ang^3
#
#
#
# Elastic Constant Matrix: (Units=GPa)
#
#
# Indices 1 2 3 4 5 6 
#
# 1 166.3657 43.0249 -3.0497 0.0000 11.1049 0.0003
# 2 43.0249 69.0591 0.7142 -0.0003 5.9729 0.0007
# 3 -3.0497 0.7142 8.2798 -0.0003 -4.5561 0.0002
# 4 0.0000 -0.0003 -0.0003 17.4042 0.0000 0.9686
# 5 11.1049 5.9729 -4.5561 0.0000 31.5057 -0.0001
# 6 0.0003 0.0007 0.0002 0.9686 -0.0001 32.9155
#
#
#
# Elastic Compliance Matrix: (Units=1/GPa)
#
#
# Indices 1 2 3 4 5 6 
#
# 1 0.007297 -0.004449 0.002304 0.000000 -0.001395 0.000000
# 2 -0.004449 0.017506 -0.004468 0.000000 -0.002397 0.000000
# 3 0.002304 -0.004468 0.132579 0.000003 0.019208 -0.000001
# 4 0.000000 0.000000 0.000003 0.057552 0.000000 -0.001694
# 5 -0.001395 -0.002397 0.019208 0.000000 0.035464 0.000000
# 6 0.000000 0.000000 -0.000001 -0.001694 0.000000 0.030431
#
#
# Mechanical properties :
#
#
# Convention : Reuss Voigt Hill
#
# Bulk Modulus (GPa) = 6.93699 36.12040 21.52869
# Shear Modulus (GPa) = 14.61537 29.89943 22.25740
#
# Velocity S-wave (km/s) = 2.72307 3.89480 3.36040
# Velocity P-wave (km/s) = 3.66146 6.20899 5.09695
#
# Compressibility (1/GPa) = 0.14415484
#
# Stress axis : x y z
#
# Youngs Moduli (GPa) = 137.04536 57.12409 7.54270
#
# Poissons Ratio (x) = 0.25416 -0.01738
# Poissons Ratio (y) = 0.60974 0.03370
# Poissons Ratio (z) = -0.31570 0.25520
#
# Static dielectric constant tensor:
#      x y z
#    x 1.682530 0.000000 -0.017140 
#    y 0.000000 1.675890 0.000000 
#    z -0.017140 0.000000 1.761800 
# 
# From -- ./inp_files/275088.got.cif
#   From: 2010.05.17/outbox.ucp.g08.bks.cvg/sg12_138_cif.got.tgz:275088.got - 2010.06.11 11:47:21.
