data_PCOD9224373
_publ_section_title
;
Structure prediction by ZEFSAII (Michael W. Deem and Ramdas Pophale) SiO2 
 PCOD9224373
Probable space group: C 2/M
;
_chemical_formula_sum "Si O2"
_cell_formula_units_Z 32
_cell_length_a 30.000000
_cell_length_b 9.000000
_cell_length_c 15.000000
_cell_angle_alpha 90.000000
_cell_angle_beta 50.000000
_cell_angle_gamma 90.000000
_cell_volume 3102.479995
_symmetry_space_group_name_H-M "C 2/M"
_symmetry_group_IT_number 12
_symmetry_cell_setting 'monoclinic'
loop_
_space_group_symop_operation_xyz
x,y,z
-x,y,-z
-x,-y,-z
x,-y,z
1/2+x,1/2+y,z
1/2-x,1/2+y,-z
1/2-x,1/2-y,-z
1/2+x,1/2-y,z
loop_
_atom_site_type_symbol
_atom_site_label
_atom_site_fract_x
_atom_site_fract_y
_atom_site_fract_z
Si Si1 0.470693 0.830449 0.916233
Si Si2 0.074416 0.672266 0.216673
Si Si3 0.969399 0.828629 0.444647
Si Si4 0.588930 0.668625 0.728083
Si Si5 0.126352 0.828025 0.867024
Si Si6 0.650188 0.673011 0.460850
Si Si7 0.750246 0.177766 0.246923
Si Si8 0.198670 0.679306 0.123135
O O1 0.427625 0.818400 0.886813
O O2 0.533640 0.773320 0.808208
O O3 0.474888 0.000000 0.936913
O O4 0.436250 0.740537 0.034039
O O5 0.071071 0.500000 0.248094
O O6 0.015116 0.747898 0.323617
O O7 0.134595 0.734773 0.177817
O O8 0.000000 0.824403 0.500000
O O9 0.903663 0.768862 0.530824
O O10 0.964293 0.000000 0.421710
O O11 0.565875 0.500000 0.763189
O O12 0.633392 0.685794 0.752197
O O13 0.622467 0.686672 0.593565
O O14 0.183973 0.762532 0.837973
O O15 0.122324 0.000000 0.898528
O O16 0.661315 0.500000 0.425238
O O17 0.709723 0.759848 0.375997
O O18 0.715178 0.215344 0.202899
O O19 0.754144 0.000000 0.248854
O O20 0.199322 0.500000 0.111077
O O21 0.250000 0.750000 0.000000
#
# Coordination Sequence:
#
# PCOD9224373 Si02
#       8
#     8   8   8   8   8   8   8   8
#     4  11  22  36  57  87 117 144 185 237 286 337
#     4  10  21  35  53  80 112 145 180 222 277 333
#     4  10  20  34  54  81 109 141 185 228 269 325
#     4  10  21  39  60  82 112 150 188 230 284 342
#     4  10  22  39  59  82 110 149 192 232 282 340
#     4  10  21  37  57  82 113 148 187 232 280 332
#     4  10  22  39  58  83 114 149 191 234 277 332
#     4  10  21  37  56  81 113 149 188 229 276 330
#
# _framework density 10.314329000000001
#
# number of rings (size 3 to 8) (size 9 to 14) (size 15 to 20)
#    0.000    1.875    1.250    2.250    0.000    5.750 
#    0.000    0.000    0.000    0.000    0.000    0.000 
#    0.000    0.000    0.000    0.000    0.000    0.000 
#
# Total GULP energy -178398.597351 kJ/mol
# GULP energy per Si atom -5574.956167 kJ/mol
# Density = 1.029085 g / cm^3
# Si number density = 10.314329 Si / 1000 Ang^3
#
#
#
# Elastic Constant Matrix: (Units=GPa)
#
#
# Indices 1 2 3 4 5 6 
#
# 1 34.2267 25.3195 19.4042 0.0000 -6.4180 0.0000
# 2 25.3195 1.7284 18.9203 0.0000 3.2690 0.0000
# 3 19.4042 18.9203 55.4615 0.0000 -16.5462 0.0000
# 4 0.0000 0.0000 0.0000 28.1192 0.0000 -8.4194
# 5 -6.4180 3.2690 -16.5462 0.0000 25.3592 0.0000
# 6 0.0000 0.0000 0.0000 -8.4194 0.0000 12.5914
#
#
#
# Elastic Compliance Matrix: (Units=1/GPa)
#
#
# Indices 1 2 3 4 5 6 
#
# 1 0.014450 0.031821 -0.019922 0.000000 -0.013443 0.000000
# 2 0.031821 -0.045983 0.010833 0.000000 0.021049 0.000000
# 3 -0.019922 0.010833 0.024069 0.000000 0.009266 0.000000
# 4 0.000000 0.000000 0.000000 0.044465 0.000000 0.029732
# 5 -0.013443 0.021049 0.009266 0.000000 0.039364 0.000000
# 6 0.000000 0.000000 0.000000 0.029732 0.000000 0.099300
#
#
# Mechanical properties :
#
#
# Convention : Reuss Voigt Hill
#
# Bulk Modulus (GPa) = 26.31431 24.30053 25.30742
# Shear Modulus (GPa) = 34.99719 15.06548 25.03133
#
# Velocity S-wave (km/s) = 4.12337 2.70537 3.48720
# Velocity P-wave (km/s) = 5.95428 4.64373 5.33937
#
# Compressibility (1/GPa) = 0.03800214
#
# Stress axis : x y z
#
# Youngs Moduli (GPa) = 69.20213 -21.74736 41.54648
#
# Poissons Ratio (x) = 0.69203 0.82769
# Poissons Ratio (y) = -2.20211 -0.45008
# Poissons Ratio (z) = 1.37865 0.23559
#
# Static dielectric constant tensor:
#      x y z
#    x 1.888000 0.000000 0.185000 
#    y 0.000000 1.559180 0.000000 
#    z 0.185000 0.000000 1.953910 
# 
# From -- ./inp_files/249868.got.cif
#   From: 2010.05.17/outbox.ucp.g08.bks.cvg/sg12_125_cif.got.tgz:249868.got - 2010.06.11 11:47:21.
