data_PCOD9224543
_publ_section_title
;
Structure prediction by ZEFSAII (Michael W. Deem and Ramdas Pophale) SiO2 
 PCOD9224543
Probable space group: C 2/M
;
_chemical_formula_sum "Si O2"
_cell_formula_units_Z 28
_cell_length_a 21.000000
_cell_length_b 9.000000
_cell_length_c 15.000000
_cell_angle_alpha 90.000000
_cell_angle_beta 90.000000
_cell_angle_gamma 90.000000
_cell_volume 2835.000000
_symmetry_space_group_name_H-M "C 2/M"
_symmetry_group_IT_number 12
_symmetry_cell_setting 'monoclinic'
loop_
_space_group_symop_operation_xyz
x,y,z
-x,y,-z
-x,-y,-z
x,-y,z
1/2+x,1/2+y,z
1/2-x,1/2+y,-z
1/2-x,1/2-y,-z
1/2+x,1/2-y,z
loop_
_atom_site_type_symbol
_atom_site_label
_atom_site_fract_x
_atom_site_fract_y
_atom_site_fract_z
Si Si1 0.439010 0.819651 0.559149
Si Si2 0.455057 0.331178 0.086540
Si Si3 0.462549 0.174323 0.766709
Si Si4 0.780900 0.321447 0.247435
Si Si5 0.328523 0.175840 0.051331
Si Si6 0.323794 0.173785 0.848866
Si Si7 0.811154 0.680775 0.450328
O O1 0.500000 0.773373 0.500000
O O2 0.447938 0.777818 0.663969
O O3 0.374504 0.774317 0.506272
O O4 0.437603 0.000000 0.560069
O O5 0.429722 0.500000 0.099426
O O6 0.488208 0.274134 0.177367
O O7 0.402586 0.212549 0.057812
O O8 0.500000 0.338246 0.000000
O O9 0.398247 0.179695 0.825581
O O10 0.483650 0.000000 0.763387
O O11 0.783952 0.500000 0.246491
O O12 0.807778 0.267750 0.150439
O O13 0.709727 0.262307 0.231543
O O14 0.809475 0.275723 0.344001
O O15 0.314967 0.000000 0.049175
O O16 0.309919 0.232098 0.950533
O O17 0.304514 0.000000 0.845750
O O18 0.807379 0.500000 0.452592
O O19 0.750000 0.750000 0.500000
#
# Coordination Sequence:
#
# PCOD9224543 Si02
#       7
#     8   8   8   8   8   8   8
#     4   9  19  35  59  88 114 147 194 246 290 335
#     4  11  23  37  55  83 116 151 186 228 283 341
#     4  10  20  35  59  84 110 149 193 234 276 333
#     4  10  22  36  57  86 114 148 187 233 286 339
#     4  10  21  37  57  83 114 148 190 233 278 335
#     4  10  20  35  56  84 115 150 190 230 275 337
#     4  10  21  39  61  87 116 150 197 243 292 346
#
# _framework density 9.8765429999999999
#
# number of rings (size 3 to 8) (size 9 to 14) (size 15 to 20)
#    0.000    2.000    1.429    1.714    2.000    4.000 
#    0.000    0.714    0.000    0.857    0.000    0.000 
#    0.000    0.000    0.000    0.000    0.000    0.000 
#
# Total GULP energy -155934.529681 kJ/mol
# GULP energy per Si atom -5569.090346 kJ/mol
# Density = 0.985406 g / cm^3
# Si number density = 9.876543 Si / 1000 Ang^3
#
#
#
# Elastic Constant Matrix: (Units=GPa)
#
#
# Indices 1 2 3 4 5 6 
#
# 1 55.2646 -7.0410 40.1069 0.0000 11.6067 0.0000
# 2 -7.0410 -7.3887 12.9667 0.0000 -0.5534 0.0000
# 3 40.1069 12.9667 194.2939 0.0000 24.9905 0.0000
# 4 0.0000 0.0000 0.0000 26.6350 0.0000 0.8028
# 5 11.6067 -0.5534 24.9905 0.0000 39.6852 0.0000
# 6 0.0000 0.0000 0.0000 0.8028 0.0000 16.3516
#
#
#
# Elastic Compliance Matrix: (Units=1/GPa)
#
#
# Indices 1 2 3 4 5 6 
#
# 1 0.017790 -0.019774 -0.001793 0.000000 -0.004350 0.000000
# 2 -0.019774 -0.097219 0.010882 0.000000 -0.002425 0.000000
# 3 -0.001793 0.010882 0.005118 0.000000 -0.002547 0.000000
# 4 0.000000 0.000000 0.000000 0.037600 0.000000 -0.001846
# 5 -0.004350 -0.002425 -0.002547 0.000000 0.028040 0.000000
# 6 0.000000 0.000000 0.000000 -0.001846 0.000000 0.061247
#
#
# Mechanical properties :
#
#
# Convention : Reuss Voigt Hill
#
# Bulk Modulus (GPa) = -10.45134 37.13723 13.34295
# Shear Modulus (GPa) = 118.89426 29.61017 74.25222
#
# Velocity S-wave (km/s) = 7.76665 3.87591 6.13773
# Velocity P-wave (km/s) = 8.66749 6.23472 7.54974
#
# Compressibility (1/GPa) = -0.09568152
#
# Stress axis : x y z
#
# Youngs Moduli (GPa) = 56.21044 -10.28605 195.37520
#
# Poissons Ratio (x) = -0.20340 0.35035
# Poissons Ratio (y) = 1.11152 -2.12606
# Poissons Ratio (z) = 0.10080 0.11193
#
# Static dielectric constant tensor:
#      x y z
#    x 1.784280 0.000000 -0.025170 
#    y 0.000000 1.677520 0.000000 
#    z -0.025170 0.000000 1.700320 
# 
# From -- ./inp_files/230961.got.cif
#   From: 2010.05.17/outbox.ucp.g08.bks.cvg/sg12_116_cif.got.tgz:230961.got - 2010.06.11 11:47:21.
