data_PCOD9224458
_publ_section_title
;
Structure prediction by ZEFSAII (Michael W. Deem and Ramdas Pophale) SiO2 
 PCOD9224458
Probable space group: C 2/M
;
_chemical_formula_sum "Si O2"
_cell_formula_units_Z 20
_cell_length_a 21.000000
_cell_length_b 9.000000
_cell_length_c 30.000000
_cell_angle_alpha 90.000000
_cell_angle_beta 20.000000
_cell_angle_gamma 90.000000
_cell_volume 1939.254213
_symmetry_space_group_name_H-M "C 2/M"
_symmetry_group_IT_number 12
_symmetry_cell_setting 'monoclinic'
loop_
_space_group_symop_operation_xyz
x,y,z
-x,y,-z
-x,-y,-z
x,-y,z
1/2+x,1/2+y,z
1/2-x,1/2+y,-z
1/2-x,1/2-y,-z
1/2+x,1/2-y,z
loop_
_atom_site_type_symbol
_atom_site_label
_atom_site_fract_x
_atom_site_fract_y
_atom_site_fract_z
Si Si1 0.750266 0.831812 0.560940
Si Si2 0.405941 0.821290 0.929514
Si Si3 0.033267 0.165822 0.307387
Si Si4 0.142150 0.172287 0.944974
Si Si5 0.707618 0.673172 0.363105
O O1 0.645423 0.697297 0.606044
O O2 0.729130 0.824467 0.627209
O O3 0.963110 0.822976 0.404134
O O4 0.691087 0.000000 0.585853
O O5 0.615800 0.766659 0.779969
O O6 0.400618 0.000000 0.927820
O O7 0.250000 0.750000 0.000000
O O8 0.366193 0.772033 0.005877
O O9 0.164302 0.296654 0.206187
O O10 0.108791 0.000000 0.250176
O O11 0.116049 0.000000 0.973943
O O12 0.000000 0.216651 0.000000
O O13 0.500000 0.740938 0.500000
O O14 0.685448 0.500000 0.363276
#
# Coordination Sequence:
#
# PCOD9224458 Si02
#       5
#     8   8   8   8   8
#     4   9  18  34  58  86 118 153 189 238 299 366
#     4  11  23  40  67  95 126 165 208 256 307 380
#     4  10  20  34  58  88 116 151 197 246 297 366
#     4  11  25  42  60  84 122 165 208 261 316 364
#     4   9  19  35  58  87 117 152 194 243 299 357
#
# _framework density 10.313243
#
# number of rings (size 3 to 8) (size 9 to 14) (size 15 to 20)
#    0.000    2.000    0.000    3.000    2.800    4.000 
#    0.000    1.000    0.000    3.000    0.000    0.000 
#    0.000    0.000    0.000    0.000    0.000    0.000 
#
# Total GULP energy -111412.321013 kJ/mol
# GULP energy per Si atom -5570.616051 kJ/mol
# Density = 1.028977 g / cm^3
# Si number density = 10.313243 Si / 1000 Ang^3
#
#
#
# Elastic Constant Matrix: (Units=GPa)
#
#
# Indices 1 2 3 4 5 6 
#
# 1 17.7602 25.2312 -7.0516 0.0683 -7.0275 -0.0133
# 2 25.2312 19.5439 -13.0475 -0.0196 -6.1126 -0.0230
# 3 -7.0516 -13.0475 36.7659 0.0527 -19.9910 0.0016
# 4 0.0683 -0.0196 0.0527 29.8868 0.0130 6.2505
# 5 -7.0275 -6.1126 -19.9910 0.0130 18.7579 0.0034
# 6 -0.0133 -0.0230 0.0016 6.2505 0.0034 27.2467
#
#
#
# Elastic Compliance Matrix: (Units=1/GPa)
#
#
# Indices 1 2 3 4 5 6 
#
# 1 0.231644 0.146167 0.402810 -0.001491 0.563706 0.000482
# 2 0.146167 -0.046676 0.078418 -0.000587 0.123124 0.000146
# 3 0.402810 0.078418 0.542758 -0.002294 0.754902 0.000660
# 4 -0.001491 -0.000587 -0.002294 0.035155 -0.003218 -0.008065
# 5 0.563706 0.123124 0.754902 -0.003218 1.109151 0.000930
# 6 0.000482 0.000146 0.000660 -0.008065 0.000930 0.038552
#
#
# Mechanical properties :
#
#
# Convention : Reuss Voigt Hill
#
# Bulk Modulus (GPa) = 0.50441 9.37046 4.93744
# Shear Modulus (GPa) = 3.79757 19.77413 11.78585
#
# Velocity S-wave (km/s) = 1.35835 3.09961 2.39298
# Velocity P-wave (km/s) = 1.64476 4.16688 3.16766
#
# Compressibility (1/GPa) = 1.98251635
#
# Stress axis : x y z
#
# Youngs Moduli (GPa) = 4.31697 -21.42446 1.84244
#
# Poissons Ratio (x) = 3.13155 -0.74215
# Poissons Ratio (y) = -0.63100 -0.14448
# Poissons Ratio (z) = -1.73892 1.68006
#
# Static dielectric constant tensor:
#      x y z
#    x 1.717810 0.000000 -0.058570 
#    y 0.000000 1.706420 0.000020 
#    z -0.058570 0.000020 1.925820 
# 
# From -- ./inp_files/172575.got.cif
#   From: 2010.05.17/outbox.ucp.g08.bks.cvg/sg12_87_cif.got.tgz:172575.got - 2010.06.11 11:47:21.
