data_PCOD9224690
_publ_section_title
;
Structure prediction by ZEFSAII (Michael W. Deem and Ramdas Pophale) SiO2 
 PCOD9224690
Probable space group: C 2/M
;
_chemical_formula_sum "Si O2"
_cell_formula_units_Z 32
_cell_length_a 15.000000
_cell_length_b 9.000000
_cell_length_c 27.000000
_cell_angle_alpha 90.000000
_cell_angle_beta 100.000000
_cell_angle_gamma 90.000000
_cell_volume 3589.624260
_symmetry_space_group_name_H-M "C 2/M"
_symmetry_group_IT_number 12
_symmetry_cell_setting 'monoclinic'
loop_
_space_group_symop_operation_xyz
x,y,z
-x,y,-z
-x,-y,-z
x,-y,z
1/2+x,1/2+y,z
1/2-x,1/2+y,-z
1/2-x,1/2-y,-z
1/2+x,1/2-y,z
loop_
_atom_site_type_symbol
_atom_site_label
_atom_site_fract_x
_atom_site_fract_y
_atom_site_fract_z
Si Si1 0.510456 0.179572 0.759119
Si Si2 0.977261 0.679955 0.941498
Si Si3 0.148964 0.180011 0.491246
Si Si4 0.318139 0.678897 0.747004
Si Si5 0.032806 0.820502 0.578016
Si Si6 0.862433 0.819992 0.311321
Si Si7 0.389778 0.179642 0.130173
Si Si8 0.188707 0.179213 0.135234
O O1 0.412757 0.249485 0.740344
O O2 0.579245 0.251723 0.727411
O O3 0.547144 0.221069 0.817307
O O4 0.509088 0.000000 0.755180
O O5 0.968282 0.500000 0.939747
O O6 0.889617 0.747470 0.905486
O O7 0.061949 0.724801 0.915448
O O8 0.000000 0.724457 0.000000
O O9 0.250000 0.250000 0.500000
O O10 0.097355 0.217912 0.537729
O O11 0.071903 0.227106 0.442905
O O12 0.158424 0.000000 0.489454
O O13 0.316706 0.500000 0.741198
O O14 0.236896 0.751478 0.707731
O O15 0.312356 0.711720 0.805762
O O16 0.084594 0.775400 0.633119
O O17 0.028150 0.000000 0.578341
O O18 0.858128 0.000000 0.309048
O O19 0.287304 0.231376 0.126365
O O20 0.385818 0.000000 0.130656
O O21 0.181415 0.000000 0.129863
#
# Coordination Sequence:
#
# PCOD9224690 Si02
#       8
#     8   8   8   8   8   8   8   8
#     4  11  21  37  58  81 111 151 189 231 284 337
#     4  10  21  37  57  82 110 141 180 227 279 337
#     4   9  17  35  60  82 108 147 190 230 276 332
#     4  11  22  37  56  83 112 148 193 234 279 339
#     4   8  18  36  56  79 113 151 184 225 281 336
#     4  11  22  37  57  85 118 151 189 236 285 337
#     4   9  18  35  56  77 106 141 176 221 276 329
#     4  10  20  36  57  78 105 141 181 225 276 331
#
# _framework density 8.9145819999999993
#
# number of rings (size 3 to 8) (size 9 to 14) (size 15 to 20)
#    0.000    2.125    2.500    1.875    0.000    2.250 
#    0.000    6.875    0.000    0.000    0.000    0.000 
#    0.000    0.000    0.000    0.000    0.000    0.000 
#
# Total GULP energy -178393.630746 kJ/mol
# GULP energy per Si atom -5574.800961 kJ/mol
# Density = 0.889429 g / cm^3
# Si number density = 8.914582 Si / 1000 Ang^3
#
#
#
# Elastic Constant Matrix: (Units=GPa)
#
#
# Indices 1 2 3 4 5 6 
#
# 1 85.8973 8.9318 -21.2952 0.0000 20.1672 0.0000
# 2 8.9318 38.7383 6.3790 0.0000 8.1635 0.0000
# 3 -21.2952 6.3790 48.5513 0.0000 18.4712 0.0000
# 4 0.0000 0.0000 0.0000 21.8830 0.0000 6.7345
# 5 20.1672 8.1635 18.4712 0.0000 29.9889 0.0000
# 6 0.0000 0.0000 0.0000 6.7345 0.0000 35.4507
#
#
#
# Elastic Compliance Matrix: (Units=1/GPa)
#
#
# Indices 1 2 3 4 5 6 
#
# 1 0.024297 -0.003110 0.022151 0.000000 -0.029136 0.000000
# 2 -0.003110 0.027820 -0.003831 0.000000 -0.003122 0.000000
# 3 0.022151 -0.003831 0.047130 0.000000 -0.042882 0.000000
# 4 0.000000 0.000000 0.000000 0.048535 0.000000 -0.009220
# 5 -0.029136 -0.003122 -0.042882 0.000000 0.080202 0.000000
# 6 0.000000 0.000000 0.000000 -0.009220 0.000000 0.029960
#
#
# Mechanical properties :
#
#
# Convention : Reuss Voigt Hill
#
# Bulk Modulus (GPa) = 7.71209 17.91312 12.81261
# Shear Modulus (GPa) = 18.46743 29.40928 23.93836
#
# Velocity S-wave (km/s) = 3.22188 4.06582 3.66820
# Velocity P-wave (km/s) = 4.26328 5.66657 5.01426
#
# Compressibility (1/GPa) = 0.12966650
#
# Stress axis : x y z
#
# Youngs Moduli (GPa) = 41.15683 35.94528 21.21793
#
# Poissons Ratio (x) = 0.11178 -0.46999
# Poissons Ratio (y) = 0.12798 0.08129
# Poissons Ratio (z) = -0.91164 0.13772
#
# Static dielectric constant tensor:
#      x y z
#    x 1.645740 0.000000 -0.011720 
#    y 0.000000 1.596170 0.000000 
#    z -0.011720 0.000000 1.624280 
# 
# From -- ./inp_files/359904.got.cif
#   From: 2010.05.17/outbox.ucp.g08.bks.cvg/sg12_180_cif.got.tgz:359904.got - 2010.06.11 11:47:21.
