data_PCOD9224469
_publ_section_title
;
Structure prediction by ZEFSAII (Michael W. Deem and Ramdas Pophale) SiO2 
 PCOD9224469
Probable space group: C 2/M
;
_chemical_formula_sum "Si O2"
_cell_formula_units_Z 32
_cell_length_a 24.000000
_cell_length_b 9.000000
_cell_length_c 30.000000
_cell_angle_alpha 90.000000
_cell_angle_beta 30.000000
_cell_angle_gamma 90.000000
_cell_volume 3240.000000
_symmetry_space_group_name_H-M "C 2/M"
_symmetry_group_IT_number 12
_symmetry_cell_setting 'monoclinic'
loop_
_space_group_symop_operation_xyz
x,y,z
-x,y,-z
-x,-y,-z
x,-y,z
1/2+x,1/2+y,z
1/2-x,1/2+y,-z
1/2-x,1/2-y,-z
1/2+x,1/2-y,z
loop_
_atom_site_type_symbol
_atom_site_label
_atom_site_fract_x
_atom_site_fract_y
_atom_site_fract_z
Si Si1 0.644553 0.176875 0.595964
Si Si2 0.363062 0.820170 0.207489
Si Si3 0.771387 0.678178 0.368157
Si Si4 0.688110 0.176707 0.264056
Si Si5 0.401071 0.177470 0.933121
Si Si6 0.923825 0.168647 0.730808
Si Si7 0.349082 0.329560 0.883122
Si Si8 0.033544 0.677592 0.527434
O O1 0.750000 0.250000 0.500000
O O2 0.652003 0.219813 0.642983
O O3 0.535039 0.237013 0.648283
O O4 0.648881 0.000000 0.589374
O O5 0.319206 0.776527 0.287089
O O6 0.287005 0.743298 0.224062
O O7 0.491385 0.771871 0.114620
O O8 0.355368 0.000000 0.209382
O O9 0.763195 0.500000 0.373629
O O10 0.648641 0.744448 0.459727
O O11 0.677525 0.253709 0.223902
O O12 0.572129 0.216761 0.369225
O O13 0.695255 0.000000 0.256162
O O14 0.412858 0.229090 0.874068
O O15 0.401950 0.000000 0.934527
O O16 0.278267 0.227320 0.032213
O O17 0.900421 0.168033 0.799262
O O18 0.938442 0.000000 0.704915
O O19 0.346366 0.500000 0.902115
O O20 0.049974 0.500000 0.518580
O O21 0.000000 0.715654 0.500000
#
# Coordination Sequence:
#
# PCOD9224469 Si02
#       8
#     8   8   8   8   8   8   8   8
#     4  11  23  39  57  82 114 149 188 230 278 329
#     4  10  20  35  55  81 110 141 178 225 278 330
#     4  10  21  34  53  80 108 140 179 223 272 326
#     4  11  23  38  56  78 107 146 189 232 277 331
#     4   9  18  35  60  87 115 144 179 227 281 336
#     4  11  23  39  58  81 112 150 190 230 276 332
#     4   9  19  36  59  87 114 145 184 226 277 334
#     4  10  20  35  52  74 104 140 181 226 272 318
#
# _framework density 9.8765429999999999
#
# number of rings (size 3 to 8) (size 9 to 14) (size 15 to 20)
#    0.000    1.875    1.250    2.625    0.000    6.750 
#    0.000    0.625    0.000    3.750    0.000    0.000 
#    0.000    0.000    0.000    0.000    0.000    0.000 
#
# Total GULP energy -178604.235132 kJ/mol
# GULP energy per Si atom -5581.382348 kJ/mol
# Density = 0.985406 g / cm^3
# Si number density = 9.876543 Si / 1000 Ang^3
#
#
#
# Elastic Constant Matrix: (Units=GPa)
#
#
# Indices 1 2 3 4 5 6 
#
# 1 107.5490 29.0651 26.0785 -0.0080 -33.6210 0.0132
# 2 29.0651 6.5433 16.5291 -0.0088 -11.6301 0.0163
# 3 26.0785 16.5291 35.4732 0.0008 -20.7867 -0.0017
# 4 -0.0080 -0.0088 0.0008 16.9205 -0.0003 -1.7482
# 5 -33.6210 -11.6301 -20.7867 -0.0003 28.1263 -0.0027
# 6 0.0132 0.0163 -0.0017 -1.7482 -0.0027 27.4154
#
#
#
# Elastic Compliance Matrix: (Units=1/GPa)
#
#
# Indices 1 2 3 4 5 6 
#
# 1 0.004512 0.047448 -0.018995 0.000025 0.010975 -0.000029
# 2 0.047448 -0.217512 0.082907 -0.000083 0.028049 0.000109
# 3 -0.018995 0.082907 0.018180 0.000030 0.025012 -0.000035
# 4 0.000025 -0.000083 0.000030 0.059492 0.000019 0.003794
# 5 0.010975 0.028049 0.025012 0.000019 0.078756 -0.000011
# 6 -0.000029 0.000109 -0.000035 0.003794 -0.000011 0.036718
#
#
# Mechanical properties :
#
#
# Convention : Reuss Voigt Hill
#
# Bulk Modulus (GPa) = 35.84424 32.54567 34.19496
# Shear Modulus (GPa) = -21.43393 19.68529 -0.87432
#
# Velocity S-wave (km/s) = -3.29765 3.16027 -0.66602
# Velocity P-wave (km/s) = 1.91996 5.46154 4.09357
#
# Compressibility (1/GPa) = 0.02789848
#
# Stress axis : x y z
#
# Youngs Moduli (GPa) = 221.62908 -4.59744 55.00655
#
# Poissons Ratio (x) = 0.21814 1.04484
# Poissons Ratio (y) = -10.51582 -4.56040
# Poissons Ratio (z) = 4.20980 0.38116
#
# Static dielectric constant tensor:
#      x y z
#    x 1.704920 0.000060 0.029640 
#    y 0.000060 1.550630 -0.000130 
#    z 0.029640 -0.000130 1.701350 
# 
# From -- ./inp_files/382288.got.cif
#   From: 2010.05.17/outbox.ucp.g08.bks.cvg/sg12_192_cif.got.tgz:382288.got - 2010.06.11 11:47:21.
