data_PCOD9224069
_publ_section_title
;
Structure prediction by ZEFSAII (Michael W. Deem and Ramdas Pophale) SiO2 
 PCOD9224069
Probable space group: C 2/M
;
_chemical_formula_sum "Si O2"
_cell_formula_units_Z 32
_cell_length_a 9.000000
_cell_length_b 30.000000
_cell_length_c 18.000000
_cell_angle_alpha 90.000000
_cell_angle_beta 140.000000
_cell_angle_gamma 90.000000
_cell_volume 3123.947783
_symmetry_space_group_name_H-M "C 2/M"
_symmetry_group_IT_number 12
_symmetry_cell_setting 'monoclinic'
loop_
_space_group_symop_operation_xyz
x,y,z
-x,y,-z
-x,-y,-z
x,-y,z
1/2+x,1/2+y,z
1/2-x,1/2+y,-z
1/2-x,1/2-y,-z
1/2+x,1/2-y,z
loop_
_atom_site_type_symbol
_atom_site_label
_atom_site_fract_x
_atom_site_fract_y
_atom_site_fract_z
Si Si1 0.016882 0.447597 0.849860
Si Si2 0.069865 0.607000 0.736445
Si Si3 0.645189 0.706719 0.826066
Si Si4 0.875021 0.803521 0.876961
Si Si5 0.847478 0.104216 0.208705
Si Si6 0.291699 0.886838 0.481089
Si Si7 0.744119 0.789031 0.555110
Si Si8 0.485671 0.447864 0.118482
O O1 0.975005 0.500000 0.813768
O O2 0.945056 0.408575 0.763802
O O3 0.854445 0.431256 0.854553
O O4 0.278667 0.444218 0.980209
O O5 0.183493 0.657378 0.782772
O O6 0.269703 0.569350 0.816648
O O7 0.908229 0.597822 0.602948
O O8 0.788160 0.752707 0.864884
O O9 0.551858 0.701880 0.875036
O O10 0.728366 0.656748 0.830890
O O11 0.426037 0.714750 0.689973
O O12 0.000000 0.820193 0.000000
O O13 0.057179 0.097484 0.349263
O O14 0.946988 0.087750 0.168724
O O15 0.500000 0.889443 0.500000
O O16 0.227268 0.835834 0.473950
O O17 0.500000 0.789638 0.500000
O O18 0.750000 0.750000 0.500000
O O19 0.496646 0.500000 0.145662
#
# Coordination Sequence:
#
# PCOD9224069 Si02
#       8
#     8   8   8   8   8   8   8   8
#     4  11  26  44  66  99 133 169 217 276 335 391
#     4  12  23  43  69  96 132 173 220 272 329 388
#     4  11  24  41  63  96 130 173 218 265 323 388
#     4  12  25  42  64  96 134 176 219 265 321 389
#     4  11  23  43  68  96 134 172 214 273 334 387
#     4  10  20  41  65  91 125 171 219 266 321 397
#     4  10  19  36  60  86 120 163 213 267 311 369
#     4  11  22  43  71  96 123 168 224 270 323 396
#
# _framework density 10.243449
#
# number of rings (size 3 to 8) (size 9 to 14) (size 15 to 20)
#    0.000    1.000    2.500    5.625    1.750    3.500 
#    4.500    3.750    0.000    0.000    0.000    0.000 
#    0.000    0.000    0.000    0.000    0.000    0.000 
#
# Total GULP energy -178284.217900 kJ/mol
# GULP energy per Si atom -5571.381809 kJ/mol
# Density = 1.022013 g / cm^3
# Si number density = 10.243449 Si / 1000 Ang^3
#
#
#
# Elastic Constant Matrix: (Units=GPa)
#
#
# Indices 1 2 3 4 5 6 
#
# 1 8.1809 -0.3890 23.1004 0.0000 11.0093 0.0000
# 2 -0.3890 102.0114 27.5976 0.0000 -4.4942 0.0000
# 3 23.1004 27.5976 101.8455 0.0000 -33.7761 0.0000
# 4 0.0000 0.0000 0.0000 28.6140 0.0000 1.0711
# 5 11.0093 -4.4942 -33.7761 0.0000 0.3231 0.0000
# 6 0.0000 0.0000 0.0000 1.0711 0.0000 37.2940
#
#
#
# Elastic Compliance Matrix: (Units=1/GPa)
#
#
# Indices 1 2 3 4 5 6 
#
# 1 0.028599 -0.000399 0.009843 0.000000 0.048913 0.000000
# 2 -0.000399 0.010365 -0.001473 0.000000 0.003754 0.000000
# 3 0.009843 -0.001473 0.003268 0.000000 -0.014224 0.000000
# 4 0.000000 0.000000 0.000000 0.034986 0.000000 -0.001005
# 5 0.048913 0.003754 -0.014224 0.000000 -0.006369 0.000000
# 6 0.000000 0.000000 0.000000 -0.001005 0.000000 0.026843
#
#
# Mechanical properties :
#
#
# Convention : Reuss Voigt Hill
#
# Bulk Modulus (GPa) = 17.18976 34.73952 25.96464
# Shear Modulus (GPa) = 49.43542 24.02815 36.73178
#
# Velocity S-wave (km/s) = 4.91759 3.42841 4.23891
# Velocity P-wave (km/s) = 6.37592 5.71540 6.05467
#
# Compressibility (1/GPa) = 0.05817419
#
# Stress axis : x y z
#
# Youngs Moduli (GPa) = 34.96610 96.47608 305.97295
#
# Poissons Ratio (x) = 0.03848 -3.01167
# Poissons Ratio (y) = 0.01395 0.45078
# Poissons Ratio (z) = -0.34417 0.14214
#
# Static dielectric constant tensor:
#      x y z
#    x 1.730730 0.000000 -0.002390 
#    y 0.000000 1.726480 0.000000 
#    z -0.002390 0.000000 1.738500 
# 
# From -- ./inp_files/260352.got.cif
#   From: 2010.05.17/outbox.ucp.g08.bks.cvg/sg12_131_cif.got.tgz:260352.got - 2010.06.11 11:47:21.
