data_PCOD9224708
_publ_section_title
;
Structure prediction by ZEFSAII (Michael W. Deem and Ramdas Pophale) SiO2 
 PCOD9224708
Probable space group: C 2/M
;
_chemical_formula_sum "Si O2"
_cell_formula_units_Z 32
_cell_length_a 30.000000
_cell_length_b 9.000000
_cell_length_c 18.000000
_cell_angle_alpha 90.000000
_cell_angle_beta 40.000000
_cell_angle_gamma 90.000000
_cell_volume 3123.947783
_symmetry_space_group_name_H-M "C 2/M"
_symmetry_group_IT_number 12
_symmetry_cell_setting 'monoclinic'
loop_
_space_group_symop_operation_xyz
x,y,z
-x,y,-z
-x,-y,-z
x,-y,z
1/2+x,1/2+y,z
1/2-x,1/2+y,-z
1/2-x,1/2-y,-z
1/2+x,1/2-y,z
loop_
_atom_site_type_symbol
_atom_site_label
_atom_site_fract_x
_atom_site_fract_y
_atom_site_fract_z
Si Si1 0.025896 0.823488 0.072279
Si Si2 0.602813 0.678618 0.519143
Si Si3 0.689395 0.168429 0.533768
Si Si4 0.321068 0.677409 0.885308
Si Si5 0.387466 0.832393 0.218786
Si Si6 0.810005 0.823633 0.728379
Si Si7 0.036525 0.820681 0.231645
Si Si8 0.178353 0.823165 0.822406
O O1 0.020094 0.794376 0.167199
O O2 0.961198 0.745538 0.116560
O O3 0.019669 0.000000 0.067108
O O4 0.103500 0.778716 0.951246
O O5 0.603251 0.500000 0.527339
O O6 0.659579 0.744935 0.502117
O O7 0.627049 0.715858 0.406017
O O8 0.526857 0.734636 0.637719
O O9 0.750000 0.250000 0.500000
O O10 0.629545 0.163494 0.672626
O O11 0.708777 0.000000 0.489227
O O12 0.316031 0.500000 0.903594
O O13 0.329483 0.706357 0.787602
O O14 0.387948 0.736456 0.843239
O O15 0.250000 0.750000 0.000000
O O16 0.327558 0.743302 0.252405
O O17 0.388580 0.000000 0.188516
O O18 0.741289 0.740839 0.788964
O O19 0.796805 0.000000 0.737573
O O20 0.039732 0.000000 0.237502
O O21 0.182561 0.000000 0.815457
#
# Coordination Sequence:
#
# PCOD9224708 Si02
#       8
#     8   8   8   8   8   8   8   8
#     4  10  20  36  57  82 111 148 195 238 282 343
#     4  10  20  37  60  84 113 152 194 240 292 344
#     4  11  23  37  55  81 113 153 198 242 287 343
#     4  10  21  39  62  90 121 153 192 238 289 347
#     4  11  23  37  54  81 115 149 190 239 293 346
#     4  10  22  38  58  87 119 149 190 241 291 341
#     4   9  18  35  61  86 113 150 192 239 288 343
#     4  11  23  37  57  83 114 154 196 237 287 348
#
# _framework density 10.243449
#
# number of rings (size 3 to 8) (size 9 to 14) (size 15 to 20)
#    0.000    1.750    1.250    3.000    0.000    9.500 
#    0.000    3.750    0.000    0.000    0.000    2.625 
#    0.000    0.000    0.000    0.000    0.000    0.000 
#
# Total GULP energy -178667.040534 kJ/mol
# GULP energy per Si atom -5583.345017 kJ/mol
# Density = 1.022013 g / cm^3
# Si number density = 10.243449 Si / 1000 Ang^3
#
#
#
# Elastic Constant Matrix: (Units=GPa)
#
#
# Indices 1 2 3 4 5 6 
#
# 1 38.9050 27.7731 7.0194 0.0011 -44.1829 0.0003
# 2 27.7731 -11.4741 26.5243 0.0068 9.4265 0.0009
# 3 7.0194 26.5243 82.6732 -0.0013 -21.3219 0.0013
# 4 0.0011 0.0068 -0.0013 18.0804 0.0018 -5.3019
# 5 -44.1829 9.4265 -21.3219 0.0018 11.9725 0.0008
# 6 0.0003 0.0009 0.0013 -5.3019 0.0008 22.5213
#
#
#
# Elastic Compliance Matrix: (Units=1/GPa)
#
#
# Indices 1 2 3 4 5 6 
#
# 1 0.021168 0.045910 -0.010546 -0.000024 0.023189 -0.000008
# 2 0.045910 0.083140 -0.006952 -0.000049 0.091582 -0.000018
# 3 -0.010546 -0.006952 0.012200 0.000006 -0.011718 0.000001
# 4 -0.000024 -0.000049 0.000006 0.059410 -0.000050 0.013986
# 5 0.023189 0.091582 -0.011718 -0.000050 0.076126 -0.000018
# 6 -0.000008 -0.000018 0.000001 0.013986 -0.000018 0.047695
#
#
# Mechanical properties :
#
#
# Convention : Reuss Voigt Hill
#
# Bulk Modulus (GPa) = 5.76932 25.85977 15.81454
# Shear Modulus (GPa) = 16.62829 13.76733 15.19781
#
# Velocity S-wave (km/s) = 2.85205 2.59512 2.72661
# Velocity P-wave (km/s) = 3.69700 4.65076 4.20103
#
# Compressibility (1/GPa) = 0.17333053
#
# Stress axis : x y z
#
# Youngs Moduli (GPa) = 47.24101 12.02790 81.97003
#
# Poissons Ratio (x) = -0.55220 0.86446
# Poissons Ratio (y) = -2.16883 0.56989
# Poissons Ratio (z) = 0.49820 0.08362
#
# Static dielectric constant tensor:
#      x y z
#    x 2.189910 0.000090 0.122680 
#    y 0.000090 1.667860 0.000010 
#    z 0.122680 0.000010 1.819450 
# 
# From -- ./inp_files/295446.got.cif
#   From: 2010.05.17/outbox.ucp.g08.bks.cvg/sg12_148_cif.got.tgz:295446.got - 2010.06.11 11:47:21.
