data_PCOD9224052
_publ_section_title
;
Structure prediction by ZEFSAII (Michael W. Deem and Ramdas Pophale) SiO2 
 PCOD9224052
Probable space group: C 2/M
;
_chemical_formula_sum "Si O2"
_cell_formula_units_Z 32
_cell_length_a 24.000000
_cell_length_b 9.000000
_cell_length_c 30.000000
_cell_angle_alpha 90.000000
_cell_angle_beta 150.000000
_cell_angle_gamma 90.000000
_cell_volume 3240.000000
_symmetry_space_group_name_H-M "C 2/M"
_symmetry_group_IT_number 12
_symmetry_cell_setting 'monoclinic'
loop_
_space_group_symop_operation_xyz
x,y,z
-x,y,-z
-x,-y,-z
x,-y,z
1/2+x,1/2+y,z
1/2-x,1/2+y,-z
1/2-x,1/2-y,-z
1/2+x,1/2-y,z
loop_
_atom_site_type_symbol
_atom_site_label
_atom_site_fract_x
_atom_site_fract_y
_atom_site_fract_z
Si Si1 0.917672 0.824358 0.401579
Si Si2 0.470179 0.167048 0.348632
Si Si3 0.207881 0.831423 0.148691
Si Si4 0.010167 0.329830 0.764020
Si Si5 0.448793 0.829647 0.103625
Si Si6 0.830985 0.323027 0.787958
Si Si7 0.241039 0.821412 0.075019
Si Si8 0.140437 0.825720 0.404581
O O1 0.966042 0.725558 0.395718
O O2 0.787383 0.778601 0.316382
O O3 0.000000 0.809165 0.500000
O O4 0.916180 0.000000 0.387950
O O5 0.342472 0.162858 0.244158
O O6 0.541060 0.279813 0.368828
O O7 0.516060 0.000000 0.377553
O O8 0.172947 0.722457 0.163327
O O9 0.180351 0.785218 0.079558
O O10 0.167475 0.000000 0.128976
O O11 0.002212 0.500000 0.741203
O O12 0.904880 0.241153 0.673012
O O13 0.016440 0.334569 0.821147
O O14 0.131734 0.265996 0.835369
O O15 0.555388 0.759700 0.153110
O O16 0.429720 0.000000 0.075431
O O17 0.335626 0.742415 0.016577
O O18 0.837590 0.500000 0.787062
O O19 0.248675 0.000000 0.076502
O O20 0.250000 0.750000 0.500000
O O21 0.156052 0.000000 0.412543
#
# Coordination Sequence:
#
# PCOD9224052 Si02
#       8
#     8   8   8   8   8   8   8   8
#     4   9  18  33  55  82 112 149 196 242 290 352
#     4  10  19  36  58  81 113 147 189 240 291 345
#     4   9  18  34  57  81 108 147 188 235 290 339
#     4  10  21  41  62  83 117 155 194 244 295 345
#     4  10  22  37  56  83 118 158 194 238 296 351
#     4   9  19  35  52  78 114 148 187 237 292 346
#     4  10  20  36  59  84 113 150 197 246 293 347
#     4  12  25  40  61  89 118 151 192 237 293 351
#
# _framework density 9.8765429999999999
#
# number of rings (size 3 to 8) (size 9 to 14) (size 15 to 20)
#    0.000    2.125    1.250    1.875    0.000    4.250 
#    0.000    5.000    0.000    0.000    0.000    0.000 
#    0.000    0.000    0.000    0.000    0.000    0.000 
#
# Total GULP energy -178386.656950 kJ/mol
# GULP energy per Si atom -5574.583030 kJ/mol
# Density = 0.985406 g / cm^3
# Si number density = 9.876543 Si / 1000 Ang^3
#
#
#
# Elastic Constant Matrix: (Units=GPa)
#
#
# Indices 1 2 3 4 5 6 
#
# 1 41.9868 7.6762 23.1752 0.0000 3.1296 0.0000
# 2 7.6762 40.6086 38.5610 0.0001 -14.4225 0.0000
# 3 23.1752 38.5610 88.0655 -0.0001 -20.0922 0.0000
# 4 0.0000 0.0001 -0.0001 21.8221 -0.0001 -2.0623
# 5 3.1296 -14.4225 -20.0922 -0.0001 9.3764 0.0000
# 6 0.0000 0.0000 0.0000 -2.0623 0.0000 18.7068
#
#
#
# Elastic Compliance Matrix: (Units=1/GPa)
#
#
# Indices 1 2 3 4 5 6 
#
# 1 0.055866 -0.024170 -0.032977 -0.000001 -0.126490 0.000000
# 2 -0.024170 0.068861 0.004333 0.000000 0.123274 0.000000
# 3 -0.032977 0.004333 0.043372 0.000001 0.110613 0.000000
# 4 -0.000001 0.000000 0.000001 0.046308 0.000002 0.005105
# 5 -0.126490 0.123274 0.110613 0.000002 0.575515 0.000001
# 6 0.000000 0.000000 0.000000 0.005105 0.000001 0.054019
#
#
# Mechanical properties :
#
#
# Convention : Reuss Voigt Hill
#
# Bulk Modulus (GPa) = 16.00705 34.38730 25.19718
# Shear Modulus (GPa) = 5.15255 16.73096 10.94175
#
# Velocity S-wave (km/s) = 1.61683 2.91349 2.35612
# Velocity P-wave (km/s) = 3.40686 5.36323 4.49283
#
# Compressibility (1/GPa) = 0.06247247
#
# Stress axis : x y z
#
# Youngs Moduli (GPa) = 17.89985 14.52199 23.05615
#
# Poissons Ratio (x) = 0.35100 0.76033
# Poissons Ratio (y) = 0.43264 -0.09991
# Poissons Ratio (z) = 0.59029 -0.06293
#
# Static dielectric constant tensor:
#      x y z
#    x 1.745680 0.000000 -0.011480 
#    y 0.000000 1.712940 0.000000 
#    z -0.011480 0.000000 1.694130 
# 
# From -- ./inp_files/382470.got.cif
#   From: 2010.05.17/outbox.ucp.g08.bks.cvg/sg12_192_cif.got.tgz:382470.got - 2010.06.11 11:47:21.
