data_PCOD9224913
_publ_section_title
;
Structure prediction by ZEFSAII (Michael W. Deem and Ramdas Pophale) SiO2 
 PCOD9224913
Probable space group: C 2/M
;
_chemical_formula_sum "Si O2"
_cell_formula_units_Z 24
_cell_length_a 21.000000
_cell_length_b 9.000000
_cell_length_c 27.000000
_cell_angle_alpha 90.000000
_cell_angle_beta 30.000000
_cell_angle_gamma 90.000000
_cell_volume 2551.500000
_symmetry_space_group_name_H-M "C 2/M"
_symmetry_group_IT_number 12
_symmetry_cell_setting 'monoclinic'
loop_
_space_group_symop_operation_xyz
x,y,z
-x,y,-z
-x,-y,-z
x,-y,z
1/2+x,1/2+y,z
1/2-x,1/2+y,-z
1/2-x,1/2-y,-z
1/2+x,1/2-y,z
loop_
_atom_site_type_symbol
_atom_site_label
_atom_site_fract_x
_atom_site_fract_y
_atom_site_fract_z
Si Si1 0.355412 0.180133 0.893221
Si Si2 0.629996 0.679669 0.223888
Si Si3 0.886296 0.679838 0.224216
Si Si4 0.879379 0.821142 0.545677
Si Si5 0.884338 0.319298 0.112746
Si Si6 0.875700 0.678868 0.440201
O O1 0.340069 0.253635 0.849996
O O2 0.493966 0.220539 0.822459
O O3 0.345732 0.000000 0.897565
O O4 0.250000 0.250000 0.000000
O O5 0.617533 0.500000 0.230421
O O6 0.747382 0.716353 0.181459
O O7 0.500041 0.754698 0.329683
O O8 0.886610 0.500000 0.221715
O O9 0.751191 0.721312 0.338703
O O10 0.898210 0.734395 0.159759
O O11 0.885158 0.732969 0.490572
O O12 0.000000 0.793257 0.500000
O O13 0.877080 0.000000 0.537098
O O14 0.891184 0.500000 0.109254
O O15 0.000000 0.267512 0.000000
O O16 0.871843 0.500000 0.438938
O O17 0.750000 0.750000 0.500000
#
# Coordination Sequence:
#
# PCOD9224913 Si02
#       6
#     8   8   8   8   8   8
#     4  11  22  37  58  84 117 155 196 242 290 344
#     4  11  22  38  62  89 117 151 193 243 301 360
#     4   9  18  33  55  83 112 146 190 238 284 337
#     4  10  20  37  62  89 118 154 197 244 298 361
#     4   9  17  32  57  87 115 147 191 238 284 343
#     4  12  25  41  61  86 119 157 201 251 303 360
#
# _framework density 9.4062319999999993
#
# number of rings (size 3 to 8) (size 9 to 14) (size 15 to 20)
#    0.000    1.667    0.000    5.500    0.000    7.000 
#    0.000    0.833    0.000   13.000    0.000    0.000 
#    0.000    0.000    0.000    0.000    0.000    0.000 
#
# Total GULP energy -134115.939761 kJ/mol
# GULP energy per Si atom -5588.164157 kJ/mol
# Density = 0.938482 g / cm^3
# Si number density = 9.406232 Si / 1000 Ang^3
#
#
#
# Elastic Constant Matrix: (Units=GPa)
#
#
# Indices 1 2 3 4 5 6 
#
# 1 65.2698 24.1086 -21.3698 0.0000 0.7434 0.0000
# 2 24.1086 77.1524 13.2616 0.0001 -2.8184 0.0000
# 3 -21.3698 13.2616 57.7415 0.0001 -1.4527 -0.0001
# 4 0.0000 0.0001 0.0001 29.4088 0.0000 1.2612
# 5 0.7434 -2.8184 -1.4527 0.0000 43.3442 0.0000
# 6 0.0000 0.0000 -0.0001 1.2612 0.0000 29.3121
#
#
#
# Elastic Compliance Matrix: (Units=1/GPa)
#
#
# Indices 1 2 3 4 5 6 
#
# 1 0.021755 -0.008538 0.009997 0.000000 -0.000593 0.000000
# 2 -0.008538 0.016871 -0.007009 0.000000 0.001009 0.000000
# 3 0.009997 -0.007009 0.022632 0.000000 0.000131 0.000000
# 4 0.000000 0.000000 0.000000 0.034066 0.000000 -0.001466
# 5 -0.000593 0.001009 0.000131 0.000000 0.023151 0.000000
# 6 0.000000 0.000000 0.000000 -0.001466 0.000000 0.034179
#
#
# Mechanical properties :
#
#
# Convention : Reuss Voigt Hill
#
# Bulk Modulus (GPa) = 19.93730 25.79606 22.86668
# Shear Modulus (GPa) = 27.70505 32.69058 30.19781
#
# Velocity S-wave (km/s) = 3.84174 4.17311 4.01084
# Velocity P-wave (km/s) = 5.50450 6.07962 5.79919
#
# Compressibility (1/GPa) = 0.05015725
#
# Stress axis : x y z
#
# Youngs Moduli (GPa) = 45.96728 59.27342 44.18593
#
# Poissons Ratio (x) = 0.50607 -0.44174
# Poissons Ratio (y) = 0.39247 0.30971
# Poissons Ratio (z) = -0.45955 0.41546
#
# Static dielectric constant tensor:
#      x y z
#    x 1.634530 0.000000 0.014560 
#    y 0.000000 1.627890 0.000000 
#    z 0.014560 0.000000 1.656560 
# 
# From -- ./inp_files/365391.got.cif
#   From: 2010.05.17/outbox.ucp.g08.bks.cvg/sg12_183_cif.got.tgz:365391.got - 2010.06.11 11:47:21.
