data_PCOD9224869
_publ_section_title
;
Structure prediction by ZEFSAII (Michael W. Deem and Ramdas Pophale) SiO2 
 PCOD9224869
Probable space group: C 2/M
;
_chemical_formula_sum "Si O2"
_cell_formula_units_Z 28
_cell_length_a 18.000000
_cell_length_b 9.000000
_cell_length_c 27.000000
_cell_angle_alpha 90.000000
_cell_angle_beta 40.000000
_cell_angle_gamma 90.000000
_cell_volume 2811.553005
_symmetry_space_group_name_H-M "C 2/M"
_symmetry_group_IT_number 12
_symmetry_cell_setting 'monoclinic'
loop_
_space_group_symop_operation_xyz
x,y,z
-x,y,-z
-x,-y,-z
x,-y,z
1/2+x,1/2+y,z
1/2-x,1/2+y,-z
1/2-x,1/2-y,-z
1/2+x,1/2-y,z
loop_
_atom_site_type_symbol
_atom_site_label
_atom_site_fract_x
_atom_site_fract_y
_atom_site_fract_z
Si Si1 0.260489 0.819917 0.129841
Si Si2 0.559427 0.174961 0.574622
Si Si3 0.994615 0.173216 0.710404
Si Si4 0.335995 0.327170 0.648507
Si Si5 0.357671 0.180475 0.974289
Si Si6 0.245958 0.672126 0.400808
Si Si7 0.121828 0.319336 0.827445
O O1 0.330041 0.774916 0.143252
O O2 0.125161 0.771771 0.203735
O O3 0.258223 0.000000 0.130083
O O4 0.329775 0.775966 0.045380
O O5 0.531012 0.244624 0.642002
O O6 0.454276 0.239898 0.596443
O O7 0.684257 0.200915 0.485275
O O8 0.547432 0.000000 0.585008
O O9 0.115830 0.180185 0.677088
O O10 0.973872 0.000000 0.708846
O O11 0.353381 0.500000 0.651519
O O12 0.304553 0.297073 0.608381
O O13 0.223958 0.273051 0.737470
O O14 0.487216 0.228199 0.890933
O O15 0.353660 0.000000 0.972655
O O16 0.250000 0.250000 0.000000
O O17 0.213388 0.500000 0.404790
O O18 0.118913 0.500000 0.826766
#
# Coordination Sequence:
#
# PCOD9224869 Si02
#       7
#     8   8   8   8   8   8   8
#     4   9  17  34  60  84 107 143 189 227 267 324
#     4  11  22  38  57  82 115 150 189 238 292 339
#     4  10  20  37  60  84 112 148 193 235 276 341
#     4  11  22  37  59  84 112 151 196 238 280 334
#     4  10  21  36  59  88 116 146 178 224 279 333
#     4  10  23  38  55  82 118 152 186 237 293 339
#     4   9  18  35  58  84 111 142 189 235 269 320
#
# _framework density 9.9589090000000002
#
# number of rings (size 3 to 8) (size 9 to 14) (size 15 to 20)
#    0.000    2.000    1.429    2.143    2.000    5.143 
#    0.000    1.429    0.000    0.857    0.000    0.000 
#    0.000    0.000    0.000    0.000    0.000    0.000 
#
# Total GULP energy -155959.380791 kJ/mol
# GULP energy per Si atom -5569.977885 kJ/mol
# Density = 0.993624 g / cm^3
# Si number density = 9.958909 Si / 1000 Ang^3
#
#
#
# Elastic Constant Matrix: (Units=GPa)
#
#
# Indices 1 2 3 4 5 6 
#
# 1 37.8368 1.5178 -5.0410 0.0000 -6.2827 0.0001
# 2 1.5178 -46.0227 -34.7452 0.0000 9.4990 0.0002
# 3 -5.0410 -34.7452 52.0038 0.0000 -13.4676 0.0000
# 4 0.0000 0.0000 0.0000 22.2533 0.0000 -6.1497
# 5 -6.2827 9.4990 -13.4676 0.0000 33.6146 0.0000
# 6 0.0001 0.0002 0.0000 -6.1497 0.0000 18.1058
#
#
#
# Elastic Compliance Matrix: (Units=1/GPa)
#
#
# Indices 1 2 3 4 5 6 
#
# 1 0.028185 -0.000702 0.004105 0.000000 0.007111 0.000000
# 2 -0.000702 -0.014424 -0.009689 0.000000 0.000063 0.000000
# 3 0.004105 -0.009689 0.015690 0.000000 0.009791 0.000000
# 4 0.000000 0.000000 0.000000 0.049592 0.000000 0.016844
# 5 0.007111 0.000063 0.009791 0.000000 0.034983 0.000000
# 6 0.000000 0.000000 0.000000 0.016844 0.000000 0.060952
#
#
# Mechanical properties :
#
#
# Convention : Reuss Voigt Hill
#
# Bulk Modulus (GPa) = 59.24420 -3.63543 27.80439
# Shear Modulus (GPa) = 25.88320 20.26716 23.07518
#
# Velocity S-wave (km/s) = 3.60877 3.19335 3.40740
# Velocity P-wave (km/s) = 6.86827 3.43037 5.42866
#
# Compressibility (1/GPa) = 0.01687929
#
# Stress axis : x y z
#
# Youngs Moduli (GPa) = 35.47981 -69.32918 63.73656
#
# Poissons Ratio (x) = -0.04865 -0.26162
# Poissons Ratio (y) = 0.02490 0.61753
# Poissons Ratio (z) = -0.14564 -0.67171
#
# Static dielectric constant tensor:
#      x y z
#    x 1.809830 0.000000 -0.003140 
#    y 0.000000 1.680160 0.000000 
#    z -0.003140 0.000000 1.702030 
# 
# From -- ./inp_files/275588.got.cif
#   From: 2010.05.17/outbox.ucp.g08.bks.cvg/sg12_138_cif.got.tgz:275588.got - 2010.06.11 11:47:21.
