data_PCOD9224315
_publ_section_title
;
Structure prediction by ZEFSAII (Michael W. Deem and Ramdas Pophale) SiO2 
 PCOD9224315
Probable space group: C 2/M
;
_chemical_formula_sum "Si O2"
_cell_formula_units_Z 32
_cell_length_a 24.000000
_cell_length_b 9.000000
_cell_length_c 30.000000
_cell_angle_alpha 90.000000
_cell_angle_beta 30.000000
_cell_angle_gamma 90.000000
_cell_volume 3240.000000
_symmetry_space_group_name_H-M "C 2/M"
_symmetry_group_IT_number 12
_symmetry_cell_setting 'monoclinic'
loop_
_space_group_symop_operation_xyz
x,y,z
-x,y,-z
-x,-y,-z
x,-y,z
1/2+x,1/2+y,z
1/2-x,1/2+y,-z
1/2-x,1/2-y,-z
1/2+x,1/2-y,z
loop_
_atom_site_type_symbol
_atom_site_label
_atom_site_fract_x
_atom_site_fract_y
_atom_site_fract_z
Si Si1 0.625110 0.678398 0.421893
Si Si2 0.713686 0.678469 0.455367
Si Si3 0.832115 0.668502 0.001109
Si Si4 0.584033 0.822137 0.622337
Si Si5 0.481301 0.672906 0.831249
Si Si6 0.614612 0.173175 0.182431
Si Si7 0.460612 0.830134 0.075189
Si Si8 0.313861 0.327600 0.243209
O O1 0.500000 0.732360 0.500000
O O2 0.621776 0.500000 0.426338
O O3 0.682107 0.733906 0.428235
O O4 0.706938 0.730064 0.326761
O O5 0.716036 0.500000 0.452114
O O6 0.619673 0.735478 0.554023
O O7 0.829319 0.726410 0.398604
O O8 0.820849 0.500000 0.991090
O O9 0.873537 0.785562 0.935669
O O10 0.931861 0.666854 0.967538
O O11 0.720112 0.723605 0.101636
O O12 0.457391 0.795652 0.723992
O O13 0.598935 0.000000 0.606269
O O14 0.478864 0.500000 0.819455
O O15 0.470519 0.786712 0.798416
O O16 0.591023 0.698936 0.784863
O O17 0.645060 0.000000 0.159794
O O18 0.371028 0.722017 0.158203
O O19 0.417980 0.000000 0.101993
O O20 0.500000 0.780508 0.000000
O O21 0.285931 0.500000 0.263328
#
# Coordination Sequence:
#
# PCOD9224315 Si02
#       8
#     8   8   8   8   8   8   8   8
#     4  10  21  38  59  83 112 147 186 231 279 329
#     4   9  18  35  57  78 102 136 181 226 268 317
#     4  10  20  34  52  76 106 139 177 221 268 317
#     4   9  19  34  53  77 105 140 177 218 270 325
#     4  10  20  34  53  77 107 141 179 220 266 320
#     4  11  21  33  50  76 110 144 177 214 265 323
#     4   9  19  38  61  81 104 142 187 229 270 321
#     4  10  21  36  57  85 111 141 181 227 278 329
#
# _framework density 9.8765429999999999
#
# number of rings (size 3 to 8) (size 9 to 14) (size 15 to 20)
#    0.000    2.250    0.000    2.625    0.000    5.000 
#    2.250    2.500    0.000    0.000    0.000    0.000 
#    0.000    0.000    0.000    0.000    0.000    0.000 
#
# Total GULP energy -178482.851332 kJ/mol
# GULP energy per Si atom -5577.589104 kJ/mol
# Density = 0.985406 g / cm^3
# Si number density = 9.876543 Si / 1000 Ang^3
#
#
#
# Elastic Constant Matrix: (Units=GPa)
#
#
# Indices 1 2 3 4 5 6 
#
# 1 19.8332 4.6530 8.0853 -0.0002 12.3488 -0.0001
# 2 4.6530 1.0737 12.8623 0.0002 -8.7019 -0.0005
# 3 8.0853 12.8623 53.2929 0.0014 -0.4025 -0.0010
# 4 -0.0002 0.0002 0.0014 16.6334 0.0001 7.1255
# 5 12.3488 -8.7019 -0.4025 0.0001 12.3062 -0.0003
# 6 -0.0001 -0.0005 -0.0010 7.1255 -0.0003 15.1195
#
#
#
# Elastic Compliance Matrix: (Units=1/GPa)
#
#
# Indices 1 2 3 4 5 6 
#
# 1 0.045082 0.063746 -0.022231 0.000002 -0.000889 0.000000
# 2 0.063746 -0.034105 -0.002106 0.000003 -0.088151 -0.000004
# 3 -0.022231 -0.002106 0.022808 -0.000004 0.021565 0.000003
# 4 0.000002 0.000003 -0.000004 0.075328 -0.000001 -0.035500
# 5 -0.000889 -0.088151 0.021565 -0.000001 0.020524 -0.000001
# 6 0.000000 -0.000004 0.000003 -0.035500 -0.000001 0.082870
#
#
# Mechanical properties :
#
#
# Convention : Reuss Voigt Hill
#
# Bulk Modulus (GPa) = 8.88080 13.93345 11.40713
# Shear Modulus (GPa) = 29.20161 12.05178 20.62669
#
# Velocity S-wave (km/s) = 3.84908 2.47274 3.23495
# Velocity P-wave (km/s) = 4.92540 3.90150 4.44304
#
# Compressibility (1/GPa) = 0.11260246
#
# Stress axis : x y z
#
# Youngs Moduli (GPa) = 22.18183 -29.32123 43.84409
#
# Poissons Ratio (x) = 1.86910 0.97472
# Poissons Ratio (y) = -1.41400 0.09231
# Poissons Ratio (z) = 0.49313 -0.06174
#
# Static dielectric constant tensor:
#      x y z
#    x 1.726350 0.000000 0.019370 
#    y 0.000000 1.662220 0.000000 
#    z 0.019370 0.000000 1.701990 
# 
# From -- ./inp_files/382318.got.cif
#   From: 2010.05.17/outbox.ucp.g08.bks.cvg/sg12_192_cif.got.tgz:382318.got - 2010.06.11 11:47:21.
