data_PCOD9224945
_publ_section_title
;
Structure prediction by ZEFSAII (Michael W. Deem and Ramdas Pophale) SiO2 
 PCOD9224945
Probable space group: C 2/M
;
_chemical_formula_sum "Si O2"
_cell_formula_units_Z 32
_cell_length_a 15.000000
_cell_length_b 18.000000
_cell_length_c 12.000000
_cell_angle_alpha 90.000000
_cell_angle_beta 90.000000
_cell_angle_gamma 90.000000
_cell_volume 3240.000000
_symmetry_space_group_name_H-M "C 2/M"
_symmetry_group_IT_number 12
_symmetry_cell_setting 'monoclinic'
loop_
_space_group_symop_operation_xyz
x,y,z
-x,y,-z
-x,-y,-z
x,-y,z
1/2+x,1/2+y,z
1/2-x,1/2+y,-z
1/2-x,1/2-y,-z
1/2+x,1/2-y,z
loop_
_atom_site_type_symbol
_atom_site_label
_atom_site_fract_x
_atom_site_fract_y
_atom_site_fract_z
Si Si1 0.455713 0.410989 0.616916
Si Si2 0.228930 0.151654 0.881325
Si Si3 0.617080 0.084481 0.250269
Si Si4 0.101294 0.589283 0.501006
Si Si5 0.016386 0.312325 0.875118
Si Si6 0.757787 0.911204 0.656010
Si Si7 0.272088 0.181743 0.136494
Si Si8 0.980954 0.860733 0.131199
O O1 0.500000 0.382703 0.500000
O O2 0.468099 0.500000 0.617093
O O3 0.351408 0.393364 0.599626
O O4 0.482760 0.388685 0.746310
O O5 0.297047 0.094857 0.826911
O O6 0.255563 0.233823 0.837632
O O7 0.126185 0.134999 0.858071
O O8 0.241849 0.159510 0.013453
O O9 0.640500 0.100430 0.378111
O O10 0.540869 0.139683 0.209152
O O11 0.583523 0.000000 0.244796
O O12 0.094898 0.500000 0.519446
O O13 0.170575 0.618339 0.591934
O O14 0.000000 0.618417 0.500000
O O15 0.121185 0.317960 0.856125
O O16 0.989885 0.225758 0.872645
O O17 0.000000 0.340950 0.000000
O O18 0.763711 0.876601 0.777094
O O19 0.750706 0.000000 0.662637
O O20 0.000000 0.888752 0.000000
#
# Coordination Sequence:
#
# PCOD9224945 Si02
#       8
#     8   8   8   8   8   8   8   8
#     4  10  23  41  62  89 124 162 202 258 316 359
#     4  10  22  37  59  89 118 157 197 242 306 363
#     4  11  23  37  60  90 122 157 197 252 310 366
#     4   9  19  37  58  82 117 158 195 238 298 362
#     4  10  20  38  59  88 122 162 200 242 307 368
#     4  10  21  37  62  88 113 156 203 245 299 361
#     4  10  20  38  61  84 121 158 193 245 301 361
#     4  10  22  40  66  88 117 166 212 253 300 364
#
# _framework density 9.8765429999999999
#
# number of rings (size 3 to 8) (size 9 to 14) (size 15 to 20)
#    0.000    2.000    1.250    1.500    5.250    3.000 
#    0.000    3.750    0.000    0.000    0.000    0.000 
#    0.000    0.000    0.000    0.000    0.000    0.000 
#
# Total GULP energy -178292.717812 kJ/mol
# GULP energy per Si atom -5571.647432 kJ/mol
# Density = 0.985406 g / cm^3
# Si number density = 9.876543 Si / 1000 Ang^3
#
#
#
# Elastic Constant Matrix: (Units=GPa)
#
#
# Indices 1 2 3 4 5 6 
#
# 1 42.1088 59.9851 51.3738 0.0000 28.6858 0.0000
# 2 59.9851 -14.5796 4.9265 0.0000 -6.6261 0.0000
# 3 51.3738 4.9265 70.1546 0.0000 8.1814 0.0000
# 4 0.0000 0.0000 0.0000 23.7270 0.0000 14.1632
# 5 28.6858 -6.6261 8.1814 0.0000 27.2315 0.0000
# 6 0.0000 0.0000 0.0000 14.1632 0.0000 6.3007
#
#
#
# Elastic Compliance Matrix: (Units=1/GPa)
#
#
# Indices 1 2 3 4 5 6 
#
# 1 0.004613 0.017089 -0.004660 0.000000 0.000698 0.000000
# 2 0.017089 0.004126 -0.011215 0.000000 -0.013629 0.000000
# 3 -0.004660 -0.011215 0.018861 0.000000 -0.003487 0.000000
# 4 0.000000 0.000000 0.000000 -0.123309 0.000000 0.277180
# 5 0.000698 -0.013629 -0.003487 0.000000 0.033718 0.000000
# 6 0.000000 0.000000 0.000000 0.277180 0.000000 -0.464349
#
#
# Mechanical properties :
#
#
# Convention : Reuss Voigt Hill
#
# Bulk Modulus (GPa) = 33.30094 36.69494 34.99794
# Shear Modulus (GPa) = -9.63838 10.21176 0.28669
#
# Velocity S-wave (km/s) = -2.21134 2.27616 0.38138
# Velocity P-wave (km/s) = 3.22105 5.05223 4.23676
#
# Compressibility (1/GPa) = 0.03002918
#
# Stress axis : x y z
#
# Youngs Moduli (GPa) = 216.75771 242.38165 53.02003
#
# Poissons Ratio (x) = -4.14210 0.24707
# Poissons Ratio (y) = -3.70421 0.59460
# Poissons Ratio (z) = 1.01007 2.71823
#
# Static dielectric constant tensor:
#      x y z
#    x 1.623670 0.000000 0.032720 
#    y 0.000000 1.693020 0.000000 
#    z 0.032720 0.000000 1.673140 
# 
# From -- ./inp_files/146167.got.cif
#   From: 2010.05.17/outbox.ucp.g08.bks.cvg/sg12_74_cif.got.tgz:146167.got - 2010.06.11 11:47:21.
