data_PCOD9224935
_publ_section_title
;
Structure prediction by ZEFSAII (Michael W. Deem and Ramdas Pophale) SiO2 
 PCOD9224935
Probable space group: C 2/M
;
_chemical_formula_sum "Si O2"
_cell_formula_units_Z 32
_cell_length_a 15.000000
_cell_length_b 9.000000
_cell_length_c 24.000000
_cell_angle_alpha 90.000000
_cell_angle_beta 90.000000
_cell_angle_gamma 90.000000
_cell_volume 3240.000000
_symmetry_space_group_name_H-M "C 2/M"
_symmetry_group_IT_number 12
_symmetry_cell_setting 'monoclinic'
loop_
_space_group_symop_operation_xyz
x,y,z
-x,y,-z
-x,-y,-z
x,-y,z
1/2+x,1/2+y,z
1/2-x,1/2+y,-z
1/2-x,1/2-y,-z
1/2+x,1/2-y,z
loop_
_atom_site_type_symbol
_atom_site_label
_atom_site_fract_x
_atom_site_fract_y
_atom_site_fract_z
Si Si1 0.574191 0.673758 0.306990
Si Si2 0.497321 0.822003 0.584415
Si Si3 0.169179 0.170811 0.125149
Si Si4 0.492053 0.821238 0.096786
Si Si5 0.256971 0.319681 0.756819
Si Si6 0.320952 0.830565 0.038472
Si Si7 0.652615 0.820490 0.506623
Si Si8 0.927514 0.174545 0.211452
O O1 0.577900 0.500000 0.322144
O O2 0.527335 0.762476 0.355699
O O3 0.675504 0.721141 0.292856
O O4 0.511146 0.685954 0.253017
O O5 0.593673 0.773351 0.560489
O O6 0.415656 0.780217 0.543344
O O7 0.500059 0.000000 0.584247
O O8 0.188576 0.223562 0.187350
O O9 0.265727 0.169970 0.096268
O O10 0.093138 0.262732 0.093437
O O11 0.137020 0.000000 0.127096
O O12 0.419885 0.770706 0.050281
O O13 0.453821 0.759985 0.155178
O O14 0.491290 0.000000 0.096481
O O15 0.247111 0.500000 0.757640
O O16 0.160862 0.244132 0.760565
O O17 0.330310 0.000000 0.018920
O O18 0.250000 0.750000 0.000000
O O19 0.750000 0.750000 0.500000
O O20 0.662080 0.000000 0.507429
O O21 0.912075 0.000000 0.199450
#
# Coordination Sequence:
#
# PCOD9224935 Si02
#       8
#     8   8   8   8   8   8   8   8
#     4  10  22  38  56  82 119 153 186 235 287 334
#     4   9  20  38  57  81 116 152 189 235 282 335
#     4  10  20  39  61  82 113 150 186 230 283 337
#     4  11  22  38  60  86 113 146 188 233 281 338
#     4  10  20  38  58  80 114 151 188 233 281 334
#     4  10  23  41  60  83 115 148 185 235 288 338
#     4   9  19  37  60  84 112 150 193 236 283 333
#     4  11  22  37  57  84 114 150 192 233 280 339
#
# _framework density 9.8765429999999999
#
# number of rings (size 3 to 8) (size 9 to 14) (size 15 to 20)
#    0.000    2.000    2.500    1.500    0.000    6.000 
#    0.000    8.750    0.000    0.000    0.000    0.000 
#    0.000    0.000    0.000    0.000    0.000    0.000 
#
# Total GULP energy -178534.999655 kJ/mol
# GULP energy per Si atom -5579.218739 kJ/mol
# Density = 0.985406 g / cm^3
# Si number density = 9.876543 Si / 1000 Ang^3
#
#
#
# Elastic Constant Matrix: (Units=GPa)
#
#
# Indices 1 2 3 4 5 6 
#
# 1 117.9305 23.3140 -7.6732 0.0000 -13.6235 0.0000
# 2 23.3140 26.5900 2.0387 0.0000 2.1665 0.0000
# 3 -7.6732 2.0387 30.6253 0.0000 -13.8726 0.0000
# 4 0.0000 0.0000 0.0000 26.4891 0.0000 0.7182
# 5 -13.6235 2.1665 -13.8726 0.0000 16.8626 0.0000
# 6 0.0000 0.0000 0.0000 0.7182 0.0000 38.9844
#
#
#
# Elastic Compliance Matrix: (Units=1/GPa)
#
#
# Indices 1 2 3 4 5 6 
#
# 1 0.017901 -0.020190 0.021607 0.000000 0.034832 0.000000
# 2 -0.020190 0.061909 -0.032154 0.000000 -0.050719 0.000000
# 3 0.021607 -0.032154 0.079679 0.000000 0.087139 0.000000
# 4 0.000000 0.000000 0.000000 0.037770 0.000000 -0.000696
# 5 0.034832 -0.050719 0.087139 0.000000 0.165648 0.000000
# 6 0.000000 0.000000 0.000000 -0.000696 0.000000 0.025664
#
#
# Mechanical properties :
#
#
# Convention : Reuss Voigt Hill
#
# Bulk Modulus (GPa) = 10.20263 23.38944 16.79603
# Shear Modulus (GPa) = 10.35805 26.96496 18.66150
#
# Velocity S-wave (km/s) = 2.29241 3.69874 3.07699
# Velocity P-wave (km/s) = 3.49044 5.48703 4.59840
#
# Compressibility (1/GPa) = 0.09801392
#
# Stress axis : x y z
#
# Youngs Moduli (GPa) = 55.86341 16.15282 12.55039
#
# Poissons Ratio (x) = 0.32613 -0.27118
# Poissons Ratio (y) = 1.12789 0.40355
# Poissons Ratio (z) = -1.20706 0.51938
#
# Static dielectric constant tensor:
#      x y z
#    x 1.679140 0.000000 -0.015280 
#    y 0.000000 1.676960 0.000000 
#    z -0.015280 0.000000 1.752640 
# 
# From -- ./inp_files/338920.got.cif
#   From: 2010.05.17/outbox.ucp.g08.bks.cvg/sg12_170_cif.got.tgz:338920.got - 2010.06.11 11:47:21.
