data_PCOD9224314
_publ_section_title
;
Structure prediction by ZEFSAII (Michael W. Deem and Ramdas Pophale) SiO2 
 PCOD9224314
Probable space group: C 2/M
;
_chemical_formula_sum "Si O2"
_cell_formula_units_Z 28
_cell_length_a 21.000000
_cell_length_b 24.000000
_cell_length_c 18.000000
_cell_angle_alpha 90.000000
_cell_angle_beta 20.000000
_cell_angle_gamma 90.000000
_cell_volume 3102.806740
_symmetry_space_group_name_H-M "C 2/M"
_symmetry_group_IT_number 12
_symmetry_cell_setting 'monoclinic'
loop_
_space_group_symop_operation_xyz
x,y,z
-x,y,-z
-x,-y,-z
x,-y,z
1/2+x,1/2+y,z
1/2-x,1/2+y,-z
1/2-x,1/2-y,-z
1/2+x,1/2-y,z
loop_
_atom_site_type_symbol
_atom_site_label
_atom_site_fract_x
_atom_site_fract_y
_atom_site_fract_z
Si Si1 0.339573 0.563143 0.984478
Si Si2 0.244599 0.854100 0.345750
Si Si3 0.047240 0.763802 0.359690
Si Si4 0.641084 0.565161 0.776569
Si Si5 0.501533 0.862849 0.408843
Si Si6 0.847813 0.652839 0.058691
Si Si7 0.920237 0.936259 0.721658
O O1 0.279337 0.500000 0.069009
O O2 0.523708 0.573596 0.830608
O O3 0.381111 0.566362 0.852203
O O4 0.178104 0.604073 0.185552
O O5 0.304113 0.847684 0.194568
O O6 0.099958 0.804141 0.518883
O O7 0.122756 0.909741 0.486012
O O8 0.430469 0.851719 0.190965
O O9 0.022298 0.700983 0.361487
O O10 0.250973 0.791816 0.131192
O O11 0.000000 0.764662 0.500000
O O12 0.700111 0.500000 0.716523
O O13 0.814328 0.606272 0.589439
O O14 0.500000 0.575187 0.000000
O O15 0.500000 0.863991 0.500000
O O16 0.734081 0.601406 0.149317
O O17 0.911658 0.000000 0.706100
#
# Coordination Sequence:
#
# PCOD9224314 Si02
#       7
#     8   8   8   8   8   8   8
#     4  10  22  37  52  76 109 144 175 217 271 316
#     4   9  18  35  56  80 108 141 173 214 265 311
#     4   8  17  32  51  80 108 133 174 221 262 304
#     4  10  20  34  52  76 106 137 175 223 268 308
#     4  11  20  33  56  81 103 138 183 223 262 313
#     4   9  18  35  58  79 106 142 174 213 264 312
#     4  10  21  36  54  78 110 140 175 217 261 319
#
# _framework density 9.0240880000000008
#
# number of rings (size 3 to 8) (size 9 to 14) (size 15 to 20)
#    0.000    2.429    1.429    1.714    0.000    4.571 
#    2.571    7.143    0.000    5.143    0.000    0.000 
#    0.000    0.000    0.000    0.000    0.000    0.000 
#
# Total GULP energy -156120.696165 kJ/mol
# GULP energy per Si atom -5575.739149 kJ/mol
# Density = 0.900355 g / cm^3
# Si number density = 9.024088 Si / 1000 Ang^3
#
#
#
# Elastic Constant Matrix: (Units=GPa)
#
#
# Indices 1 2 3 4 5 6 
#
# 1 47.9747 40.5504 33.9063 0.0419 -30.9913 -0.0046
# 2 40.5504 138.3882 62.8718 0.0489 -38.1592 -0.0456
# 3 33.9063 62.8718 71.8699 0.0196 -37.2120 -0.0232
# 4 0.0419 0.0489 0.0196 15.0814 0.0120 6.3522
# 5 -30.9913 -38.1592 -37.2120 0.0120 30.4151 -0.0030
# 6 -0.0046 -0.0456 -0.0232 6.3522 -0.0030 11.4501
#
#
#
# Elastic Compliance Matrix: (Units=1/GPa)
#
#
# Indices 1 2 3 4 5 6 
#
# 1 0.064213 -0.003293 0.011801 -0.000349 0.075736 0.000250
# 2 -0.003293 0.012581 -0.008231 -0.000048 0.002358 0.000059
# 3 0.011801 -0.008231 0.044817 -0.000185 0.056530 0.000181
# 4 -0.000349 -0.000048 -0.000185 0.086528 -0.000681 -0.048004
# 5 0.075736 0.002358 0.056530 -0.000681 0.182170 0.000580
# 6 0.000250 0.000059 0.000181 -0.048004 0.000580 0.113968
#
#
# Mechanical properties :
#
#
# Convention : Reuss Voigt Hill
#
# Bulk Modulus (GPa) = 8.18577 59.20996 33.69787
# Shear Modulus (GPa) = 9.18369 19.44961 14.31665
#
# Velocity S-wave (km/s) = 2.25820 3.28632 2.81952
# Velocity P-wave (km/s) = 3.36818 6.87588 5.41398
#
# Compressibility (1/GPa) = 0.12216316
#
# Stress axis : x y z
#
# Youngs Moduli (GPa) = 15.57326 79.48666 22.31309
#
# Poissons Ratio (x) = 0.26177 -0.26331
# Poissons Ratio (y) = 0.05129 0.18366
# Poissons Ratio (z) = -0.18378 0.65426
#
# Static dielectric constant tensor:
#      x y z
#    x 1.609000 -0.000040 -0.003230 
#    y -0.000040 1.622530 0.000070 
#    z -0.003230 0.000070 1.601050 
# 
# From -- ./inp_files/286312.got.cif
#   From: 2010.05.17/outbox.ucp.g08.bks.cvg/sg12_144_cif.got.tgz:286312.got - 2010.06.11 11:47:21.
