data_PCOD9224541
_publ_section_title
;
Structure prediction by ZEFSAII (Michael W. Deem and Ramdas Pophale) SiO2 
 PCOD9224541
Probable space group: C 2/M
;
_chemical_formula_sum "Si O2"
_cell_formula_units_Z 32
_cell_length_a 30.000000
_cell_length_b 9.000000
_cell_length_c 24.000000
_cell_angle_alpha 90.000000
_cell_angle_beta 30.000000
_cell_angle_gamma 90.000000
_cell_volume 3240.000000
_symmetry_space_group_name_H-M "C 2/M"
_symmetry_group_IT_number 12
_symmetry_cell_setting 'monoclinic'
loop_
_space_group_symop_operation_xyz
x,y,z
-x,y,-z
-x,-y,-z
x,-y,z
1/2+x,1/2+y,z
1/2-x,1/2+y,-z
1/2-x,1/2-y,-z
1/2+x,1/2-y,z
loop_
_atom_site_type_symbol
_atom_site_label
_atom_site_fract_x
_atom_site_fract_y
_atom_site_fract_z
Si Si1 0.271984 0.323574 0.230761
Si Si2 0.553031 0.680301 0.777903
Si Si3 0.703111 0.178240 0.678565
Si Si4 0.477575 0.668060 0.664980
Si Si5 0.860150 0.829230 0.426835
Si Si6 0.423404 0.837645 0.538208
Si Si7 0.858618 0.819862 0.024661
Si Si8 0.706338 0.821629 0.102371
O O1 0.289330 0.500000 0.222272
O O2 0.275050 0.228338 0.283068
O O3 0.167238 0.308896 0.329803
O O4 0.336877 0.271996 0.111221
O O5 0.552428 0.500000 0.775378
O O6 0.611071 0.739923 0.765467
O O7 0.609145 0.741636 0.664347
O O8 0.451140 0.729906 0.896536
O O9 0.781171 0.231885 0.551234
O O10 0.696854 0.000000 0.681504
O O11 0.447274 0.500000 0.686698
O O12 0.547803 0.666725 0.639198
O O13 0.538893 0.725342 0.548018
O O14 0.391751 0.763808 0.774975
O O15 0.832986 0.000000 0.444371
O O16 0.500000 0.847708 0.500000
O O17 0.411008 0.000000 0.523625
O O18 0.774522 0.781233 0.077898
O O19 0.862597 0.000000 0.022222
O O20 0.704158 0.000000 0.098688
O O21 0.750000 0.750000 0.000000
#
# Coordination Sequence:
#
# PCOD9224541 Si02
#       8
#     8   8   8   8   8   8   8   8
#     4  10  20  37  60  84 112 153 199 240 284 349
#     4  10  20  38  62  84 106 147 199 243 289 353
#     4  11  22  38  57  84 119 152 186 241 304 352
#     4  11  21  36  58  86 118 154 193 237 293 352
#     4   9  19  36  58  83 117 152 188 237 299 356
#     4  10  20  35  56  83 115 150 193 242 290 341
#     4   9  20  39  62  84 114 154 199 244 291 344
#     4  11  22  39  61  88 121 159 199 243 293 347
#
# _framework density 9.8765429999999999
#
# number of rings (size 3 to 8) (size 9 to 14) (size 15 to 20)
#    0.000    1.875    1.250    3.000    0.000    4.750 
#    0.000   10.000    0.000    0.000    0.000    0.000 
#    0.000    0.000    0.000    0.000    0.000    0.000 
#
# Total GULP energy -178287.778239 kJ/mol
# GULP energy per Si atom -5571.493070 kJ/mol
# Density = 0.985406 g / cm^3
# Si number density = 9.876543 Si / 1000 Ang^3
#
#
#
# Elastic Constant Matrix: (Units=GPa)
#
#
# Indices 1 2 3 4 5 6 
#
# 1 36.2468 2.5470 28.2993 0.0004 -1.9153 0.0000
# 2 2.5470 35.5231 23.9688 -0.0024 0.9869 -0.0005
# 3 28.2993 23.9688 88.5936 0.0055 15.3346 -0.0016
# 4 0.0004 -0.0024 0.0055 56.3874 -0.0002 1.1820
# 5 -1.9153 0.9869 15.3346 -0.0002 26.7310 -0.0001
# 6 0.0000 -0.0005 -0.0016 1.1820 -0.0001 18.9149
#
#
#
# Elastic Compliance Matrix: (Units=1/GPa)
#
#
# Indices 1 2 3 4 5 6 
#
# 1 0.041633 0.008733 -0.017899 0.000002 0.012929 -0.000001
# 2 0.008733 0.036769 -0.014001 0.000003 0.007300 0.000000
# 3 -0.017899 -0.014001 0.023232 -0.000003 -0.014093 0.000002
# 4 0.000002 0.000003 -0.000003 0.017758 0.000002 -0.001110
# 5 0.012929 0.007300 -0.014093 0.000002 0.046151 -0.000001
# 6 -0.000001 0.000000 0.000002 -0.001110 -0.000001 0.052938
#
#
# Mechanical properties :
#
#
# Convention : Reuss Voigt Hill
#
# Bulk Modulus (GPa) = 18.08326 29.99930 24.04128
# Shear Modulus (GPa) = 17.65239 27.44322 22.54781
#
# Velocity S-wave (km/s) = 2.99264 3.73139 3.38225
# Velocity P-wave (km/s) = 4.59519 5.81244 5.23929
#
# Compressibility (1/GPa) = 0.05529977
#
# Stress axis : x y z
#
# Youngs Moduli (GPa) = 24.01950 27.19710 43.04347
#
# Poissons Ratio (x) = -0.23752 0.77045
# Poissons Ratio (y) = -0.20977 0.60265
# Poissons Ratio (z) = 0.42993 0.38078
#
# Static dielectric constant tensor:
#      x y z
#    x 1.842400 0.000000 0.072210 
#    y 0.000000 1.719290 0.000000 
#    z 0.072210 0.000000 1.717640 
# 
# From -- ./inp_files/353320.got.cif
#   From: 2010.05.17/outbox.ucp.g08.bks.cvg/sg12_177_cif.got.tgz:353320.got - 2010.06.11 11:47:21.
