data_PCOD9224479
_publ_section_title
;
Structure prediction by ZEFSAII (Michael W. Deem and Ramdas Pophale) SiO2 
 PCOD9224479
Probable space group: C 2/M
;
_chemical_formula_sum "Si O2"
_cell_formula_units_Z 32
_cell_length_a 15.000000
_cell_length_b 9.000000
_cell_length_c 27.000000
_cell_angle_alpha 90.000000
_cell_angle_beta 110.000000
_cell_angle_gamma 90.000000
_cell_volume 3425.179603
_symmetry_space_group_name_H-M "C 2/M"
_symmetry_group_IT_number 12
_symmetry_cell_setting 'monoclinic'
loop_
_space_group_symop_operation_xyz
x,y,z
-x,y,-z
-x,-y,-z
x,-y,z
1/2+x,1/2+y,z
1/2-x,1/2+y,-z
1/2-x,1/2-y,-z
1/2+x,1/2-y,z
loop_
_atom_site_type_symbol
_atom_site_label
_atom_site_fract_x
_atom_site_fract_y
_atom_site_fract_z
Si Si1 0.263562 0.677045 0.869470
Si Si2 0.512060 0.675283 0.754618
Si Si3 0.707424 0.830427 0.423071
Si Si4 0.589841 0.328568 0.482174
Si Si5 0.445187 0.176446 0.938824
Si Si6 0.054226 0.321909 0.861650
Si Si7 0.192482 0.825867 0.319467
Si Si8 0.279159 0.322645 0.239879
O O1 0.263982 0.500000 0.864155
O O2 0.348561 0.733611 0.918941
O O3 0.163104 0.724410 0.873827
O O4 0.272866 0.751344 0.817267
O O5 0.518600 0.500000 0.766849
O O6 0.499994 0.759850 0.803884
O O7 0.420244 0.701071 0.704576
O O8 0.610236 0.718743 0.747285
O O9 0.621108 0.769703 0.440864
O O10 0.809736 0.829866 0.469647
O O11 0.723015 0.729059 0.378551
O O12 0.686691 0.000000 0.404756
O O13 0.500000 0.281859 0.500000
O O14 0.569335 0.500000 0.463132
O O15 0.508999 0.226285 0.904490
O O16 0.425386 0.000000 0.929335
O O17 0.500000 0.197640 0.000000
O O18 0.051764 0.500000 0.860045
O O19 0.241134 0.738870 0.284011
O O20 0.210070 0.000000 0.315893
O O21 0.269665 0.500000 0.236361
#
# Coordination Sequence:
#
# PCOD9224479 Si02
#       8
#     8   8   8   8   8   8   8   8
#     4  10  20  35  54  77 104 134 171 214 262 313
#     4   9  20  36  54  76 103 138 176 211 253 311
#     4  10  21  36  55  82 111 140 179 222 265 314
#     4   9  19  38  61  80 104 142 183 223 268 316
#     4  10  21  36  53  75 103 136 174 215 262 314
#     4   9  19  35  54  75 102 135 170 213 261 310
#     4  11  22  36  54  79 113 146 175 215 264 310
#     4  10  20  36  56  78 104 137 177 215 256 309
#
# _framework density 9.3425759999999993
#
# number of rings (size 3 to 8) (size 9 to 14) (size 15 to 20)
#    0.000    2.250    0.000    2.250    0.000    7.000 
#    0.000    5.000    0.000    0.000    0.000    0.000 
#    0.000    0.000    0.000    0.000    0.000    0.000 
#
# Total GULP energy -178483.537398 kJ/mol
# GULP energy per Si atom -5577.610544 kJ/mol
# Density = 0.932131 g / cm^3
# Si number density = 9.342576 Si / 1000 Ang^3
#
#
#
# Elastic Constant Matrix: (Units=GPa)
#
#
# Indices 1 2 3 4 5 6 
#
# 1 -26.9104 13.4686 -70.6381 0.0000 66.0874 0.0000
# 2 13.4686 18.3022 17.6432 0.0000 10.3854 0.0000
# 3 -70.6381 17.6432 -43.2435 0.0000 69.1324 0.0000
# 4 0.0000 0.0000 0.0000 28.5383 0.0000 -2.0539
# 5 66.0874 10.3854 69.1324 0.0000 -62.1444 0.0000
# 6 0.0000 0.0000 0.0000 -2.0539 0.0000 34.3034
#
#
#
# Elastic Compliance Matrix: (Units=1/GPa)
#
#
# Indices 1 2 3 4 5 6 
#
# 1 0.007417 0.030896 -0.027431 0.000000 -0.017465 0.000000
# 2 0.030896 -0.060522 0.049848 0.000000 0.078195 0.000000
# 3 -0.027431 0.049848 -0.011180 0.000000 -0.033279 0.000000
# 4 0.000000 0.000000 0.000000 0.035192 0.000000 0.002107
# 5 -0.017465 0.078195 -0.033279 0.000000 -0.058618 0.000000
# 6 0.000000 0.000000 0.000000 0.002107 0.000000 0.029278
#
#
# Mechanical properties :
#
#
# Convention : Reuss Voigt Hill
#
# Bulk Modulus (GPa) = 23.61846 -14.54492 4.53677
# Shear Modulus (GPa) = -33.12479 -0.68222 -16.90351
#
# Velocity S-wave (km/s) = -4.21502 -0.60490 -3.01100
# Velocity P-wave (km/s) = 3.31976 2.87906 3.10723
#
# Compressibility (1/GPa) = 0.04233976
#
# Stress axis : x y z
#
# Youngs Moduli (GPa) = 134.82916 -16.52299 -89.44631
#
# Poissons Ratio (x) = 0.51050 -2.45364
# Poissons Ratio (y) = -4.16570 4.45868
# Poissons Ratio (z) = 3.69856 0.82363
#
# Static dielectric constant tensor:
#      x y z
#    x 1.644190 0.000000 0.019510 
#    y 0.000000 1.637070 0.000000 
#    z 0.019510 0.000000 1.641250 
# 
# From -- ./inp_files/359944.got.cif
#   From: 2010.05.17/outbox.ucp.g08.bks.cvg/sg12_180_cif.got.tgz:359944.got - 2010.06.11 11:47:21.
