data_PCOD9224006
_publ_section_title
;
Structure prediction by ZEFSAII (Michael W. Deem and Ramdas Pophale) SiO2 
 PCOD9224006
Probable space group: C 2/M
;
_chemical_formula_sum "Si O2"
_cell_formula_units_Z 32
_cell_length_a 18.000000
_cell_length_b 15.000000
_cell_length_c 24.000000
_cell_angle_alpha 90.000000
_cell_angle_beta 30.000000
_cell_angle_gamma 90.000000
_cell_volume 3240.000000
_symmetry_space_group_name_H-M "C 2/M"
_symmetry_group_IT_number 12
_symmetry_cell_setting 'monoclinic'
loop_
_space_group_symop_operation_xyz
x,y,z
-x,y,-z
-x,-y,-z
x,-y,z
1/2+x,1/2+y,z
1/2-x,1/2+y,-z
1/2-x,1/2-y,-z
1/2+x,1/2-y,z
loop_
_atom_site_type_symbol
_atom_site_label
_atom_site_fract_x
_atom_site_fract_y
_atom_site_fract_z
Si Si1 0.811256 0.687814 0.850281
Si Si2 0.614485 0.107684 0.685483
Si Si3 0.233916 0.103535 0.529767
Si Si4 0.076276 0.835463 0.308374
Si Si5 0.498490 0.740589 0.068598
Si Si6 0.250647 0.597339 0.221996
Si Si7 0.173442 0.397748 0.770365
Si Si8 0.965774 0.321485 0.457256
O O1 0.846837 0.775004 0.789186
O O2 0.774602 0.613310 0.827320
O O3 0.955179 0.656234 0.790223
O O4 0.659976 0.706244 0.981247
O O5 0.688439 0.136292 0.578517
O O6 0.703624 0.126216 0.685312
O O7 0.597709 0.000000 0.693291
O O8 0.305329 0.149913 0.537592
O O9 0.058638 0.113877 0.633492
O O10 0.270009 0.000000 0.511582
O O11 0.193411 0.887388 0.271152
O O12 0.003850 0.768071 0.399644
O O13 0.365264 0.672012 0.168208
O O14 0.454246 0.832865 0.124935
O O15 0.500000 0.748201 0.000000
O O16 0.311965 0.500000 0.192855
O O17 0.090010 0.609606 0.353905
O O18 0.126230 0.500000 0.800841
O O19 0.000000 0.312584 0.500000
#
# Coordination Sequence:
#
# PCOD9224006 Si02
#       8
#     8   8   8   8   8   8   8   8
#     4  10  20  37  61  85 120 151 200 247 301 359
#     4  10  22  38  61  88 119 158 199 250 303 356
#     4  11  23  39  58  85 120 159 201 245 298 357
#     4  11  22  39  58  90 117 159 204 247 298 357
#     4  10  20  39  59  91 117 153 206 247 306 356
#     4  10  19  35  59  89 122 154 195 243 294 358
#     4  11  23  40  61  89 122 159 205 251 299 356
#     4  11  23  37  63  90 124 162 195 241 300 370
#
# _framework density 9.8765429999999999
#
# number of rings (size 3 to 8) (size 9 to 14) (size 15 to 20)
#    0.000    1.500    6.250    1.500    1.750    4.500 
#    0.000    1.875    0.000    0.000    0.000    0.000 
#    0.000    0.000    0.000    0.000    0.000    0.000 
#
# Total GULP energy -178508.262118 kJ/mol
# GULP energy per Si atom -5578.383191 kJ/mol
# Density = 0.985406 g / cm^3
# Si number density = 9.876543 Si / 1000 Ang^3
#
#
#
# Elastic Constant Matrix: (Units=GPa)
#
#
# Indices 1 2 3 4 5 6 
#
# 1 83.8336 4.6375 8.1200 -0.0016 -18.2895 0.0002
# 2 4.6375 57.2576 -3.2690 0.0017 -1.2796 0.0002
# 3 8.1200 -3.2690 32.7918 0.0033 -23.5894 -0.0009
# 4 -0.0016 0.0017 0.0033 -1.9094 -0.0022 -6.8769
# 5 -18.2895 -1.2796 -23.5894 -0.0022 26.6133 0.0000
# 6 0.0002 0.0002 -0.0009 -6.8769 0.0000 13.5255
#
#
#
# Elastic Compliance Matrix: (Units=1/GPa)
#
#
# Indices 1 2 3 4 5 6 
#
# 1 0.015210 -0.000208 0.010281 -0.000007 0.019556 -0.000003
# 2 -0.000208 0.018000 0.006528 0.000007 0.006509 0.000004
# 3 0.010281 0.006528 0.093576 0.000012 0.090323 0.000012
# 4 -0.000007 0.000007 0.000012 -0.184983 -0.000009 -0.094052
# 5 0.019556 0.006509 0.090323 -0.000009 0.131388 0.000001
# 6 -0.000003 0.000004 0.000012 -0.094052 0.000001 0.026114
#
#
# Mechanical properties :
#
#
# Convention : Reuss Voigt Hill
#
# Bulk Modulus (GPa) = 6.25044 21.42888 13.83966
# Shear Modulus (GPa) = 41.86411 18.60551 30.23481
#
# Velocity S-wave (km/s) = 4.60866 3.07237 3.91658
# Velocity P-wave (km/s) = 5.61166 4.84334 5.24160
#
# Compressibility (1/GPa) = 0.15998873
#
# Stress axis : x y z
#
# Youngs Moduli (GPa) = 65.74409 55.55566 10.68645
#
# Poissons Ratio (x) = 0.01155 -0.10986
# Poissons Ratio (y) = 0.01367 -0.06976
# Poissons Ratio (z) = -0.67589 -0.36269
#
# Static dielectric constant tensor:
#      x y z
#    x 1.702210 0.000000 -0.016610 
#    y 0.000000 1.813680 0.000000 
#    z -0.016610 0.000000 1.723770 
# 
# From -- ./inp_files/344009.got.cif
#   From: 2010.05.17/outbox.ucp.g08.bks.cvg/sg12_173_cif.got.tgz:344009.got - 2010.06.11 11:47:21.
