data_PCOD9224975
_publ_section_title
;
Structure prediction by ZEFSAII (Michael W. Deem and Ramdas Pophale) SiO2 
 PCOD9224975
Probable space group: C 2/M
;
_chemical_formula_sum "Si O2"
_cell_formula_units_Z 24
_cell_length_a 21.000000
_cell_length_b 15.000000
_cell_length_c 9.000000
_cell_angle_alpha 90.000000
_cell_angle_beta 110.000000
_cell_angle_gamma 90.000000
_cell_volume 2664.028580
_symmetry_space_group_name_H-M "C 2/M"
_symmetry_group_IT_number 12
_symmetry_cell_setting 'monoclinic'
loop_
_space_group_symop_operation_xyz
x,y,z
-x,y,-z
-x,-y,-z
x,-y,z
1/2+x,1/2+y,z
1/2-x,1/2+y,-z
1/2-x,1/2-y,-z
1/2+x,1/2-y,z
loop_
_atom_site_type_symbol
_atom_site_label
_atom_site_fract_x
_atom_site_fract_y
_atom_site_fract_z
Si Si1 0.686232 0.399302 0.748168
Si Si2 0.166072 0.393877 0.255017
Si Si3 0.424616 0.760104 0.995796
Si Si4 0.429992 0.251066 0.355627
Si Si5 0.332067 0.893717 0.391805
Si Si6 0.215594 0.828675 0.075282
O O1 0.672121 0.500000 0.683327
O O2 0.758674 0.368062 0.741190
O O3 0.625247 0.330798 0.665685
O O4 0.699149 0.400530 0.935309
O O5 0.159661 0.500000 0.228955
O O6 0.105520 0.346671 0.114907
O O7 0.168687 0.374751 0.432630
O O8 0.358332 0.697225 0.920335
O O9 0.500000 0.736020 0.000000
O O10 0.434645 0.763259 0.181787
O O11 0.500000 0.268626 0.500000
O O12 0.396820 0.159982 0.386495
O O13 0.267979 0.858471 0.243991
O O14 0.336427 0.000000 0.374725
O O15 0.250000 0.750000 0.000000
#
# Coordination Sequence:
#
# PCOD9224975 Si02
#       6
#     8   8   8   8   8   8
#     4  10  20  38  62  86 116 156 201 246 290 351
#     4  10  21  36  57  88 119 153 197 244 296 348
#     4  11  22  37  57  85 117 156 196 243 298 350
#     4  11  23  39  58  85 119 158 201 242 298 357
#     4  11  22  37  61  89 119 155 198 246 292 349
#     4  11  19  39  61  88 113 155 200 239 291 350
#
# _framework density 9.0089120000000005
#
# number of rings (size 3 to 8) (size 9 to 14) (size 15 to 20)
#    0.000    1.333    5.000    1.500    0.000    7.000 
#    0.000    0.000    0.000   12.500    0.000    0.000 
#    0.000    0.000    0.000    0.000    0.000    0.000 
#
# Total GULP energy -133719.760607 kJ/mol
# GULP energy per Si atom -5571.656692 kJ/mol
# Density = 0.898841 g / cm^3
# Si number density = 9.008912 Si / 1000 Ang^3
#
#
#
# Elastic Constant Matrix: (Units=GPa)
#
#
# Indices 1 2 3 4 5 6 
#
# 1 130.2884 37.5372 33.6455 0.0000 8.9758 0.0000
# 2 37.5372 71.8237 35.4974 0.0000 -1.4035 0.0000
# 3 33.6455 35.4974 94.9913 0.0000 22.1897 0.0000
# 4 0.0000 0.0000 0.0000 29.1474 0.0000 1.1785
# 5 8.9758 -1.4035 22.1897 0.0000 40.6505 0.0000
# 6 0.0000 0.0000 0.0000 1.1785 0.0000 19.0444
#
#
#
# Elastic Compliance Matrix: (Units=1/GPa)
#
#
# Indices 1 2 3 4 5 6 
#
# 1 0.009353 -0.004227 -0.001394 0.000000 -0.001450 0.000000
# 2 -0.004227 0.019797 -0.007196 0.000000 0.005545 0.000000
# 3 -0.001394 -0.007196 0.015698 0.000000 -0.008510 0.000000
# 4 0.000000 0.000000 0.000000 0.034394 0.000000 -0.002128
# 5 -0.001450 0.005545 -0.008510 0.000000 0.029757 0.000000
# 6 0.000000 0.000000 0.000000 -0.002128 0.000000 0.052641
#
#
# Mechanical properties :
#
#
# Convention : Reuss Voigt Hill
#
# Bulk Modulus (GPa) = 52.04855 56.71816 54.38336
# Shear Modulus (GPa) = 25.81574 30.46334 28.13954
#
# Velocity S-wave (km/s) = 3.78933 4.11631 3.95620
# Velocity P-wave (km/s) = 6.93508 7.35794 7.14964
#
# Compressibility (1/GPa) = 0.01921283
#
# Stress axis : x y z
#
# Youngs Moduli (GPa) = 106.91503 50.51213 63.70207
#
# Poissons Ratio (x) = 0.21354 0.08882
# Poissons Ratio (y) = 0.45198 0.45840
# Poissons Ratio (z) = 0.14908 0.36349
#
# Static dielectric constant tensor:
#      x y z
#    x 1.625180 0.000000 -0.045910 
#    y 0.000000 1.665110 0.000000 
#    z -0.045910 0.000000 1.626330 
# 
# From -- ./inp_files/85945.got.cif
#   From: 2010.05.17/outbox.ucp.g08.bks.cvg/sg12_43_cif.got.tgz:85945.got - 2010.06.11 11:47:21.
