data_PCOD9224156
_publ_section_title
;
Structure prediction by ZEFSAII (Michael W. Deem and Ramdas Pophale) SiO2 
 PCOD9224156
Probable space group: C 2/M
;
_chemical_formula_sum "Si O2"
_cell_formula_units_Z 32
_cell_length_a 30.000000
_cell_length_b 15.000000
_cell_length_c 9.000000
_cell_angle_alpha 90.000000
_cell_angle_beta 130.000000
_cell_angle_gamma 90.000000
_cell_volume 3102.479995
_symmetry_space_group_name_H-M "C 2/M"
_symmetry_group_IT_number 12
_symmetry_cell_setting 'monoclinic'
loop_
_space_group_symop_operation_xyz
x,y,z
-x,y,-z
-x,-y,-z
x,-y,z
1/2+x,1/2+y,z
1/2-x,1/2+y,-z
1/2-x,1/2-y,-z
1/2+x,1/2-y,z
loop_
_atom_site_type_symbol
_atom_site_label
_atom_site_fract_x
_atom_site_fract_y
_atom_site_fract_z
Si Si1 0.585261 0.710131 0.477649
Si Si2 0.385852 0.275587 0.788596
Si Si3 0.855477 0.100091 0.153709
Si Si4 0.069487 0.395797 0.606217
Si Si5 0.775102 0.204401 0.772214
Si Si6 0.667945 0.897308 0.376235
Si Si7 0.034166 0.105486 0.831997
Si Si8 0.685877 0.102013 0.063016
O O1 0.611828 0.690679 0.373583
O O2 0.630307 0.669306 0.689115
O O3 0.578346 0.814557 0.508274
O O4 0.523832 0.655479 0.350823
O O5 0.325840 0.290824 0.752267
O O6 0.388010 0.168255 0.765102
O O7 0.437413 0.328601 0.983087
O O8 0.913934 0.101549 0.177361
O O9 0.847552 0.000000 0.192301
O O10 0.800694 0.132539 0.941746
O O11 0.076652 0.500000 0.572599
O O12 0.000000 0.387981 0.500000
O O13 0.121307 0.383246 0.845149
O O14 0.716207 0.161388 0.573314
O O15 0.778003 0.302324 0.862667
O O16 0.685093 0.907237 0.240120
O O17 0.660874 0.000000 0.418129
O O18 0.023006 0.000000 0.850053
O O19 0.704284 0.000000 0.049538
#
# Coordination Sequence:
#
# PCOD9224156 Si02
#       8
#     8   8   8   8   8   8   8   8
#     4  12  22  35  56  88 124 157 188 236 292 348
#     4  10  23  37  56  89 120 153 188 236 295 347
#     4  10  20  35  59  86 115 154 198 239 279 339
#     4  10  21  35  55  83 117 160 205 241 278 333
#     4  10  19  39  62  86 111 146 197 246 290 345
#     4  10  21  39  65  85 110 150 198 245 289 344
#     4  10  22  40  60  84 119 162 199 231 276 341
#     4   9  17  32  56  85 111 144 192 242 281 326
#
# _framework density 10.314329000000001
#
# number of rings (size 3 to 8) (size 9 to 14) (size 15 to 20)
#    0.000    1.875    1.250    3.750    3.500    3.500 
#    0.000    1.250    0.000    1.500    0.000    0.000 
#    0.000    0.000    0.000    0.000    0.000    0.000 
#
# Total GULP energy -178146.252666 kJ/mol
# GULP energy per Si atom -5567.070396 kJ/mol
# Density = 1.029085 g / cm^3
# Si number density = 10.314329 Si / 1000 Ang^3
#
#
#
# Elastic Constant Matrix: (Units=GPa)
#
#
# Indices 1 2 3 4 5 6 
#
# 1 9.9128 0.5424 4.1825 0.0000 -1.8649 0.0000
# 2 0.5424 160.2376 41.4973 0.0000 9.5092 0.0000
# 3 4.1825 41.4973 117.7920 0.0000 7.5160 0.0000
# 4 0.0000 0.0000 0.0000 43.2003 0.0000 11.7671
# 5 -1.8649 9.5092 7.5160 0.0000 21.5173 0.0000
# 6 0.0000 0.0000 0.0000 11.7671 0.0000 6.5477
#
#
#
# Elastic Compliance Matrix: (Units=1/GPa)
#
#
# Indices 1 2 3 4 5 6 
#
# 1 0.104735 0.000172 -0.004453 0.000000 0.010557 0.000000
# 2 0.000172 0.006975 -0.002319 0.000000 -0.002257 0.000000
# 3 -0.004453 -0.002319 0.009639 0.000000 -0.002728 0.000000
# 4 0.000000 0.000000 0.000000 0.045345 0.000000 -0.081492
# 5 0.010557 -0.002257 -0.002728 0.000000 0.049340 0.000000
# 6 0.000000 0.000000 0.000000 -0.081492 0.000000 0.299178
#
#
# Mechanical properties :
#
#
# Convention : Reuss Voigt Hill
#
# Bulk Modulus (GPa) = 9.24656 42.26519 25.75587
# Shear Modulus (GPa) = 8.85801 30.36773 19.61287
#
# Velocity S-wave (km/s) = 2.07445 3.84098 3.08678
# Velocity P-wave (km/s) = 3.19842 6.34065 5.02164
#
# Compressibility (1/GPa) = 0.10814835
#
# Stress axis : x y z
#
# Youngs Moduli (GPa) = 9.54790 143.37473 103.74771
#
# Poissons Ratio (x) = -0.02470 0.46200
# Poissons Ratio (y) = -0.00164 0.24062
# Poissons Ratio (z) = 0.04252 0.33252
#
# Static dielectric constant tensor:
#      x y z
#    x 1.775820 0.000000 -0.024770 
#    y 0.000000 1.787990 0.000000 
#    z -0.024770 0.000000 1.742140 
# 
# From -- ./inp_files/112008.got.cif
#   From: 2010.05.17/outbox.ucp.g08.bks.cvg/sg12_57_cif.got.tgz:112008.got - 2010.06.11 11:47:21.
