data_PCOD9224790
_publ_section_title
;
Structure prediction by ZEFSAII (Michael W. Deem and Ramdas Pophale) SiO2 
 PCOD9224790
Probable space group: C 2/M
;
_chemical_formula_sum "Si O2"
_cell_formula_units_Z 22
_cell_length_a 12.000000
_cell_length_b 24.000000
_cell_length_c 12.000000
_cell_angle_alpha 90.000000
_cell_angle_beta 140.000000
_cell_angle_gamma 90.000000
_cell_volume 2221.473979
_symmetry_space_group_name_H-M "C 2/M"
_symmetry_group_IT_number 12
_symmetry_cell_setting 'monoclinic'
loop_
_space_group_symop_operation_xyz
x,y,z
-x,y,-z
-x,-y,-z
x,-y,z
1/2+x,1/2+y,z
1/2-x,1/2+y,-z
1/2-x,1/2-y,-z
1/2+x,1/2-y,z
loop_
_atom_site_type_symbol
_atom_site_label
_atom_site_fract_x
_atom_site_fract_y
_atom_site_fract_z
Si Si1 0.500000 0.214034 0.000000
Si Si2 0.514719 0.933659 0.262253
Si Si3 0.239992 0.862028 0.935812
Si Si4 0.077978 0.678598 0.436707
Si Si5 0.050173 0.776204 0.245829
Si Si6 0.187934 0.060707 0.697239
O O1 0.385662 0.176209 0.991612
O O2 0.397327 0.251328 0.833592
O O3 0.555122 0.886042 0.384469
O O4 0.660701 0.926953 0.276522
O O5 0.512559 0.000000 0.289781
O O6 0.331106 0.910338 0.076921
O O7 0.163171 0.893314 0.771139
O O8 0.104373 0.820301 0.887447
O O9 0.000894 0.725639 0.292668
O O10 0.281777 0.691722 0.582617
O O11 0.000000 0.686883 0.500000
O O12 0.000000 0.056123 0.500000
O O13 0.235810 0.000000 0.783112
#
# Coordination Sequence:
#
# PCOD9224790 Si02
#       6
#     4   8   8   8   8   8
#     4  12  22  38  63  92 123 162 196 252 306 374
#     4  11  23  40  61  90 123 164 210 251 306 364
#     4  12  21  37  62  92 128 158 201 253 312 366
#     4  11  24  44  64  91 124 164 205 253 308 368
#     4  11  25  39  65  95 123 161 204 254 309 371
#     4  10  20  36  60  89 123 163 207 256 305 358
#
# _framework density 9.9033350000000002
#
# number of rings (size 3 to 8) (size 9 to 14) (size 15 to 20)
#    0.000    0.909    3.636    3.273    2.545    5.455 
#    0.000    0.909    0.000    1.091    0.000    0.000 
#    0.000    0.000    0.000    0.000    0.000    0.000 
#
# Total GULP energy -122647.201223 kJ/mol
# GULP energy per Si atom -5574.872783 kJ/mol
# Density = 0.988079 g / cm^3
# Si number density = 9.903335 Si / 1000 Ang^3
#
#
#
# Elastic Constant Matrix: (Units=GPa)
#
#
# Indices 1 2 3 4 5 6 
#
# 1 51.4723 38.5334 8.5273 0.0000 -7.0553 0.0000
# 2 38.5334 138.2324 51.8947 0.0000 -8.0106 0.0000
# 3 8.5273 51.8947 65.2416 0.0000 -3.1798 0.0000
# 4 0.0000 0.0000 0.0000 39.4591 0.0000 -1.9682
# 5 -7.0553 -8.0106 -3.1798 0.0000 30.2172 0.0000
# 6 0.0000 0.0000 0.0000 -1.9682 0.0000 17.1620
#
#
#
# Elastic Compliance Matrix: (Units=1/GPa)
#
#
# Indices 1 2 3 4 5 6 
#
# 1 0.025529 -0.008125 0.003329 0.000000 0.004157 0.000000
# 2 -0.008125 0.013008 -0.009256 0.000000 0.000577 0.000000
# 3 0.003329 -0.009256 0.022288 0.000000 0.000669 0.000000
# 4 0.000000 0.000000 0.000000 0.025489 0.000000 0.002923
# 5 0.004157 0.000577 0.000669 0.000000 0.034288 0.000000
# 6 0.000000 0.000000 0.000000 0.002923 0.000000 0.058604
#
#
# Mechanical properties :
#
#
# Convention : Reuss Voigt Hill
#
# Bulk Modulus (GPa) = 30.56337 50.31746 40.44042
# Shear Modulus (GPa) = 22.91305 27.76704 25.34004
#
# Velocity S-wave (km/s) = 3.40492 3.74826 3.58071
# Velocity P-wave (km/s) = 5.56078 6.64771 6.12839
#
# Compressibility (1/GPa) = 0.03271890
#
# Stress axis : x y z
#
# Youngs Moduli (GPa) = 39.17124 76.87793 44.86728
#
# Poissons Ratio (x) = 0.62465 -0.14936
# Poissons Ratio (y) = 0.31827 0.41531
# Poissons Ratio (z) = -0.13040 0.71162
#
# Static dielectric constant tensor:
#      x y z
#    x 1.649930 0.000000 -0.011910 
#    y 0.000000 1.737790 0.000000 
#    z -0.011910 0.000000 1.813170 
# 
# From -- ./inp_files/50868.got.cif
#   From: 2010.05.17/outbox.ucp.g08.bks.cvg/sg12_26_cif.got.tgz:50868.got - 2010.06.11 11:47:21.
