data_PCOD9224426
_publ_section_title
;
Structure prediction by ZEFSAII (Michael W. Deem and Ramdas Pophale) SiO2 
 PCOD9224426
Probable space group: C 2/M
;
_chemical_formula_sum "Si O2"
_cell_formula_units_Z 28
_cell_length_a 18.000000
_cell_length_b 9.000000
_cell_length_c 27.000000
_cell_angle_alpha 90.000000
_cell_angle_beta 40.000000
_cell_angle_gamma 90.000000
_cell_volume 2811.553005
_symmetry_space_group_name_H-M "C 2/M"
_symmetry_group_IT_number 12
_symmetry_cell_setting 'monoclinic'
loop_
_space_group_symop_operation_xyz
x,y,z
-x,y,-z
-x,-y,-z
x,-y,z
1/2+x,1/2+y,z
1/2-x,1/2+y,-z
1/2-x,1/2-y,-z
1/2+x,1/2-y,z
loop_
_atom_site_type_symbol
_atom_site_label
_atom_site_fract_x
_atom_site_fract_y
_atom_site_fract_z
Si Si1 0.996560 0.824048 0.599229
Si Si2 0.326845 0.673812 0.571106
Si Si3 0.388303 0.320231 0.026049
Si Si4 0.746083 0.819711 0.720475
Si Si5 0.122543 0.679156 0.169383
Si Si6 0.577845 0.170748 0.647791
Si Si7 0.496846 0.321638 0.865081
O O1 0.867883 0.778933 0.683824
O O2 0.064394 0.764641 0.515773
O O3 0.077004 0.781811 0.603028
O O4 0.988713 0.000000 0.596437
O O5 0.354787 0.500000 0.565694
O O6 0.286641 0.732356 0.644901
O O7 0.206244 0.677490 0.603827
O O8 0.387187 0.500000 0.031672
O O9 0.422544 0.284791 0.952027
O O10 0.500000 0.265369 0.000000
O O11 0.257436 0.272619 0.107872
O O12 0.627411 0.745285 0.798668
O O13 0.728344 0.000000 0.729721
O O14 0.123835 0.500000 0.162026
O O15 0.025520 0.708381 0.261005
O O16 0.071234 0.755643 0.146764
O O17 0.556881 0.000000 0.642346
O O18 0.506062 0.500000 0.857246
#
# Coordination Sequence:
#
# PCOD9224426 Si02
#       7
#     8   8   8   8   8   8   8
#     4  10  21  34  55  82 111 145 184 236 280 317
#     4   9  17  35  57  79 105 145 194 226 267 332
#     4   9  20  37  59  86 113 145 183 221 270 331
#     4  10  20  37  58  80 110 149 189 225 272 333
#     4  10  20  38  62  82 109 151 189 222 267 332
#     4  10  20  34  56  82 110 147 185 223 272 335
#     4  11  22  36  59  87 113 143 183 233 275 318
#
# _framework density 9.9589090000000002
#
# number of rings (size 3 to 8) (size 9 to 14) (size 15 to 20)
#    0.000    2.143    1.429    1.714    2.000    2.857 
#    0.000    1.429    0.000    3.857    0.000    0.000 
#    0.000    0.000    0.000    0.000    0.000    0.000 
#
# Total GULP energy -155880.040596 kJ/mol
# GULP energy per Si atom -5567.144307 kJ/mol
# Density = 0.993624 g / cm^3
# Si number density = 9.958909 Si / 1000 Ang^3
#
#
#
# Elastic Constant Matrix: (Units=GPa)
#
#
# Indices 1 2 3 4 5 6 
#
# 1 74.2314 21.9441 16.7217 0.0000 -2.1385 0.0002
# 2 21.9441 0.9545 14.4600 0.0001 -3.5625 0.0005
# 3 16.7217 14.4600 103.3242 0.0000 -23.1309 0.0000
# 4 0.0000 0.0001 0.0000 18.1045 0.0000 0.5991
# 5 -2.1385 -3.5625 -23.1309 0.0000 28.9351 0.0000
# 6 0.0002 0.0005 0.0000 0.5991 0.0000 8.0518
#
#
#
# Elastic Compliance Matrix: (Units=1/GPa)
#
#
# Indices 1 2 3 4 5 6 
#
# 1 0.002325 0.042494 -0.006228 0.000000 0.000425 -0.000003
# 2 0.042494 -0.154632 0.013646 0.000000 -0.004989 0.000009
# 3 -0.006228 0.013646 0.011022 0.000000 0.010031 -0.000001
# 4 0.000000 0.000000 0.000000 0.055371 0.000000 -0.004120
# 5 0.000425 -0.004989 0.010031 0.000000 0.041996 0.000000
# 6 -0.000003 0.000009 -0.000001 -0.004120 0.000000 0.124503
#
#
# Mechanical properties :
#
#
# Convention : Reuss Voigt Hill
#
# Bulk Modulus (GPa) = -24.11969 31.64020 3.76026
# Shear Modulus (GPa) = -151.23988 19.37723 -65.93133
#
# Velocity S-wave (km/s) = -8.72335 3.12245 -5.75965
# Velocity P-wave (km/s) = 10.65825 5.37768 6.50687
#
# Compressibility (1/GPa) = -0.04145990
#
# Stress axis : x y z
#
# Youngs Moduli (GPa) = 430.18773 -6.46699 90.72760
#
# Poissons Ratio (x) = 0.27481 0.56505
# Poissons Ratio (y) = -18.28043 -1.23811
# Poissons Ratio (z) = 2.67922 0.08825
#
# Static dielectric constant tensor:
#      x y z
#    x 1.804120 0.000000 -0.004360 
#    y 0.000000 1.672520 0.000000 
#    z -0.004360 0.000000 1.706510 
# 
# From -- ./inp_files/362964.got.cif
#   From: 2010.05.17/outbox.ucp.g08.bks.cvg/sg12_182_cif.got.tgz:362964.got - 2010.06.11 11:47:21.
