data_PCOD9224396
_publ_section_title
;
Structure prediction by ZEFSAII (Michael W. Deem and Ramdas Pophale) SiO2 
 PCOD9224396
Probable space group: C 2/M
;
_chemical_formula_sum "Si O2"
_cell_formula_units_Z 24
_cell_length_a 15.000000
_cell_length_b 24.000000
_cell_length_c 15.000000
_cell_angle_alpha 90.000000
_cell_angle_beta 30.000000
_cell_angle_gamma 90.000000
_cell_volume 2700.000000
_symmetry_space_group_name_H-M "C 2/M"
_symmetry_group_IT_number 12
_symmetry_cell_setting 'monoclinic'
loop_
_space_group_symop_operation_xyz
x,y,z
-x,y,-z
-x,-y,-z
x,-y,z
1/2+x,1/2+y,z
1/2-x,1/2+y,-z
1/2-x,1/2-y,-z
1/2+x,1/2-y,z
loop_
_atom_site_type_symbol
_atom_site_label
_atom_site_fract_x
_atom_site_fract_y
_atom_site_fract_z
Si Si1 0.914162 0.759000 0.476526
Si Si2 0.848816 0.680647 0.857282
Si Si3 0.351366 0.067188 0.935497
Si Si4 0.991990 0.746800 0.897566
Si Si5 0.764018 0.564817 0.304400
Si Si6 0.443138 0.384724 0.678164
O O1 0.698058 0.751361 0.680161
O O2 0.000000 0.752742 0.500000
O O3 0.008051 0.713815 0.329274
O O4 0.980353 0.820998 0.385308
O O5 0.895915 0.699559 0.918973
O O6 0.869028 0.613437 0.841138
O O7 0.649169 0.702155 0.001223
O O8 0.175266 0.090071 0.139495
O O9 0.336563 0.000000 0.928853
O O10 0.533444 0.072812 0.837563
O O11 0.000000 0.738686 0.000000
O O12 0.747344 0.500000 0.289113
O O13 0.692494 0.605947 0.288619
O O14 0.618422 0.577599 0.507286
#
# Coordination Sequence:
#
# PCOD9224396 Si02
#       6
#     8   8   8   8   8   8
#     4  12  23  40  62  95 129 166 201 254 319 376
#     4  11  25  40  63  92 127 167 209 258 315 375
#     4  11  24  39  58  84 120 165 213 259 304 360
#     4  11  23  41  65  96 130 163 206 253 319 383
#     4  10  20  34  54  85 124 168 207 242 296 373
#     4  11  20  34  56  86 125 164 200 246 307 381
#
# _framework density 8.8888890000000007
#
# number of rings (size 3 to 8) (size 9 to 14) (size 15 to 20)
#    0.000    1.000    3.333    6.000    0.000    2.667 
#    0.000    0.000    0.000    1.000    0.000    0.000 
#    0.000    0.000    0.000    0.000    0.000    0.000 
#
# Total GULP energy -133870.670966 kJ/mol
# GULP energy per Si atom -5577.944624 kJ/mol
# Density = 0.886866 g / cm^3
# Si number density = 8.888889 Si / 1000 Ang^3
#
#
#
# Elastic Constant Matrix: (Units=GPa)
#
#
# Indices 1 2 3 4 5 6 
#
# 1 82.6425 31.7159 26.3572 0.0033 -7.4681 -0.0036
# 2 31.7159 146.1908 49.3479 0.0023 1.9456 -0.0075
# 3 26.3572 49.3479 133.8023 -0.0183 -16.6490 0.0051
# 4 0.0033 0.0023 -0.0183 31.8023 0.0053 -2.2257
# 5 -7.4681 1.9456 -16.6490 0.0053 36.7448 0.0020
# 6 -0.0036 -0.0075 0.0051 -2.2257 0.0020 29.6778
#
#
#
# Elastic Compliance Matrix: (Units=1/GPa)
#
#
# Indices 1 2 3 4 5 6 
#
# 1 0.013744 -0.002504 -0.001505 -0.000002 0.002244 0.000001
# 2 -0.002504 0.008386 -0.002881 -0.000001 -0.002258 0.000002
# 3 -0.001505 -0.002881 0.009340 0.000005 0.004079 -0.000002
# 4 -0.000002 -0.000001 0.000005 0.031610 -0.000003 0.002371
# 5 0.002244 -0.002258 0.004079 -0.000003 0.029638 -0.000003
# 6 0.000001 0.000002 -0.000002 0.002371 -0.000003 0.033873
#
#
# Mechanical properties :
#
#
# Convention : Reuss Voigt Hill
#
# Bulk Modulus (GPa) = 56.52326 64.16417 60.34372
# Shear Modulus (GPa) = 34.18410 36.65928 35.42169
#
# Velocity S-wave (km/s) = 4.38979 4.54594 4.46855
# Velocity P-wave (km/s) = 7.58664 7.98278 7.78723
#
# Compressibility (1/GPa) = 0.01769183
#
# Stress axis : x y z
#
# Youngs Moduli (GPa) = 72.75986 119.24677 107.06581
#
# Poissons Ratio (x) = 0.29855 0.16111
# Poissons Ratio (y) = 0.18216 0.30842
# Poissons Ratio (z) = 0.10948 0.34351
#
# Static dielectric constant tensor:
#      x y z
#    x 1.623830 -0.000010 0.021840 
#    y -0.000010 1.643040 0.000010 
#    z 0.021840 0.000010 1.668200 
# 
# From -- ./inp_files/218410.got.cif
#   From: 2010.05.17/outbox.ucp.g08.bks.cvg/sg12_110_cif.got.tgz:218410.got - 2010.06.11 11:47:21.
