data_PCOD9224546
_publ_section_title
;
Structure prediction by ZEFSAII (Michael W. Deem and Ramdas Pophale) SiO2 
 PCOD9224546
Probable space group: C 2/M
;
_chemical_formula_sum "Si O2"
_cell_formula_units_Z 28
_cell_length_a 15.000000
_cell_length_b 24.000000
_cell_length_c 15.000000
_cell_angle_alpha 90.000000
_cell_angle_beta 30.000000
_cell_angle_gamma 90.000000
_cell_volume 2700.000000
_symmetry_space_group_name_H-M "C 2/M"
_symmetry_group_IT_number 12
_symmetry_cell_setting 'monoclinic'
loop_
_space_group_symop_operation_xyz
x,y,z
-x,y,-z
-x,-y,-z
x,-y,z
1/2+x,1/2+y,z
1/2-x,1/2+y,-z
1/2-x,1/2-y,-z
1/2+x,1/2-y,z
loop_
_atom_site_type_symbol
_atom_site_label
_atom_site_fract_x
_atom_site_fract_y
_atom_site_fract_z
Si Si1 0.991842 0.707261 0.191261
Si Si2 0.227468 0.717353 0.156694
Si Si3 0.189907 0.196431 0.334964
Si Si4 0.782845 0.434351 0.599447
Si Si5 0.811522 0.407316 0.780806
Si Si6 0.405651 0.436170 0.855679
Si Si7 0.368639 0.110964 0.046047
O O1 0.067798 0.717548 0.222929
O O2 0.785079 0.710306 0.345173
O O3 0.104278 0.750837 0.032872
O O4 0.041823 0.645292 0.113188
O O5 0.170649 0.747833 0.294988
O O6 0.266236 0.654446 0.146165
O O7 0.307094 0.157197 0.170526
O O8 0.000000 0.168038 0.500000
O O9 0.802284 0.500000 0.561680
O O10 0.765825 0.430621 0.722131
O O11 0.600638 0.411067 0.712457
O O12 0.971090 0.407392 0.406002
O O13 0.721852 0.434415 0.945900
O O14 0.443627 0.500000 0.803899
O O15 0.300012 0.414246 0.860352
O O16 0.500000 0.076437 0.000000
#
# Coordination Sequence:
#
# PCOD9224546 Si02
#       7
#     8   8   8   8   8   8   8
#     4   9  19  39  56  76 116 151 185 235 285 336
#     4  10  20  35  56  85 108 149 195 231 279 337
#     4  10  22  36  56  82 116 155 185 233 294 344
#     4  10  23  39  57  88 127 153 185 240 291 347
#     4  11  21  38  60  87 120 157 191 231 289 353
#     4  11  22  38  63  89 112 151 201 242 293 347
#     4   9  19  40  59  78 114 154 195 240 290 345
#
# _framework density 10.370369999999999
#
# number of rings (size 3 to 8) (size 9 to 14) (size 15 to 20)
#    0.000    2.000    1.429    3.429    2.000    5.429 
#    0.000    0.000    0.000    0.429    0.000    0.000 
#    0.000    0.000    0.000    0.000    0.000    0.000 
#
# Total GULP energy -155885.852462 kJ/mol
# GULP energy per Si atom -5567.351874 kJ/mol
# Density = 1.034677 g / cm^3
# Si number density = 10.370370 Si / 1000 Ang^3
#
#
#
# Elastic Constant Matrix: (Units=GPa)
#
#
# Indices 1 2 3 4 5 6 
#
# 1 105.5600 10.2248 16.4477 -0.0311 -50.6404 -0.0167
# 2 10.2248 36.7080 2.4113 -0.0192 6.1372 -0.0295
# 3 16.4477 2.4113 36.9295 -0.0681 -34.2427 -0.0499
# 4 -0.0311 -0.0192 -0.0681 1.5075 -0.0412 -11.9524
# 5 -50.6404 6.1372 -34.2427 -0.0412 24.4140 0.0043
# 6 -0.0167 -0.0295 -0.0499 -11.9524 0.0043 23.9959
#
#
#
# Elastic Compliance Matrix: (Units=1/GPa)
#
#
# Indices 1 2 3 4 5 6 
#
# 1 0.004035 0.002735 -0.017134 0.000445 -0.016349 0.000195
# 2 0.002735 0.023540 0.009928 -0.000531 0.013680 -0.000216
# 3 -0.017134 0.009928 0.004011 0.000278 -0.032409 0.000153
# 4 0.000445 -0.000531 0.000278 -0.224939 0.001086 -0.112042
# 5 -0.016349 0.013680 -0.032409 0.001086 -0.041844 0.000487
# 6 0.000195 -0.000216 0.000153 -0.112042 0.000487 -0.014134
#
#
# Mechanical properties :
#
#
# Convention : Reuss Voigt Hill
#
# Bulk Modulus (GPa) = 44.15964 26.37391 35.26677
# Shear Modulus (GPa) = -21.47398 19.99107 -0.74146
#
# Velocity S-wave (km/s) = -3.22118 3.10797 -0.59855
# Velocity P-wave (km/s) = 2.73912 5.06191 4.06975
#
# Compressibility (1/GPa) = 0.02264511
#
# Stress axis : x y z
#
# Youngs Moduli (GPa) = 247.81552 42.48004 249.28549
#
# Poissons Ratio (x) = -0.11619 4.27125
# Poissons Ratio (y) = -0.67783 -2.47483
# Poissons Ratio (z) = 4.24606 -0.42173
#
# Static dielectric constant tensor:
#      x y z
#    x 1.807780 -0.000020 -0.080750 
#    y -0.000020 1.787690 0.000020 
#    z -0.080750 0.000020 1.854560 
# 
# From -- ./inp_files/218675.got.cif
#   From: 2010.05.17/outbox.ucp.g08.bks.cvg/sg12_110_cif.got.tgz:218675.got - 2010.06.11 11:47:21.
