data_PCOD9224008
_publ_section_title
;
Structure prediction by ZEFSAII (Michael W. Deem and Ramdas Pophale) SiO2 
 PCOD9224008
Probable space group: C 2/M
;
_chemical_formula_sum "Si O2"
_cell_formula_units_Z 32
_cell_length_a 12.000000
_cell_length_b 21.000000
_cell_length_c 27.000000
_cell_angle_alpha 90.000000
_cell_angle_beta 150.000000
_cell_angle_gamma 90.000000
_cell_volume 3402.000000
_symmetry_space_group_name_H-M "C 2/M"
_symmetry_group_IT_number 12
_symmetry_cell_setting 'monoclinic'
loop_
_space_group_symop_operation_xyz
x,y,z
-x,y,-z
-x,-y,-z
x,-y,z
1/2+x,1/2+y,z
1/2-x,1/2+y,-z
1/2-x,1/2-y,-z
1/2+x,1/2-y,z
loop_
_atom_site_type_symbol
_atom_site_label
_atom_site_fract_x
_atom_site_fract_y
_atom_site_fract_z
Si Si1 0.010288 0.075173 0.382003
Si Si2 0.977277 0.289401 0.249607
Si Si3 0.920130 0.303458 0.113384
Si Si4 0.032417 0.923560 0.202206
Si Si5 0.995581 0.834573 0.099044
Si Si6 0.966016 0.426970 0.608401
Si Si7 0.843673 0.852971 0.221486
Si Si8 0.264841 0.395776 0.384393
O O1 0.957043 0.113037 0.311922
O O2 0.812526 0.082619 0.346678
O O3 0.244373 0.099410 0.496233
O O4 0.030522 0.000000 0.379352
O O5 0.995333 0.304800 0.198700
O O6 0.749371 0.322609 0.180751
O O7 0.952927 0.215339 0.251558
O O8 0.190136 0.322479 0.356005
O O9 0.921535 0.228555 0.100763
O O10 0.091899 0.337434 0.142026
O O11 0.677245 0.333753 0.012672
O O12 0.290091 0.899916 0.309437
O O13 0.969274 0.894319 0.124864
O O14 0.878184 0.895849 0.186270
O O15 0.028073 0.000000 0.200194
O O16 0.977544 0.500000 0.596709
O O17 0.915208 0.426534 0.647860
O O18 0.500000 0.408962 0.500000
#
# Coordination Sequence:
#
# PCOD9224008 Si02
#       8
#     8   8   8   8   8   8   8   8
#     4  10  20  37  59  85 117 155 197 236 279 338
#     4  11  20  38  61  85 118 148 188 243 289 346
#     4  10  21  39  62  85 112 145 197 246 285 339
#     4  11  22  39  59  84 121 155 191 233 285 348
#     4  10  21  38  63  87 108 151 197 239 287 339
#     4   9  19  36  60  85 114 156 199 236 277 339
#     4  11  23  37  57  87 118 152 193 234 289 345
#     4  10  19  35  59  90 115 148 193 240 290 337
#
# _framework density 9.4062319999999993
#
# number of rings (size 3 to 8) (size 9 to 14) (size 15 to 20)
#    0.000    1.750    3.750    1.125    0.000    2.500 
#    2.250    5.000    0.000    0.750    0.000    0.000 
#    0.000    0.000    0.000    0.000    0.000    0.000 
#
# Total GULP energy -178246.870003 kJ/mol
# GULP energy per Si atom -5570.214688 kJ/mol
# Density = 0.938482 g / cm^3
# Si number density = 9.406232 Si / 1000 Ang^3
#
#
#
# Elastic Constant Matrix: (Units=GPa)
#
#
# Indices 1 2 3 4 5 6 
#
# 1 73.8049 31.0488 -5.9516 -0.0005 2.5427 0.0003
# 2 31.0488 80.0875 19.4127 -0.0003 4.2915 -0.0004
# 3 -5.9516 19.4127 14.8543 -0.0028 1.4306 0.0002
# 4 -0.0005 -0.0003 -0.0028 21.0839 -0.0011 -1.1771
# 5 2.5427 4.2915 1.4306 -0.0011 17.2815 -0.0004
# 6 0.0003 -0.0004 0.0002 -1.1771 -0.0004 24.4127
#
#
#
# Elastic Compliance Matrix: (Units=1/GPa)
#
#
# Indices 1 2 3 4 5 6 
#
# 1 0.022855 -0.016134 0.030424 0.000004 -0.001875 -0.000001
# 2 -0.016134 0.029781 -0.045262 -0.000006 -0.001275 0.000001
# 3 0.030424 -0.045262 0.139120 0.000018 -0.004753 -0.000001
# 4 0.000004 -0.000006 0.000018 0.047558 0.000002 0.002293
# 5 -0.001875 -0.001275 -0.004753 0.000002 0.058851 0.000001
# 6 -0.000001 0.000001 -0.000001 0.002293 0.000001 0.041073
#
#
# Mechanical properties :
#
#
# Convention : Reuss Voigt Hill
#
# Bulk Modulus (GPa) = 7.70356 28.64070 18.17213
# Shear Modulus (GPa) = 11.24978 20.83807 16.04393
#
# Velocity S-wave (km/s) = 2.44805 3.33178 2.92350
# Velocity P-wave (km/s) = 3.47770 5.48256 4.59091
#
# Compressibility (1/GPa) = 0.12981007
#
# Stress axis : x y z
#
# Youngs Moduli (GPa) = 43.75460 33.57851 7.18803
#
# Poissons Ratio (x) = 0.54177 -0.21869
# Poissons Ratio (y) = 0.70596 0.32534
# Poissons Ratio (z) = -1.33117 1.51983
#
# Static dielectric constant tensor:
#      x y z
#    x 1.651970 0.000000 -0.001750 
#    y 0.000000 1.644440 0.000000 
#    z -0.001750 0.000000 1.690590 
# 
# From -- ./inp_files/265515.got.cif
#   From: 2010.05.17/outbox.ucp.g08.bks.cvg/sg12_133_cif.got.tgz:265515.got - 2010.06.11 11:47:21.
