data_PCOD9224922
_publ_section_title
;
Structure prediction by ZEFSAII (Michael W. Deem and Ramdas Pophale) SiO2 
 PCOD9224922
Probable space group: C 2/M
;
_chemical_formula_sum "Si O2"
_cell_formula_units_Z 28
_cell_length_a 21.000000
_cell_length_b 18.000000
_cell_length_c 15.000000
_cell_angle_alpha 90.000000
_cell_angle_beta 150.000000
_cell_angle_gamma 90.000000
_cell_volume 2835.000000
_symmetry_space_group_name_H-M "C 2/M"
_symmetry_group_IT_number 12
_symmetry_cell_setting 'monoclinic'
loop_
_space_group_symop_operation_xyz
x,y,z
-x,y,-z
-x,-y,-z
x,-y,z
1/2+x,1/2+y,z
1/2-x,1/2+y,-z
1/2-x,1/2-y,-z
1/2+x,1/2-y,z
loop_
_atom_site_type_symbol
_atom_site_label
_atom_site_fract_x
_atom_site_fract_y
_atom_site_fract_z
Si Si1 0.093692 0.589367 0.252736
Si Si2 0.103453 0.328169 0.454266
Si Si3 0.799869 0.588400 0.888814
Si Si4 0.202873 0.334393 0.921558
Si Si5 0.125970 0.910536 0.212517
Si Si6 0.336850 0.346245 0.440115
Si Si7 0.962011 0.088929 0.188985
O O1 0.112254 0.500000 0.291375
O O2 0.095505 0.638320 0.344983
O O3 0.211706 0.620544 0.338828
O O4 0.949053 0.597248 0.040086
O O5 0.237876 0.371118 0.647619
O O6 0.138700 0.241278 0.510516
O O7 0.948757 0.336172 0.296280
O O8 0.771845 0.500000 0.850880
O O9 0.701679 0.634184 0.708222
O O10 0.796046 0.618679 0.985052
O O11 0.250000 0.250000 0.000000
O O12 0.323010 0.370928 0.012050
O O13 0.067556 0.891964 0.239988
O O14 0.147188 0.000000 0.234038
O O15 0.000000 0.893289 0.000000
O O16 0.463707 0.387040 0.630868
O O17 0.942430 0.000000 0.162015
#
# Coordination Sequence:
#
# PCOD9224922 Si02
#       7
#     8   8   8   8   8   8   8
#     4  10  20  37  62  93 130 171 220 269 322 395
#     4  11  23  40  65  92 128 177 216 267 337 394
#     4  10  23  40  63  95 132 174 218 265 324 396
#     4  11  24  45  63  89 132 174 221 268 318 396
#     4  10  23  43  67  97 127 165 226 284 330 392
#     4  12  22  36  61  98 135 167 215 271 333 394
#     4  11  23  41  67  92 127 173 214 271 336 392
#
# _framework density 9.8765429999999999
#
# number of rings (size 3 to 8) (size 9 to 14) (size 15 to 20)
#    0.000    1.286    2.857    3.000    0.000    5.714 
#    0.000    3.571    0.000    2.571    0.000    0.000 
#    0.000    0.000    0.000    0.000    0.000    0.000 
#
# Total GULP energy -156051.000903 kJ/mol
# GULP energy per Si atom -5573.250032 kJ/mol
# Density = 0.985406 g / cm^3
# Si number density = 9.876543 Si / 1000 Ang^3
#
#
#
# Elastic Constant Matrix: (Units=GPa)
#
#
# Indices 1 2 3 4 5 6 
#
# 1 36.8791 15.1202 17.2947 0.0000 20.0129 0.0000
# 2 15.1202 134.0167 45.3418 0.0000 9.7748 0.0000
# 3 17.2947 45.3418 153.6417 0.0000 19.8529 0.0000
# 4 0.0000 0.0000 0.0000 39.5472 0.0000 13.9200
# 5 20.0129 9.7748 19.8529 0.0000 47.8551 0.0000
# 6 0.0000 0.0000 0.0000 13.9200 0.0000 30.1250
#
#
#
# Elastic Compliance Matrix: (Units=1/GPa)
#
#
# Indices 1 2 3 4 5 6 
#
# 1 0.036555 -0.002577 -0.001529 0.000000 -0.014127 0.000000
# 2 -0.002577 0.008494 -0.002253 0.000000 0.000277 0.000000
# 3 -0.001529 -0.002253 0.007611 0.000000 -0.002058 0.000000
# 4 0.000000 0.000000 0.000000 0.030198 0.000000 -0.013954
# 5 -0.014127 0.000277 -0.002058 0.000000 0.027601 0.000000
# 6 0.000000 0.000000 0.000000 -0.013954 0.000000 0.039643
#
#
# Mechanical properties :
#
#
# Convention : Reuss Voigt Hill
#
# Bulk Modulus (GPa) = 25.03473 53.33898 39.18685
# Shear Modulus (GPa) = 28.38748 39.95750 34.17249
#
# Velocity S-wave (km/s) = 3.79504 4.50249 4.16382
# Velocity P-wave (km/s) = 5.64841 7.35468 6.55728
#
# Compressibility (1/GPa) = 0.03994451
#
# Stress axis : x y z
#
# Youngs Moduli (GPa) = 27.35596 117.72511 131.38071
#
# Poissons Ratio (x) = 0.30333 0.20089
# Poissons Ratio (y) = 0.07048 0.29594
# Poissons Ratio (z) = 0.04183 0.26518
#
# Static dielectric constant tensor:
#      x y z
#    x 1.758740 0.000000 -0.017180 
#    y 0.000000 1.668990 0.000000 
#    z -0.017180 0.000000 1.738030 
# 
# From -- ./inp_files/234723.got.cif
#   From: 2010.05.17/outbox.ucp.g08.bks.cvg/sg12_118_cif.got.tgz:234723.got - 2010.06.11 11:47:21.
