data_PCOD9224925
_publ_section_title
;
Structure prediction by ZEFSAII (Michael W. Deem and Ramdas Pophale) SiO2 
 PCOD9224925
Probable space group: C 2/M
;
_chemical_formula_sum "Si O2"
_cell_formula_units_Z 24
_cell_length_a 21.000000
_cell_length_b 9.000000
_cell_length_c 15.000000
_cell_angle_alpha 90.000000
_cell_angle_beta 110.000000
_cell_angle_gamma 90.000000
_cell_volume 2664.028580
_symmetry_space_group_name_H-M "C 2/M"
_symmetry_group_IT_number 12
_symmetry_cell_setting 'monoclinic'
loop_
_space_group_symop_operation_xyz
x,y,z
-x,y,-z
-x,-y,-z
x,-y,z
1/2+x,1/2+y,z
1/2-x,1/2+y,-z
1/2-x,1/2-y,-z
1/2+x,1/2-y,z
loop_
_atom_site_type_symbol
_atom_site_label
_atom_site_fract_x
_atom_site_fract_y
_atom_site_fract_z
Si Si1 0.319253 0.820111 0.575169
Si Si2 0.034449 0.179545 0.419995
Si Si3 0.318654 0.178198 0.788095
Si Si4 0.721194 0.819338 0.892151
Si Si5 0.524044 0.171850 0.112889
Si Si6 0.571538 0.677694 0.790975
O O1 0.250000 0.750000 0.500000
O O2 0.391847 0.754249 0.571070
O O3 0.312436 0.791561 0.678866
O O4 0.320220 0.000000 0.562685
O O5 0.000000 0.218450 0.500000
O O6 0.976032 0.213590 0.318053
O O7 0.045449 0.000000 0.425000
O O8 0.268815 0.263701 0.832454
O O9 0.397065 0.214433 0.846570
O O10 0.308528 0.000000 0.796550
O O11 0.644341 0.760222 0.835439
O O12 0.721448 0.000000 0.898250
O O13 0.750000 0.750000 0.000000
O O14 0.475792 0.273301 0.149360
O O15 0.519172 0.000000 0.143214
O O16 0.500000 0.175517 0.000000
O O17 0.583693 0.500000 0.796322
#
# Coordination Sequence:
#
# PCOD9224925 Si02
#       6
#     8   8   8   8   8   8
#     4  11  24  42  66  95 129 167 211 262 316 378
#     4  10  23  43  66  94 128 168 210 259 319 379
#     4  10  22  41  63  91 129 167 206 258 318 374
#     4  12  26  43  65  93 129 169 215 263 314 376
#     4  10  20  37  63  91 121 160 203 252 312 374
#     4  11  23  40  64  93 128 165 209 260 313 375
#
# _framework density 9.0089120000000005
#
# number of rings (size 3 to 8) (size 9 to 14) (size 15 to 20)
#    0.000    1.333    1.667    3.500    2.333    4.667 
#    0.000    0.000    0.000    0.000    0.000    0.000 
#    0.000    0.000    0.000    0.000    0.000    0.000 
#
# Total GULP energy -133972.825825 kJ/mol
# GULP energy per Si atom -5582.201076 kJ/mol
# Density = 0.898841 g / cm^3
# Si number density = 9.008912 Si / 1000 Ang^3
#
#
#
# Elastic Constant Matrix: (Units=GPa)
#
#
# Indices 1 2 3 4 5 6 
#
# 1 198.2223 80.2348 94.7651 0.0000 7.3382 0.0000
# 2 80.2348 114.6892 59.5221 0.0000 2.8872 0.0000
# 3 94.7651 59.5221 146.5297 0.0000 7.8523 0.0000
# 4 0.0000 0.0000 0.0000 30.1063 0.0000 -0.1495
# 5 7.3382 2.8872 7.8523 0.0000 45.7510 0.0000
# 6 0.0000 0.0000 0.0000 -0.1495 0.0000 47.6656
#
#
#
# Elastic Compliance Matrix: (Units=1/GPa)
#
#
# Indices 1 2 3 4 5 6 
#
# 1 0.008506 -0.003924 -0.003883 0.000000 -0.000450 0.000000
# 2 -0.003924 0.012859 -0.002701 0.000000 0.000281 0.000000
# 3 -0.003883 -0.002701 0.010487 0.000000 -0.001007 0.000000
# 4 0.000000 0.000000 0.000000 0.033216 0.000000 0.000104
# 5 -0.000450 0.000281 -0.001007 0.000000 0.022085 0.000000
# 6 0.000000 0.000000 0.000000 0.000104 0.000000 0.020980
#
#
# Mechanical properties :
#
#
# Convention : Reuss Voigt Hill
#
# Bulk Modulus (GPa) = 92.28296 103.16502 97.72399
# Shear Modulus (GPa) = 37.66163 39.69919 38.68041
#
# Velocity S-wave (km/s) = 4.57688 4.69906 4.63837
# Velocity P-wave (km/s) = 8.90276 9.31789 9.11269
#
# Compressibility (1/GPa) = 0.01083624
#
# Stress axis : x y z
#
# Youngs Moduli (GPa) = 117.55905 77.76591 95.35771
#
# Poissons Ratio (x) = 0.30518 0.37028
# Poissons Ratio (y) = 0.46134 0.25753
# Poissons Ratio (z) = 0.45649 0.21002
#
# Static dielectric constant tensor:
#      x y z
#    x 1.590170 0.000000 0.006540 
#    y 0.000000 1.626130 0.000000 
#    z 0.006540 0.000000 1.633260 
# 
# From -- ./inp_files/230443.got.cif
#   From: 2010.05.17/outbox.ucp.g08.bks.cvg/sg12_116_cif.got.tgz:230443.got - 2010.06.11 11:47:21.
