data_PCOD9224041
_publ_section_title
;
Structure prediction by ZEFSAII (Michael W. Deem and Ramdas Pophale) SiO2 
 PCOD9224041
Probable space group: C 2/M
;
_chemical_formula_sum "Si O2"
_cell_formula_units_Z 32
_cell_length_a 18.000000
_cell_length_b 27.000000
_cell_length_c 21.000000
_cell_angle_alpha 90.000000
_cell_angle_beta 160.000000
_cell_angle_gamma 90.000000
_cell_volume 3490.657583
_symmetry_space_group_name_H-M "C 2/M"
_symmetry_group_IT_number 12
_symmetry_cell_setting 'monoclinic'
loop_
_space_group_symop_operation_xyz
x,y,z
-x,y,-z
-x,-y,-z
x,-y,z
1/2+x,1/2+y,z
1/2-x,1/2+y,-z
1/2-x,1/2-y,-z
1/2+x,1/2-y,z
loop_
_atom_site_type_symbol
_atom_site_label
_atom_site_fract_x
_atom_site_fract_y
_atom_site_fract_z
Si Si1 0.807461 0.558879 0.798293
Si Si2 0.544071 0.392298 0.401085
Si Si3 0.972239 0.939897 0.205319
Si Si4 0.996819 0.238317 0.225257
Si Si5 0.034097 0.441375 0.218564
Si Si6 0.743526 0.852944 0.619385
Si Si7 0.758466 0.314054 0.235636
Si Si8 0.971493 0.225088 0.600824
O O1 0.778985 0.500000 0.783188
O O2 0.586130 0.583173 0.644875
O O3 0.894500 0.566918 0.797324
O O4 0.000000 0.576001 0.000000
O O5 0.468944 0.418201 0.274768
O O6 0.800120 0.405954 0.610520
O O7 0.495043 0.333897 0.367436
O O8 0.153768 0.907454 0.312806
O O9 0.011844 0.000000 0.237471
O O10 0.723572 0.932362 0.980028
O O11 0.088857 0.183122 0.283977
O O12 0.992687 0.245267 0.298235
O O13 0.213648 0.268149 0.375435
O O14 0.750000 0.250000 0.000000
O O15 0.074620 0.500000 0.265637
O O16 0.482869 0.844766 0.392075
O O17 0.760371 0.833722 0.706542
O O18 0.860802 0.258217 0.307107
O O19 0.500000 0.316812 0.000000
#
# Coordination Sequence:
#
# PCOD9224041 Si02
#       8
#     8   8   8   8   8   8   8   8
#     4  10  19  36  56  77 117 168 210 246 295 360
#     4  12  22  36  58  91 127 161 206 260 309 365
#     4  11  23  41  64  93 127 161 209 266 317 380
#     4  10  20  39  63  87 120 160 201 254 310 374
#     4  10  22  38  58  86 121 168 213 251 313 373
#     4  10  22  41  64  94 122 164 212 254 323 377
#     4  10  22  44  65  87 122 167 205 260 319 381
#     4  10  23  37  58  94 121 153 209 248 307 384
#
# _framework density 9.1673270000000002
#
# number of rings (size 3 to 8) (size 9 to 14) (size 15 to 20)
#    0.000    1.625    2.500    2.250    1.750    2.500 
#    9.000    1.250    0.000    0.750    0.000    0.000 
#    0.000    0.000    0.000    0.000    0.000    0.000 
#
# Total GULP energy -178155.544861 kJ/mol
# GULP energy per Si atom -5567.360777 kJ/mol
# Density = 0.914646 g / cm^3
# Si number density = 9.167327 Si / 1000 Ang^3
#
#
#
# Elastic Constant Matrix: (Units=GPa)
#
#
# Indices 1 2 3 4 5 6 
#
# 1 68.4848 26.9843 14.6123 -0.0014 15.4799 -0.0008
# 2 26.9843 100.2424 33.2814 0.0001 12.8625 0.0000
# 3 14.6123 33.2814 148.0627 -0.0045 19.7078 -0.0050
# 4 -0.0014 0.0001 -0.0045 28.3137 -0.0025 11.0021
# 5 15.4799 12.8625 19.7078 -0.0025 31.8366 -0.0019
# 6 -0.0008 0.0000 -0.0050 11.0021 -0.0019 29.3314
#
#
#
# Elastic Compliance Matrix: (Units=1/GPa)
#
#
# Indices 1 2 3 4 5 6 
#
# 1 0.017720 -0.003883 0.000068 0.000000 -0.007089 0.000000
# 2 -0.003883 0.011922 -0.002078 -0.000001 -0.001642 0.000000
# 3 0.000068 -0.002078 0.007745 0.000001 -0.003988 0.000001
# 4 0.000000 -0.000001 0.000001 0.041345 0.000002 -0.015508
# 5 -0.007089 -0.001642 -0.003988 0.000002 0.037989 0.000001
# 6 0.000000 0.000000 0.000001 -0.015508 0.000001 0.039910
#
#
# Mechanical properties :
#
#
# Convention : Reuss Voigt Hill
#
# Bulk Modulus (GPa) = 39.06238 51.83841 45.45040
# Shear Modulus (GPa) = 28.25653 34.02379 31.14016
#
# Velocity S-wave (km/s) = 3.93001 4.31247 4.12567
# Velocity P-wave (km/s) = 6.47648 7.28913 6.89479
#
# Compressibility (1/GPa) = 0.02560008
#
# Stress axis : x y z
#
# Youngs Moduli (GPa) = 56.43480 83.88096 129.11391
#
# Poissons Ratio (x) = 0.32569 -0.00873
# Poissons Ratio (y) = 0.21912 0.26829
# Poissons Ratio (z) = -0.00381 0.17430
#
# Static dielectric constant tensor:
#      x y z
#    x 1.648620 0.000000 -0.017630 
#    y 0.000000 1.660080 0.000000 
#    z -0.017630 0.000000 1.688370 
# 
# From -- ./inp_files/318588.got.cif
#   From: 2010.05.17/outbox.ucp.g08.bks.cvg/sg12_160_cif.got.tgz:318588.got - 2010.06.11 11:47:21.
