data_PCOD9224274
_publ_section_title
;
Structure prediction by ZEFSAII (Michael W. Deem and Ramdas Pophale) SiO2 
 PCOD9224274
Probable space group: C 2/M
;
_chemical_formula_sum "Si O2"
_cell_formula_units_Z 32
_cell_length_a 15.000000
_cell_length_b 9.000000
_cell_length_c 30.000000
_cell_angle_alpha 90.000000
_cell_angle_beta 130.000000
_cell_angle_gamma 90.000000
_cell_volume 3102.479995
_symmetry_space_group_name_H-M "C 2/M"
_symmetry_group_IT_number 12
_symmetry_cell_setting 'monoclinic'
loop_
_space_group_symop_operation_xyz
x,y,z
-x,y,-z
-x,-y,-z
x,-y,z
1/2+x,1/2+y,z
1/2-x,1/2+y,-z
1/2-x,1/2-y,-z
1/2+x,1/2-y,z
loop_
_atom_site_type_symbol
_atom_site_label
_atom_site_fract_x
_atom_site_fract_y
_atom_site_fract_z
Si Si1 0.979746 0.820444 0.132597
Si Si2 0.055559 0.180874 0.063724
Si Si3 0.197629 0.827305 0.256326
Si Si4 0.176321 0.678221 0.841489
Si Si5 0.512383 0.326498 0.277283
Si Si6 0.633154 0.323582 0.543091
Si Si7 0.363062 0.677601 0.589069
Si Si8 0.399182 0.675553 0.367683
O O1 0.973724 0.780133 0.079076
O O2 0.111840 0.779068 0.189514
O O3 0.889690 0.741753 0.136215
O O4 0.970161 0.000000 0.135459
O O5 0.189331 0.227810 0.113935
O O6 0.058925 0.000000 0.063751
O O7 0.000000 0.234342 0.000000
O O8 0.112169 0.812132 0.271615
O O9 0.316843 0.744011 0.303967
O O10 0.225400 0.000000 0.259013
O O11 0.173387 0.500000 0.840682
O O12 0.099201 0.735332 0.775112
O O13 0.572809 0.288029 0.343287
O O14 0.979202 0.000000 0.268616
O O15 0.500000 0.267529 0.500000
O O16 0.628829 0.500000 0.531745
O O17 0.737356 0.253247 0.548525
O O18 0.661766 0.300137 0.604495
O O19 0.345270 0.500000 0.580019
O O20 0.465783 0.725867 0.588351
O O21 0.405665 0.500000 0.362347
#
# Coordination Sequence:
#
# PCOD9224274 Si02
#       8
#     8   8   8   8   8   8   8   8
#     4   9  19  36  55  77 109 147 179 221 277 326
#     4   9  19  36  56  78 108 148 189 224 267 327
#     4   9  17  31  53  78 107 140 177 217 265 327
#     4  10  20  33  54  83 108 137 183 229 267 319
#     4   9  18  34  54  77 111 145 173 216 276 330
#     4  10  22  40  58  79 112 148 182 225 272 317
#     4  10  21  37  56  81 109 142 182 222 269 325
#     4  10  21  35  54  81 110 141 178 223 271 315
#
# _framework density 10.314329000000001
#
# number of rings (size 3 to 8) (size 9 to 14) (size 15 to 20)
#    0.000    2.500    1.250    1.125    1.750    4.250 
#    0.000    1.250    0.000    2.625    0.000    0.000 
#    0.000    0.000    0.000    0.000    0.000    0.000 
#
# Total GULP energy -178512.415987 kJ/mol
# GULP energy per Si atom -5578.513000 kJ/mol
# Density = 1.029085 g / cm^3
# Si number density = 10.314329 Si / 1000 Ang^3
#
#
#
# Elastic Constant Matrix: (Units=GPa)
#
#
# Indices 1 2 3 4 5 6 
#
# 1 102.0197 29.0062 26.3759 0.0000 7.4098 0.0000
# 2 29.0062 7.9072 26.6149 0.0000 -0.7509 0.0000
# 3 26.3759 26.6149 57.3028 0.0000 0.5160 0.0000
# 4 0.0000 0.0000 0.0000 19.5356 0.0000 8.5379
# 5 7.4098 -0.7509 0.5160 0.0000 31.7581 0.0000
# 6 0.0000 0.0000 0.0000 8.5379 0.0000 16.2033
#
#
#
# Elastic Compliance Matrix: (Units=1/GPa)
#
#
# Indices 1 2 3 4 5 6 
#
# 1 0.006556 0.024817 -0.014538 0.000000 -0.000707 0.000000
# 2 0.024817 -0.129002 0.048580 0.000000 -0.009630 0.000000
# 3 -0.014538 0.048580 0.001539 0.000000 0.004516 0.000000
# 4 0.000000 0.000000 0.000000 0.066504 0.000000 -0.035042
# 5 -0.000707 -0.009630 0.004516 0.000000 0.031352 0.000000
# 6 0.000000 0.000000 0.000000 -0.035042 0.000000 0.080180
#
#
# Mechanical properties :
#
#
# Convention : Reuss Voigt Hill
#
# Bulk Modulus (GPa) = -313.60713 36.80263 -138.40225
# Shear Modulus (GPa) = -81.09878 19.18158 -30.95860
#
# Velocity S-wave (km/s) = -6.27686 3.05265 -3.87816
# Velocity P-wave (km/s) = 14.31387 5.50492 9.34299
#
# Compressibility (1/GPa) = -0.00318870
#
# Stress axis : x y z
#
# Youngs Moduli (GPa) = 152.53500 -7.75181 649.88338
#
# Poissons Ratio (x) = 0.19238 9.44800
# Poissons Ratio (y) = -3.78554 -31.57126
# Poissons Ratio (z) = 2.21755 0.37658
#
# Static dielectric constant tensor:
#      x y z
#    x 1.763320 0.000000 -0.044100 
#    y 0.000000 1.694420 0.000000 
#    z -0.044100 0.000000 1.778430 
# 
# From -- ./inp_files/359952.got.cif
#   From: 2010.05.17/outbox.ucp.g08.bks.cvg/sg12_180_cif.got.tgz:359952.got - 2010.06.11 11:47:21.
