data_PCOD9224094
_publ_section_title
;
Structure prediction by ZEFSAII (Michael W. Deem and Ramdas Pophale) SiO2 
 PCOD9224094
Probable space group: C 2/M
;
_chemical_formula_sum "Si O2"
_cell_formula_units_Z 28
_cell_length_a 21.000000
_cell_length_b 21.000000
_cell_length_c 18.000000
_cell_angle_alpha 90.000000
_cell_angle_beta 20.000000
_cell_angle_gamma 90.000000
_cell_volume 2714.955898
_symmetry_space_group_name_H-M "C 2/M"
_symmetry_group_IT_number 12
_symmetry_cell_setting 'monoclinic'
loop_
_space_group_symop_operation_xyz
x,y,z
-x,y,-z
-x,-y,-z
x,-y,z
1/2+x,1/2+y,z
1/2-x,1/2+y,-z
1/2-x,1/2-y,-z
1/2+x,1/2-y,z
loop_
_atom_site_type_symbol
_atom_site_label
_atom_site_fract_x
_atom_site_fract_y
_atom_site_fract_z
Si Si1 0.800906 0.075212 0.567160
Si Si2 0.054271 0.070582 0.747038
Si Si3 0.713021 0.192607 0.243532
Si Si4 0.247538 0.423577 0.318197
Si Si5 0.847649 0.608348 0.822042
Si Si6 0.883052 0.575030 0.956599
Si Si7 0.705316 0.841330 0.809244
O O1 0.912859 0.099141 0.371216
O O2 0.590534 0.074934 0.764556
O O3 0.820616 0.122502 0.616463
O O4 0.844979 0.000000 0.537076
O O5 0.143047 0.096320 0.725833
O O6 0.139741 0.000000 0.647653
O O7 0.834086 0.067302 0.995569
O O8 0.500000 0.195498 0.500000
O O9 0.785085 0.130586 0.213447
O O10 0.710607 0.173622 0.158324
O O11 0.779138 0.264891 0.190782
O O12 0.285095 0.500000 0.259557
O O13 0.030953 0.417471 0.579503
O O14 0.881059 0.604256 0.874829
O O15 0.823581 0.500000 0.017523
O O16 0.774476 0.618322 0.136274
O O17 0.500000 0.849056 0.000000
#
# Coordination Sequence:
#
# PCOD9224094 Si02
#       7
#     8   8   8   8   8   8   8
#     4   9  18  37  62  92 123 154 200 250 301 360
#     4  10  20  34  61  93 120 154 193 248 307 356
#     4  10  25  42  59  82 121 164 205 244 300 358
#     4  10  21  40  62  86 121 159 202 255 301 347
#     4  11  22  37  61  90 123 154 197 250 302 362
#     4  10  19  36  63  92 122 156 198 252 306 355
#     4  10  22  39  62  87 120 165 203 244 298 359
#
# _framework density 10.313243
#
# number of rings (size 3 to 8) (size 9 to 14) (size 15 to 20)
#    0.000    2.000    1.429    1.714    2.000    7.143 
#    0.000    3.571    0.000    3.429    0.000    0.000 
#    0.000    0.000    0.000    0.000    0.000    0.000 
#
# Total GULP energy -155924.697060 kJ/mol
# GULP energy per Si atom -5568.739181 kJ/mol
# Density = 1.028977 g / cm^3
# Si number density = 10.313243 Si / 1000 Ang^3
#
#
#
# Elastic Constant Matrix: (Units=GPa)
#
#
# Indices 1 2 3 4 5 6 
#
# 1 142.1961 76.6204 32.2729 0.0230 37.4812 0.0090
# 2 76.6204 132.5796 24.1816 0.0749 26.5104 0.0064
# 3 32.2729 24.1816 90.9913 0.0378 1.1927 0.0172
# 4 0.0230 0.0749 0.0378 15.6139 -0.0080 3.7034
# 5 37.4812 26.5104 1.1927 -0.0080 35.0101 -0.0180
# 6 0.0090 0.0064 0.0172 3.7034 -0.0180 31.1473
#
#
#
# Elastic Compliance Matrix: (Units=1/GPa)
#
#
# Indices 1 2 3 4 5 6 
#
# 1 0.013113 -0.004961 -0.003199 0.000009 -0.010174 -0.000008
# 2 -0.004961 0.011262 -0.001192 -0.000046 -0.003177 0.000003
# 3 -0.003199 -0.001192 0.012390 -0.000017 0.003906 -0.000001
# 4 0.000009 -0.000046 -0.000017 0.065904 0.000037 -0.007836
# 5 -0.010174 -0.003177 0.003906 0.000037 0.041727 0.000021
# 6 -0.000008 0.000003 -0.000001 -0.007836 0.000021 0.033037
#
#
# Mechanical properties :
#
#
# Convention : Reuss Voigt Hill
#
# Bulk Modulus (GPa) = 55.36478 70.21295 62.78887
# Shear Modulus (GPa) = 24.73304 31.86706 28.30005
#
# Velocity S-wave (km/s) = 3.46655 3.93486 3.70810
# Velocity P-wave (km/s) = 6.55152 7.39988 6.98859
#
# Compressibility (1/GPa) = 0.01806202
#
# Stress axis : x y z
#
# Youngs Moduli (GPa) = 76.25885 88.79373 80.70775
#
# Poissons Ratio (x) = 0.44047 0.25821
# Poissons Ratio (y) = 0.37829 0.09619
# Poissons Ratio (z) = 0.24398 0.10583
#
# Static dielectric constant tensor:
#      x y z
#    x 1.765990 -0.000020 0.011850 
#    y -0.000020 1.755260 0.000050 
#    z 0.011850 0.000050 1.825600 
# 
# From -- ./inp_files/286011.got.cif
#   From: 2010.05.17/outbox.ucp.g08.bks.cvg/sg12_144_cif.got.tgz:286011.got - 2010.06.11 11:47:21.
