data_PCOD9224283
_publ_section_title
;
Structure prediction by ZEFSAII (Michael W. Deem and Ramdas Pophale) SiO2 
 PCOD9224283
Probable space group: C 2/M
;
_chemical_formula_sum "Si O2"
_cell_formula_units_Z 29
_cell_length_a 27.000000
_cell_length_b 21.000000
_cell_length_c 15.000000
_cell_angle_alpha 90.000000
_cell_angle_beta 160.000000
_cell_angle_gamma 90.000000
_cell_volume 2908.881319
_symmetry_space_group_name_H-M "C 2/M"
_symmetry_group_IT_number 12
_symmetry_cell_setting 'monoclinic'
loop_
_space_group_symop_operation_xyz
x,y,z
-x,y,-z
-x,-y,-z
x,-y,z
1/2+x,1/2+y,z
1/2-x,1/2+y,-z
1/2-x,1/2-y,-z
1/2+x,1/2-y,z
loop_
_atom_site_type_symbol
_atom_site_label
_atom_site_fract_x
_atom_site_fract_y
_atom_site_fract_z
Si Si1 0.000000 0.500000 0.500000
Si Si2 0.170094 0.815141 0.986861
Si Si3 0.227861 0.924891 0.542607
Si Si4 0.884866 0.072247 0.968521
Si Si5 0.841430 0.374953 0.554069
Si Si6 0.334330 0.075274 0.919398
Si Si7 0.641643 0.879011 0.847028
Si Si8 0.092021 0.278854 0.481925
O O1 0.914174 0.443066 0.296495
O O2 0.251994 0.838016 0.036225
O O3 0.271889 0.770208 0.221683
O O4 0.148320 0.878178 0.009620
O O5 0.018374 0.779685 0.713309
O O6 0.301689 0.881668 0.591183
O O7 0.055122 0.923490 0.235767
O O8 0.274140 0.000000 0.611066
O O9 0.263058 0.904374 0.704188
O O10 0.850399 0.000000 0.938597
O O11 0.784830 0.089773 0.715259
O O12 0.859431 0.306963 0.533002
O O13 0.994561 0.410249 0.800255
O O14 0.290852 0.105773 0.940939
O O15 0.308708 0.000000 0.882793
O O16 0.500995 0.835659 0.629830
#
# Coordination Sequence:
#
# PCOD9224283 Si02
#       8
#     2   8   8   8   8   8   8   8
#     4  12  20  36  68 104 132 158 212 272 328 364
#     4  11  23  41  64  89 128 168 215 260 318 375
#     4  10  20  37  57  89 131 168 202 258 331 385
#     4  10  22  37  62  94 125 160 210 263 321 380
#     4  10  20  35  62  90 120 162 215 261 307 370
#     4  10  20  33  55  91 130 163 204 252 313 382
#     4  11  22  36  64  96 132 164 207 265 320 374
#     4  10  23  41  60  95 121 166 218 260 310 384
#
# _framework density 9.9694680000000009
#
# number of rings (size 3 to 8) (size 9 to 14) (size 15 to 20)
#    0.000    1.655    2.069    2.483    0.966    4.414 
#    0.000    2.759    0.000    7.448    0.000    0.000 
#    0.000    0.000    0.000    0.000    0.000    0.000 
#
# Total GULP energy -161774.676678 kJ/mol
# GULP energy per Si atom -5578.437127 kJ/mol
# Density = 0.994678 g / cm^3
# Si number density = 9.969468 Si / 1000 Ang^3
#
#
#
# Elastic Constant Matrix: (Units=GPa)
#
#
# Indices 1 2 3 4 5 6 
#
# 1 134.3351 29.9448 50.9071 0.0000 -24.5808 0.0000
# 2 29.9448 62.2299 36.3576 0.0000 -14.1523 0.0000
# 3 50.9071 36.3576 96.4030 0.0000 -19.1563 0.0000
# 4 0.0000 0.0000 0.0000 27.5027 0.0000 1.1238
# 5 -24.5808 -14.1523 -19.1563 0.0000 25.6839 0.0000
# 6 0.0000 0.0000 0.0000 1.1238 0.0000 23.1546
#
#
#
# Elastic Compliance Matrix: (Units=1/GPa)
#
#
# Indices 1 2 3 4 5 6 
#
# 1 0.010302 -0.001371 -0.003656 0.000000 0.006377 0.000000
# 2 -0.001371 0.021769 -0.006296 0.000000 0.005987 0.000000
# 3 -0.003656 -0.006296 0.015607 0.000000 0.004672 0.000000
# 4 0.000000 0.000000 0.000000 0.036432 0.000000 -0.001768
# 5 0.006377 0.005987 0.004672 0.000000 0.051822 0.000000
# 6 0.000000 0.000000 0.000000 -0.001768 0.000000 0.043274
#
#
# Mechanical properties :
#
#
# Convention : Reuss Voigt Hill
#
# Bulk Modulus (GPa) = 39.94976 58.59854 49.27415
# Shear Modulus (GPa) = 23.78726 26.98548 25.38637
#
# Velocity S-wave (km/s) = 3.45774 3.68286 3.57207
# Velocity P-wave (km/s) = 6.00173 6.89474 6.46368
#
# Compressibility (1/GPa) = 0.02503144
#
# Stress axis : x y z
#
# Youngs Moduli (GPa) = 97.06825 45.93594 64.07521
#
# Poissons Ratio (x) = 0.06298 0.23425
# Poissons Ratio (y) = 0.13309 0.40345
# Poissons Ratio (z) = 0.35486 0.28923
#
# Static dielectric constant tensor:
#      x y z
#    x 1.725170 0.000000 -0.000380 
#    y 0.000000 1.710130 0.000000 
#    z -0.000380 0.000000 1.710720 
# 
# From -- ./inp_files/247291.got.cif
#   From: 2010.05.17/outbox.ucp.g08.bks.cvg/sg12_124_cif.got.tgz:247291.got - 2010.06.11 11:47:21.
