data_PCOD9224605
_publ_section_title
;
Structure prediction by ZEFSAII (Michael W. Deem and Ramdas Pophale) SiO2 
 PCOD9224605
Probable space group: C 2/M
;
_chemical_formula_sum "Si O2"
_cell_formula_units_Z 28
_cell_length_a 30.000000
_cell_length_b 9.000000
_cell_length_c 21.000000
_cell_angle_alpha 90.000000
_cell_angle_beta 30.000000
_cell_angle_gamma 90.000000
_cell_volume 2835.000000
_symmetry_space_group_name_H-M "C 2/M"
_symmetry_group_IT_number 12
_symmetry_cell_setting 'monoclinic'
loop_
_space_group_symop_operation_xyz
x,y,z
-x,y,-z
-x,-y,-z
x,-y,z
1/2+x,1/2+y,z
1/2-x,1/2+y,-z
1/2-x,1/2-y,-z
1/2+x,1/2-y,z
loop_
_atom_site_type_symbol
_atom_site_label
_atom_site_fract_x
_atom_site_fract_y
_atom_site_fract_z
Si Si1 0.296503 0.177691 0.003345
Si Si2 0.198689 0.174234 0.733336
Si Si3 0.094545 0.325405 0.558252
Si Si4 0.424176 0.332058 0.541193
Si Si5 0.253797 0.175711 0.802000
Si Si6 0.490414 0.179568 0.805415
Si Si7 0.034965 0.321942 0.888784
O O1 0.260511 0.235347 0.115649
O O2 0.287729 0.000000 0.010648
O O3 0.250000 0.250000 0.000000
O O4 0.400561 0.219128 0.879484
O O5 0.300809 0.187735 0.585209
O O6 0.194212 0.218203 0.813918
O O7 0.137850 0.276394 0.765153
O O8 0.173798 0.000000 0.759307
O O9 0.070047 0.500000 0.581050
O O10 0.046219 0.227365 0.564325
O O11 0.070219 0.278316 0.659717
O O12 0.500000 0.337160 0.500000
O O13 0.386702 0.500000 0.581116
O O14 0.351893 0.216194 0.656165
O O15 0.243768 0.000000 0.825045
O O16 0.494833 0.237069 0.872163
O O17 0.491088 0.000000 0.810170
O O18 0.023499 0.500000 0.903700
O O19 0.000000 0.262427 0.000000
#
# Coordination Sequence:
#
# PCOD9224605 Si02
#       7
#     8   8   8   8   8   8   8
#     4  11  23  39  59  84 115 152 194 242 292 343
#     4   9  19  35  56  83 113 144 186 237 288 339
#     4   9  19  37  57  79 112 154 194 231 280 351
#     4  10  21  35  54  83 113 142 184 243 293 337
#     4  10  21  38  58  81 111 151 192 231 283 347
#     4   9  20  38  58  82 114 154 195 235 283 347
#     4  10  20  35  58  85 112 148 194 236 282 342
#
# _framework density 9.8765429999999999
#
# number of rings (size 3 to 8) (size 9 to 14) (size 15 to 20)
#    0.000    2.286    0.000    3.000    2.000    6.000 
#    0.000    2.857    0.000    0.000    0.000    0.000 
#    0.000    0.000    0.000    0.000    0.000    0.000 
#
# Total GULP energy -156056.924910 kJ/mol
# GULP energy per Si atom -5573.461604 kJ/mol
# Density = 0.985406 g / cm^3
# Si number density = 9.876543 Si / 1000 Ang^3
#
#
#
# Elastic Constant Matrix: (Units=GPa)
#
#
# Indices 1 2 3 4 5 6 
#
# 1 115.9852 24.9457 44.4464 0.0012 16.1209 -0.0010
# 2 24.9457 21.4470 9.7129 -0.0004 3.4707 0.0001
# 3 44.4464 9.7129 68.9603 0.0005 26.3406 -0.0010
# 4 0.0012 -0.0004 0.0005 17.5854 -0.0008 -1.3593
# 5 16.1209 3.4707 26.3406 -0.0008 24.8073 0.0004
# 6 -0.0010 0.0001 -0.0010 -1.3593 0.0004 28.8564
#
#
#
# Elastic Compliance Matrix: (Units=1/GPa)
#
#
# Indices 1 2 3 4 5 6 
#
# 1 0.014302 -0.013302 -0.007579 -0.000001 0.000614 0.000000
# 2 -0.013302 0.062185 -0.000276 0.000002 0.000237 -0.000001
# 3 -0.007579 -0.000276 0.029489 -0.000001 -0.026348 0.000001
# 4 -0.000001 0.000002 -0.000001 0.057073 0.000004 0.002688
# 5 0.000614 0.000237 -0.026348 0.000004 0.067854 -0.000002
# 6 0.000000 -0.000001 0.000001 0.002688 -0.000002 0.034781
#
#
# Mechanical properties :
#
#
# Convention : Reuss Voigt Hill
#
# Bulk Modulus (GPa) = 15.70796 40.51141 28.10968
# Shear Modulus (GPa) = 15.18754 22.73564 18.96159
#
# Velocity S-wave (km/s) = 2.77586 3.39631 3.10164
# Velocity P-wave (km/s) = 4.27121 5.99444 5.20464
#
# Compressibility (1/GPa) = 0.06366200
#
# Stress axis : x y z
#
# Youngs Moduli (GPa) = 69.92248 16.08110 33.91138
#
# Poissons Ratio (x) = 0.21391 0.25701
# Poissons Ratio (y) = 0.93009 0.00936
# Poissons Ratio (z) = 0.52993 0.00444
#
# Static dielectric constant tensor:
#      x y z
#    x 1.705410 0.000000 -0.006050 
#    y 0.000000 1.672780 0.000000 
#    z -0.006050 0.000000 1.766550 
# 
# From -- ./inp_files/329471.got.cif
#   From: 2010.05.17/outbox.ucp.g08.bks.cvg/sg12_165_cif.got.tgz:329471.got - 2010.06.11 11:47:21.
