data_PCOD9224151
_publ_section_title
;
Structure prediction by ZEFSAII (Michael W. Deem and Ramdas Pophale) SiO2 
 PCOD9224151
Probable space group: C 2/M
;
_chemical_formula_sum "Si O2"
_cell_formula_units_Z 32
_cell_length_a 18.000000
_cell_length_b 9.000000
_cell_length_c 30.000000
_cell_angle_alpha 90.000000
_cell_angle_beta 40.000000
_cell_angle_gamma 90.000000
_cell_volume 3123.947783
_symmetry_space_group_name_H-M "C 2/M"
_symmetry_group_IT_number 12
_symmetry_cell_setting 'monoclinic'
loop_
_space_group_symop_operation_xyz
x,y,z
-x,y,-z
-x,-y,-z
x,-y,z
1/2+x,1/2+y,z
1/2-x,1/2+y,-z
1/2-x,1/2-y,-z
1/2+x,1/2-y,z
loop_
_atom_site_type_symbol
_atom_site_label
_atom_site_fract_x
_atom_site_fract_y
_atom_site_fract_z
Si Si1 0.972411 0.671479 0.565523
Si Si2 0.085254 0.677116 0.041726
Si Si3 0.683752 0.178219 0.093274
Si Si4 0.104748 0.323594 0.226020
Si Si5 0.877984 0.176782 0.336202
Si Si6 0.802277 0.826088 0.518732
Si Si7 0.713945 0.320706 0.713842
Si Si8 0.650426 0.321812 0.840659
O O1 0.991550 0.500000 0.571819
O O2 0.064194 0.784630 0.542617
O O3 0.000000 0.671406 0.500000
O O4 0.844212 0.716623 0.639072
O O5 0.084534 0.500000 0.038024
O O6 0.115672 0.717622 0.079380
O O7 0.961190 0.744332 0.087497
O O8 0.191155 0.745722 0.965726
O O9 0.618164 0.220311 0.168248
O O10 0.699551 0.000000 0.086292
O O11 0.082073 0.500000 0.239513
O O12 0.229186 0.294490 0.190079
O O13 0.999287 0.238880 0.297548
O O14 0.766879 0.249658 0.409530
O O15 0.868454 0.219652 0.288799
O O16 0.871045 0.000000 0.344350
O O17 0.750000 0.750000 0.500000
O O18 0.783394 0.000000 0.528169
O O19 0.714024 0.500000 0.717097
O O20 0.671053 0.264443 0.780844
O O21 0.630833 0.500000 0.849334
#
# Coordination Sequence:
#
# PCOD9224151 Si02
#       8
#     8   8   8   8   8   8   8   8
#     4  10  19  38  64  88 119 155 195 244 296 352
#     4  10  20  35  58  85 112 146 194 243 288 338
#     4   9  19  37  59  83 115 152 190 236 288 341
#     4  10  22  38  57  85 118 154 194 239 289 346
#     4  11  22  40  62  86 116 155 197 240 292 348
#     4  12  26  42  61  88 120 156 199 246 300 357
#     4   9  19  36  60  86 114 153 194 233 286 350
#     4  10  21  37  57  83 116 154 192 229 285 352
#
# _framework density 10.243449
#
# number of rings (size 3 to 8) (size 9 to 14) (size 15 to 20)
#    0.000    1.875    1.250    2.625    1.750    2.250 
#    0.000    3.750    0.000    0.000    0.000    0.000 
#    0.000    0.000    0.000    0.000    0.000    0.000 
#
# Total GULP energy -178635.308304 kJ/mol
# GULP energy per Si atom -5582.353385 kJ/mol
# Density = 1.022013 g / cm^3
# Si number density = 10.243449 Si / 1000 Ang^3
#
#
#
# Elastic Constant Matrix: (Units=GPa)
#
#
# Indices 1 2 3 4 5 6 
#
# 1 40.2982 34.9414 29.5356 0.0001 -14.1569 0.0008
# 2 34.9414 25.9499 29.5742 0.0003 -10.4962 0.0019
# 3 29.5356 29.5742 83.2882 0.0000 -30.5018 -0.0001
# 4 0.0001 0.0003 0.0000 27.2843 0.0000 -7.7077
# 5 -14.1569 -10.4962 -30.5018 0.0000 31.1923 0.0001
# 6 0.0008 0.0019 -0.0001 -7.7077 0.0001 19.9170
#
#
#
# Elastic Compliance Matrix: (Units=1/GPa)
#
#
# Indices 1 2 3 4 5 6 
#
# 1 -0.103820 0.164773 -0.029043 -0.000005 -0.020074 -0.000013
# 2 0.164773 -0.196756 0.022704 0.000006 0.030777 0.000014
# 3 -0.029043 0.022704 0.019029 0.000000 0.013066 -0.000001
# 4 -0.000005 0.000006 0.000000 0.041150 -0.000001 0.015925
# 5 -0.020074 0.030777 0.013066 -0.000001 0.046082 -0.000003
# 6 -0.000013 0.000014 -0.000001 0.015925 -0.000003 0.056371
#
#
# Mechanical properties :
#
#
# Convention : Reuss Voigt Hill
#
# Bulk Modulus (GPa) = 28.31167 37.51541 32.91354
# Shear Modulus (GPa) = -11.28567 19.37772 4.04602
#
# Velocity S-wave (km/s) = -2.34961 3.07882 1.40685
# Velocity P-wave (km/s) = 2.54725 5.56691 4.32891
#
# Compressibility (1/GPa) = 0.03532112
#
# Stress axis : x y z
#
# Youngs Moduli (GPa) = -9.63205 -5.08243 52.55188
#
# Poissons Ratio (x) = 0.83745 1.52625
# Poissons Ratio (y) = 1.58710 -1.19316
# Poissons Ratio (z) = -0.27974 0.11539
#
# Static dielectric constant tensor:
#      x y z
#    x 1.760750 0.000000 0.048790 
#    y 0.000000 1.674260 0.000000 
#    z 0.048790 0.000000 1.635920 
# 
# From -- ./inp_files/378020.got.cif
#   From: 2010.05.17/outbox.ucp.g08.bks.cvg/sg12_190_cif.got.tgz:378020.got - 2010.06.11 11:47:21.
