data_PCOD9224693
_publ_section_title
;
Structure prediction by ZEFSAII (Michael W. Deem and Ramdas Pophale) SiO2 
 PCOD9224693
Probable space group: C 2/M
;
_chemical_formula_sum "Si O2"
_cell_formula_units_Z 32
_cell_length_a 15.000000
_cell_length_b 9.000000
_cell_length_c 24.000000
_cell_angle_alpha 90.000000
_cell_angle_beta 90.000000
_cell_angle_gamma 90.000000
_cell_volume 3240.000000
_symmetry_space_group_name_H-M "C 2/M"
_symmetry_group_IT_number 12
_symmetry_cell_setting 'monoclinic'
loop_
_space_group_symop_operation_xyz
x,y,z
-x,y,-z
-x,-y,-z
x,-y,z
1/2+x,1/2+y,z
1/2-x,1/2+y,-z
1/2-x,1/2-y,-z
1/2+x,1/2-y,z
loop_
_atom_site_type_symbol
_atom_site_label
_atom_site_fract_x
_atom_site_fract_y
_atom_site_fract_z
Si Si1 0.253175 0.675194 0.421060
Si Si2 0.759488 0.679955 0.095867
Si Si3 0.397766 0.179122 0.490046
Si Si4 0.016629 0.172971 0.249588
Si Si5 0.671192 0.178035 0.780404
Si Si6 0.181063 0.675371 0.296946
Si Si7 0.565042 0.673828 0.123016
Si Si8 0.566913 0.178425 0.953099
O O1 0.267599 0.500000 0.431530
O O2 0.344471 0.758587 0.436704
O O3 0.170016 0.723325 0.460115
O O4 0.221190 0.694278 0.358292
O O5 0.754299 0.500000 0.092464
O O6 0.802774 0.715210 0.155848
O O7 0.657574 0.731601 0.096666
O O8 0.831326 0.733318 0.050347
O O9 0.500000 0.229214 0.500000
O O10 0.399970 0.000000 0.487187
O O11 0.081626 0.259348 0.291278
O O12 0.066853 0.178792 0.189677
O O13 0.920266 0.246085 0.239823
O O14 0.006382 0.000000 0.264978
O O15 0.752554 0.237471 0.743621
O O16 0.663260 0.000000 0.776451
O O17 0.179693 0.500000 0.283253
O O18 0.551260 0.500000 0.107549
O O19 0.483919 0.773475 0.102582
O O20 0.569953 0.000000 0.957599
O O21 0.500000 0.238190 0.000000
#
# Coordination Sequence:
#
# PCOD9224693 Si02
#       8
#     8   8   8   8   8   8   8   8
#     4   9  20  37  55  82 118 150 186 235 285 331
#     4   9  18  35  56  78 107 142 179 225 281 336
#     4   9  18  35  60  85 111 149 194 232 276 337
#     4  11  22  37  57  85 114 149 195 237 285 347
#     4  11  21  37  59  82 111 151 192 238 291 341
#     4  11  23  38  56  84 122 157 193 240 287 340
#     4  10  20  36  57  79 107 143 183 228 278 337
#     4  10  21  37  57  82 111 143 182 229 283 344
#
# _framework density 9.8765429999999999
#
# number of rings (size 3 to 8) (size 9 to 14) (size 15 to 20)
#    0.000    2.000    2.500    1.125    0.000    3.500 
#    0.000    1.875    0.000    0.000    0.000    0.000 
#    0.000    0.000    0.000    0.000    0.000    0.000 
#
# Total GULP energy -178526.169361 kJ/mol
# GULP energy per Si atom -5578.942793 kJ/mol
# Density = 0.985406 g / cm^3
# Si number density = 9.876543 Si / 1000 Ang^3
#
#
#
# Elastic Constant Matrix: (Units=GPa)
#
#
# Indices 1 2 3 4 5 6 
#
# 1 114.6790 0.2600 -2.2088 0.0000 3.5403 0.0000
# 2 0.2600 14.4481 6.4660 0.0000 -2.6305 0.0000
# 3 -2.2088 6.4660 18.8722 0.0000 3.4674 0.0000
# 4 0.0000 0.0000 0.0000 18.9660 0.0000 2.3724
# 5 3.5403 -2.6305 3.4674 0.0000 18.7743 0.0000
# 6 0.0000 0.0000 0.0000 2.3724 0.0000 28.2495
#
#
#
# Elastic Compliance Matrix: (Units=1/GPa)
#
#
# Indices 1 2 3 4 5 6 
#
# 1 0.008829 -0.001427 0.001931 0.000000 -0.002221 0.000000
# 2 -0.001427 0.087729 -0.033675 0.000000 0.018781 0.000000
# 3 0.001931 -0.033675 0.067993 0.000000 -0.017640 0.000000
# 4 0.000000 0.000000 0.000000 0.053286 0.000000 -0.004475
# 5 -0.002221 0.018781 -0.017640 0.000000 0.059573 0.000000
# 6 0.000000 0.000000 0.000000 -0.004475 0.000000 0.035775
#
#
# Mechanical properties :
#
#
# Convention : Reuss Voigt Hill
#
# Bulk Modulus (GPa) = 10.18264 17.44820 13.81542
# Shear Modulus (GPa) = 12.12817 22.76343 17.44580
#
# Velocity S-wave (km/s) = 2.48057 3.39838 2.97508
# Velocity P-wave (km/s) = 3.65656 4.92453 4.33713
#
# Compressibility (1/GPa) = 0.09820634
#
# Stress axis : x y z
#
# Youngs Moduli (GPa) = 113.26325 11.39876 14.70743
#
# Poissons Ratio (x) = 0.01627 -0.02839
# Poissons Ratio (y) = 0.16166 0.49528
# Poissons Ratio (z) = -0.21866 0.38386
#
# Static dielectric constant tensor:
#      x y z
#    x 1.688950 0.000000 -0.023140 
#    y 0.000000 1.661600 0.000000 
#    z -0.023140 0.000000 1.744740 
# 
# From -- ./inp_files/338803.got.cif
#   From: 2010.05.17/outbox.ucp.g08.bks.cvg/sg12_170_cif.got.tgz:338803.got - 2010.06.11 11:47:21.
