data_PCOD9224865
_publ_section_title
;
Structure prediction by ZEFSAII (Michael W. Deem and Ramdas Pophale) SiO2 
 PCOD9224865
Probable space group: C 2/M
;
_chemical_formula_sum "Si O2"
_cell_formula_units_Z 28
_cell_length_a 18.000000
_cell_length_b 9.000000
_cell_length_c 27.000000
_cell_angle_alpha 90.000000
_cell_angle_beta 140.000000
_cell_angle_gamma 90.000000
_cell_volume 2811.553005
_symmetry_space_group_name_H-M "C 2/M"
_symmetry_group_IT_number 12
_symmetry_cell_setting 'monoclinic'
loop_
_space_group_symop_operation_xyz
x,y,z
-x,y,-z
-x,-y,-z
x,-y,z
1/2+x,1/2+y,z
1/2-x,1/2+y,-z
1/2-x,1/2-y,-z
1/2+x,1/2-y,z
loop_
_atom_site_type_symbol
_atom_site_label
_atom_site_fract_x
_atom_site_fract_y
_atom_site_fract_z
Si Si1 0.811266 0.320926 0.452631
Si Si2 0.698754 0.172305 0.868840
Si Si3 0.170901 0.826492 0.751357
Si Si4 0.958909 0.173955 0.032293
Si Si5 0.005853 0.823621 0.838560
Si Si6 0.259575 0.823887 0.316569
Si Si7 0.591721 0.326162 0.406146
O O1 0.816532 0.500000 0.454277
O O2 0.814448 0.271408 0.396937
O O3 0.690892 0.276206 0.418370
O O4 0.903500 0.259472 0.539110
O O5 0.715765 0.245478 0.823441
O O6 0.820462 0.180303 0.959563
O O7 0.600864 0.248431 0.852271
O O8 0.669266 0.000000 0.846221
O O9 0.205714 0.757144 0.716343
O O10 0.032061 0.813258 0.682123
O O11 0.202733 0.000000 0.768810
O O12 0.997669 0.000000 0.051595
O O13 0.997085 0.233817 0.105660
O O14 0.000000 0.238208 0.000000
O O15 0.879025 0.807557 0.750382
O O16 0.032290 0.000000 0.854695
O O17 0.284966 0.000000 0.324053
O O18 0.613481 0.500000 0.427996
#
# Coordination Sequence:
#
# PCOD9224865 Si02
#       7
#     8   8   8   8   8   8   8
#     4   9  18  34  56  80 106 138 178 223 270 322
#     4  11  22  36  57  84 112 143 185 230 270 321
#     4  11  23  38  56  79 110 146 184 227 276 327
#     4   9  18  34  57  83 111 146 184 221 267 322
#     4  10  20  37  60  82 111 149 184 222 270 323
#     4  10  21  37  57  81 110 145 184 225 272 326
#     4   9  19  36  56  78 105 140 181 222 269 325
#
# _framework density 9.9589090000000002
#
# number of rings (size 3 to 8) (size 9 to 14) (size 15 to 20)
#    0.000    2.143    0.000    3.000    0.000    7.429 
#    0.000    6.429    0.000    3.000    0.000    0.000 
#    0.000    0.000    0.000    0.000    0.000    0.000 
#
# Total GULP energy -156263.910484 kJ/mol
# GULP energy per Si atom -5580.853946 kJ/mol
# Density = 0.993624 g / cm^3
# Si number density = 9.958909 Si / 1000 Ang^3
#
#
#
# Elastic Constant Matrix: (Units=GPa)
#
#
# Indices 1 2 3 4 5 6 
#
# 1 49.7303 6.4081 -9.6687 0.0000 -19.3154 0.0000
# 2 6.4081 33.2785 13.0163 0.0000 -4.5393 0.0000
# 3 -9.6687 13.0163 54.7753 0.0000 -30.4904 0.0000
# 4 0.0000 0.0000 0.0000 21.5711 0.0000 -4.5612
# 5 -19.3154 -4.5393 -30.4904 0.0000 39.8416 0.0000
# 6 0.0000 0.0000 0.0000 -4.5612 0.0000 35.9458
#
#
#
# Elastic Compliance Matrix: (Units=1/GPa)
#
#
# Indices 1 2 3 4 5 6 
#
# 1 0.059437 -0.023142 0.053246 0.000000 0.066927 0.000000
# 2 -0.023142 0.042494 -0.030894 0.000000 -0.030020 0.000000
# 3 0.053246 -0.030894 0.082588 0.000000 0.085498 0.000000
# 4 0.000000 0.000000 0.000000 0.047636 0.000000 0.006045
# 5 0.066927 -0.030020 0.085498 0.000000 0.119557 0.000000
# 6 0.000000 0.000000 0.000000 0.006045 0.000000 0.028587
#
#
# Mechanical properties :
#
#
# Convention : Reuss Voigt Hill
#
# Bulk Modulus (GPa) = 5.46628 17.47728 11.47178
# Shear Modulus (GPa) = 11.29026 28.00693 19.64859
#
# Velocity S-wave (km/s) = 2.38343 3.75390 3.14424
# Velocity P-wave (km/s) = 3.21320 5.25193 4.35359
#
# Compressibility (1/GPa) = 0.18293977
#
# Stress axis : x y z
#
# Youngs Moduli (GPa) = 16.82445 23.53264 12.10824
#
# Poissons Ratio (x) = 0.54459 -0.64471
# Poissons Ratio (y) = 0.38935 0.37407
# Poissons Ratio (z) = -0.89583 0.72701
#
# Static dielectric constant tensor:
#      x y z
#    x 1.702470 0.000000 0.012820 
#    y 0.000000 1.693660 0.000000 
#    z 0.012820 0.000000 1.706660 
# 
# From -- ./inp_files/342505.got.cif
#   From: 2010.05.17/outbox.ucp.g08.bks.cvg/sg12_172_cif.got.tgz:342505.got - 2010.06.11 11:47:21.
