data_PCOD9224984
_publ_section_title
;
Structure prediction by ZEFSAII (Michael W. Deem and Ramdas Pophale) SiO2 
 PCOD9224984
Probable space group: C 2/M
;
_chemical_formula_sum "Si O2"
_cell_formula_units_Z 28
_cell_length_a 27.000000
_cell_length_b 18.000000
_cell_length_c 18.000000
_cell_angle_alpha 90.000000
_cell_angle_beta 20.000000
_cell_angle_gamma 90.000000
_cell_volume 2991.992214
_symmetry_space_group_name_H-M "C 2/M"
_symmetry_group_IT_number 12
_symmetry_cell_setting 'monoclinic'
loop_
_space_group_symop_operation_xyz
x,y,z
-x,y,-z
-x,-y,-z
x,-y,z
1/2+x,1/2+y,z
1/2-x,1/2+y,-z
1/2-x,1/2-y,-z
1/2+x,1/2-y,z
loop_
_atom_site_type_symbol
_atom_site_label
_atom_site_fract_x
_atom_site_fract_y
_atom_site_fract_z
Si Si1 0.397309 0.338386 0.318017
Si Si2 0.612562 0.088685 0.117780
Si Si3 0.051512 0.086062 0.612390
Si Si4 0.156891 0.162328 0.314458
Si Si5 0.725432 0.910596 0.117059
Si Si6 0.831716 0.319021 0.488131
Si Si7 0.727675 0.678487 0.806813
O O1 0.374244 0.401775 0.412343
O O2 0.287917 0.342182 0.403659
O O3 0.375414 0.263697 0.398693
O O4 0.557697 0.338939 0.056876
O O5 0.628784 0.110608 0.182143
O O6 0.471765 0.129178 0.285304
O O7 0.600434 0.000000 0.132340
O O8 0.749777 0.113178 0.874561
O O9 0.127519 0.126252 0.436529
O O10 0.042637 0.000000 0.605210
O O11 0.887042 0.112345 0.861291
O O12 0.240468 0.238707 0.209988
O O13 0.000000 0.176333 0.500000
O O14 0.695940 0.874478 0.238916
O O15 0.723105 0.000000 0.128217
O O16 0.775919 0.324568 0.652360
#
# Coordination Sequence:
#
# PCOD9224984 Si02
#       7
#     8   8   8   8   8   8   8
#     4  10  22  42  63  86 120 163 206 257 308 360
#     4  11  24  41  61  92 131 164 203 252 312 372
#     4  10  20  38  62  90 121 159 206 252 304 361
#     4  12  23  36  63  97 129 162 205 250 309 379
#     4   9  21  39  60  87 125 166 202 250 305 363
#     4  11  23  40  63  87 122 162 206 257 306 362
#     4  11  23  39  65  93 122 160 210 256 310 371
#
# _framework density 9.3583130000000008
#
# number of rings (size 3 to 8) (size 9 to 14) (size 15 to 20)
#    0.000    1.429    4.286    0.857    2.000    2.286 
#    0.000    2.143    0.000    6.000    0.000    0.000 
#    0.000    0.000    0.000    0.000    0.000    0.000 
#
# Total GULP energy -156249.327862 kJ/mol
# GULP energy per Si atom -5580.333138 kJ/mol
# Density = 0.933701 g / cm^3
# Si number density = 9.358313 Si / 1000 Ang^3
#
#
#
# Elastic Constant Matrix: (Units=GPa)
#
#
# Indices 1 2 3 4 5 6 
#
# 1 122.9690 33.3648 36.5323 -0.0002 12.2826 0.0001
# 2 33.3648 31.7141 -0.8745 -0.0001 -4.5716 -0.0003
# 3 36.5323 -0.8745 48.1628 0.0003 3.7034 -0.0004
# 4 -0.0002 -0.0001 0.0003 19.2522 -0.0001 4.4880
# 5 12.2826 -4.5716 3.7034 -0.0001 39.3686 0.0000
# 6 0.0001 -0.0003 -0.0004 4.4880 0.0000 26.6453
#
#
#
# Elastic Compliance Matrix: (Units=1/GPa)
#
#
# Indices 1 2 3 4 5 6 
#
# 1 0.018725 -0.021092 -0.014051 0.000000 -0.006970 -0.000001
# 2 -0.021092 0.055831 0.016125 0.000000 0.011547 0.000001
# 3 -0.014051 0.016125 0.031460 -0.000001 0.003297 0.000001
# 4 0.000000 0.000000 -0.000001 0.054065 0.000000 -0.009106
# 5 -0.006970 0.011547 0.003297 0.000000 0.028606 0.000000
# 6 -0.000001 0.000001 0.000001 -0.009106 0.000000 0.039064
#
#
# Mechanical properties :
#
#
# Convention : Reuss Voigt Hill
#
# Bulk Modulus (GPa) = 14.71024 37.87678 26.29351
# Shear Modulus (GPa) = 17.33419 25.97478 21.65449
#
# Velocity S-wave (km/s) = 3.04655 3.72935 3.40511
# Velocity P-wave (km/s) = 4.50020 6.23097 5.43492
#
# Compressibility (1/GPa) = 0.06797986
#
# Stress axis : x y z
#
# Youngs Moduli (GPa) = 53.40349 17.91125 31.78658
#
# Poissons Ratio (x) = 0.37779 0.44662
# Poissons Ratio (y) = 1.12639 -0.51255
# Poissons Ratio (z) = 0.75035 -0.28881
#
# Static dielectric constant tensor:
#      x y z
#    x 1.650810 0.000000 -0.026570 
#    y 0.000000 1.653710 0.000000 
#    z -0.026570 0.000000 1.639310 
# 
# From -- ./inp_files/293855.got.cif
#   From: 2010.05.17/outbox.ucp.g08.bks.cvg/sg12_147_cif.got.tgz:293855.got - 2010.06.11 11:47:21.
