data_PCOD9224710
_publ_section_title
;
Structure prediction by ZEFSAII (Michael W. Deem and Ramdas Pophale) SiO2 
 PCOD9224710
Probable space group: C 2/M
;
_chemical_formula_sum "Si O2"
_cell_formula_units_Z 32
_cell_length_a 21.000000
_cell_length_b 9.000000
_cell_length_c 24.000000
_cell_angle_alpha 90.000000
_cell_angle_beta 130.000000
_cell_angle_gamma 90.000000
_cell_volume 3474.777594
_symmetry_space_group_name_H-M "C 2/M"
_symmetry_group_IT_number 12
_symmetry_cell_setting 'monoclinic'
loop_
_space_group_symop_operation_xyz
x,y,z
-x,y,-z
-x,-y,-z
x,-y,z
1/2+x,1/2+y,z
1/2-x,1/2+y,-z
1/2-x,1/2-y,-z
1/2+x,1/2-y,z
loop_
_atom_site_type_symbol
_atom_site_label
_atom_site_fract_x
_atom_site_fract_y
_atom_site_fract_z
Si Si1 0.614945 0.329482 0.808143
Si Si2 0.340953 0.821099 0.779641
Si Si3 0.070983 0.332254 0.491541
Si Si4 0.063936 0.167252 0.989365
Si Si5 0.973040 0.323498 0.139197
Si Si6 0.729471 0.334971 0.151842
Si Si7 0.814689 0.823181 0.365434
Si Si8 0.951841 0.170486 0.352556
O O1 0.632706 0.500000 0.832280
O O2 0.564569 0.253139 0.828461
O O3 0.698309 0.242277 0.841513
O O4 0.566582 0.325493 0.722457
O O5 0.433311 0.770406 0.820045
O O6 0.301580 0.760680 0.813825
O O7 0.278272 0.771150 0.696459
O O8 0.341937 0.000000 0.783326
O O9 0.097320 0.500000 0.500357
O O10 0.144812 0.235203 0.556256
O O11 0.000000 0.324065 0.500000
O O12 0.028297 0.270432 0.412944
O O13 0.073388 0.272654 0.942353
O O14 0.034844 0.000000 0.956674
O O15 0.151068 0.153193 0.068004
O O16 0.000000 0.225890 0.000000
O O17 0.971981 0.500000 0.145238
O O18 0.755128 0.500000 0.185000
O O19 0.871976 0.779587 0.344329
O O20 0.814869 0.000000 0.365967
O O21 0.968680 0.000000 0.379111
#
# Coordination Sequence:
#
# PCOD9224710 Si02
#       8
#     8   8   8   8   8   8   8   8
#     4  11  23  40  59  81 115 152 189 231 280 337
#     4  10  20  36  57  83 114 147 186 230 279 333
#     4   9  17  27  43  75 112 141 174 224 277 317
#     4  10  21  39  60  84 114 148 185 228 281 336
#     4  11  24  39  59  86 114 147 189 233 281 334
#     4  11  22  36  60  87 112 144 187 233 279 331
#     4   9  16  30  51  76 107 142 182 223 269 329
#     4   9  17  31  52  75 103 146 185 218 270 333
#
# _framework density 9.2092220000000005
#
# number of rings (size 3 to 8) (size 9 to 14) (size 15 to 20)
#    0.000    2.000    2.500    1.500    0.000    5.250 
#    0.000    0.000    0.000    0.750    0.000    0.000 
#    0.000    0.000    0.000    0.000    0.000    0.000 
#
# Total GULP energy -178283.427848 kJ/mol
# GULP energy per Si atom -5571.357120 kJ/mol
# Density = 0.918826 g / cm^3
# Si number density = 9.209222 Si / 1000 Ang^3
#
#
#
# Elastic Constant Matrix: (Units=GPa)
#
#
# Indices 1 2 3 4 5 6 
#
# 1 101.7410 19.8839 18.0805 0.0000 -3.6600 0.0000
# 2 19.8839 -22.5171 8.9974 0.0000 -2.1568 0.0000
# 3 18.0805 8.9974 53.0755 0.0000 15.1169 0.0000
# 4 0.0000 0.0000 0.0000 -108.4000 0.0000 32.3231
# 5 -3.6600 -2.1568 15.1169 0.0000 8.1754 0.0000
# 6 0.0000 0.0000 0.0000 32.3231 0.0000 12.0444
#
#
#
# Elastic Compliance Matrix: (Units=1/GPa)
#
#
# Indices 1 2 3 4 5 6 
#
# 1 0.013027 0.002656 -0.014257 0.000000 0.032895 0.000000
# 2 0.002656 -0.033018 0.014439 0.000000 -0.034222 0.000000
# 3 -0.014257 0.014439 0.046442 0.000000 -0.088448 0.000000
# 4 0.000000 0.000000 0.000000 -0.005124 0.000000 0.013752
# 5 0.032895 -0.034222 -0.088448 0.000000 0.291565 0.000000
# 6 0.000000 0.000000 0.000000 0.013752 0.000000 0.046120
#
#
# Mechanical properties :
#
#
# Convention : Reuss Voigt Hill
#
# Bulk Modulus (GPa) = 31.12633 25.13588 28.13111
# Shear Modulus (GPa) = 13.73463 -11.94685 0.89389
#
# Velocity S-wave (km/s) = 2.73371 -2.54959 0.69741
# Velocity P-wave (km/s) = 5.18657 2.23819 3.99437
#
# Compressibility (1/GPa) = 0.03212714
#
# Stress axis : x y z
#
# Youngs Moduli (GPa) = 76.76459 -30.28661 21.53234
#
# Poissons Ratio (x) = 0.08043 0.30699
# Poissons Ratio (y) = -0.20387 -0.31092
# Poissons Ratio (z) = 1.09443 0.43732
#
# Static dielectric constant tensor:
#      x y z
#    x 1.626280 0.000000 0.012900 
#    y 0.000000 1.654360 0.000000 
#    z 0.012900 0.000000 1.654170 
# 
# From -- ./inp_files/346260.got.cif
#   From: 2010.05.17/outbox.ucp.g08.bks.cvg/sg12_174_cif.got.tgz:346260.got - 2010.06.11 11:47:21.
