data_PCOD9224697
_publ_section_title
;
Structure prediction by ZEFSAII (Michael W. Deem and Ramdas Pophale) SiO2 
 PCOD9224697
Probable space group: C 2/M
;
_chemical_formula_sum "Si O2"
_cell_formula_units_Z 32
_cell_length_a 18.000000
_cell_length_b 9.000000
_cell_length_c 30.000000
_cell_angle_alpha 90.000000
_cell_angle_beta 40.000000
_cell_angle_gamma 90.000000
_cell_volume 3123.947783
_symmetry_space_group_name_H-M "C 2/M"
_symmetry_group_IT_number 12
_symmetry_cell_setting 'monoclinic'
loop_
_space_group_symop_operation_xyz
x,y,z
-x,y,-z
-x,-y,-z
x,-y,z
1/2+x,1/2+y,z
1/2-x,1/2+y,-z
1/2-x,1/2-y,-z
1/2+x,1/2-y,z
loop_
_atom_site_type_symbol
_atom_site_label
_atom_site_fract_x
_atom_site_fract_y
_atom_site_fract_z
Si Si1 0.153693 0.330764 0.937134
Si Si2 0.021633 0.176728 0.074404
Si Si3 0.077436 0.322680 0.724099
Si Si4 0.683748 0.821600 0.398288
Si Si5 0.727862 0.323287 0.812026
Si Si6 0.943900 0.679288 0.457355
Si Si7 0.397748 0.329611 0.871946
Si Si8 0.980808 0.318706 0.671773
O O1 0.129205 0.500000 0.934660
O O2 0.196945 0.236599 0.875099
O O3 0.269012 0.331167 0.913556
O O4 0.055315 0.264142 0.014581
O O5 0.104651 0.220730 0.076072
O O6 0.895150 0.207563 0.153958
O O7 0.028319 0.000000 0.061260
O O8 0.082545 0.500000 0.723590
O O9 0.203433 0.253958 0.673244
O O10 0.981340 0.264809 0.802280
O O11 0.038436 0.277408 0.691981
O O12 0.652453 0.768269 0.463077
O O13 0.569111 0.791921 0.421963
O O14 0.699790 0.000000 0.391453
O O15 0.741792 0.500000 0.808530
O O16 0.846638 0.266687 0.736160
O O17 0.931228 0.500000 0.461931
O O18 0.951675 0.735031 0.403157
O O19 0.442206 0.500000 0.851254
O O20 0.979553 0.500000 0.669842
#
# Coordination Sequence:
#
# PCOD9224697 Si02
#       8
#     8   8   8   8   8   8   8   8
#     4  11  22  37  57  80 112 145 173 221 282 328
#     4  10  22  37  58  83 104 138 188 228 267 321
#     4  11  22  35  54  80 111 148 180 218 272 325
#     4   9  18  34  59  86 111 140 180 227 268 312
#     4  10  20  36  57  80 106 143 185 226 265 315
#     4   8  16  33  58  85 109 142 184 224 264 310
#     4  10  22  39  57  80 107 141 184 229 271 318
#     4   9  18  33  54  79 108 143 185 224 262 315
#
# _framework density 10.243449
#
# number of rings (size 3 to 8) (size 9 to 14) (size 15 to 20)
#    0.000    2.250    1.250    2.250    1.750    3.500 
#    0.000    1.250    0.000    3.000    0.000    0.000 
#    0.000    0.000    0.000    0.000    0.000    0.000 
#
# Total GULP energy -178388.601221 kJ/mol
# GULP energy per Si atom -5574.643788 kJ/mol
# Density = 1.022013 g / cm^3
# Si number density = 10.243449 Si / 1000 Ang^3
#
#
#
# Elastic Constant Matrix: (Units=GPa)
#
#
# Indices 1 2 3 4 5 6 
#
# 1 39.2551 3.0875 -3.0610 0.0002 5.3999 0.0006
# 2 3.0875 5.0691 7.6412 0.0003 -7.6751 0.0018
# 3 -3.0610 7.6412 50.8543 0.0000 -0.0812 0.0000
# 4 0.0002 0.0003 0.0000 21.2601 0.0000 -0.4269
# 5 5.3999 -7.6751 -0.0812 0.0000 28.9672 0.0001
# 6 0.0006 0.0018 0.0000 -0.4269 0.0001 15.8573
#
#
#
# Elastic Compliance Matrix: (Units=1/GPa)
#
#
# Indices 1 2 3 4 5 6 
#
# 1 0.040002 -0.105074 0.018140 0.000001 -0.035246 0.000010
# 2 -0.105074 0.804034 -0.126766 -0.000013 0.232268 -0.000086
# 3 0.018140 -0.126766 0.039744 0.000002 -0.036858 0.000013
# 4 0.000001 -0.000013 0.000002 0.047062 -0.000004 0.001267
# 5 -0.035246 0.232268 -0.036858 -0.000004 0.102530 -0.000025
# 6 0.000010 -0.000086 0.000013 0.001267 -0.000025 0.063096
#
#
# Mechanical properties :
#
#
# Convention : Reuss Voigt Hill
#
# Bulk Modulus (GPa) = 2.19116 12.27932 7.23524
# Shear Modulus (GPa) = 2.98330 19.05098 11.01714
#
# Velocity S-wave (km/s) = 1.20804 3.05275 2.32149
# Velocity P-wave (km/s) = 1.73715 4.29331 3.27492
#
# Compressibility (1/GPa) = 0.45638020
#
# Stress axis : x y z
#
# Youngs Moduli (GPa) = 24.99901 1.24373 25.16072
#
# Poissons Ratio (x) = 0.13068 -0.45641
# Poissons Ratio (y) = 2.62675 3.18952
# Poissons Ratio (z) = -0.45347 0.15766
#
# Static dielectric constant tensor:
#      x y z
#    x 1.836750 0.000000 -0.010760 
#    y 0.000000 1.705740 0.000000 
#    z -0.010760 0.000000 1.693890 
# 
# From -- ./inp_files/377970.got.cif
#   From: 2010.05.17/outbox.ucp.g08.bks.cvg/sg12_189_cif.got.tgz:377970.got - 2010.06.11 11:47:21.
