data_PCOD9224060
_publ_section_title
;
Structure prediction by ZEFSAII (Michael W. Deem and Ramdas Pophale) SiO2 
 PCOD9224060
Probable space group: C 2/M
;
_chemical_formula_sum "Si O2"
_cell_formula_units_Z 24
_cell_length_a 15.000000
_cell_length_b 9.000000
_cell_length_c 18.000000
_cell_angle_alpha 90.000000
_cell_angle_beta 90.000000
_cell_angle_gamma 90.000000
_cell_volume 2430.000000
_symmetry_space_group_name_H-M "C 2/M"
_symmetry_group_IT_number 12
_symmetry_cell_setting 'monoclinic'
loop_
_space_group_symop_operation_xyz
x,y,z
-x,y,-z
-x,-y,-z
x,-y,z
1/2+x,1/2+y,z
1/2-x,1/2+y,-z
1/2-x,1/2-y,-z
1/2+x,1/2-y,z
loop_
_atom_site_type_symbol
_atom_site_label
_atom_site_fract_x
_atom_site_fract_y
_atom_site_fract_z
Si Si1 0.409421 0.821334 0.694462
Si Si2 0.458829 0.321529 0.422737
Si Si3 0.527860 0.820092 0.141177
Si Si4 0.667184 0.178531 0.821852
Si Si5 0.795575 0.178532 0.331475
Si Si6 0.199456 0.677979 0.068233
O O1 0.480707 0.745120 0.641851
O O2 0.430574 0.775791 0.779186
O O3 0.309125 0.784281 0.668225
O O4 0.418689 0.000000 0.691036
O O5 0.500000 0.266527 0.500000
O O6 0.466553 0.500000 0.421817
O O7 0.355588 0.287129 0.403635
O O8 0.425143 0.775758 0.138320
O O9 0.596689 0.773726 0.077647
O O10 0.527175 0.000000 0.140485
O O11 0.662924 0.230431 0.736921
O O12 0.747789 0.265511 0.859640
O O13 0.678065 0.000000 0.827336
O O14 0.802348 0.000000 0.317458
O O15 0.202654 0.500000 0.063067
O O16 0.250000 0.750000 0.000000
#
# Coordination Sequence:
#
# PCOD9224060 Si02
#       6
#     8   8   8   8   8   8
#     4  10  19  36  59  83 109 150 196 231 280 346
#     4  10  22  38  55  83 121 153 186 239 297 337
#     4   9  19  36  59  83 114 150 187 231 284 341
#     4  11  21  36  60  88 112 146 193 237 281 339
#     4  10  20  36  58  82 113 153 190 234 288 342
#     4  11  23  42  61  85 120 155 188 233 287 339
#
# _framework density 9.8765429999999999
#
# number of rings (size 3 to 8) (size 9 to 14) (size 15 to 20)
#    0.000    1.833    3.333    1.000    0.000    2.333 
#    0.000    6.667    0.000    0.000    0.000    0.000 
#    0.000    0.000    0.000    0.000    0.000    0.000 
#
# Total GULP energy -133910.656854 kJ/mol
# GULP energy per Si atom -5579.610702 kJ/mol
# Density = 0.985406 g / cm^3
# Si number density = 9.876543 Si / 1000 Ang^3
#
#
#
# Elastic Constant Matrix: (Units=GPa)
#
#
# Indices 1 2 3 4 5 6 
#
# 1 73.5187 4.1417 -25.3726 0.0000 -13.3198 0.0000
# 2 4.1417 15.2929 -6.3566 0.0000 3.9839 0.0000
# 3 -25.3726 -6.3566 18.1138 0.0000 -5.5461 0.0000
# 4 0.0000 0.0000 0.0000 26.4989 0.0000 -3.8110
# 5 -13.3198 3.9839 -5.5461 0.0000 11.9637 0.0000
# 6 0.0000 0.0000 0.0000 -3.8110 0.0000 23.9316
#
#
#
# Elastic Compliance Matrix: (Units=1/GPa)
#
#
# Indices 1 2 3 4 5 6 
#
# 1 -0.186244 -0.008480 -0.380482 0.000000 -0.380914 0.000000
# 2 -0.008480 0.078617 0.005600 0.000000 -0.033024 0.000000
# 3 -0.380482 0.005600 -0.706308 0.000000 -0.752904 0.000000
# 4 0.000000 0.000000 0.000000 0.038622 0.000000 0.006150
# 5 -0.380914 -0.033024 -0.752904 0.000000 -0.678537 0.000000
# 6 0.000000 0.000000 0.000000 0.006150 0.000000 0.042765
#
#
# Mechanical properties :
#
#
# Convention : Reuss Voigt Hill
#
# Bulk Modulus (GPa) = -0.63265 5.75004 2.55870
# Shear Modulus (GPa) = -4.26896 21.44638 8.58871
#
# Velocity S-wave (km/s) = -1.47168 3.29861 2.08746
# Velocity P-wave (km/s) = 1.79130 4.17433 2.66611
#
# Compressibility (1/GPa) = -1.58065962
#
# Stress axis : x y z
#
# Youngs Moduli (GPa) = -5.36931 12.71990 -1.41581
#
# Poissons Ratio (x) = 0.10786 -0.53869
# Poissons Ratio (y) = -0.04553 0.00793
# Poissons Ratio (z) = -2.04293 -0.07123
#
# Static dielectric constant tensor:
#      x y z
#    x 1.733490 0.000000 0.040620 
#    y 0.000000 1.646730 0.000000 
#    z 0.040620 0.000000 1.751840 
# 
# From -- ./inp_files/267647.got.cif
#   From: 2010.05.17/outbox.ucp.g08.bks.cvg/sg12_134_cif.got.tgz:267647.got - 2010.06.11 11:47:21.
