data_PCOD9224208
_publ_section_title
;
Structure prediction by ZEFSAII (Michael W. Deem and Ramdas Pophale) SiO2 
 PCOD9224208
Probable space group: C 2/M
;
_chemical_formula_sum "Si O2"
_cell_formula_units_Z 28
_cell_length_a 30.000000
_cell_length_b 9.000000
_cell_length_c 18.000000
_cell_angle_alpha 90.000000
_cell_angle_beta 140.000000
_cell_angle_gamma 90.000000
_cell_volume 3123.947783
_symmetry_space_group_name_H-M "C 2/M"
_symmetry_group_IT_number 12
_symmetry_cell_setting 'monoclinic'
loop_
_space_group_symop_operation_xyz
x,y,z
-x,y,-z
-x,-y,-z
x,-y,z
1/2+x,1/2+y,z
1/2-x,1/2+y,-z
1/2-x,1/2-y,-z
1/2+x,1/2-y,z
loop_
_atom_site_type_symbol
_atom_site_label
_atom_site_fract_x
_atom_site_fract_y
_atom_site_fract_z
Si Si1 0.361048 0.321831 0.245506
Si Si2 0.569933 0.322395 0.043664
Si Si3 0.219193 0.171128 0.065344
Si Si4 0.220937 0.169891 0.249032
Si Si5 0.639933 0.677479 0.581666
Si Si6 0.997669 0.179386 0.328157
Si Si7 0.076955 0.324482 0.893866
O O1 0.352892 0.500000 0.228375
O O2 0.290486 0.243728 0.129396
O O3 0.366907 0.284139 0.340134
O O4 0.432230 0.278895 0.296371
O O5 0.574494 0.500000 0.032203
O O6 0.643893 0.283473 0.175911
O O7 0.500000 0.298137 0.000000
O O8 0.567953 0.229149 0.966234
O O9 0.219760 0.175168 0.156879
O O10 0.213554 0.000000 0.034944
O O11 0.149903 0.259283 0.957343
O O12 0.287605 0.263008 0.356741
O O13 0.231860 0.000000 0.285115
O O14 0.641153 0.500000 0.578998
O O15 0.570810 0.731009 0.453350
O O16 0.982888 0.250624 0.230531
O O17 0.997889 0.000000 0.323988
O O18 0.077548 0.500000 0.888876
#
# Coordination Sequence:
#
# PCOD9224208 Si02
#       7
#     8   8   8   8   8   8   8
#     4   9  17  30  49  72  95 124 169 218 253 282
#     4   9  18  35  59  82 102 125 153 189 240 301
#     4   9  17  31  49  68  95 130 165 202 247 297
#     4   8  15  28  48  74  99 123 153 192 238 286
#     4   9  17  30  49  71  96 130 170 207 242 283
#     4  10  20  33  48  67  97 136 171 204 245 293
#     4  11  22  34  49  72 101 130 162 201 245 291
#
# _framework density 8.9630179999999999
#
# number of rings (size 3 to 8) (size 9 to 14) (size 15 to 20)
#    0.000    2.714    0.000    3.000    0.000    7.143 
#    0.000    0.000    0.000    5.143    0.000    0.000 
#    0.000    0.000    0.000    0.000    0.000    0.000 
#
# Total GULP energy -156088.584083 kJ/mol
# GULP energy per Si atom -5574.592289 kJ/mol
# Density = 0.894262 g / cm^3
# Si number density = 8.963018 Si / 1000 Ang^3
#
#
#
# Elastic Constant Matrix: (Units=GPa)
#
#
# Indices 1 2 3 4 5 6 
#
# 1 55.4294 21.8851 34.4887 0.0000 29.2752 0.0000
# 2 21.8851 17.0617 33.6818 0.0000 10.8261 0.0000
# 3 34.4887 33.6818 117.4428 0.0000 27.1629 0.0000
# 4 0.0000 0.0000 0.0000 18.9419 0.0000 8.4338
# 5 29.2752 10.8261 27.1629 0.0000 20.6739 0.0000
# 6 0.0000 0.0000 0.0000 8.4338 0.0000 20.5063
#
#
#
# Elastic Compliance Matrix: (Units=1/GPa)
#
#
# Indices 1 2 3 4 5 6 
#
# 1 0.183154 -0.203182 0.057263 0.000000 -0.228192 0.000000
# 2 -0.203182 0.373297 -0.098725 0.000000 0.221946 0.000000
# 3 0.057263 -0.098725 0.038513 0.000000 -0.079990 0.000000
# 4 0.000000 0.000000 0.000000 0.064628 0.000000 -0.026580
# 5 -0.228192 0.221946 -0.079990 0.000000 0.360372 0.000000
# 6 0.000000 0.000000 0.000000 -0.026580 0.000000 0.059697
#
#
# Mechanical properties :
#
#
# Convention : Reuss Voigt Hill
#
# Bulk Modulus (GPa) = 9.46288 41.11612 25.28950
# Shear Modulus (GPa) = 3.11687 18.68296 10.89991
#
# Velocity S-wave (km/s) = 1.32004 3.23185 2.46854
# Velocity P-wave (km/s) = 2.75929 6.07559 4.71839
#
# Compressibility (1/GPa) = 0.10567610
#
# Stress axis : x y z
#
# Youngs Moduli (GPa) = 5.45990 2.67883 25.96535
#
# Poissons Ratio (x) = 0.54429 -1.48686
# Poissons Ratio (y) = 1.10935 2.56343
# Poissons Ratio (z) = -0.31265 0.26447
#
# Static dielectric constant tensor:
#      x y z
#    x 1.618470 0.000000 -0.020270 
#    y 0.000000 1.600410 0.000000 
#    z -0.020270 0.000000 1.668980 
# 
# From -- ./inp_files/281639.got.cif
#   From: 2010.05.17/outbox.ucp.g08.bks.cvg/sg12_141_cif.got.tgz:281639.got - 2010.06.11 11:47:21.
