data_PCOD9224617
_publ_section_title
;
Structure prediction by ZEFSAII (Michael W. Deem and Ramdas Pophale) SiO2 
 PCOD9224617
Probable space group: C 2/M
;
_chemical_formula_sum "Si O2"
_cell_formula_units_Z 32
_cell_length_a 24.000000
_cell_length_b 9.000000
_cell_length_c 30.000000
_cell_angle_alpha 90.000000
_cell_angle_beta 30.000000
_cell_angle_gamma 90.000000
_cell_volume 3240.000000
_symmetry_space_group_name_H-M "C 2/M"
_symmetry_group_IT_number 12
_symmetry_cell_setting 'monoclinic'
loop_
_space_group_symop_operation_xyz
x,y,z
-x,y,-z
-x,-y,-z
x,-y,z
1/2+x,1/2+y,z
1/2-x,1/2+y,-z
1/2-x,1/2-y,-z
1/2+x,1/2-y,z
loop_
_atom_site_type_symbol
_atom_site_label
_atom_site_fract_x
_atom_site_fract_y
_atom_site_fract_z
Si Si1 0.874907 0.322235 0.603662
Si Si2 0.703807 0.830353 0.655268
Si Si3 0.514760 0.324414 0.080645
Si Si4 0.913600 0.821077 0.788351
Si Si5 0.945632 0.668536 0.859480
Si Si6 0.659084 0.676275 0.594750
Si Si7 0.682428 0.170686 0.903677
Si Si8 0.218504 0.328283 0.773506
O O1 0.859319 0.500000 0.615375
O O2 0.791019 0.241790 0.628072
O O3 0.832729 0.251067 0.679299
O O4 0.000000 0.292539 0.500000
O O5 0.579971 0.836247 0.761232
O O6 0.695872 0.724379 0.618398
O O7 0.734792 0.000000 0.621734
O O8 0.510465 0.500000 0.086077
O O9 0.579295 0.256978 0.078410
O O10 0.389957 0.259700 0.168061
O O11 0.581507 0.269349 0.991172
O O12 0.908242 0.750143 0.840790
O O13 0.800224 0.780687 0.842355
O O14 0.028464 0.774624 0.683648
O O15 0.919209 0.000000 0.788221
O O16 0.903828 0.500000 0.890881
O O17 0.662014 0.500000 0.586390
O O18 0.750000 0.750000 0.500000
O O19 0.701063 0.170982 0.838289
O O20 0.658433 0.000000 0.934282
O O21 0.217803 0.500000 0.758007
#
# Coordination Sequence:
#
# PCOD9224617 Si02
#       8
#     8   8   8   8   8   8   8   8
#     4  11  24  40  60  90 124 158 198 249 307 360
#     4  10  20  36  59  84 113 153 199 246 298 354
#     4  12  24  38  62  91 120 158 203 251 307 367
#     4   9  20  39  60  85 119 158 199 248 304 359
#     4  10  20  36  61  89 117 153 198 247 296 356
#     4  10  20  35  58  87 119 155 200 248 300 363
#     4  10  23  42  62  86 121 161 203 251 303 364
#     4  11  23  41  64  89 120 162 207 253 301 358
#
# _framework density 9.8765429999999999
#
# number of rings (size 3 to 8) (size 9 to 14) (size 15 to 20)
#    0.000    1.625    1.250    3.375    0.000    7.000 
#    0.000    1.250    0.000    0.000    0.000    0.000 
#    0.000    0.000    0.000    0.000    0.000    0.000 
#
# Total GULP energy -178634.265033 kJ/mol
# GULP energy per Si atom -5582.320782 kJ/mol
# Density = 0.985406 g / cm^3
# Si number density = 9.876543 Si / 1000 Ang^3
#
#
#
# Elastic Constant Matrix: (Units=GPa)
#
#
# Indices 1 2 3 4 5 6 
#
# 1 46.8047 6.5653 11.5628 -0.0014 2.2777 0.0016
# 2 6.5653 57.7199 42.4942 -0.0031 -0.9025 0.0037
# 3 11.5628 42.4942 77.2805 -0.0013 15.9034 0.0015
# 4 -0.0014 -0.0031 -0.0013 31.4412 0.0006 2.9271
# 5 2.2777 -0.9025 15.9034 0.0006 16.9126 -0.0002
# 6 0.0016 0.0037 0.0015 2.9271 -0.0002 18.0052
#
#
#
# Elastic Compliance Matrix: (Units=1/GPa)
#
#
# Indices 1 2 3 4 5 6 
#
# 1 0.022186 -0.000109 -0.003278 0.000001 0.000088 -0.000002
# 2 -0.000109 0.036324 -0.025244 0.000003 0.025691 -0.000005
# 3 -0.003278 -0.025244 0.034096 -0.000001 -0.032967 0.000002
# 4 0.000001 0.000003 -0.000001 0.032294 0.000000 -0.005250
# 5 0.000088 0.025691 -0.032967 0.000000 0.091486 -0.000001
# 6 -0.000002 -0.000005 0.000002 -0.005250 -0.000001 0.056393
#
#
# Mechanical properties :
#
#
# Convention : Reuss Voigt Hill
#
# Bulk Modulus (GPa) = 28.29344 33.67220 30.98282
# Shear Modulus (GPa) = 14.62745 21.35064 17.98905
#
# Velocity S-wave (km/s) = 2.72419 3.29123 3.02105
# Velocity P-wave (km/s) = 4.92439 5.61485 5.28092
#
# Compressibility (1/GPa) = 0.03534388
#
# Stress axis : x y z
#
# Youngs Moduli (GPa) = 45.07322 27.52967 29.32933
#
# Poissons Ratio (x) = 0.00300 0.09614
# Poissons Ratio (y) = 0.00491 0.74040
# Poissons Ratio (z) = 0.14774 0.69497
#
# Static dielectric constant tensor:
#      x y z
#    x 1.746150 0.000000 0.039590 
#    y 0.000000 1.678570 0.000000 
#    z 0.039590 0.000000 1.699410 
# 
# From -- ./inp_files/382393.got.cif
#   From: 2010.05.17/outbox.ucp.g08.bks.cvg/sg12_192_cif.got.tgz:382393.got - 2010.06.11 11:47:21.
