data_PCOD9224901
_publ_section_title
;
Structure prediction by ZEFSAII (Michael W. Deem and Ramdas Pophale) SiO2 
 PCOD9224901
Probable space group: C 2/M
;
_chemical_formula_sum "Si O2"
_cell_formula_units_Z 32
_cell_length_a 30.000000
_cell_length_b 9.000000
_cell_length_c 24.000000
_cell_angle_alpha 90.000000
_cell_angle_beta 150.000000
_cell_angle_gamma 90.000000
_cell_volume 3240.000000
_symmetry_space_group_name_H-M "C 2/M"
_symmetry_group_IT_number 12
_symmetry_cell_setting 'monoclinic'
loop_
_space_group_symop_operation_xyz
x,y,z
-x,y,-z
-x,-y,-z
x,-y,z
1/2+x,1/2+y,z
1/2-x,1/2+y,-z
1/2-x,1/2-y,-z
1/2+x,1/2-y,z
loop_
_atom_site_type_symbol
_atom_site_label
_atom_site_fract_x
_atom_site_fract_y
_atom_site_fract_z
Si Si1 0.228958 0.178737 0.768227
Si Si2 0.745977 0.827566 0.330434
Si Si3 0.963941 0.178028 0.399343
Si Si4 0.390242 0.323433 0.009677
Si Si5 0.344349 0.678108 0.087826
Si Si6 0.804280 0.677160 0.507621
Si Si7 0.495652 0.178029 0.671640
Si Si8 0.467154 0.172395 0.904553
O O1 0.218277 0.222571 0.691524
O O2 0.141517 0.213272 0.710095
O O3 0.315343 0.251333 0.889042
O O4 0.239894 0.000000 0.779314
O O5 0.770643 0.732775 0.410956
O O6 0.638909 0.824101 0.210791
O O7 0.774231 0.000000 0.369453
O O8 0.010460 0.259677 0.398115
O O9 0.000000 0.214964 0.500000
O O10 0.974494 0.000000 0.403323
O O11 0.387296 0.500000 0.000361
O O12 0.369687 0.286370 0.051407
O O13 0.485281 0.262308 0.092566
O O14 0.340691 0.500000 0.090205
O O15 0.418664 0.746063 0.208484
O O16 0.250000 0.750000 0.000000
O O17 0.795000 0.500000 0.502289
O O18 0.750000 0.750000 0.500000
O O19 0.909724 0.713445 0.617066
O O20 0.504582 0.000000 0.679175
O O21 0.496072 0.000000 0.931313
O O22 0.500000 0.229722 0.000000
#
# Coordination Sequence:
#
# PCOD9224901 Si02
#       8
#     8   8   8   8   8   8   8   8
#     4  10  20  37  61  90 123 160 200 244 300 368
#     4  10  21  39  64  91 122 161 206 256 307 365
#     4  10  21  38  65  95 122 158 203 251 308 369
#     4  11  24  38  57  89 124 157 201 251 307 365
#     4  11  25  44  66  94 127 167 211 260 315 372
#     4  11  26  45  65  91 123 165 213 262 317 372
#     4  11  25  44  65  92 127 167 211 260 316 375
#     4  10  20  38  62  89 122 163 205 247 305 370
#
# _framework density 9.8765429999999999
#
# number of rings (size 3 to 8) (size 9 to 14) (size 15 to 20)
#    0.000    1.500    1.250    3.000    1.750    9.000 
#    0.000    0.000    0.000    0.000    0.000    0.000 
#    0.000    0.000    0.000    0.000    0.000    0.000 
#
# Total GULP energy -178874.179493 kJ/mol
# GULP energy per Si atom -5589.818109 kJ/mol
# Density = 0.985406 g / cm^3
# Si number density = 9.876543 Si / 1000 Ang^3
#
#
#
# Elastic Constant Matrix: (Units=GPa)
#
#
# Indices 1 2 3 4 5 6 
#
# 1 156.3260 58.9620 30.6710 0.0000 3.0564 0.0000
# 2 58.9620 45.1638 26.1978 0.0000 0.9101 0.0000
# 3 30.6710 26.1978 71.6158 0.0000 -1.7549 0.0000
# 4 0.0000 0.0000 0.0000 26.7592 0.0000 -3.1403
# 5 3.0564 0.9101 -1.7549 0.0000 29.7648 0.0000
# 6 0.0000 0.0000 0.0000 -3.1403 0.0000 38.2927
#
#
#
# Elastic Compliance Matrix: (Units=1/GPa)
#
#
# Indices 1 2 3 4 5 6 
#
# 1 0.012654 -0.016947 0.000762 0.000000 -0.000736 0.000000
# 2 -0.016947 0.050866 -0.011361 0.000000 -0.000485 0.000000
# 3 0.000762 -0.011361 0.017825 0.000000 0.001320 0.000000
# 4 0.000000 0.000000 0.000000 0.037733 0.000000 0.003094
# 5 -0.000736 -0.000485 0.001320 0.000000 0.033765 0.000000
# 6 0.000000 0.000000 0.000000 0.003094 0.000000 0.026368
#
#
# Mechanical properties :
#
#
# Convention : Reuss Voigt Hill
#
# Bulk Modulus (GPa) = 38.09096 56.08524 47.08810
# Shear Modulus (GPa) = 20.57154 29.44834 25.00994
#
# Velocity S-wave (km/s) = 3.23063 3.86531 3.56213
# Velocity P-wave (km/s) = 5.76553 6.95526 6.38815
#
# Compressibility (1/GPa) = 0.02625295
#
# Stress axis : x y z
#
# Youngs Moduli (GPa) = 79.02905 19.65964 56.09947
#
# Poissons Ratio (x) = 0.33316 -0.04275
# Poissons Ratio (y) = 1.33927 0.63736
# Poissons Ratio (z) = -0.06022 0.22336
#
# Static dielectric constant tensor:
#      x y z
#    x 1.679600 0.000000 0.009000 
#    y 0.000000 1.667410 0.000000 
#    z 0.009000 0.000000 1.707430 
# 
# From -- ./inp_files/353562.got.cif
#   From: 2010.05.17/outbox.ucp.g08.bks.cvg/sg12_177_cif.got.tgz:353562.got - 2010.06.11 11:47:21.
