data_PCOD9224931
_publ_section_title
;
Structure prediction by ZEFSAII (Michael W. Deem and Ramdas Pophale) SiO2 
 PCOD9224931
Probable space group: C 2/M
;
_chemical_formula_sum "Si O2"
_cell_formula_units_Z 32
_cell_length_a 15.000000
_cell_length_b 18.000000
_cell_length_c 24.000000
_cell_angle_alpha 90.000000
_cell_angle_beta 30.000000
_cell_angle_gamma 90.000000
_cell_volume 3240.000000
_symmetry_space_group_name_H-M "C 2/M"
_symmetry_group_IT_number 12
_symmetry_cell_setting 'monoclinic'
loop_
_space_group_symop_operation_xyz
x,y,z
-x,y,-z
-x,-y,-z
x,-y,z
1/2+x,1/2+y,z
1/2-x,1/2+y,-z
1/2-x,1/2-y,-z
1/2+x,1/2-y,z
loop_
_atom_site_type_symbol
_atom_site_label
_atom_site_fract_x
_atom_site_fract_y
_atom_site_fract_z
Si Si1 0.690170 0.914243 0.923585
Si Si2 0.145170 0.690884 0.517702
Si Si3 0.849065 0.806073 0.677248
Si Si4 0.777294 0.837796 0.991461
Si Si5 0.070216 0.412179 0.766097
Si Si6 0.438228 0.913280 0.714836
Si Si7 0.110873 0.195778 0.883951
Si Si8 0.959249 0.087813 0.342917
O O1 0.857381 0.911896 0.791463
O O2 0.660660 0.000000 0.956538
O O3 0.500000 0.890058 0.000000
O O4 0.755307 0.869259 0.941516
O O5 0.250000 0.750000 0.500000
O O6 0.300466 0.640830 0.403974
O O7 0.984012 0.742375 0.579799
O O8 0.044959 0.629015 0.608886
O O9 0.718887 0.854539 0.708295
O O10 0.720745 0.761818 0.791970
O O11 0.976613 0.868113 0.636694
O O12 0.619872 0.880281 0.109557
O O13 0.750000 0.750000 0.000000
O O14 0.967652 0.841843 0.919430
O O15 0.095439 0.500000 0.769341
O O16 0.055692 0.410226 0.707302
O O17 0.258165 0.865600 0.820768
O O18 0.402137 0.000000 0.722122
O O19 0.000000 0.218135 0.000000
O O20 0.908291 0.000000 0.377747
#
# Coordination Sequence:
#
# PCOD9224931 Si02
#       8
#     8   8   8   8   8   8   8   8
#     4  10  23  41  63  95 130 165 206 259 314 371
#     4   9  20  39  62  86 118 159 208 255 310 375
#     4  10  21  37  59  90 125 159 206 262 317 372
#     4  12  24  36  59  92 130 171 208 254 313 379
#     4  11  22  38  60  92 130 165 208 259 318 381
#     4  10  22  39  63  89 123 166 209 260 314 376
#     4  11  23  39  59  90 128 170 214 257 314 376
#     4  10  20  37  65  90 119 163 207 257 313 372
#
# _framework density 9.8765429999999999
#
# number of rings (size 3 to 8) (size 9 to 14) (size 15 to 20)
#    0.000    1.625    2.500    1.875    1.750    3.250 
#    0.000    2.500    2.750    7.125    0.000    4.375 
#    0.000    0.000    0.000    0.000    0.000    0.000 
#
# Total GULP energy -178474.148609 kJ/mol
# GULP energy per Si atom -5577.317144 kJ/mol
# Density = 0.985406 g / cm^3
# Si number density = 9.876543 Si / 1000 Ang^3
#
#
#
# Elastic Constant Matrix: (Units=GPa)
#
#
# Indices 1 2 3 4 5 6 
#
# 1 96.1927 55.3082 23.0053 -0.0002 -21.9401 -0.0001
# 2 55.3082 165.9438 38.3580 -0.0013 -14.3153 -0.0002
# 3 23.0053 38.3580 81.1597 -0.0048 -24.4455 0.0020
# 4 -0.0002 -0.0013 -0.0048 37.1379 0.0013 -8.6209
# 5 -21.9401 -14.3153 -24.4455 0.0013 30.7637 -0.0004
# 6 -0.0001 -0.0002 0.0020 -8.6209 -0.0004 36.9309
#
#
#
# Elastic Compliance Matrix: (Units=1/GPa)
#
#
# Indices 1 2 3 4 5 6 
#
# 1 0.014771 -0.004273 0.000534 0.000000 0.008971 0.000000
# 2 -0.004273 0.008016 -0.003118 0.000000 -0.001795 0.000000
# 3 0.000534 -0.003118 0.017513 0.000002 0.012846 0.000000
# 4 0.000000 0.000000 0.000002 0.028469 0.000000 0.006646
# 5 0.008971 -0.001795 0.012846 0.000000 0.048276 0.000000
# 6 0.000000 0.000000 0.000000 0.006646 0.000000 0.028629
#
#
# Mechanical properties :
#
#
# Convention : Reuss Voigt Hill
#
# Bulk Modulus (GPa) = 37.61198 64.07103 50.84150
# Shear Modulus (GPa) = 29.71779 36.07482 32.89631
#
# Velocity S-wave (km/s) = 3.88295 4.27815 4.08533
# Velocity P-wave (km/s) = 6.25983 7.54385 6.93164
#
# Compressibility (1/GPa) = 0.02658728
#
# Stress axis : x y z
#
# Youngs Moduli (GPa) = 67.70143 124.74872 57.10075
#
# Poissons Ratio (x) = 0.53301 -0.03052
# Poissons Ratio (y) = 0.28927 0.17804
# Poissons Ratio (z) = -0.03619 0.38897
#
# Static dielectric constant tensor:
#      x y z
#    x 1.723890 0.000000 0.019800 
#    y 0.000000 1.704150 0.000000 
#    z 0.019800 0.000000 1.742080 
# 
# From -- ./inp_files/340834.got.cif
#   From: 2010.05.17/outbox.ucp.g08.bks.cvg/sg12_171_cif.got.tgz:340834.got - 2010.06.11 11:47:21.
