data_PCOD9224793
_publ_section_title
;
Structure prediction by ZEFSAII (Michael W. Deem and Ramdas Pophale) SiO2 
 PCOD9224793
Probable space group: C 2/M
;
_chemical_formula_sum "Si O2"
_cell_formula_units_Z 28
_cell_length_a 9.000000
_cell_length_b 30.000000
_cell_length_c 21.000000
_cell_angle_alpha 90.000000
_cell_angle_beta 150.000000
_cell_angle_gamma 90.000000
_cell_volume 2835.000000
_symmetry_space_group_name_H-M "C 2/M"
_symmetry_group_IT_number 12
_symmetry_cell_setting 'monoclinic'
loop_
_space_group_symop_operation_xyz
x,y,z
-x,y,-z
-x,-y,-z
x,-y,z
1/2+x,1/2+y,z
1/2-x,1/2+y,-z
1/2-x,1/2-y,-z
1/2+x,1/2-y,z
loop_
_atom_site_type_symbol
_atom_site_label
_atom_site_fract_x
_atom_site_fract_y
_atom_site_fract_z
Si Si1 0.289919 0.364259 0.484244
Si Si2 0.108716 0.448093 0.686338
Si Si3 0.350181 0.051344 0.145105
Si Si4 0.717264 0.308631 0.237782
Si Si5 0.158645 0.112034 0.862158
Si Si6 0.653863 0.776754 0.855431
Si Si7 0.196215 0.638774 0.223581
O O1 0.500000 0.359900 0.500000
O O2 0.516580 0.356281 0.625269
O O3 0.144369 0.413832 0.431328
O O4 0.007512 0.330715 0.378722
O O5 0.067249 0.500000 0.653242
O O6 0.107770 0.445275 0.763072
O O7 0.425349 0.428430 0.780257
O O8 0.528057 0.092249 0.179114
O O9 0.434719 0.000000 0.157532
O O10 0.000000 0.056352 0.000000
O O11 0.478447 0.349293 0.143272
O O12 0.550159 0.266738 0.208136
O O13 0.835835 0.292196 0.213783
O O14 0.178533 0.134807 0.800735
O O15 0.500000 0.098387 0.000000
O O16 0.519264 0.818764 0.844920
O O17 0.000000 0.767278 0.000000
#
# Coordination Sequence:
#
# PCOD9224793 Si02
#       7
#     8   8   8   8   8   8   8
#     4  11  22  44  62  88 126 162 210 252 298 366
#     4  10  22  39  62  89 124 166 205 255 306 359
#     4  10  20  36  60  91 122 157 207 257 307 363
#     4  11  24  42  62  91 124 161 204 253 305 367
#     4  11  23  41  63  91 128 161 201 255 312 365
#     4  12  23  40  66  93 123 159 207 257 310 366
#     4  12  23  39  65  91 121 168 204 251 305 360
#
# _framework density 9.8765429999999999
#
# number of rings (size 3 to 8) (size 9 to 14) (size 15 to 20)
#    0.000    1.000    2.857    4.714    0.000    4.571 
#    0.000    0.714    0.000    0.000    0.000    0.000 
#    0.000    0.000    0.000    0.000    0.000    0.000 
#
# Total GULP energy -156513.972488 kJ/mol
# GULP energy per Si atom -5589.784732 kJ/mol
# Density = 0.985406 g / cm^3
# Si number density = 9.876543 Si / 1000 Ang^3
#
#
#
# Elastic Constant Matrix: (Units=GPa)
#
#
# Indices 1 2 3 4 5 6 
#
# 1 71.8610 34.1774 5.6177 -0.0001 12.1353 -0.0004
# 2 34.1774 149.6663 26.7083 -0.0015 27.9448 -0.0001
# 3 5.6177 26.7083 93.5298 0.0006 19.6391 -0.0027
# 4 -0.0001 -0.0015 0.0006 30.4642 -0.0009 13.6837
# 5 12.1353 27.9448 19.6391 -0.0009 35.9447 -0.0004
# 6 -0.0004 -0.0001 -0.0027 13.6837 -0.0004 36.3215
#
#
#
# Elastic Compliance Matrix: (Units=1/GPa)
#
#
# Indices 1 2 3 4 5 6 
#
# 1 0.015910 -0.003133 0.000627 0.000000 -0.003279 0.000000
# 2 -0.003133 0.008531 -0.001217 0.000000 -0.004910 0.000000
# 3 0.000627 -0.001217 0.012253 -0.000001 -0.005960 0.000001
# 4 0.000000 0.000000 -0.000001 0.039512 0.000001 -0.014886
# 5 -0.003279 -0.004910 -0.005960 0.000001 0.036001 0.000000
# 6 0.000000 0.000000 0.000001 -0.014886 0.000000 0.033140
#
#
# Mechanical properties :
#
#
# Convention : Reuss Voigt Hill
#
# Bulk Modulus (GPa) = 34.18890 49.78489 41.98689
# Shear Modulus (GPa) = 30.76133 37.11633 33.93883
#
# Velocity S-wave (km/s) = 3.95054 4.33946 4.14956
# Velocity P-wave (km/s) = 6.17695 7.09692 6.65285
#
# Compressibility (1/GPa) = 0.02924926
#
# Stress axis : x y z
#
# Youngs Moduli (GPa) = 62.85166 117.22159 81.61151
#
# Poissons Ratio (x) = 0.36727 -0.05121
# Poissons Ratio (y) = 0.19692 0.09932
# Poissons Ratio (z) = -0.03944 0.14266
#
# Static dielectric constant tensor:
#      x y z
#    x 1.695910 0.000000 -0.037870 
#    y 0.000000 1.688380 0.000000 
#    z -0.037870 0.000000 1.705720 
# 
# From -- ./inp_files/303078.got.cif
#   From: 2010.05.17/outbox.ucp.g08.bks.cvg/sg12_152_cif.got.tgz:303078.got - 2010.06.11 11:47:21.
