data_PCOD9224678
_publ_section_title
;
Structure prediction by ZEFSAII (Michael W. Deem and Ramdas Pophale) SiO2 
 PCOD9224678
Probable space group: C 2/M
;
_chemical_formula_sum "Si O2"
_cell_formula_units_Z 28
_cell_length_a 30.000000
_cell_length_b 9.000000
_cell_length_c 12.000000
_cell_angle_alpha 90.000000
_cell_angle_beta 60.000000
_cell_angle_gamma 90.000000
_cell_volume 2805.922308
_symmetry_space_group_name_H-M "C 2/M"
_symmetry_group_IT_number 12
_symmetry_cell_setting 'monoclinic'
loop_
_space_group_symop_operation_xyz
x,y,z
-x,y,-z
-x,-y,-z
x,-y,z
1/2+x,1/2+y,z
1/2-x,1/2+y,-z
1/2-x,1/2-y,-z
1/2+x,1/2-y,z
loop_
_atom_site_type_symbol
_atom_site_label
_atom_site_fract_x
_atom_site_fract_y
_atom_site_fract_z
Si Si1 0.604668 0.678195 0.116494
Si Si2 0.826544 0.326234 0.381257
Si Si3 0.223199 0.177596 0.931976
Si Si4 0.751281 0.177041 0.332131
Si Si5 0.439861 0.321701 0.587727
Si Si6 0.930132 0.673955 0.375321
Si Si7 0.016641 0.320675 0.102098
O O1 0.596924 0.500000 0.120496
O O2 0.586019 0.726567 0.263857
O O3 0.571616 0.760065 0.065224
O O4 0.663357 0.712103 0.016869
O O5 0.814436 0.500000 0.374968
O O6 0.806753 0.227297 0.306340
O O7 0.792592 0.272181 0.528927
O O8 0.885093 0.315595 0.341400
O O9 0.252026 0.235868 0.786938
O O10 0.227755 0.000000 0.927822
O O11 0.250000 0.250000 0.000000
O O12 0.748274 0.000000 0.334816
O O13 0.500000 0.276615 0.500000
O O14 0.437729 0.500000 0.587146
O O15 0.415183 0.256080 0.506945
O O16 0.937586 0.500000 0.393259
O O17 0.979876 0.733726 0.248671
O O18 0.014741 0.500000 0.106208
O O19 0.000000 0.272181 0.000000
#
# Coordination Sequence:
#
# PCOD9224678 Si02
#       7
#     8   8   8   8   8   8   8
#     4  10  22  40  58  81 112 147 186 229 275 326
#     4   9  19  35  56  81 108 139 176 223 274 323
#     4  10  23  40  58  82 112 145 186 231 275 328
#     4   9  19  37  56  78 108 140 179 225 272 323
#     4  10  20  36  56  78 108 142 179 221 266 318
#     4  10  21  35  55  83 111 140 179 225 271 323
#     4  10  22  38  56  83 116 147 184 226 272 330
#
# _framework density 9.9788940000000004
#
# number of rings (size 3 to 8) (size 9 to 14) (size 15 to 20)
#    0.000    2.286    1.429    0.000    4.000    2.857 
#    0.000    0.000    0.000    0.000    0.000    0.000 
#    0.000    0.000    0.000    0.000    0.000    0.000 
#
# Total GULP energy -156029.711831 kJ/mol
# GULP energy per Si atom -5572.489708 kJ/mol
# Density = 0.995618 g / cm^3
# Si number density = 9.978894 Si / 1000 Ang^3
#
#
#
# Elastic Constant Matrix: (Units=GPa)
#
#
# Indices 1 2 3 4 5 6 
#
# 1 42.4317 10.3824 15.8322 0.0000 15.9759 0.0000
# 2 10.3824 -41.6782 3.4570 0.0000 -8.7745 0.0000
# 3 15.8322 3.4570 27.1055 0.0000 14.7400 0.0000
# 4 0.0000 0.0000 0.0000 18.8162 0.0000 2.3543
# 5 15.9759 -8.7745 14.7400 0.0000 22.9372 0.0000
# 6 0.0000 0.0000 0.0000 2.3543 0.0000 29.5705
#
#
#
# Elastic Compliance Matrix: (Units=1/GPa)
#
#
# Indices 1 2 3 4 5 6 
#
# 1 0.030048 0.008232 -0.013731 0.000000 -0.008956 0.000000
# 2 0.008232 -0.017855 0.006612 0.000000 -0.016813 0.000000
# 3 -0.013731 0.006612 0.057635 0.000000 -0.024945 0.000000
# 4 0.000000 0.000000 0.000000 0.053680 0.000000 -0.004274
# 5 -0.008956 -0.016813 -0.024945 0.000000 0.059434 0.000000
# 6 0.000000 0.000000 0.000000 -0.004274 0.000000 0.034158
#
#
# Mechanical properties :
#
#
# Convention : Reuss Voigt Hill
#
# Bulk Modulus (GPa) = 13.87852 9.68915 11.78384
# Shear Modulus (GPa) = 20.92994 14.14395 17.53694
#
# Velocity S-wave (km/s) = 3.24189 2.66502 2.96751
# Velocity P-wave (km/s) = 4.58063 3.78617 4.20222
#
# Compressibility (1/GPa) = 0.07205379
#
# Stress axis : x y z
#
# Youngs Moduli (GPa) = 33.27974 -56.00744 17.35068
#
# Poissons Ratio (x) = 0.46105 0.23824
# Poissons Ratio (y) = -0.27396 -0.11472
# Poissons Ratio (z) = 0.45695 0.37030
#
# Static dielectric constant tensor:
#      x y z
#    x 1.733910 0.000000 0.013080 
#    y 0.000000 1.646780 0.000000 
#    z 0.013080 0.000000 1.710940 
# 
# From -- ./inp_files/180791.got.cif
#   From: 2010.05.17/outbox.ucp.g08.bks.cvg/sg12_91_cif.got.tgz:180791.got - 2010.06.11 11:47:21.
