data_PCOD9224667
_publ_section_title
;
Structure prediction by ZEFSAII (Michael W. Deem and Ramdas Pophale) SiO2 
 PCOD9224667
Probable space group: C 2/M
;
_chemical_formula_sum "Si O2"
_cell_formula_units_Z 28
_cell_length_a 24.000000
_cell_length_b 21.000000
_cell_length_c 18.000000
_cell_angle_alpha 90.000000
_cell_angle_beta 20.000000
_cell_angle_gamma 90.000000
_cell_volume 3102.806740
_symmetry_space_group_name_H-M "C 2/M"
_symmetry_group_IT_number 12
_symmetry_cell_setting 'monoclinic'
loop_
_space_group_symop_operation_xyz
x,y,z
-x,y,-z
-x,-y,-z
x,-y,z
1/2+x,1/2+y,z
1/2-x,1/2+y,-z
1/2-x,1/2-y,-z
1/2+x,1/2-y,z
loop_
_atom_site_type_symbol
_atom_site_label
_atom_site_fract_x
_atom_site_fract_y
_atom_site_fract_z
Si Si1 0.694552 0.000000 0.848940
Si Si2 0.491873 0.788420 0.920798
Si Si3 0.178973 0.500000 0.688309
Si Si4 0.666563 0.427788 0.741801
Si Si5 0.976808 0.151548 0.869444
Si Si6 0.683662 0.363728 0.482295
Si Si7 0.822647 0.423547 0.692045
Si Si8 0.330489 0.635036 0.677715
O O1 0.675847 0.000000 0.782563
O O2 0.793036 0.937562 0.747160
O O3 0.505825 0.000000 0.110412
O O4 0.467819 0.719404 0.918262
O O5 0.662338 0.821080 0.686333
O O6 0.500000 0.785539 0.000000
O O7 0.333937 0.828180 0.095321
O O8 0.271769 0.435974 0.552572
O O9 0.700453 0.500000 0.675761
O O10 0.626374 0.383560 0.723803
O O11 0.799905 0.405320 0.634013
O O12 0.500000 0.428487 0.000000
O O13 0.022777 0.156602 0.726500
O O14 0.816027 0.111253 0.087381
O O15 0.661665 0.360764 0.421503
O O16 0.796058 0.500000 0.728721
O O17 0.000000 0.408942 0.500000
O O18 0.500000 0.657418 0.500000
#
# Coordination Sequence:
#
# PCOD9224667 Si02
#       8
#     4   8   4   8   8   8   8   8
#     4   9  15  32  58  78 100 130 175 213 254 314
#     4  10  20  36  54  75 104 141 177 212 253 312
#     4   9  16  30  56  82 100 130 166 218 268 306
#     4   8  15  29  49  73  95 127 175 214 246 297
#     4  11  20  32  54  79 106 134 176 217 265 302
#     4  10  21  34  54  80 108 131 172 222 271 302
#     4   9  18  33  52  73 104 142 178 214 254 308
#     4  10  20  36  56  78 103 139 178 214 253 318
#
# _framework density 9.0240880000000008
#
# number of rings (size 3 to 8) (size 9 to 14) (size 15 to 20)
#    0.000    2.429    1.429    3.214    2.000    0.571 
#    0.000    2.143    0.000    0.000    0.000    0.000 
#    0.000    0.000    0.000    0.000    0.000    0.000 
#
# Total GULP energy -155994.574972 kJ/mol
# GULP energy per Si atom -5571.234820 kJ/mol
# Density = 0.900355 g / cm^3
# Si number density = 9.024088 Si / 1000 Ang^3
#
#
#
# Elastic Constant Matrix: (Units=GPa)
#
#
# Indices 1 2 3 4 5 6 
#
# 1 49.8322 24.9162 38.6660 0.0095 -22.9371 0.0046
# 2 24.9162 46.6217 37.0110 0.0002 -7.8858 -0.0222
# 3 38.6660 37.0110 74.1034 -0.0256 -17.8975 -0.0386
# 4 0.0095 0.0002 -0.0256 41.3787 0.0038 8.0958
# 5 -22.9371 -7.8858 -17.8975 0.0038 23.6550 0.0124
# 6 0.0046 -0.0222 -0.0386 8.0958 0.0124 24.1351
#
#
#
# Elastic Compliance Matrix: (Units=1/GPa)
#
#
# Indices 1 2 3 4 5 6 
#
# 1 0.053597 -0.012112 -0.012652 -0.000013 0.038360 -0.000057
# 2 -0.012112 0.038350 -0.015397 -0.000010 -0.010608 0.000022
# 3 -0.012652 -0.015397 0.028857 0.000015 0.004432 0.000027
# 4 -0.000013 -0.000010 0.000015 0.025864 -0.000004 -0.008676
# 5 0.038360 -0.010608 0.004432 -0.000004 0.079287 -0.000050
# 6 -0.000057 0.000022 0.000027 -0.008676 -0.000050 0.044344
#
#
# Mechanical properties :
#
#
# Convention : Reuss Voigt Hill
#
# Bulk Modulus (GPa) = 24.70159 41.30485 33.00322
# Shear Modulus (GPa) = 13.73195 22.49805 18.11500
#
# Velocity S-wave (km/s) = 2.76134 3.53449 3.17156
# Velocity P-wave (km/s) = 4.88701 6.29225 5.63362
#
# Compressibility (1/GPa) = 0.04048323
#
# Stress axis : x y z
#
# Youngs Moduli (GPa) = 18.65782 26.07533 34.65402
#
# Poissons Ratio (x) = 0.31581 0.43845
# Poissons Ratio (y) = 0.22597 0.53356
# Poissons Ratio (z) = 0.23606 0.40147
#
# Static dielectric constant tensor:
#      x y z
#    x 1.632200 -0.000010 0.022320 
#    y -0.000010 1.616730 0.000000 
#    z 0.022320 0.000000 1.632500 
# 
# From -- ./inp_files/290823.got.cif
#   From: 2010.05.17/outbox.ucp.g08.bks.cvg/sg12_146_cif.got.tgz:290823.got - 2010.06.11 11:47:21.
