data_PCOD9224840
_publ_section_title
;
Structure prediction by ZEFSAII (Michael W. Deem and Ramdas Pophale) SiO2 
 PCOD9224840
Probable space group: C 2/M
;
_chemical_formula_sum "Si O2"
_cell_formula_units_Z 28
_cell_length_a 15.000000
_cell_length_b 18.000000
_cell_length_c 21.000000
_cell_angle_alpha 90.000000
_cell_angle_beta 150.000000
_cell_angle_gamma 90.000000
_cell_volume 2835.000000
_symmetry_space_group_name_H-M "C 2/M"
_symmetry_group_IT_number 12
_symmetry_cell_setting 'monoclinic'
loop_
_space_group_symop_operation_xyz
x,y,z
-x,y,-z
-x,-y,-z
x,-y,z
1/2+x,1/2+y,z
1/2-x,1/2+y,-z
1/2-x,1/2-y,-z
1/2+x,1/2-y,z
loop_
_atom_site_type_symbol
_atom_site_label
_atom_site_fract_x
_atom_site_fract_y
_atom_site_fract_z
Si Si1 0.912253 0.295432 0.173785
Si Si2 0.325902 0.226048 0.860474
Si Si3 0.078499 0.350865 0.451825
Si Si4 0.491639 0.312691 0.418774
Si Si5 0.459028 0.668873 0.098375
Si Si6 0.685011 0.914051 0.388049
Si Si7 0.252374 0.085087 0.329604
O O1 0.817682 0.256323 0.176661
O O2 0.961247 0.230395 0.155425
O O3 0.076995 0.351192 0.282425
O O4 0.745327 0.342314 0.044456
O O5 0.425515 0.294043 0.886580
O O6 0.205178 0.183410 0.733715
O O7 0.500000 0.186387 0.000000
O O8 0.077869 0.262512 0.442472
O O9 0.094226 0.401512 0.400236
O O10 0.236741 0.374073 0.596358
O O11 0.896555 0.372787 0.375202
O O12 0.500000 0.300575 0.500000
O O13 0.613154 0.384174 0.481145
O O14 0.559563 0.595765 0.181444
O O15 0.675298 0.000000 0.361894
O O16 0.301829 0.000000 0.366807
#
# Coordination Sequence:
#
# PCOD9224840 Si02
#       7
#     8   8   8   8   8   8   8
#     4  10  21  37  60  82 116 159 198 243 293 356
#     4  10  20  37  60  88 114 146 199 252 294 346
#     4  11  20  37  56  83 115 154 197 240 291 356
#     4  12  22  39  66  86 115 157 209 250 293 349
#     4  10  20  37  58  86 113 152 205 243 289 363
#     4  12  25  37  56  89 126 155 192 245 302 358
#     4  11  20  32  55  84 119 152 185 243 307 357
#
# _framework density 9.8765429999999999
#
# number of rings (size 3 to 8) (size 9 to 14) (size 15 to 20)
#    0.000    1.143    4.286    3.857    2.000    0.857 
#    0.000    0.000    0.000    4.714    0.000    0.000 
#    0.000    0.000    0.000    0.000    0.000    0.000 
#
# Total GULP energy -156056.594668 kJ/mol
# GULP energy per Si atom -5573.449810 kJ/mol
# Density = 0.985406 g / cm^3
# Si number density = 9.876543 Si / 1000 Ang^3
#
#
#
# Elastic Constant Matrix: (Units=GPa)
#
#
# Indices 1 2 3 4 5 6 
#
# 1 48.2234 5.5258 5.2100 -0.0030 -9.1480 0.0018
# 2 5.5258 -19.2154 6.3929 -0.0206 -4.1859 0.0031
# 3 5.2100 6.3929 129.4141 -0.0093 -9.0343 0.0019
# 4 -0.0030 -0.0206 -0.0093 -17.5413 -0.0017 16.5972
# 5 -9.1480 -4.1859 -9.0343 -0.0017 13.9889 0.0018
# 6 0.0018 0.0031 0.0019 16.5972 0.0018 5.4076
#
#
#
# Elastic Compliance Matrix: (Units=1/GPa)
#
#
# Indices 1 2 3 4 5 6 
#
# 1 0.023463 0.003203 0.000037 -0.000006 0.016326 0.000003
# 2 0.003203 -0.048158 0.001456 0.000022 -0.011375 -0.000037
# 3 0.000037 0.001456 0.008049 -0.000003 0.005658 0.000004
# 4 -0.000006 0.000022 -0.000003 -0.014602 -0.000007 0.044818
# 5 0.016326 -0.011375 0.005658 -0.000007 0.082411 -0.000007
# 6 0.000003 -0.000037 0.000004 0.044818 -0.000007 0.047367
#
#
# Mechanical properties :
#
#
# Convention : Reuss Voigt Hill
#
# Bulk Modulus (GPa) = -137.83765 21.40883 -58.21441
# Shear Modulus (GPa) = 57.65725 9.79062 33.72394
#
# Velocity S-wave (km/s) = 5.40854 2.22874 4.13640
# Velocity P-wave (km/s) = 5.56135 4.18148 2.59267
#
# Compressibility (1/GPa) = -0.00725491
#
# Stress axis : x y z
#
# Youngs Moduli (GPa) = 42.62066 -20.76489 124.24376
#
# Poissons Ratio (x) = 0.06651 -0.00458
# Poissons Ratio (y) = -0.13652 -0.18089
# Poissons Ratio (z) = -0.00157 0.03023
#
# Static dielectric constant tensor:
#      x y z
#    x 1.712350 0.000000 -0.089940 
#    y 0.000000 1.624880 0.000000 
#    z -0.089940 0.000000 1.765820 
# 
# From -- ./inp_files/311724.got.cif
#   From: 2010.05.17/outbox.ucp.g08.bks.cvg/sg12_156_cif.got.tgz:311724.got - 2010.06.11 11:47:21.
