data_PCOD9224203
_publ_section_title
;
Structure prediction by ZEFSAII (Michael W. Deem and Ramdas Pophale) SiO2 
 PCOD9224203
Probable space group: C 2/M
;
_chemical_formula_sum "Si O2"
_cell_formula_units_Z 32
_cell_length_a 24.000000
_cell_length_b 9.000000
_cell_length_c 30.000000
_cell_angle_alpha 90.000000
_cell_angle_beta 30.000000
_cell_angle_gamma 90.000000
_cell_volume 3240.000000
_symmetry_space_group_name_H-M "C 2/M"
_symmetry_group_IT_number 12
_symmetry_cell_setting 'monoclinic'
loop_
_space_group_symop_operation_xyz
x,y,z
-x,y,-z
-x,-y,-z
x,-y,z
1/2+x,1/2+y,z
1/2-x,1/2+y,-z
1/2-x,1/2-y,-z
1/2+x,1/2-y,z
loop_
_atom_site_type_symbol
_atom_site_label
_atom_site_fract_x
_atom_site_fract_y
_atom_site_fract_z
Si Si1 0.273240 0.177431 0.693853
Si Si2 0.623166 0.829481 0.861079
Si Si3 0.857446 0.672731 0.053430
Si Si4 0.947726 0.318911 0.649729
Si Si5 0.271324 0.822865 0.937497
Si Si6 0.061897 0.668822 0.247233
Si Si7 0.666119 0.178691 0.445733
Si Si8 0.201074 0.331725 0.576802
O O1 0.160439 0.246032 0.790769
O O2 0.356819 0.213487 0.675856
O O3 0.324556 0.230147 0.611626
O O4 0.262298 0.000000 0.698204
O O5 0.664146 0.769746 0.881073
O O6 0.661634 0.000000 0.831472
O O7 0.490321 0.829749 0.956264
O O8 0.818965 0.500000 0.076924
O O9 0.809684 0.769178 0.046243
O O10 0.956190 0.500000 0.648358
O O11 0.917389 0.256209 0.719256
O O12 0.063449 0.268214 0.547428
O O13 0.388051 0.773479 0.833487
O O14 0.266643 0.000000 0.947214
O O15 0.250000 0.750000 0.000000
O O16 0.107907 0.500000 0.218287
O O17 0.930284 0.660351 0.336961
O O18 0.772033 0.237162 0.398437
O O19 0.659612 0.000000 0.449622
O O20 0.245045 0.500000 0.549512
O O21 0.250000 0.250000 0.500000
#
# Coordination Sequence:
#
# PCOD9224203 Si02
#       8
#     8   8   8   8   8   8   8   8
#     4  10  20  32  53  84 113 144 187 230 272 328
#     4   9  19  36  58  81 111 149 184 227 285 340
#     4   9  19  38  60  81 108 147 190 230 280 338
#     4   9  16  32  56  79 106 142 184 228 271 321
#     4  11  23  39  59  85 115 149 188 235 286 339
#     4   9  19  35  58  82 106 142 187 228 276 334
#     4  10  20  35  54  79 112 148 184 227 276 328
#     4  11  21  37  59  82 108 143 186 232 277 330
#
# _framework density 9.8765429999999999
#
# number of rings (size 3 to 8) (size 9 to 14) (size 15 to 20)
#    0.000    2.250    1.250    2.625    0.000    5.000 
#    0.000    8.125    0.000    1.500    0.000    0.000 
#    0.000    0.000    0.000    0.000    0.000    0.000 
#
# Total GULP energy -178139.271603 kJ/mol
# GULP energy per Si atom -5566.852238 kJ/mol
# Density = 0.985406 g / cm^3
# Si number density = 9.876543 Si / 1000 Ang^3
#
#
#
# Elastic Constant Matrix: (Units=GPa)
#
#
# Indices 1 2 3 4 5 6 
#
# 1 36.2667 10.2413 52.5940 -0.0005 34.5057 0.0014
# 2 10.2413 12.5455 31.6970 0.0014 11.3832 -0.0020
# 3 52.5940 31.6970 94.4180 0.0004 25.6253 -0.0007
# 4 -0.0005 0.0014 0.0004 19.2783 -0.0002 2.0163
# 5 34.5057 11.3832 25.6253 -0.0002 36.8143 0.0005
# 6 0.0014 -0.0020 -0.0007 2.0163 0.0005 25.3150
#
#
#
# Elastic Compliance Matrix: (Units=1/GPa)
#
#
# Indices 1 2 3 4 5 6 
#
# 1 -0.016868 -0.095316 0.035884 0.000007 0.020305 -0.000007
# 2 -0.095316 0.069065 0.014126 -0.000009 0.058151 0.000011
# 3 0.035884 0.014126 -0.004717 0.000000 -0.034718 0.000000
# 4 0.000007 -0.000009 0.000000 0.052307 -0.000003 -0.004166
# 5 0.020305 0.058151 -0.034718 -0.000003 0.014317 0.000003
# 6 -0.000007 0.000011 0.000000 -0.004166 0.000003 0.039834
#
#
# Mechanical properties :
#
#
# Convention : Reuss Voigt Hill
#
# Bulk Modulus (GPa) = -23.18455 36.92164 6.86855
# Shear Modulus (GPa) = 21.72261 19.52804 20.62533
#
# Velocity S-wave (km/s) = 3.31978 3.14762 3.23485
# Velocity P-wave (km/s) = 1.71229 5.65174 4.17577
#
# Compressibility (1/GPa) = -0.04313218
#
# Stress axis : x y z
#
# Youngs Moduli (GPa) = -59.28482 14.47910 -212.00635
#
# Poissons Ratio (x) = 1.38009 7.60756
# Poissons Ratio (y) = -5.65079 2.99481
# Poissons Ratio (z) = 2.12735 -0.20453
#
# Static dielectric constant tensor:
#      x y z
#    x 1.732640 0.000000 -0.035800 
#    y 0.000000 1.705500 -0.000010 
#    z -0.035800 -0.000010 1.509080 
# 
# From -- ./inp_files/382304.got.cif
#   From: 2010.05.17/outbox.ucp.g08.bks.cvg/sg12_192_cif.got.tgz:382304.got - 2010.06.11 11:47:21.
