data_PCOD9224634
_publ_section_title
;
Structure prediction by ZEFSAII (Michael W. Deem and Ramdas Pophale) SiO2 
 PCOD9224634
Probable space group: C 2/M
;
_chemical_formula_sum "Si O2"
_cell_formula_units_Z 32
_cell_length_a 30.000000
_cell_length_b 9.000000
_cell_length_c 18.000000
_cell_angle_alpha 90.000000
_cell_angle_beta 40.000000
_cell_angle_gamma 90.000000
_cell_volume 3123.947783
_symmetry_space_group_name_H-M "C 2/M"
_symmetry_group_IT_number 12
_symmetry_cell_setting 'monoclinic'
loop_
_space_group_symop_operation_xyz
x,y,z
-x,y,-z
-x,-y,-z
x,-y,z
1/2+x,1/2+y,z
1/2-x,1/2+y,-z
1/2-x,1/2-y,-z
1/2+x,1/2-y,z
loop_
_atom_site_type_symbol
_atom_site_label
_atom_site_fract_x
_atom_site_fract_y
_atom_site_fract_z
Si Si1 0.698565 0.177288 0.852611
Si Si2 0.848194 0.832559 0.695507
Si Si3 0.078414 0.677746 0.894016
Si Si4 0.188516 0.830604 0.477655
Si Si5 0.591276 0.172057 0.245525
Si Si6 0.806347 0.174169 0.981613
Si Si7 0.174133 0.833768 0.673241
Si Si8 0.050851 0.830079 0.566118
O O1 0.780672 0.198560 0.731135
O O2 0.636280 0.231334 0.879593
O O3 0.688992 0.000000 0.871656
O O4 0.695213 0.255366 0.935804
O O5 0.864197 0.714526 0.738446
O O6 0.914512 0.836281 0.558739
O O7 0.838560 0.000000 0.740397
O O8 0.076004 0.500000 0.902836
O O9 0.112054 0.725772 0.773932
O O10 0.000000 0.734735 0.000000
O O11 0.181746 0.836618 0.575268
O O12 0.254768 0.726668 0.381900
O O13 0.114536 0.786537 0.538530
O O14 0.203830 0.000000 0.431868
O O15 0.620243 0.280450 0.145909
O O16 0.511702 0.216273 0.356481
O O17 0.600521 0.000000 0.215224
O O18 0.794743 0.000000 0.998120
O O19 0.750000 0.250000 0.000000
O O20 0.159583 0.000000 0.718336
O O21 0.028823 0.000000 0.613175
#
# Coordination Sequence:
#
# PCOD9224634 Si02
#       8
#     8   8   8   8   8   8   8   8
#     4  10  21  39  64  91 118 156 202 246 296 357
#     4  10  20  36  60  84 113 154 198 244 296 354
#     4  10  22  40  61  87 122 162 201 243 297 359
#     4   9  19  37  60  86 116 154 196 241 298 359
#     4  12  25  39  57  84 119 158 196 243 296 351
#     4  12  24  41  64  89 117 152 197 249 298 354
#     4  10  20  35  59  88 118 152 196 247 297 350
#     4  10  21  38  59  85 118 157 198 241 295 356
#
# _framework density 10.243449
#
# number of rings (size 3 to 8) (size 9 to 14) (size 15 to 20)
#    0.000    1.625    1.250    3.750    0.000    6.750 
#    0.000    3.750    0.000    0.000    0.000    0.000 
#    0.000    0.000    0.000    0.000    0.000    0.000 
#
# Total GULP energy -178515.022839 kJ/mol
# GULP energy per Si atom -5578.594464 kJ/mol
# Density = 1.022013 g / cm^3
# Si number density = 10.243449 Si / 1000 Ang^3
#
#
#
# Elastic Constant Matrix: (Units=GPa)
#
#
# Indices 1 2 3 4 5 6 
#
# 1 71.7737 31.3887 25.7249 -0.0008 -13.7483 -0.0006
# 2 31.3887 -16.6349 7.9601 -0.0051 -9.4832 0.0047
# 3 25.7249 7.9601 67.1603 -0.0073 -12.1304 0.0024
# 4 -0.0008 -0.0051 -0.0073 25.9441 0.0045 4.5896
# 5 -13.7483 -9.4832 -12.1304 0.0045 26.5888 -0.0017
# 6 -0.0006 0.0047 0.0024 4.5896 -0.0017 18.4198
#
#
#
# Elastic Compliance Matrix: (Units=1/GPa)
#
#
# Indices 1 2 3 4 5 6 
#
# 1 0.011079 0.013876 -0.004315 0.000001 0.008709 -0.000002
# 2 0.013876 -0.032050 -0.002490 -0.000008 -0.005392 0.000010
# 3 -0.004315 -0.002490 0.017736 0.000004 0.004972 -0.000002
# 4 0.000001 -0.000008 0.000004 0.040322 -0.000008 -0.010047
# 5 0.008709 -0.005392 0.004972 -0.000008 0.042458 0.000007
# 6 -0.000002 0.000010 -0.000002 -0.010047 0.000007 0.056793
#
#
# Mechanical properties :
#
#
# Convention : Reuss Voigt Hill
#
# Bulk Modulus (GPa) = 91.69264 28.04960 59.87112
# Shear Modulus (GPa) = 39.73509 18.00556 28.87033
#
# Velocity S-wave (km/s) = 4.40880 2.96781 3.75802
# Velocity P-wave (km/s) = 8.41252 5.04629 6.93670
#
# Compressibility (1/GPa) = 0.01090600
#
# Stress axis : x y z
#
# Youngs Moduli (GPa) = 90.25865 -31.20169 56.38283
#
# Poissons Ratio (x) = 0.43295 0.24331
# Poissons Ratio (y) = -1.25242 0.14041
# Poissons Ratio (z) = 0.38950 -0.07770
#
# Static dielectric constant tensor:
#      x y z
#    x 1.728570 0.000000 0.028760 
#    y 0.000000 1.716540 0.000000 
#    z 0.028760 0.000000 1.835190 
# 
# From -- ./inp_files/295478.got.cif
#   From: 2010.05.17/outbox.ucp.g08.bks.cvg/sg12_148_cif.got.tgz:295478.got - 2010.06.11 11:47:21.
