data_PCOD9224770
_publ_section_title
;
Structure prediction by ZEFSAII (Michael W. Deem and Ramdas Pophale) SiO2 
 PCOD9224770
Probable space group: C 2/M
;
_chemical_formula_sum "Si O2"
_cell_formula_units_Z 28
_cell_length_a 9.000000
_cell_length_b 18.000000
_cell_length_c 27.000000
_cell_angle_alpha 90.000000
_cell_angle_beta 40.000000
_cell_angle_gamma 90.000000
_cell_volume 2811.553005
_symmetry_space_group_name_H-M "C 2/M"
_symmetry_group_IT_number 12
_symmetry_cell_setting 'monoclinic'
loop_
_space_group_symop_operation_xyz
x,y,z
-x,y,-z
-x,-y,-z
x,-y,z
1/2+x,1/2+y,z
1/2-x,1/2+y,-z
1/2-x,1/2-y,-z
1/2+x,1/2-y,z
loop_
_atom_site_type_symbol
_atom_site_label
_atom_site_fract_x
_atom_site_fract_y
_atom_site_fract_z
Si Si1 0.482098 0.174864 0.809423
Si Si2 0.224319 0.823921 0.973070
Si Si3 0.913281 0.681779 0.379082
Si Si4 0.104546 0.841340 0.362459
Si Si5 0.246379 0.086273 0.058960
Si Si6 0.332450 0.334297 0.207215
Si Si7 0.163212 0.585328 0.503943
O O1 0.408239 0.152983 0.883800
O O2 0.698787 0.136365 0.727255
O O3 0.567506 0.258171 0.797128
O O4 0.283216 0.174487 0.817911
O O5 0.250000 0.750000 0.000000
O O6 0.178932 0.891811 0.020956
O O7 0.000000 0.806106 0.000000
O O8 0.720185 0.679053 0.385701
O O9 0.858085 0.638313 0.443192
O O10 0.976665 0.766979 0.375502
O O11 0.133832 0.643568 0.296083
O O12 0.921922 0.905397 0.418054
O O13 0.053271 0.114721 0.145085
O O14 0.264127 0.000000 0.061015
O O15 0.500000 0.121333 0.000000
O O16 0.111138 0.500000 0.530214
O O17 0.000000 0.608358 0.500000
#
# Coordination Sequence:
#
# PCOD9224770 Si02
#       7
#     8   8   8   8   8   8   8
#     4  10  20  36  59  94 115 148 198 244 299 345
#     4  12  21  36  63  89 117 155 200 248 297 344
#     4  10  21  38  65  91 120 154 195 244 299 350
#     4  10  21  38  62  91 122 153 195 246 295 351
#     4  11  25  41  55  81 120 162 203 243 296 355
#     4  10  21  38  60  89 119 152 194 251 295 350
#     4  11  24  42  61  86 121 160 200 241 295 357
#
# _framework density 9.9589090000000002
#
# number of rings (size 3 to 8) (size 9 to 14) (size 15 to 20)
#    0.000    1.429    2.857    2.143    2.000    3.143 
#    0.000    2.857    0.000    0.000    0.000    0.000 
#    0.000    0.000    0.000    0.000    0.000    0.000 
#
# Total GULP energy -156045.560476 kJ/mol
# GULP energy per Si atom -5573.055731 kJ/mol
# Density = 0.993624 g / cm^3
# Si number density = 9.958909 Si / 1000 Ang^3
#
#
#
# Elastic Constant Matrix: (Units=GPa)
#
#
# Indices 1 2 3 4 5 6 
#
# 1 52.7261 -20.5189 22.5545 -0.0009 -13.8110 0.0042
# 2 -20.5189 -12.0601 19.4038 -0.0034 -12.9312 0.0024
# 3 22.5545 19.4038 104.2247 -0.0152 4.5776 0.0098
# 4 -0.0009 -0.0034 -0.0152 7.7552 0.0027 -7.4019
# 5 -13.8110 -12.9312 4.5776 0.0027 29.4675 -0.0018
# 6 0.0042 0.0024 0.0098 -7.4019 -0.0018 9.7019
#
#
#
# Elastic Compliance Matrix: (Units=1/GPa)
#
#
# Indices 1 2 3 4 5 6 
#
# 1 0.011673 -0.016690 0.000667 -0.000021 -0.001956 -0.000018
# 2 -0.016690 -0.021256 0.008379 0.000044 -0.018452 0.000034
# 3 0.000667 0.008379 0.007768 0.000032 0.002783 0.000015
# 4 -0.000021 0.000044 0.000032 0.474375 -0.000016 0.361915
# 5 -0.001956 -0.018452 0.002783 -0.000016 0.024489 -0.000005
# 6 -0.000018 0.000034 0.000015 0.361915 -0.000005 0.379188
#
#
# Mechanical properties :
#
#
# Convention : Reuss Voigt Hill
#
# Bulk Modulus (GPa) = -58.47474 20.86328 -18.80573
# Shear Modulus (GPa) = 5.64447 17.61501 11.62974
#
# Velocity S-wave (km/s) = 1.68524 2.97709 2.41899
# Velocity P-wave (km/s) = 5.06311 4.72386 1.28845
#
# Compressibility (1/GPa) = -0.01710140
#
# Stress axis : x y z
#
# Youngs Moduli (GPa) = 85.66641 -47.04538 128.73200
#
# Poissons Ratio (x) = -0.78517 -0.08586
# Poissons Ratio (y) = 1.42975 -1.07870
# Poissons Ratio (z) = -0.05714 0.39421
#
# Static dielectric constant tensor:
#      x y z
#    x 1.704150 0.000000 -0.026190 
#    y 0.000000 1.665760 0.000000 
#    z -0.026190 0.000000 1.872400 
# 
# From -- ./inp_files/257067.got.cif
#   From: 2010.05.17/outbox.ucp.g08.bks.cvg/sg12_129_cif.got.tgz:257067.got - 2010.06.11 11:47:21.
