data_PCOD9224290
_publ_section_title
;
Structure prediction by ZEFSAII (Michael W. Deem and Ramdas Pophale) SiO2 
 PCOD9224290
Probable space group: C 2/M
;
_chemical_formula_sum "Si O2"
_cell_formula_units_Z 28
_cell_length_a 15.000000
_cell_length_b 24.000000
_cell_length_c 15.000000
_cell_angle_alpha 90.000000
_cell_angle_beta 30.000000
_cell_angle_gamma 90.000000
_cell_volume 2700.000000
_symmetry_space_group_name_H-M "C 2/M"
_symmetry_group_IT_number 12
_symmetry_cell_setting 'monoclinic'
loop_
_space_group_symop_operation_xyz
x,y,z
-x,y,-z
-x,-y,-z
x,-y,z
1/2+x,1/2+y,z
1/2-x,1/2+y,-z
1/2-x,1/2-y,-z
1/2+x,1/2-y,z
loop_
_atom_site_type_symbol
_atom_site_label
_atom_site_fract_x
_atom_site_fract_y
_atom_site_fract_z
Si Si1 0.590903 0.732232 0.013098
Si Si2 0.009842 0.236574 0.384674
Si Si3 0.606215 0.615298 0.501414
Si Si4 0.491534 0.148462 0.114353
Si Si5 0.265293 0.624549 0.026946
Si Si6 0.445858 0.139802 0.441765
Si Si7 0.891603 0.936612 0.315214
O O1 0.479583 0.784939 0.144323
O O2 0.500000 0.711455 0.000000
O O3 0.784181 0.756850 0.820557
O O4 0.631327 0.682896 0.045494
O O5 0.000000 0.234349 0.500000
O O6 0.941218 0.176237 0.416607
O O7 0.916868 0.294965 0.440381
O O8 0.500000 0.606978 0.500000
O O9 0.814691 0.617833 0.298605
O O10 0.575723 0.572273 0.607211
O O11 0.659235 0.126424 0.025261
O O12 0.500000 0.143881 0.000000
O O13 0.113841 0.620500 0.235162
O O14 0.421193 0.579366 0.892990
O O15 0.500000 0.137871 0.500000
O O16 0.270082 0.103884 0.574574
O O17 0.841774 0.000000 0.339499
#
# Coordination Sequence:
#
# PCOD9224290 Si02
#       7
#     8   8   8   8   8   8   8
#     4  10  20  33  59  97 139 172 212 259 323 407
#     4   9  18  34  62 100 133 167 208 262 332 402
#     4  11  22  41  68  98 136 175 217 270 332 404
#     4  11  21  38  63 101 140 174 207 266 331 405
#     4  11  24  42  65  98 130 178 218 272 329 391
#     4  10  24  45  71 102 135 171 221 275 335 393
#     4  12  28  46  68  94 129 180 232 282 324 384
#
# _framework density 10.370369999999999
#
# number of rings (size 3 to 8) (size 9 to 14) (size 15 to 20)
#    0.000    1.429    1.429    5.571    8.000    2.857 
#    0.000    0.714    0.000    1.714    0.000    0.000 
#    0.000    0.000    0.000    0.000    0.000    0.000 
#
# Total GULP energy -156561.922831 kJ/mol
# GULP energy per Si atom -5591.497244 kJ/mol
# Density = 1.034677 g / cm^3
# Si number density = 10.370370 Si / 1000 Ang^3
#
#
#
# Elastic Constant Matrix: (Units=GPa)
#
#
# Indices 1 2 3 4 5 6 
#
# 1 98.3309 11.0406 14.7081 0.0010 -7.1313 -0.0011
# 2 11.0406 48.7194 16.6202 0.0035 -5.0360 0.0011
# 3 14.7081 16.6202 69.9466 -0.0195 1.8933 -0.0053
# 4 0.0010 0.0035 -0.0195 16.6736 0.0041 -3.1518
# 5 -7.1313 -5.0360 1.8933 0.0041 32.4275 0.0042
# 6 -0.0011 0.0011 -0.0053 -3.1518 0.0042 18.4246
#
#
#
# Elastic Compliance Matrix: (Units=1/GPa)
#
#
# Indices 1 2 3 4 5 6 
#
# 1 0.010800 -0.001545 -0.001965 -0.000003 0.002250 -0.000001
# 2 -0.001545 0.023031 -0.005244 -0.000013 0.003543 -0.000006
# 3 -0.001965 -0.005244 0.016015 0.000022 -0.002181 0.000009
# 4 -0.000003 -0.000013 0.000022 0.061979 -0.000013 0.010603
# 5 0.002250 0.003543 -0.002181 -0.000013 0.032010 -0.000010
# 6 -0.000001 -0.000006 0.000009 0.010603 -0.000010 0.056089
#
#
# Mechanical properties :
#
#
# Convention : Reuss Voigt Hill
#
# Bulk Modulus (GPa) = 30.92174 33.52607 32.22390
# Shear Modulus (GPa) = 21.90960 25.14701 23.52830
#
# Velocity S-wave (km/s) = 3.25369 3.48580 3.37174
# Velocity P-wave (km/s) = 5.39040 5.69214 5.54332
#
# Compressibility (1/GPa) = 0.03233971
#
# Stress axis : x y z
#
# Youngs Moduli (GPa) = 92.59037 43.42014 62.44228
#
# Poissons Ratio (x) = 0.06707 0.12269
# Poissons Ratio (y) = 0.14302 0.32742
# Poissons Ratio (z) = 0.18193 0.22767
#
# Static dielectric constant tensor:
#      x y z
#    x 1.746720 -0.000020 0.015130 
#    y -0.000020 1.741120 0.000030 
#    z 0.015130 0.000030 1.748480 
# 
# From -- ./inp_files/218673.got.cif
#   From: 2010.05.17/outbox.ucp.g08.bks.cvg/sg12_110_cif.got.tgz:218673.got - 2010.06.11 11:47:21.
