data_PCOD9224872
_publ_section_title
;
Structure prediction by ZEFSAII (Michael W. Deem and Ramdas Pophale) SiO2 
 PCOD9224872
Probable space group: C 2/M
;
_chemical_formula_sum "Si O2"
_cell_formula_units_Z 24
_cell_length_a 24.000000
_cell_length_b 9.000000
_cell_length_c 12.000000
_cell_angle_alpha 90.000000
_cell_angle_beta 70.000000
_cell_angle_gamma 90.000000
_cell_volume 2435.683273
_symmetry_space_group_name_H-M "C 2/M"
_symmetry_group_IT_number 12
_symmetry_cell_setting 'monoclinic'
loop_
_space_group_symop_operation_xyz
x,y,z
-x,y,-z
-x,-y,-z
x,-y,z
1/2+x,1/2+y,z
1/2-x,1/2+y,-z
1/2-x,1/2-y,-z
1/2+x,1/2-y,z
loop_
_atom_site_type_symbol
_atom_site_label
_atom_site_fract_x
_atom_site_fract_y
_atom_site_fract_z
Si Si1 0.622277 0.324738 0.946724
Si Si2 0.767973 0.320113 0.249036
Si Si3 0.046477 0.672491 0.817198
Si Si4 0.335723 0.827897 0.415055
Si Si5 0.145570 0.679364 0.346497
Si Si6 0.065451 0.175156 0.220681
O O1 0.628431 0.500000 0.916447
O O2 0.679317 0.234473 0.866468
O O3 0.566966 0.258447 0.914441
O O4 0.610706 0.308991 0.085685
O O5 0.764167 0.500000 0.251153
O O6 0.786484 0.267152 0.362351
O O7 0.707009 0.243500 0.256428
O O8 0.032478 0.500000 0.850763
O O9 0.104447 0.675218 0.698667
O O10 0.994043 0.749978 0.785460
O O11 0.351178 0.767329 0.526447
O O12 0.318906 0.000000 0.445187
O O13 0.143090 0.500000 0.344163
O O14 0.092057 0.746274 0.311284
O O15 0.056413 0.000000 0.246932
#
# Coordination Sequence:
#
# PCOD9224872 Si02
#       6
#     8   8   8   8   8   8
#     4  10  21  38  59  82 110 145 185 228 273 324
#     4  10  20  37  60  85 112 141 181 230 277 326
#     4  10  20  37  61  86 111 141 182 229 276 325
#     4   8  18  36  58  84 111 142 180 225 273 324
#     4  11  22  37  57  81 112 149 186 223 272 329
#     4  11  24  39  54  79 115 150 185 226 273 325
#
# _framework density 9.8534980000000001
#
# number of rings (size 3 to 8) (size 9 to 14) (size 15 to 20)
#    0.000    2.000    0.000    4.500    0.000    6.000 
#    0.000   12.500    0.000    0.000    0.000    0.000 
#    0.000    0.000    0.000    0.000    0.000    0.000 
#
# Total GULP energy -133981.267589 kJ/mol
# GULP energy per Si atom -5582.552816 kJ/mol
# Density = 0.983107 g / cm^3
# Si number density = 9.853498 Si / 1000 Ang^3
#
#
#
# Elastic Constant Matrix: (Units=GPa)
#
#
# Indices 1 2 3 4 5 6 
#
# 1 56.6494 15.4372 1.1479 0.0000 15.5816 0.0000
# 2 15.4372 89.0232 15.4247 0.0000 8.9047 0.0000
# 3 1.1479 15.4247 29.8453 0.0000 12.5897 0.0000
# 4 0.0000 0.0000 0.0000 26.6817 0.0000 5.6901
# 5 15.5816 8.9047 12.5897 0.0000 26.1575 0.0000
# 6 0.0000 0.0000 0.0000 5.6901 0.0000 36.4637
#
#
#
# Elastic Compliance Matrix: (Units=1/GPa)
#
#
# Indices 1 2 3 4 5 6 
#
# 1 0.022965 -0.003726 0.007877 0.000000 -0.016203 0.000000
# 2 -0.003726 0.012985 -0.007076 0.000000 0.001205 0.000000
# 3 0.007877 -0.007076 0.047459 0.000000 -0.025126 0.000000
# 4 0.000000 0.000000 0.000000 0.038769 0.000000 -0.006050
# 5 -0.016203 0.001205 -0.025126 0.000000 0.059565 0.000000
# 6 0.000000 0.000000 0.000000 -0.006050 0.000000 0.028369
#
#
# Mechanical properties :
#
#
# Convention : Reuss Voigt Hill
#
# Bulk Modulus (GPa) = 12.89343 26.61528 19.75436
# Shear Modulus (GPa) = 20.67712 27.42780 24.05246
#
# Velocity S-wave (km/s) = 3.24269 3.73470 3.49736
# Velocity P-wave (km/s) = 4.53617 5.66852 5.13366
#
# Compressibility (1/GPa) = 0.07755888
#
# Stress axis : x y z
#
# Youngs Moduli (GPa) = 43.54473 77.01391 21.07087
#
# Poissons Ratio (x) = 0.28699 -0.16598
# Poissons Ratio (y) = 0.16227 0.14909
# Poissons Ratio (z) = -0.34302 0.54493
#
# Static dielectric constant tensor:
#      x y z
#    x 1.683780 0.000000 -0.017500 
#    y 0.000000 1.665270 0.000000 
#    z -0.017500 0.000000 1.722350 
# 
# From -- ./inp_files/172121.got.cif
#   From: 2010.05.17/outbox.ucp.g08.bks.cvg/sg12_87_cif.got.tgz:172121.got - 2010.06.11 11:47:21.
