data_PCOD9224225
_publ_section_title
;
Structure prediction by ZEFSAII (Michael W. Deem and Ramdas Pophale) SiO2 
 PCOD9224225
Probable space group: C 2/M
;
_chemical_formula_sum "Si O2"
_cell_formula_units_Z 24
_cell_length_a 24.000000
_cell_length_b 9.000000
_cell_length_c 12.000000
_cell_angle_alpha 90.000000
_cell_angle_beta 110.000000
_cell_angle_gamma 90.000000
_cell_volume 2435.683273
_symmetry_space_group_name_H-M "C 2/M"
_symmetry_group_IT_number 12
_symmetry_cell_setting 'monoclinic'
loop_
_space_group_symop_operation_xyz
x,y,z
-x,y,-z
-x,-y,-z
x,-y,z
1/2+x,1/2+y,z
1/2-x,1/2+y,-z
1/2-x,1/2-y,-z
1/2+x,1/2-y,z
loop_
_atom_site_type_symbol
_atom_site_label
_atom_site_fract_x
_atom_site_fract_y
_atom_site_fract_z
Si Si1 0.601366 0.179046 0.579077
Si Si2 0.347626 0.672533 0.067140
Si Si3 0.969515 0.321104 0.088502
Si Si4 0.243330 0.327500 0.149020
Si Si5 0.998903 0.320576 0.338000
Si Si6 0.778036 0.172202 0.413724
O O1 0.565805 0.230174 0.664763
O O2 0.552202 0.220231 0.453327
O O3 0.661518 0.251933 0.583374
O O4 0.609013 0.000000 0.588595
O O5 0.363548 0.500000 0.078544
O O6 0.404157 0.767071 0.072038
O O7 0.310692 0.704732 0.154932
O O8 0.298570 0.712801 0.941009
O O9 0.967568 0.500000 0.080464
O O10 0.009367 0.275612 0.220111
O O11 0.000000 0.260741 0.000000
O O12 0.231317 0.500000 0.106535
O O13 0.236953 0.318095 0.276401
O O14 0.996158 0.500000 0.342055
O O15 0.750000 0.250000 0.500000
O O16 0.788547 0.000000 0.444806
#
# Coordination Sequence:
#
# PCOD9224225 Si02
#       6
#     8   8   8   8   8   8
#     4   9  17  33  56  77  99 132 176 220 257 299
#     4  10  20  35  57  82 105 133 175 224 267 306
#     4  10  20  33  50  74 106 142 174 206 254 314
#     4   9  20  38  57  77 104 139 176 216 263 316
#     4   8  16  32  54  77 100 133 176 215 254 306
#     4  11  23  37  53  77 109 142 176 214 262 316
#
# _framework density 9.8534980000000001
#
# number of rings (size 3 to 8) (size 9 to 14) (size 15 to 20)
#    0.000    2.500    0.000    3.000    0.000    3.667 
#    0.000    5.833    0.000    0.000    0.000    0.000 
#    0.000    0.000    0.000    0.000    0.000    0.000 
#
# Total GULP energy -133628.040571 kJ/mol
# GULP energy per Si atom -5567.835024 kJ/mol
# Density = 0.983107 g / cm^3
# Si number density = 9.853498 Si / 1000 Ang^3
#
#
#
# Elastic Constant Matrix: (Units=GPa)
#
#
# Indices 1 2 3 4 5 6 
#
# 1 48.6018 16.0729 53.0358 0.0000 -20.1826 0.0000
# 2 16.0729 20.4574 29.4136 0.0000 -17.7215 0.0000
# 3 53.0358 29.4136 90.1826 0.0000 -35.9436 0.0000
# 4 0.0000 0.0000 0.0000 9.5185 0.0000 0.4769
# 5 -20.1826 -17.7215 -35.9436 0.0000 28.3091 0.0000
# 6 0.0000 0.0000 0.0000 0.4769 0.0000 28.0867
#
#
#
# Elastic Compliance Matrix: (Units=1/GPa)
#
#
# Indices 1 2 3 4 5 6 
#
# 1 0.057916 0.005694 -0.036521 0.000000 -0.001515 0.000000
# 2 0.005694 0.121173 -0.022308 0.000000 0.051589 0.000000
# 3 -0.036521 -0.022308 0.048383 0.000000 0.021429 0.000000
# 4 0.000000 0.000000 0.000000 0.105148 0.000000 -0.001785
# 5 -0.001515 0.051589 0.021429 0.000000 0.093747 0.000000
# 6 0.000000 0.000000 0.000000 -0.001785 0.000000 0.035634
#
#
# Mechanical properties :
#
#
# Convention : Reuss Voigt Hill
#
# Bulk Modulus (GPa) = 8.25069 39.58738 23.91904
# Shear Modulus (GPa) = 8.21458 17.23083 12.72271
#
# Velocity S-wave (km/s) = 2.04387 2.96015 2.54361
# Velocity P-wave (km/s) = 3.12500 5.64047 4.55964
#
# Compressibility (1/GPa) = 0.12120192
#
# Stress axis : x y z
#
# Youngs Moduli (GPa) = 17.26636 8.25267 20.66824
#
# Poissons Ratio (x) = -0.04699 0.75483
# Poissons Ratio (y) = -0.09832 0.46107
# Poissons Ratio (z) = 0.63059 0.18410
#
# Static dielectric constant tensor:
#      x y z
#    x 1.655950 0.000000 0.009030 
#    y 0.000000 1.663370 0.000000 
#    z 0.009030 0.000000 1.783050 
# 
# From -- ./inp_files/172295.got.cif
#   From: 2010.05.17/outbox.ucp.g08.bks.cvg/sg12_87_cif.got.tgz:172295.got - 2010.06.11 11:47:21.
