data_PCOD9224435
_publ_section_title
;
Structure prediction by ZEFSAII (Michael W. Deem and Ramdas Pophale) SiO2 
 PCOD9224435
Probable space group: C 2/M
;
_chemical_formula_sum "Si O2"
_cell_formula_units_Z 28
_cell_length_a 21.000000
_cell_length_b 9.000000
_cell_length_c 15.000000
_cell_angle_alpha 90.000000
_cell_angle_beta 90.000000
_cell_angle_gamma 90.000000
_cell_volume 2835.000000
_symmetry_space_group_name_H-M "C 2/M"
_symmetry_group_IT_number 12
_symmetry_cell_setting 'monoclinic'
loop_
_space_group_symop_operation_xyz
x,y,z
-x,y,-z
-x,-y,-z
x,-y,z
1/2+x,1/2+y,z
1/2-x,1/2+y,-z
1/2-x,1/2-y,-z
1/2+x,1/2-y,z
loop_
_atom_site_type_symbol
_atom_site_label
_atom_site_fract_x
_atom_site_fract_y
_atom_site_fract_z
Si Si1 0.924374 0.178608 0.489388
Si Si2 0.078007 0.175534 0.215961
Si Si3 0.072421 0.331156 0.033535
Si Si4 0.798230 0.321564 0.570100
Si Si5 0.649667 0.821368 0.858318
Si Si6 0.443046 0.679273 0.287340
Si Si7 0.276145 0.319614 0.754200
O O1 0.869906 0.257401 0.549191
O O2 0.914788 0.213624 0.384698
O O3 0.000000 0.215020 0.500000
O O4 0.918660 0.000000 0.504576
O O5 0.067242 0.217286 0.113948
O O6 0.150636 0.226248 0.228360
O O7 0.016821 0.231242 0.272711
O O8 0.079088 0.000000 0.231588
O O9 0.090091 0.500000 0.062982
O O10 0.122515 0.283901 0.956717
O O11 0.000000 0.340567 0.000000
O O12 0.800199 0.500000 0.565473
O O13 0.750000 0.250000 0.500000
O O14 0.766682 0.266120 0.662230
O O15 0.601331 0.749035 0.787942
O O16 0.722057 0.782444 0.828000
O O17 0.644352 0.000000 0.852115
O O18 0.443320 0.500000 0.279021
O O19 0.273823 0.500000 0.742613
#
# Coordination Sequence:
#
# PCOD9224435 Si02
#       7
#     8   8   8   8   8   8   8
#     4  10  21  39  62  87 119 156 195 245 301 354
#     4  10  21  37  59  86 116 151 190 237 289 342
#     4  10  20  36  57  84 118 153 189 233 289 347
#     4  12  25  41  62  88 120 159 202 247 298 358
#     4  10  21  37  58  82 111 150 192 236 285 342
#     4  10  20  34  56  84 111 145 190 236 284 340
#     4  10  22  41  61  84 116 153 195 242 295 351
#
# _framework density 9.8765429999999999
#
# number of rings (size 3 to 8) (size 9 to 14) (size 15 to 20)
#    0.000    1.714    1.429    3.000    0.000    8.000 
#    0.000    1.429    0.000    0.000    0.000    0.000 
#    0.000    0.000    0.000    0.000    0.000    0.000 
#
# Total GULP energy -156099.641441 kJ/mol
# GULP energy per Si atom -5574.987194 kJ/mol
# Density = 0.985406 g / cm^3
# Si number density = 9.876543 Si / 1000 Ang^3
#
#
#
# Elastic Constant Matrix: (Units=GPa)
#
#
# Indices 1 2 3 4 5 6 
#
# 1 98.1677 14.8643 7.0182 0.0000 -30.1348 0.0000
# 2 14.8643 6.9447 -4.9654 0.0000 -8.8633 0.0000
# 3 7.0182 -4.9654 39.4551 0.0000 -27.7045 0.0000
# 4 0.0000 0.0000 0.0000 23.6379 0.0000 -9.6298
# 5 -30.1348 -8.8633 -27.7045 0.0000 46.7723 0.0000
# 6 0.0000 0.0000 0.0000 -9.6298 0.0000 26.8081
#
#
#
# Elastic Compliance Matrix: (Units=1/GPa)
#
#
# Indices 1 2 3 4 5 6 
#
# 1 0.020853 -0.123159 -0.044793 0.000000 -0.036435 0.000000
# 2 -0.123159 2.084359 0.866063 0.000000 0.828626 0.000000
# 3 -0.044793 0.866063 0.406247 0.000000 0.375889 0.000000
# 4 0.000000 0.000000 0.000000 0.049557 0.000000 0.017802
# 5 -0.036435 0.828626 0.375889 0.000000 0.377578 0.000000
# 6 0.000000 0.000000 0.000000 0.017802 0.000000 0.043697
#
#
# Mechanical properties :
#
#
# Convention : Reuss Voigt Hill
#
# Bulk Modulus (GPa) = 0.25591 19.82243 10.03917
# Shear Modulus (GPa) = 1.73093 27.95369 14.84231
#
# Velocity S-wave (km/s) = 0.93711 3.76594 2.74413
# Velocity P-wave (km/s) = 1.14050 5.38206 3.89020
#
# Compressibility (1/GPa) = 3.90768175
#
# Stress axis : x y z
#
# Youngs Moduli (GPa) = 47.95514 0.47976 2.46156
#
# Poissons Ratio (x) = 0.05909 0.11026
# Poissons Ratio (y) = 5.90612 -2.13186
# Poissons Ratio (z) = 2.14804 -0.41551
#
# Static dielectric constant tensor:
#      x y z
#    x 1.786500 0.000000 0.097350 
#    y 0.000000 1.675090 0.000000 
#    z 0.097350 0.000000 1.782990 
# 
# From -- ./inp_files/230979.got.cif
#   From: 2010.05.17/outbox.ucp.g08.bks.cvg/sg12_116_cif.got.tgz:230979.got - 2010.06.11 11:47:21.
