data_PCOD9224443
_publ_section_title
;
Structure prediction by ZEFSAII (Michael W. Deem and Ramdas Pophale) SiO2 
 PCOD9224443
Probable space group: C 2/M
;
_chemical_formula_sum "Si O2"
_cell_formula_units_Z 28
_cell_length_a 21.000000
_cell_length_b 9.000000
_cell_length_c 15.000000
_cell_angle_alpha 90.000000
_cell_angle_beta 90.000000
_cell_angle_gamma 90.000000
_cell_volume 2835.000000
_symmetry_space_group_name_H-M "C 2/M"
_symmetry_group_IT_number 12
_symmetry_cell_setting 'monoclinic'
loop_
_space_group_symop_operation_xyz
x,y,z
-x,y,-z
-x,-y,-z
x,-y,z
1/2+x,1/2+y,z
1/2-x,1/2+y,-z
1/2-x,1/2-y,-z
1/2+x,1/2-y,z
loop_
_atom_site_type_symbol
_atom_site_label
_atom_site_fract_x
_atom_site_fract_y
_atom_site_fract_z
Si Si1 0.438464 0.679978 0.557161
Si Si2 0.451344 0.333809 0.082592
Si Si3 0.448029 0.323088 0.767565
Si Si4 0.780535 0.319843 0.251717
Si Si5 0.326995 0.173941 0.052805
Si Si6 0.328078 0.178570 0.849109
Si Si7 0.809666 0.181077 0.445177
O O1 0.500000 0.730775 0.500000
O O2 0.439759 0.500000 0.558318
O O3 0.444652 0.722601 0.662627
O O4 0.373745 0.719551 0.502582
O O5 0.420662 0.500000 0.085217
O O6 0.485425 0.310029 0.178230
O O7 0.401740 0.207566 0.057729
O O8 0.500000 0.338724 0.000000
O O9 0.431530 0.500000 0.771976
O O10 0.399594 0.227732 0.827206
O O11 0.782984 0.500000 0.259753
O O12 0.808622 0.273027 0.153724
O O13 0.709795 0.259445 0.231315
O O14 0.807684 0.246995 0.343211
O O15 0.310662 0.000000 0.051562
O O16 0.309045 0.229369 0.951155
O O17 0.320076 0.000000 0.845212
O O18 0.750000 0.250000 0.500000
O O19 0.805188 0.000000 0.440872
#
# Coordination Sequence:
#
# PCOD9224443 Si02
#       7
#     8   8   8   8   8   8   8
#     4   9  20  38  61  89 119 155 201 253 304 354
#     4  10  20  34  56  88 119 154 199 243 291 361
#     4  10  20  36  60  87 119 157 196 242 299 359
#     4  11  24  41  61  86 120 158 198 248 308 366
#     4  10  23  39  57  84 121 159 196 246 305 363
#     4  11  22  38  60  88 118 155 202 247 298 365
#     4  11  23  41  67  94 123 161 209 261 311 369
#
# _framework density 9.8765429999999999
#
# number of rings (size 3 to 8) (size 9 to 14) (size 15 to 20)
#    0.000    1.714    1.429    2.571    2.000    3.714 
#    0.000    0.714    0.000    2.143    0.000    0.000 
#    0.000    0.000    0.000    0.000    0.000    0.000 
#
# Total GULP energy -155978.989973 kJ/mol
# GULP energy per Si atom -5570.678213 kJ/mol
# Density = 0.985406 g / cm^3
# Si number density = 9.876543 Si / 1000 Ang^3
#
#
#
# Elastic Constant Matrix: (Units=GPa)
#
#
# Indices 1 2 3 4 5 6 
#
# 1 54.3553 4.6759 35.8596 0.0000 10.0034 0.0000
# 2 4.6759 37.9262 22.7210 0.0000 4.0376 0.0000
# 3 35.8596 22.7210 192.5192 0.0000 20.5661 0.0000
# 4 0.0000 0.0000 0.0000 38.6234 0.0000 -0.0406
# 5 10.0034 4.0376 20.5661 0.0000 41.8906 0.0000
# 6 0.0000 0.0000 0.0000 -0.0406 0.0000 21.9673
#
#
#
# Elastic Compliance Matrix: (Units=1/GPa)
#
#
# Indices 1 2 3 4 5 6 
#
# 1 0.021406 -0.000118 -0.003618 0.000000 -0.003324 0.000000
# 2 -0.000118 0.028426 -0.003212 0.000000 -0.001135 0.000000
# 3 -0.003618 -0.003212 0.006461 0.000000 -0.001998 0.000000
# 4 0.000000 0.000000 0.000000 0.025891 0.000000 0.000048
# 5 -0.003324 -0.001135 -0.001998 0.000000 0.025756 0.000000
# 6 0.000000 0.000000 0.000000 0.000048 0.000000 0.045522
#
#
# Mechanical properties :
#
#
# Convention : Reuss Voigt Hill
#
# Bulk Modulus (GPa) = 23.58582 45.70152 34.64367
# Shear Modulus (GPa) = 27.54958 35.26587 31.40772
#
# Velocity S-wave (km/s) = 3.73862 4.22991 3.99183
# Velocity P-wave (km/s) = 5.53196 6.85877 6.23078
#
# Compressibility (1/GPa) = 0.04239836
#
# Stress axis : x y z
#
# Youngs Moduli (GPa) = 46.71495 35.17849 154.78045
#
# Poissons Ratio (x) = 0.00414 0.56004
# Poissons Ratio (y) = 0.00550 0.49711
# Poissons Ratio (z) = 0.16903 0.11298
#
# Static dielectric constant tensor:
#      x y z
#    x 1.782900 0.000000 -0.022730 
#    y 0.000000 1.690720 0.000000 
#    z -0.022730 0.000000 1.693030 
# 
# From -- ./inp_files/230963.got.cif
#   From: 2010.05.17/outbox.ucp.g08.bks.cvg/sg12_116_cif.got.tgz:230963.got - 2010.06.11 11:47:21.
