data_PCOD9224761
_publ_section_title
;
Structure prediction by ZEFSAII (Michael W. Deem and Ramdas Pophale) SiO2 
 PCOD9224761
Probable space group: C 2/M
;
_chemical_formula_sum "Si O2"
_cell_formula_units_Z 28
_cell_length_a 30.000000
_cell_length_b 9.000000
_cell_length_c 12.000000
_cell_angle_alpha 90.000000
_cell_angle_beta 70.000000
_cell_angle_gamma 90.000000
_cell_volume 3044.604091
_symmetry_space_group_name_H-M "C 2/M"
_symmetry_group_IT_number 12
_symmetry_cell_setting 'monoclinic'
loop_
_space_group_symop_operation_xyz
x,y,z
-x,y,-z
-x,-y,-z
x,-y,z
1/2+x,1/2+y,z
1/2-x,1/2+y,-z
1/2-x,1/2-y,-z
1/2+x,1/2-y,z
loop_
_atom_site_type_symbol
_atom_site_label
_atom_site_fract_x
_atom_site_fract_y
_atom_site_fract_z
Si Si1 0.652809 0.178656 0.634745
Si Si2 0.068271 0.180701 0.846427
Si Si3 0.770377 0.820312 0.279615
Si Si4 0.166545 0.177908 0.391091
Si Si5 0.463207 0.678869 0.879279
Si Si6 0.377016 0.677617 0.811272
Si Si7 0.294839 0.820840 0.026000
O O1 0.611014 0.235538 0.751003
O O2 0.700773 0.253106 0.641434
O O3 0.645041 0.245505 0.518607
O O4 0.656414 0.000000 0.630406
O O5 0.017877 0.226170 0.834541
O O6 0.074542 0.000000 0.832609
O O7 0.062118 0.219579 0.982315
O O8 0.717167 0.756319 0.326613
O O9 0.794839 0.754382 0.147539
O O10 0.770842 0.000000 0.279431
O O11 0.134919 0.199584 0.307803
O O12 0.172847 0.000000 0.402072
O O13 0.465826 0.500000 0.879768
O O14 0.429776 0.720240 0.805377
O O15 0.370259 0.500000 0.840263
O O16 0.340437 0.770783 0.916928
O O17 0.290697 0.000000 0.037187
O O18 0.250000 0.750000 0.000000
#
# Coordination Sequence:
#
# PCOD9224761 Si02
#       7
#     8   8   8   8   8   8   8
#     4  12  25  40  58  82 114 151 196 242 292 347
#     4   9  17  35  62  89 117 146 186 234 289 347
#     4  12  24  40  61  84 114 151 194 242 293 345
#     4  11  23  39  58  81 114 155 199 241 286 344
#     4   8  16  33  61  92 116 145 183 233 290 348
#     4  10  20  36  59  86 118 154 195 239 289 344
#     4  12  23  36  56  85 120 155 191 233 284 337
#
# _framework density 9.1965979999999998
#
# number of rings (size 3 to 8) (size 9 to 14) (size 15 to 20)
#    0.000    1.429    1.429    6.429    0.000    1.714 
#    0.000    2.857    0.000    4.286    0.000    0.000 
#    0.000    0.000    0.000    0.000    0.000    0.000 
#
# Total GULP energy -156440.757624 kJ/mol
# GULP energy per Si atom -5587.169915 kJ/mol
# Density = 0.917567 g / cm^3
# Si number density = 9.196598 Si / 1000 Ang^3
#
#
#
# Elastic Constant Matrix: (Units=GPa)
#
#
# Indices 1 2 3 4 5 6 
#
# 1 119.3222 36.8071 32.8790 0.0000 20.4593 0.0000
# 2 36.8071 127.0827 33.7374 0.0000 10.9983 0.0000
# 3 32.8790 33.7374 63.7535 0.0000 10.9331 0.0000
# 4 0.0000 0.0000 0.0000 28.4376 0.0000 -3.3118
# 5 20.4593 10.9983 10.9331 0.0000 16.3668 0.0000
# 6 0.0000 0.0000 0.0000 -3.3118 0.0000 21.6279
#
#
#
# Elastic Compliance Matrix: (Units=1/GPa)
#
#
# Indices 1 2 3 4 5 6 
#
# 1 0.011715 -0.001536 -0.003269 0.000000 -0.011428 0.000000
# 2 -0.001536 0.009516 -0.003926 0.000000 -0.001852 0.000000
# 3 -0.003269 -0.003926 0.020663 0.000000 -0.007078 0.000000
# 4 0.000000 0.000000 0.000000 0.035803 0.000000 0.005482
# 5 -0.011428 -0.001852 -0.007078 0.000000 0.081358 0.000000
# 6 0.000000 0.000000 0.000000 0.005482 0.000000 0.047076
#
#
# Mechanical properties :
#
#
# Convention : Reuss Voigt Hill
#
# Bulk Modulus (GPa) = 40.93043 57.44506 49.18774
# Shear Modulus (GPa) = 21.57620 27.06879 24.32250
#
# Velocity S-wave (km/s) = 3.42870 3.84040 3.64038
# Velocity P-wave (km/s) = 6.16247 7.13894 6.66860
#
# Compressibility (1/GPa) = 0.02443170
#
# Stress axis : x y z
#
# Youngs Moduli (GPa) = 85.36264 105.08205 48.39637
#
# Poissons Ratio (x) = 0.16142 0.15820
# Poissons Ratio (y) = 0.13113 0.19001
# Poissons Ratio (z) = 0.27904 0.41256
#
# Static dielectric constant tensor:
#      x y z
#    x 1.657630 0.000000 0.016650 
#    y 0.000000 1.608680 0.000000 
#    z 0.016650 0.000000 1.635150 
# 
# From -- ./inp_files/186450.got.cif
#   From: 2010.05.17/outbox.ucp.g08.bks.cvg/sg12_94_cif.got.tgz:186450.got - 2010.06.11 11:47:21.
