data_PCOD9224816
_publ_section_title
;
Structure prediction by ZEFSAII (Michael W. Deem and Ramdas Pophale) SiO2 
 PCOD9224816
Probable space group: C 2/M
;
_chemical_formula_sum "Si O2"
_cell_formula_units_Z 28
_cell_length_a 18.000000
_cell_length_b 15.000000
_cell_length_c 15.000000
_cell_angle_alpha 90.000000
_cell_angle_beta 50.000000
_cell_angle_gamma 90.000000
_cell_volume 3102.479995
_symmetry_space_group_name_H-M "C 2/M"
_symmetry_group_IT_number 12
_symmetry_cell_setting 'monoclinic'
loop_
_space_group_symop_operation_xyz
x,y,z
-x,y,-z
-x,-y,-z
x,-y,z
1/2+x,1/2+y,z
1/2-x,1/2+y,-z
1/2-x,1/2-y,-z
1/2+x,1/2-y,z
loop_
_atom_site_type_symbol
_atom_site_label
_atom_site_fract_x
_atom_site_fract_y
_atom_site_fract_z
Si Si1 0.091474 0.395086 0.794408
Si Si2 0.398347 0.230538 0.732104
Si Si3 0.257547 0.607865 0.813975
Si Si4 0.391207 0.213417 0.951038
Si Si5 0.086812 0.393435 0.587110
Si Si6 0.713548 0.103350 0.317110
Si Si7 0.387589 0.601675 0.063322
O O1 0.064323 0.500000 0.831179
O O2 0.186533 0.376962 0.782157
O O3 0.113987 0.386454 0.671032
O O4 0.998542 0.330879 0.886408
O O5 0.355655 0.330011 0.739388
O O6 0.381740 0.220857 0.851267
O O7 0.505682 0.184625 0.634524
O O8 0.336072 0.165953 0.717379
O O9 0.274654 0.500000 0.807764
O O10 0.189672 0.646885 0.945853
O O11 0.375498 0.311395 0.008645
O O12 0.055005 0.500000 0.599857
O O13 0.172556 0.378485 0.448164
O O14 0.826195 0.113241 0.202509
O O15 0.687858 0.000000 0.319937
O O16 0.362085 0.500000 0.048290
O O17 0.500000 0.600047 0.000000
#
# Coordination Sequence:
#
# PCOD9224816 Si02
#       7
#     8   8   8   8   8   8   8
#     4   9  19  36  60  87 113 147 195 247 289 332
#     4  11  22  35  54  87 117 151 190 236 287 340
#     4  11  22  35  54  83 118 156 194 235 286 342
#     4  11  21  36  56  82 116 153 195 237 284 340
#     4   9  19  38  64  89 112 141 191 250 294 333
#     4  10  20  36  62  88 112 145 186 240 294 336
#     4  10  21  36  58  87 119 149 182 231 294 353
#
# _framework density 9.0250380000000003
#
# number of rings (size 3 to 8) (size 9 to 14) (size 15 to 20)
#    0.000    1.857    1.429    3.000    0.000    4.571 
#    0.000    0.714    3.143    1.714    0.000    0.000 
#    0.000    0.000    0.000    0.000    0.000    0.000 
#
# Total GULP energy -155936.957167 kJ/mol
# GULP energy per Si atom -5569.177042 kJ/mol
# Density = 0.900450 g / cm^3
# Si number density = 9.025038 Si / 1000 Ang^3
#
#
#
# Elastic Constant Matrix: (Units=GPa)
#
#
# Indices 1 2 3 4 5 6 
#
# 1 68.7846 35.3102 34.4282 0.0000 2.6813 0.0000
# 2 35.3102 131.5388 55.2926 0.0000 3.5559 0.0000
# 3 34.4282 55.2926 139.5655 0.0000 0.1701 0.0000
# 4 0.0000 0.0000 0.0000 33.6281 0.0000 -1.5745
# 5 2.6813 3.5559 0.1701 0.0000 21.4898 0.0000
# 6 0.0000 0.0000 0.0000 -1.5745 0.0000 34.8996
#
#
#
# Elastic Compliance Matrix: (Units=1/GPa)
#
#
# Indices 1 2 3 4 5 6 
#
# 1 0.017911 -0.003488 -0.003034 0.000000 -0.001634 0.000000
# 2 -0.003488 0.009848 -0.003040 0.000000 -0.001170 0.000000
# 3 -0.003034 -0.003040 0.009117 0.000000 0.000809 0.000000
# 4 0.000000 0.000000 0.000000 0.029800 0.000000 0.001344
# 5 -0.001634 -0.001170 0.000809 0.000000 0.046925 0.000000
# 6 0.000000 0.000000 0.000000 0.001344 0.000000 0.028714
#
#
# Mechanical properties :
#
#
# Convention : Reuss Voigt Hill
#
# Bulk Modulus (GPa) = 56.33347 65.55011 60.94179
# Shear Modulus (GPa) = 29.87618 32.32736 31.10177
#
# Velocity S-wave (km/s) = 4.07281 4.23659 4.15551
# Velocity P-wave (km/s) = 7.30714 7.76699 7.54057
#
# Compressibility (1/GPa) = 0.01775144
#
# Stress axis : x y z
#
# Youngs Moduli (GPa) = 55.83049 101.54238 109.68693
#
# Poissons Ratio (x) = 0.35423 0.33283
# Poissons Ratio (y) = 0.19476 0.33341
# Poissons Ratio (z) = 0.16941 0.30865
#
# Static dielectric constant tensor:
#      x y z
#    x 1.644500 0.000000 -0.019480 
#    y 0.000000 1.651260 0.000000 
#    z -0.019480 0.000000 1.631300 
# 
# From -- ./inp_files/156728.got.cif
#   From: 2010.05.17/outbox.ucp.g08.bks.cvg/sg12_79_cif.got.tgz:156728.got - 2010.06.11 11:47:21.
