data_PCOD9224122
_publ_section_title
;
Structure prediction by ZEFSAII (Michael W. Deem and Ramdas Pophale) SiO2 
 PCOD9224122
Probable space group: C 2/M
;
_chemical_formula_sum "Si O2"
_cell_formula_units_Z 28
_cell_length_a 18.000000
_cell_length_b 9.000000
_cell_length_c 18.000000
_cell_angle_alpha 90.000000
_cell_angle_beta 110.000000
_cell_angle_gamma 90.000000
_cell_volume 2740.143682
_symmetry_space_group_name_H-M "C 2/M"
_symmetry_group_IT_number 12
_symmetry_cell_setting 'monoclinic'
loop_
_space_group_symop_operation_xyz
x,y,z
-x,y,-z
-x,-y,-z
x,-y,z
1/2+x,1/2+y,z
1/2-x,1/2+y,-z
1/2-x,1/2-y,-z
1/2+x,1/2-y,z
loop_
_atom_site_type_symbol
_atom_site_label
_atom_site_fract_x
_atom_site_fract_y
_atom_site_fract_z
Si Si1 0.831209 0.324950 0.352377
Si Si2 0.426985 0.670451 0.686896
Si Si3 0.667213 0.322103 0.208122
Si Si4 0.085271 0.328901 0.041457
Si Si5 0.916806 0.180035 0.511876
Si Si6 0.183915 0.331517 0.928923
Si Si7 0.890695 0.831798 0.237134
O O1 0.840603 0.500000 0.366528
O O2 0.753176 0.301878 0.274734
O O3 0.846401 0.246195 0.436685
O O4 0.891888 0.253743 0.315524
O O5 0.395576 0.500000 0.671527
O O6 0.384277 0.744534 0.741834
O O7 0.416988 0.727980 0.598935
O O8 0.516462 0.660897 0.745809
O O9 0.654704 0.500000 0.194790
O O10 0.642766 0.249077 0.121239
O O11 0.075635 0.500000 0.064393
O O12 0.116610 0.336594 0.968219
O O13 0.000000 0.254652 0.000000
O O14 0.000000 0.221711 0.500000
O O15 0.912829 0.000000 0.509023
O O16 0.207721 0.500000 0.917070
O O17 0.155751 0.247898 0.845340
O O18 0.250000 0.250000 0.000000
O O19 0.859836 0.000000 0.236119
#
# Coordination Sequence:
#
# PCOD9224122 Si02
#       7
#     8   8   8   8   8   8   8
#     4  11  23  37  56  86 122 153 186 235 290 342
#     4   9  19  37  60  84 111 146 192 238 279 335
#     4  10  22  39  58  83 116 152 190 233 283 341
#     4  10  22  40  60  83 115 151 189 236 287 339
#     4  10  19  37  62  86 112 150 195 236 282 339
#     4  11  23  38  57  84 116 150 189 237 288 339
#     4  11  21  37  61  85 110 148 195 239 284 335
#
# _framework density 10.218442
#
# number of rings (size 3 to 8) (size 9 to 14) (size 15 to 20)
#    0.000    1.714    1.429    3.000    0.000    5.714 
#    0.000    1.429    0.000    0.000    0.000    0.000 
#    0.000    0.000    0.000    0.000    0.000    0.000 
#
# Total GULP energy -155919.260181 kJ/mol
# GULP energy per Si atom -5568.545006 kJ/mol
# Density = 1.019518 g / cm^3
# Si number density = 10.218442 Si / 1000 Ang^3
#
#
#
# Elastic Constant Matrix: (Units=GPa)
#
#
# Indices 1 2 3 4 5 6 
#
# 1 27.7353 13.5497 -3.1425 0.0000 -1.5419 0.0000
# 2 13.5497 6.3704 13.4230 0.0000 29.7828 0.0000
# 3 -3.1425 13.4230 142.6569 0.0000 19.0265 0.0000
# 4 0.0000 0.0000 0.0000 27.5571 0.0000 0.8506
# 5 -1.5419 29.7828 19.0265 0.0000 23.9954 0.0000
# 6 0.0000 0.0000 0.0000 0.8506 0.0000 9.4101
#
#
#
# Elastic Compliance Matrix: (Units=1/GPa)
#
#
# Indices 1 2 3 4 5 6 
#
# 1 0.028514 0.013899 0.001540 0.000000 -0.016639 0.000000
# 2 0.013899 -0.025062 -0.001793 0.000000 0.033422 0.000000
# 3 0.001540 -0.001793 0.007719 0.000000 -0.003796 0.000000
# 4 0.000000 0.000000 0.000000 0.036390 0.000000 -0.003289
# 5 -0.016639 0.033422 -0.003796 0.000000 0.002132 0.000000
# 6 0.000000 0.000000 0.000000 -0.003289 0.000000 0.106567
#
#
# Mechanical properties :
#
#
# Convention : Reuss Voigt Hill
#
# Bulk Modulus (GPa) = 26.00032 24.93591 25.46812
# Shear Modulus (GPa) = 35.26360 22.38801 28.82580
#
# Velocity S-wave (km/s) = 4.15841 3.31338 3.75971
# Velocity P-wave (km/s) = 5.98384 5.18323 5.59787
#
# Compressibility (1/GPa) = 0.03846106
#
# Stress axis : x y z
#
# Youngs Moduli (GPa) = 35.06995 -39.90043 129.55536
#
# Poissons Ratio (x) = 0.55457 -0.19946
# Poissons Ratio (y) = -0.48743 0.23232
# Poissons Ratio (z) = -0.05399 -0.07155
#
# Static dielectric constant tensor:
#      x y z
#    x 2.033140 0.000000 -0.065140 
#    y 0.000000 1.749800 0.000000 
#    z -0.065140 0.000000 1.685680 
# 
# From -- ./inp_files/275569.got.cif
#   From: 2010.05.17/outbox.ucp.g08.bks.cvg/sg12_138_cif.got.tgz:275569.got - 2010.06.11 11:47:21.
