data_PCOD9224638
_publ_section_title
;
Structure prediction by ZEFSAII (Michael W. Deem and Ramdas Pophale) SiO2 
 PCOD9224638
Probable space group: C 2/M
;
_chemical_formula_sum "Si O2"
_cell_formula_units_Z 28
_cell_length_a 24.000000
_cell_length_b 9.000000
_cell_length_c 15.000000
_cell_angle_alpha 90.000000
_cell_angle_beta 120.000000
_cell_angle_gamma 90.000000
_cell_volume 2805.922308
_symmetry_space_group_name_H-M "C 2/M"
_symmetry_group_IT_number 12
_symmetry_cell_setting 'monoclinic'
loop_
_space_group_symop_operation_xyz
x,y,z
-x,y,-z
-x,-y,-z
x,-y,z
1/2+x,1/2+y,z
1/2-x,1/2+y,-z
1/2-x,1/2-y,-z
1/2+x,1/2-y,z
loop_
_atom_site_type_symbol
_atom_site_label
_atom_site_fract_x
_atom_site_fract_y
_atom_site_fract_z
Si Si1 0.429721 0.675796 0.710934
Si Si2 0.495755 0.678482 0.596598
Si Si3 0.240181 0.321167 0.768949
Si Si4 0.366337 0.677503 0.215008
Si Si5 0.841233 0.822006 0.997013
Si Si6 0.279336 0.674700 0.609358
Si Si7 0.973204 0.332662 0.077860
O O1 0.447635 0.500000 0.731598
O O2 0.438687 0.726776 0.615660
O O3 0.355797 0.689616 0.675018
O O4 0.474294 0.766917 0.813153
O O5 0.500000 0.740455 0.500000
O O6 0.489948 0.500000 0.582089
O O7 0.558760 0.705319 0.707522
O O8 0.244919 0.500000 0.771650
O O9 0.170749 0.266704 0.740396
O O10 0.289522 0.265407 0.884608
O O11 0.254618 0.262634 0.682776
O O12 0.356525 0.500000 0.214807
O O13 0.338322 0.728419 0.097396
O O14 0.836772 0.000000 0.994971
O O15 0.911743 0.772563 0.025295
O O16 0.263957 0.500000 0.592485
O O17 0.250000 0.750000 0.500000
O O18 0.954700 0.500000 0.091045
O O19 0.000000 0.338858 0.000000
#
# Coordination Sequence:
#
# PCOD9224638 Si02
#       7
#     8   8   8   8   8   8   8
#     4  10  20  39  63  84 111 152 196 236 281 336
#     4   9  18  33  57  88 115 140 187 243 282 332
#     4  10  22  38  56  83 119 154 192 238 286 341
#     4  10  20  35  59  89 115 148 192 235 285 341
#     4  10  20  38  60  84 114 150 196 237 276 342
#     4  10  23  40  60  85 113 153 198 239 288 340
#     4  11  23  36  55  86 121 152 185 234 292 342
#
# _framework density 9.9788940000000004
#
# number of rings (size 3 to 8) (size 9 to 14) (size 15 to 20)
#    0.000    2.000    1.429    1.714    2.000    4.571 
#    0.000    0.000    0.000    0.857    0.000    0.000 
#    0.000    0.000    0.000    0.000    0.000    0.000 
#
# Total GULP energy -156092.920597 kJ/mol
# GULP energy per Si atom -5574.747164 kJ/mol
# Density = 0.995618 g / cm^3
# Si number density = 9.978894 Si / 1000 Ang^3
#
#
#
# Elastic Constant Matrix: (Units=GPa)
#
#
# Indices 1 2 3 4 5 6 
#
# 1 34.0513 12.1188 -1.9598 0.0000 -48.7136 0.0000
# 2 12.1188 -21.8983 6.7903 0.0000 -4.6424 0.0000
# 3 -1.9598 6.7903 -55.4257 0.0000 -34.0330 0.0000
# 4 0.0000 0.0000 0.0000 -13.7904 0.0000 -8.4981
# 5 -48.7136 -4.6424 -34.0330 0.0000 21.1021 0.0000
# 6 0.0000 0.0000 0.0000 -8.4981 0.0000 18.0789
#
#
#
# Elastic Compliance Matrix: (Units=1/GPa)
#
#
# Indices 1 2 3 4 5 6 
#
# 1 -0.051376 -0.004284 0.037529 0.000000 -0.059016 0.000000
# 2 -0.004284 -0.043996 0.003405 0.000000 -0.014077 0.000000
# 3 0.037529 0.003405 -0.036481 0.000000 0.028548 0.000000
# 4 0.000000 0.000000 0.000000 -0.056227 0.000000 -0.026430
# 5 -0.059016 -0.014077 0.028548 0.000000 -0.045903 0.000000
# 6 0.000000 0.000000 0.000000 -0.026430 0.000000 0.042889
#
#
# Mechanical properties :
#
#
# Convention : Reuss Voigt Hill
#
# Bulk Modulus (GPa) = -17.07869 -1.04158 -9.06013
# Shear Modulus (GPa) = -17.61100 1.06332 -8.27384
#
# Velocity S-wave (km/s) = -2.97377 0.73071 -2.03830
# Velocity P-wave (km/s) = 4.51298 0.43462 3.17633
#
# Compressibility (1/GPa) = -0.05855250
#
# Stress axis : x y z
#
# Youngs Moduli (GPa) = -19.46431 -22.72924 -27.41118
#
# Poissons Ratio (x) = -0.09736 1.02873
# Poissons Ratio (y) = -0.08338 0.09333
# Poissons Ratio (z) = 0.73048 0.07739
#
# Static dielectric constant tensor:
#      x y z
#    x 1.827490 0.000000 -0.136210 
#    y 0.000000 1.712750 0.000000 
#    z -0.136210 0.000000 1.785790 
# 
# From -- ./inp_files/238409.got.cif
#   From: 2010.05.17/outbox.ucp.g08.bks.cvg/sg12_120_cif.got.tgz:238409.got - 2010.06.11 11:47:21.
