data_PCOD9224580
_publ_section_title
;
Structure prediction by ZEFSAII (Michael W. Deem and Ramdas Pophale) SiO2 
 PCOD9224580
Probable space group: C 2/M
;
_chemical_formula_sum "Si O2"
_cell_formula_units_Z 28
_cell_length_a 24.000000
_cell_length_b 9.000000
_cell_length_c 15.000000
_cell_angle_alpha 90.000000
_cell_angle_beta 120.000000
_cell_angle_gamma 90.000000
_cell_volume 2805.922308
_symmetry_space_group_name_H-M "C 2/M"
_symmetry_group_IT_number 12
_symmetry_cell_setting 'monoclinic'
loop_
_space_group_symop_operation_xyz
x,y,z
-x,y,-z
-x,-y,-z
x,-y,z
1/2+x,1/2+y,z
1/2-x,1/2+y,-z
1/2-x,1/2-y,-z
1/2+x,1/2-y,z
loop_
_atom_site_type_symbol
_atom_site_label
_atom_site_fract_x
_atom_site_fract_y
_atom_site_fract_z
Si Si1 0.160050 0.669718 0.495108
Si Si2 0.446709 0.680649 0.025830
Si Si3 0.462420 0.677858 0.555474
Si Si4 0.559451 0.319495 0.781029
Si Si5 0.809225 0.825989 0.854286
Si Si6 0.708472 0.678347 0.886380
Si Si7 0.810541 0.168851 0.649508
O O1 0.143306 0.500000 0.495658
O O2 0.110271 0.770748 0.505926
O O3 0.156137 0.716348 0.388742
O O4 0.233850 0.691564 0.581489
O O5 0.444148 0.500000 0.014723
O O6 0.464112 0.718412 0.139678
O O7 0.500000 0.735798 0.000000
O O8 0.373211 0.729815 0.954162
O O9 0.500000 0.729648 0.500000
O O10 0.462775 0.500000 0.559038
O O11 0.505297 0.735578 0.670956
O O12 0.561489 0.500000 0.776113
O O13 0.633711 0.272740 0.826049
O O14 0.746872 0.732704 0.830077
O O15 0.827289 0.819622 0.765367
O O16 0.797390 0.000000 0.867721
O O17 0.709815 0.500000 0.895946
O O18 0.750000 0.750000 0.000000
O O19 0.824565 0.000000 0.629400
#
# Coordination Sequence:
#
# PCOD9224580 Si02
#       7
#     8   8   8   8   8   8   8
#     4  10  21  38  57  82 115 147 186 235 286 334
#     4   9  17  30  53  82 109 139 178 224 269 322
#     4  10  22  38  58  82 110 149 196 236 277 334
#     4   9  19  35  54  79 109 145 189 230 271 329
#     4  10  20  35  57  85 111 140 184 230 277 331
#     4  11  21  36  57  81 113 146 182 228 277 330
#     4   9  20  37  59  84 111 148 188 230 279 340
#
# _framework density 9.9788940000000004
#
# number of rings (size 3 to 8) (size 9 to 14) (size 15 to 20)
#    0.000    2.286    1.429    0.857    4.000    1.429 
#    0.000    1.429    0.000    0.429    0.000    0.000 
#    0.000    0.000    0.000    0.000    0.000    0.000 
#
# Total GULP energy -156068.763316 kJ/mol
# GULP energy per Si atom -5573.884404 kJ/mol
# Density = 0.995618 g / cm^3
# Si number density = 9.978894 Si / 1000 Ang^3
#
#
#
# Elastic Constant Matrix: (Units=GPa)
#
#
# Indices 1 2 3 4 5 6 
#
# 1 7.9551 8.6431 -15.4131 0.0000 -26.4333 0.0000
# 2 8.6431 0.8054 13.0129 0.0000 0.2388 0.0000
# 3 -15.4131 13.0129 35.9446 0.0000 -9.1384 0.0000
# 4 0.0000 0.0000 0.0000 10.0828 0.0000 -0.4407
# 5 -26.4333 0.2388 -9.1384 0.0000 7.7180 0.0000
# 6 0.0000 0.0000 0.0000 -0.4407 0.0000 20.9916
#
#
#
# Elastic Compliance Matrix: (Units=1/GPa)
#
#
# Indices 1 2 3 4 5 6 
#
# 1 0.055970 0.306685 -0.058236 0.000000 0.113249 0.000000
# 2 0.306685 1.520145 -0.234264 0.000000 0.725946 0.000000
# 3 -0.058236 -0.234264 0.055501 0.000000 -0.126487 0.000000
# 4 0.000000 0.000000 0.000000 0.099269 0.000000 0.002084
# 5 0.113249 0.725946 -0.126487 0.000000 0.345203 0.000000
# 6 0.000000 0.000000 0.000000 0.002084 0.000000 0.047682
#
#
# Mechanical properties :
#
#
# Convention : Reuss Voigt Hill
#
# Bulk Modulus (GPa) = 0.60241 6.35455 3.47848
# Shear Modulus (GPa) = 1.88770 10.32264 6.10517
#
# Velocity S-wave (km/s) = 0.97360 2.27672 1.75091
# Velocity P-wave (km/s) = 1.25154 3.17840 2.41543
#
# Compressibility (1/GPa) = 1.65998642
#
# Stress axis : x y z
#
# Youngs Moduli (GPa) = 17.86659 0.65783 18.01763
#
# Poissons Ratio (x) = -0.20175 1.04927
# Poissons Ratio (y) = -5.47942 4.22089
# Poissons Ratio (z) = 1.04048 0.15411
#
# Static dielectric constant tensor:
#      x y z
#    x 1.705910 0.000000 -0.008110 
#    y 0.000000 1.682310 0.000000 
#    z -0.008110 0.000000 1.767830 
# 
# From -- ./inp_files/238880.got.cif
#   From: 2010.05.17/outbox.ucp.g08.bks.cvg/sg12_120_cif.got.tgz:238880.got - 2010.06.11 11:47:21.
