data_PCOD9224612
_publ_section_title
;
Structure prediction by ZEFSAII (Michael W. Deem and Ramdas Pophale) SiO2 
 PCOD9224612
Probable space group: C 2/M
;
_chemical_formula_sum "Si O2"
_cell_formula_units_Z 28
_cell_length_a 21.000000
_cell_length_b 9.000000
_cell_length_c 30.000000
_cell_angle_alpha 90.000000
_cell_angle_beta 30.000000
_cell_angle_gamma 90.000000
_cell_volume 2835.000000
_symmetry_space_group_name_H-M "C 2/M"
_symmetry_group_IT_number 12
_symmetry_cell_setting 'monoclinic'
loop_
_space_group_symop_operation_xyz
x,y,z
-x,y,-z
-x,-y,-z
x,-y,z
1/2+x,1/2+y,z
1/2-x,1/2+y,-z
1/2-x,1/2-y,-z
1/2+x,1/2-y,z
loop_
_atom_site_type_symbol
_atom_site_label
_atom_site_fract_x
_atom_site_fract_y
_atom_site_fract_z
Si Si1 0.765167 0.331890 0.418768
Si Si2 0.674011 0.331510 0.791581
Si Si3 0.078441 0.663789 0.583813
Si Si4 0.644711 0.329183 0.248678
Si Si5 0.432298 0.331120 0.997856
Si Si6 0.343818 0.821104 0.853696
Si Si7 0.575895 0.320652 0.754742
O O1 0.722507 0.500000 0.433750
O O2 0.837659 0.342232 0.422211
O O3 0.659689 0.207323 0.491711
O O4 0.856128 0.267085 0.326203
O O5 0.726742 0.500000 0.759143
O O6 0.752317 0.232260 0.778799
O O7 0.535155 0.339612 0.897411
O O8 0.648963 0.282056 0.756251
O O9 0.018721 0.500000 0.615489
O O10 0.985953 0.801986 0.646520
O O11 0.667173 0.500000 0.223111
O O12 0.628241 0.229442 0.214301
O O13 0.396807 0.500000 0.034678
O O14 0.500000 0.258752 0.000000
O O15 0.303287 0.271101 0.055442
O O16 0.431499 0.737397 0.836226
O O17 0.358946 0.000000 0.849101
O O18 0.578622 0.500000 0.748174
#
# Coordination Sequence:
#
# PCOD9224612 Si02
#       7
#     8   8   8   8   8   8   8
#     4  10  20  35  58  86 119 155 191 237 288 342
#     4  10  22  41  61  83 116 159 198 238 295 353
#     4  10  20  35  59  88 117 151 192 240 289 341
#     4  12  23  36  58  89 120 151 194 245 291 343
#     4   9  17  34  61  86 111 149 200 245 288 345
#     4  11  21  36  61  86 114 155 199 242 290 347
#     4  11  23  38  58  86 122 157 193 240 292 349
#
# _framework density 9.8765429999999999
#
# number of rings (size 3 to 8) (size 9 to 14) (size 15 to 20)
#    0.000    1.571    2.857    3.000    0.000    2.857 
#    0.000    2.857    0.000    4.286    0.000    0.000 
#    0.000    0.000    0.000    0.000    0.000    0.000 
#
# Total GULP energy -155902.683132 kJ/mol
# GULP energy per Si atom -5567.952969 kJ/mol
# Density = 0.985406 g / cm^3
# Si number density = 9.876543 Si / 1000 Ang^3
#
#
#
# Elastic Constant Matrix: (Units=GPa)
#
#
# Indices 1 2 3 4 5 6 
#
# 1 38.5812 17.7185 -0.5755 0.0013 0.0174 -0.0019
# 2 17.7185 74.2323 -0.8916 0.0033 4.8761 -0.0005
# 3 -0.5755 -0.8916 10.3982 -0.0005 8.4387 0.0012
# 4 0.0013 0.0033 -0.0005 23.7184 0.0001 -17.4378
# 5 0.0174 4.8761 8.4387 0.0001 8.9360 0.0005
# 6 -0.0019 -0.0005 0.0012 -17.4378 0.0005 29.6604
#
#
#
# Elastic Compliance Matrix: (Units=1/GPa)
#
#
# Indices 1 2 3 4 5 6 
#
# 1 0.029494 -0.008164 -0.011287 0.000001 0.015057 0.000003
# 2 -0.008164 0.019171 0.041388 -0.000004 -0.049530 -0.000003
# 3 -0.011287 0.041388 0.502577 -0.000005 -0.497172 -0.000015
# 4 0.000001 -0.000004 -0.000005 0.074259 0.000003 0.043658
# 5 0.015057 -0.049530 -0.497172 0.000003 0.608410 0.000012
# 6 0.000003 -0.000003 -0.000015 0.043658 0.000012 0.059382
#
#
# Mechanical properties :
#
#
# Convention : Reuss Voigt Hill
#
# Bulk Modulus (GPa) = 1.68035 17.30160 9.49098
# Shear Modulus (GPa) = 3.45354 19.59365 11.52359
#
# Velocity S-wave (km/s) = 1.32369 3.15291 2.41795
# Velocity P-wave (km/s) = 1.78570 4.69387 3.55113
#
# Compressibility (1/GPa) = 0.59511405
#
# Stress axis : x y z
#
# Youngs Moduli (GPa) = 33.90544 52.16311 1.98975
#
# Poissons Ratio (x) = 0.42589 0.02246
# Poissons Ratio (y) = 0.27682 -0.08235
# Poissons Ratio (z) = 0.38271 -2.15895
#
# Static dielectric constant tensor:
#      x y z
#    x 1.692790 0.000000 -0.047460 
#    y 0.000000 1.703390 0.000000 
#    z -0.047460 0.000000 1.843330 
# 
# From -- ./inp_files/380567.got.cif
#   From: 2010.05.17/outbox.ucp.g08.bks.cvg/sg12_191_cif.got.tgz:380567.got - 2010.06.11 11:47:21.
