data_PCOD9224181
_publ_section_title
;
Structure prediction by ZEFSAII (Michael W. Deem and Ramdas Pophale) SiO2 
 PCOD9224181
Probable space group: C 2/M
;
_chemical_formula_sum "Si O2"
_cell_formula_units_Z 32
_cell_length_a 21.000000
_cell_length_b 9.000000
_cell_length_c 24.000000
_cell_angle_alpha 90.000000
_cell_angle_beta 50.000000
_cell_angle_gamma 90.000000
_cell_volume 3474.777594
_symmetry_space_group_name_H-M "C 2/M"
_symmetry_group_IT_number 12
_symmetry_cell_setting 'monoclinic'
loop_
_space_group_symop_operation_xyz
x,y,z
-x,y,-z
-x,-y,-z
x,-y,z
1/2+x,1/2+y,z
1/2-x,1/2+y,-z
1/2-x,1/2-y,-z
1/2+x,1/2-y,z
loop_
_atom_site_type_symbol
_atom_site_label
_atom_site_fract_x
_atom_site_fract_y
_atom_site_fract_z
Si Si1 0.808039 0.320347 0.670314
Si Si2 0.539246 0.679615 0.109953
Si Si3 0.641099 0.319063 0.829941
Si Si4 0.232715 0.175813 0.422492
Si Si5 0.668797 0.680905 0.941492
Si Si6 0.556553 0.176972 0.316352
Si Si7 0.643123 0.177094 0.149459
Si Si8 0.877567 0.175664 0.405089
O O1 0.808259 0.500000 0.666505
O O2 0.723896 0.275482 0.750244
O O3 0.803910 0.250865 0.611792
O O4 0.888269 0.276358 0.661600
O O5 0.539283 0.500000 0.113290
O O6 0.444768 0.728607 0.150794
O O7 0.581429 0.744157 0.141364
O O8 0.598182 0.723877 0.025000
O O9 0.639824 0.500000 0.831539
O O10 0.648000 0.270088 0.890369
O O11 0.171053 0.200841 0.509370
O O12 0.321272 0.246184 0.389774
O O13 0.241962 0.000000 0.409399
O O14 0.670918 0.500000 0.938991
O O15 0.761082 0.729364 0.908154
O O16 0.611890 0.200206 0.230035
O O17 0.469538 0.259469 0.358435
O O18 0.540883 0.000000 0.329749
O O19 0.641588 0.000000 0.139536
O O20 0.880197 0.000000 0.392718
#
# Coordination Sequence:
#
# PCOD9224181 Si02
#       8
#     8   8   8   8   8   8   8   8
#     4  10  20  36  58  82 112 152 193 231 275 328
#     4  10  20  31  52  83 107 136 184 235 278 324
#     4   9  17  32  53  79 108 139 183 232 272 318
#     4  10  22  40  61  87 117 146 180 224 277 334
#     4   9  16  32  55  76 104 143 184 227 275 325
#     4  10  21  37  57  81 112 152 193 232 276 330
#     4  10  20  35  53  75 109 148 182 223 276 331
#     4  10  22  40  62  86 114 147 183 227 275 328
#
# _framework density 9.2092220000000005
#
# number of rings (size 3 to 8) (size 9 to 14) (size 15 to 20)
#    0.000    2.250    1.250    1.500    1.750    4.500 
#    0.000    2.500    0.000    3.000    0.000    0.000 
#    0.000    0.000    0.000    0.000    0.000    0.000 
#
# Total GULP energy -178634.207486 kJ/mol
# GULP energy per Si atom -5582.318984 kJ/mol
# Density = 0.918826 g / cm^3
# Si number density = 9.209222 Si / 1000 Ang^3
#
#
#
# Elastic Constant Matrix: (Units=GPa)
#
#
# Indices 1 2 3 4 5 6 
#
# 1 46.4717 -1.0629 -21.7289 0.0000 -9.4053 0.0001
# 2 -1.0629 6.6540 11.7230 -0.0001 -1.1480 0.0002
# 3 -21.7289 11.7230 2.3252 0.0000 -9.1025 0.0000
# 4 0.0000 -0.0001 0.0000 18.9959 0.0000 0.1109
# 5 -9.4053 -1.1480 -9.1025 0.0000 41.0790 0.0000
# 6 0.0001 0.0002 0.0000 0.1109 0.0000 29.4379
#
#
#
# Elastic Compliance Matrix: (Units=1/GPa)
#
#
# Indices 1 2 3 4 5 6 
#
# 1 0.014765 0.031093 -0.016247 0.000000 0.000649 0.000000
# 2 0.031093 0.063100 0.054355 0.000000 0.020927 -0.000001
# 3 -0.016247 0.054355 -0.033262 0.000000 -0.009571 0.000000
# 4 0.000000 0.000000 0.000000 0.052644 0.000000 -0.000198
# 5 0.000649 0.020927 -0.009571 0.000000 0.022956 0.000000
# 6 0.000000 -0.000001 0.000000 -0.000198 0.000000 0.033971
#
#
# Mechanical properties :
#
#
# Convention : Reuss Voigt Hill
#
# Bulk Modulus (GPa) = 5.46431 3.70149 4.58290
# Shear Modulus (GPa) = 65.12842 22.33721 43.73282
#
# Velocity S-wave (km/s) = 5.95292 3.48625 4.87807
# Velocity P-wave (km/s) = 7.08680 4.26841 5.84988
#
# Compressibility (1/GPa) = 0.18300557
#
# Stress axis : x y z
#
# Youngs Moduli (GPa) = 67.72938 15.84785 -30.06395
#
# Poissons Ratio (x) = -0.49276 -0.48843
# Poissons Ratio (y) = -2.10593 1.63412
# Poissons Ratio (z) = 1.10037 -0.86141
#
# Static dielectric constant tensor:
#      x y z
#    x 1.609900 0.000000 -0.000190 
#    y 0.000000 1.619400 0.000000 
#    z -0.000190 0.000000 1.630670 
# 
# From -- ./inp_files/346025.got.cif
#   From: 2010.05.17/outbox.ucp.g08.bks.cvg/sg12_174_cif.got.tgz:346025.got - 2010.06.11 11:47:21.
