data_PCOD9224578
_publ_section_title
;
Structure prediction by ZEFSAII (Michael W. Deem and Ramdas Pophale) SiO2 
 PCOD9224578
Probable space group: C 2/M
;
_chemical_formula_sum "Si O2"
_cell_formula_units_Z 32
_cell_length_a 15.000000
_cell_length_b 9.000000
_cell_length_c 30.000000
_cell_angle_alpha 90.000000
_cell_angle_beta 50.000000
_cell_angle_gamma 90.000000
_cell_volume 3102.479995
_symmetry_space_group_name_H-M "C 2/M"
_symmetry_group_IT_number 12
_symmetry_cell_setting 'monoclinic'
loop_
_space_group_symop_operation_xyz
x,y,z
-x,y,-z
-x,-y,-z
x,-y,z
1/2+x,1/2+y,z
1/2-x,1/2+y,-z
1/2-x,1/2-y,-z
1/2+x,1/2-y,z
loop_
_atom_site_type_symbol
_atom_site_label
_atom_site_fract_x
_atom_site_fract_y
_atom_site_fract_z
Si Si1 0.997438 0.177757 0.693972
Si Si2 0.753552 0.177945 0.361580
Si Si3 0.586122 0.680993 0.012157
Si Si4 0.489482 0.679125 0.139382
Si Si5 0.801717 0.675467 0.888760
Si Si6 0.760606 0.324455 0.800459
Si Si7 0.166527 0.676836 0.490097
Si Si8 0.536415 0.323652 0.396526
O O1 0.112327 0.225513 0.683494
O O2 0.878119 0.246157 0.748692
O O3 0.012860 0.212151 0.636598
O O4 0.990994 0.000000 0.699401
O O5 0.710068 0.207214 0.426185
O O6 0.667473 0.265075 0.357238
O O7 0.745593 0.000000 0.356454
O O8 0.587161 0.500000 0.012308
O O9 0.540945 0.729099 0.074796
O O10 0.500000 0.725901 0.000000
O O11 0.713757 0.730325 0.955354
O O12 0.489205 0.500000 0.139933
O O13 0.577082 0.740130 0.147713
O O14 0.356463 0.729664 0.185744
O O15 0.821610 0.500000 0.888765
O O16 0.743684 0.693343 0.859090
O O17 0.772974 0.500000 0.787832
O O18 0.166939 0.500000 0.495729
O O19 0.250000 0.750000 0.500000
O O20 0.039868 0.740965 0.541922
O O21 0.530261 0.500000 0.405142
#
# Coordination Sequence:
#
# PCOD9224578 Si02
#       8
#     8   8   8   8   8   8   8   8
#     4  10  23  43  61  80 115 154 191 240 291 334
#     4  10  22  41  61  86 119 154 189 232 287 343
#     4   9  15  30  57  82 109 148 184 222 277 339
#     4  10  20  35  57  84 113 146 186 230 280 341
#     4  10  20  35  57  84 113 145 185 232 281 336
#     4  10  22  39  58  81 109 147 196 236 275 338
#     4  11  21  37  62  90 123 157 190 233 288 345
#     4  11  23  40  61  90 120 151 193 238 286 344
#
# _framework density 10.314329000000001
#
# number of rings (size 3 to 8) (size 9 to 14) (size 15 to 20)
#    0.000    1.875    2.500    1.500    0.000    6.000 
#    0.000    5.000    0.000    0.750    0.000    0.000 
#    0.000    0.000    0.000    0.000    0.000    0.000 
#
# Total GULP energy -178748.173052 kJ/mol
# GULP energy per Si atom -5585.880408 kJ/mol
# Density = 1.029085 g / cm^3
# Si number density = 10.314329 Si / 1000 Ang^3
#
#
#
# Elastic Constant Matrix: (Units=GPa)
#
#
# Indices 1 2 3 4 5 6 
#
# 1 97.3367 15.2504 -2.0131 0.0000 -37.1469 0.0000
# 2 15.2504 5.1081 12.2914 0.0000 -4.7079 0.0000
# 3 -2.0131 12.2914 49.5965 0.0000 -33.1942 0.0000
# 4 0.0000 0.0000 0.0000 26.2088 0.0000 -3.6155
# 5 -37.1469 -4.7079 -33.1942 0.0000 32.7389 0.0000
# 6 0.0000 0.0000 0.0000 -3.6155 0.0000 29.3254
#
#
#
# Elastic Compliance Matrix: (Units=1/GPa)
#
#
# Indices 1 2 3 4 5 6 
#
# 1 -0.001032 0.033368 -0.018306 0.000000 -0.014934 0.000000
# 2 0.033368 0.050794 0.059098 0.000000 0.105085 0.000000
# 3 -0.018306 0.059098 -0.010705 0.000000 -0.023126 0.000000
# 4 0.000000 0.000000 0.000000 0.038815 0.000000 0.004785
# 5 -0.014934 0.105085 -0.023126 0.000000 0.005263 0.000000
# 6 0.000000 0.000000 0.000000 0.004785 0.000000 0.034690
#
#
# Mechanical properties :
#
#
# Convention : Reuss Voigt Hill
#
# Bulk Modulus (GPa) = 5.33687 22.56650 13.95168
# Shear Modulus (GPa) = 156.42140 26.08880 91.25510
#
# Velocity S-wave (km/s) = 8.71733 3.56010 6.65831
# Velocity P-wave (km/s) = 10.19388 5.27847 8.11719
#
# Compressibility (1/GPa) = 0.18737588
#
# Stress axis : x y z
#
# Youngs Moduli (GPa) = -968.78237 19.68754 -93.41806
#
# Poissons Ratio (x) = -0.65693 -1.71015
# Poissons Ratio (y) = 32.32621 5.52083
# Poissons Ratio (z) = -17.73495 -1.16350
#
# Static dielectric constant tensor:
#      x y z
#    x 1.772180 0.000000 -0.018810 
#    y 0.000000 1.679890 0.000000 
#    z -0.018810 0.000000 1.749760 
# 
# From -- ./inp_files/375389.got.cif
#   From: 2010.05.17/outbox.ucp.g08.bks.cvg/sg12_188_cif.got.tgz:375389.got - 2010.06.11 11:47:21.
