data_PCOD9224085
_publ_section_title
;
Structure prediction by ZEFSAII (Michael W. Deem and Ramdas Pophale) SiO2 
 PCOD9224085
Probable space group: C 2/M
;
_chemical_formula_sum "Si O2"
_cell_formula_units_Z 28
_cell_length_a 18.000000
_cell_length_b 21.000000
_cell_length_c 9.000000
_cell_angle_alpha 90.000000
_cell_angle_beta 120.000000
_cell_angle_gamma 90.000000
_cell_volume 2946.218424
_symmetry_space_group_name_H-M "C 2/M"
_symmetry_group_IT_number 12
_symmetry_cell_setting 'monoclinic'
loop_
_space_group_symop_operation_xyz
x,y,z
-x,y,-z
-x,-y,-z
x,-y,z
1/2+x,1/2+y,z
1/2-x,1/2+y,-z
1/2-x,1/2-y,-z
1/2+x,1/2-y,z
loop_
_atom_site_type_symbol
_atom_site_label
_atom_site_fract_x
_atom_site_fract_y
_atom_site_fract_z
Si Si1 0.637223 0.927796 0.661473
Si Si2 0.597468 0.395585 0.069469
Si Si3 0.266817 0.679549 0.283807
Si Si4 0.089416 0.281560 0.661611
Si Si5 0.091778 0.744078 0.018753
Si Si6 0.728139 0.572360 0.459674
Si Si7 0.783610 0.069412 0.060657
O O1 0.594603 0.858078 0.637883
O O2 0.684691 0.925333 0.550018
O O3 0.596928 0.000000 0.631627
O O4 0.707616 0.927261 0.863616
O O5 0.606143 0.319276 0.059775
O O6 0.654135 0.418990 0.263232
O O7 0.500000 0.411318 0.000000
O O8 0.631361 0.426172 0.952532
O O9 0.333543 0.738701 0.332783
O O10 0.170924 0.707335 0.173484
O O11 0.276615 0.632592 0.434817
O O12 0.279732 0.630242 0.161275
O O13 0.000000 0.259001 0.500000
O O14 0.091344 0.269952 0.841464
O O15 0.000000 0.726987 0.000000
O O16 0.721897 0.500000 0.516537
O O17 0.777936 0.000000 0.129486
#
# Coordination Sequence:
#
# PCOD9224085 Si02
#       7
#     8   8   8   8   8   8   8
#     4   9  20  41  65  87 121 166 212 256 313 381
#     4  10  21  38  61  87 128 167 216 263 314 382
#     4  12  23  40  67  92 131 167 208 268 324 369
#     4  12  26  41  66  99 130 164 215 266 317 383
#     4  11  25  43  65  96 126 164 214 268 325 386
#     4  10  23  39  61  95 126 168 219 260 313 380
#     4  10  19  36  62  88 117 168 213 254 315 377
#
# _framework density 9.5037079999999996
#
# number of rings (size 3 to 8) (size 9 to 14) (size 15 to 20)
#    0.000    1.429    2.857    3.857    6.000    2.571 
#    0.000    0.000    0.000    4.714    0.000    0.000 
#    0.000    0.000    0.000    0.000    0.000    0.000 
#
# Total GULP energy -156186.898799 kJ/mol
# GULP energy per Si atom -5578.103529 kJ/mol
# Density = 0.948208 g / cm^3
# Si number density = 9.503708 Si / 1000 Ang^3
#
#
#
# Elastic Constant Matrix: (Units=GPa)
#
#
# Indices 1 2 3 4 5 6 
#
# 1 81.3243 50.8814 35.9785 0.0000 8.7095 0.0000
# 2 50.8814 137.8721 32.1404 0.0000 7.0886 0.0000
# 3 35.9785 32.1404 56.5005 0.0000 -4.5762 0.0000
# 4 0.0000 0.0000 0.0000 19.6344 0.0000 -2.9443
# 5 8.7095 7.0886 -4.5762 0.0000 28.1597 0.0000
# 6 0.0000 0.0000 0.0000 -2.9443 0.0000 15.7380
#
#
#
# Elastic Compliance Matrix: (Units=1/GPa)
#
#
# Indices 1 2 3 4 5 6 
#
# 1 0.021021 -0.004768 -0.011251 0.000000 -0.007129 0.000000
# 2 -0.004768 0.009687 -0.002586 0.000000 -0.001384 0.000000
# 3 -0.011251 -0.002586 0.027024 0.000000 0.008522 0.000000
# 4 0.000000 0.000000 0.000000 0.052401 0.000000 0.009804
# 5 -0.007129 -0.001384 0.008522 0.000000 0.039450 0.000000
# 6 0.000000 0.000000 0.000000 0.009804 0.000000 0.065375
#
#
# Mechanical properties :
#
#
# Convention : Reuss Voigt Hill
#
# Bulk Modulus (GPa) = 48.72812 57.07751 52.90282
# Shear Modulus (GPa) = 19.30437 23.15285 21.22861
#
# Velocity S-wave (km/s) = 3.19034 3.49391 3.34557
# Velocity P-wave (km/s) = 6.26602 6.80961 6.54346
#
# Compressibility (1/GPa) = 0.02052203
#
# Stress axis : x y z
#
# Youngs Moduli (GPa) = 47.57211 103.23254 37.00353
#
# Poissons Ratio (x) = 0.49225 0.41631
# Poissons Ratio (y) = 0.22684 0.09569
# Poissons Ratio (z) = 0.53521 0.26696
#
# Static dielectric constant tensor:
#      x y z
#    x 1.674340 0.000000 -0.005470 
#    y 0.000000 1.680940 0.000000 
#    z -0.005470 0.000000 1.638540 
# 
# From -- ./inp_files/77394.got.cif
#   From: 2010.05.17/outbox.ucp.g08.bks.cvg/sg12_39_cif.got.tgz:77394.got - 2010.06.11 11:47:21.
