data_PCOD9224136
_publ_section_title
;
Structure prediction by ZEFSAII (Michael W. Deem and Ramdas Pophale) SiO2 
 PCOD9224136
Probable space group: C 2/M
;
_chemical_formula_sum "Si O2"
_cell_formula_units_Z 32
_cell_length_a 12.000000
_cell_length_b 27.000000
_cell_length_c 15.000000
_cell_angle_alpha 90.000000
_cell_angle_beta 40.000000
_cell_angle_gamma 90.000000
_cell_volume 3123.947783
_symmetry_space_group_name_H-M "C 2/M"
_symmetry_group_IT_number 12
_symmetry_cell_setting 'monoclinic'
loop_
_space_group_symop_operation_xyz
x,y,z
-x,y,-z
-x,-y,-z
x,-y,z
1/2+x,1/2+y,z
1/2-x,1/2+y,-z
1/2-x,1/2-y,-z
1/2+x,1/2-y,z
loop_
_atom_site_type_symbol
_atom_site_label
_atom_site_fract_x
_atom_site_fract_y
_atom_site_fract_z
Si Si1 0.350592 0.867997 0.275634
Si Si2 0.724905 0.138551 0.012053
Si Si3 0.795674 0.805104 0.782963
Si Si4 0.524807 0.442350 0.178204
Si Si5 0.688636 0.056752 0.839039
Si Si6 0.705679 0.692570 0.862814
Si Si7 0.298438 0.126425 0.638448
Si Si8 0.202592 0.808547 0.531375
O O1 0.327368 0.823552 0.220087
O O2 0.252259 0.911667 0.283071
O O3 0.296853 0.844586 0.402069
O O4 0.545427 0.887301 0.147306
O O5 0.746516 0.163758 0.901929
O O6 0.875833 0.099236 0.940772
O O7 0.725544 0.182634 0.081166
O O8 0.771769 0.746708 0.799312
O O9 0.997712 0.814608 0.640413
O O10 0.519798 0.500000 0.152692
O O11 0.654318 0.440960 0.185221
O O12 0.332711 0.418973 0.303016
O O13 0.662571 0.000000 0.829134
O O14 0.500000 0.071908 0.000000
O O15 0.766805 0.650900 0.755073
O O16 0.500000 0.692707 0.000000
O O17 0.500000 0.113515 0.500000
O O18 0.248644 0.169964 0.599757
O O19 0.250000 0.750000 0.500000
#
# Coordination Sequence:
#
# PCOD9224136 Si02
#       8
#     8   8   8   8   8   8   8   8
#     4  12  22  37  65  98 133 172 219 270 338 410
#     4  12  22  41  63  98 129 165 220 283 335 403
#     4  12  23  40  62  95 136 176 212 270 347 414
#     4  11  23  43  71  98 132 175 221 280 346 402
#     4  10  19  37  67 102 136 169 212 280 360 416
#     4  12  24  41  66  96 130 176 231 284 335 402
#     4  12  25  47  65  92 135 181 230 280 333 398
#     4  12  25  43  62  93 136 184 229 272 328 406
#
# _framework density 10.243449
#
# number of rings (size 3 to 8) (size 9 to 14) (size 15 to 20)
#    0.000    0.375    5.000    4.875    0.000    0.250 
#    0.000    1.875    0.000    5.250    0.000    0.000 
#    0.000    0.000    0.000    0.000    0.000    0.000 
#
# Total GULP energy -178480.856842 kJ/mol
# GULP energy per Si atom -5577.526776 kJ/mol
# Density = 1.022013 g / cm^3
# Si number density = 10.243449 Si / 1000 Ang^3
#
#
#
# Elastic Constant Matrix: (Units=GPa)
#
#
# Indices 1 2 3 4 5 6 
#
# 1 31.2160 -0.5749 16.5819 0.0000 -15.9726 0.0000
# 2 -0.5749 65.8245 6.8643 0.0000 -12.5602 0.0000
# 3 16.5819 6.8643 100.5954 0.0001 -27.4655 0.0000
# 4 0.0000 0.0000 0.0001 -83.6658 -0.0001 -5.8728
# 5 -15.9726 -12.5602 -27.4655 -0.0001 39.8365 0.0000
# 6 0.0000 0.0000 0.0000 -5.8728 0.0000 16.6274
#
#
#
# Elastic Compliance Matrix: (Units=1/GPa)
#
#
# Indices 1 2 3 4 5 6 
#
# 1 0.041763 0.003708 -0.002767 0.000000 0.016006 0.000000
# 2 0.003708 0.016504 0.000110 0.000000 0.006766 0.000000
# 3 -0.002767 0.000110 0.012437 0.000000 0.007500 0.000000
# 4 0.000000 0.000000 0.000000 -0.011663 0.000000 -0.004119
# 5 0.016006 0.006766 0.007500 0.000000 0.038825 0.000000
# 6 0.000000 0.000000 0.000000 -0.004119 0.000000 0.058687
#
#
# Mechanical properties :
#
#
# Convention : Reuss Voigt Hill
#
# Bulk Modulus (GPa) = 13.73527 27.04206 20.38866
# Shear Modulus (GPa) = 27.97676 6.21057 17.09367
#
# Velocity S-wave (km/s) = 3.69940 1.74301 2.89168
# Velocity P-wave (km/s) = 4.99664 4.15681 4.59595
#
# Compressibility (1/GPa) = 0.07280529
#
# Stress axis : x y z
#
# Youngs Moduli (GPa) = 23.94460 60.59190 80.40419
#
# Poissons Ratio (x) = -0.22464 0.22247
# Poissons Ratio (y) = -0.08877 -0.00884
# Poissons Ratio (z) = 0.06625 -0.00666
#
# Static dielectric constant tensor:
#      x y z
#    x 1.364960 0.000000 0.142740 
#    y 0.000000 1.764590 0.000000 
#    z 0.142740 0.000000 1.687810 
# 
# From -- ./inp_files/209395.got.cif
#   From: 2010.05.17/outbox.ucp.g08.bks.cvg/sg12_105_cif.got.tgz:209395.got - 2010.06.11 11:47:21.
