data_PCOD9224526
_publ_section_title
;
Structure prediction by ZEFSAII (Michael W. Deem and Ramdas Pophale) SiO2 
 PCOD9224526
Probable space group: C 2/M
;
_chemical_formula_sum "Si O2"
_cell_formula_units_Z 28
_cell_length_a 18.000000
_cell_length_b 9.000000
_cell_length_c 27.000000
_cell_angle_alpha 90.000000
_cell_angle_beta 140.000000
_cell_angle_gamma 90.000000
_cell_volume 2811.553005
_symmetry_space_group_name_H-M "C 2/M"
_symmetry_group_IT_number 12
_symmetry_cell_setting 'monoclinic'
loop_
_space_group_symop_operation_xyz
x,y,z
-x,y,-z
-x,-y,-z
x,-y,z
1/2+x,1/2+y,z
1/2-x,1/2+y,-z
1/2-x,1/2-y,-z
1/2+x,1/2-y,z
loop_
_atom_site_type_symbol
_atom_site_label
_atom_site_fract_x
_atom_site_fract_y
_atom_site_fract_z
Si Si1 0.944161 0.681910 0.919405
Si Si2 0.967635 0.673916 0.617955
Si Si3 0.813939 0.830355 0.229355
Si Si4 0.845625 0.672347 0.661040
Si Si5 0.870375 0.329407 0.064902
Si Si6 0.947113 0.164683 0.193355
Si Si7 0.118908 0.673684 0.531071
O O1 0.938129 0.500000 0.917375
O O2 0.814386 0.734112 0.842032
O O3 0.031364 0.730273 0.921239
O O4 0.000000 0.727837 0.000000
O O5 0.988767 0.500000 0.621447
O O6 0.887401 0.690012 0.625296
O O7 0.904821 0.727547 0.536837
O O8 0.091625 0.747837 0.689749
O O9 0.870800 0.833680 0.203822
O O10 0.803460 0.000000 0.241799
O O11 0.867442 0.500000 0.686048
O O12 0.714759 0.718825 0.601853
O O13 0.922406 0.794640 0.727657
O O14 0.855214 0.500000 0.044595
O O15 0.908799 0.299146 0.139801
O O16 0.750000 0.250000 0.000000
O O17 0.934830 0.000000 0.164560
O O18 0.158168 0.500000 0.550134
O O19 0.000000 0.678372 0.500000
#
# Coordination Sequence:
#
# PCOD9224526 Si02
#       7
#     8   8   8   8   8   8   8
#     4   9  18  34  55  78 105 138 177 218 258 305
#     4   9  19  35  54  77 106 139 174 216 265 315
#     4   9  18  34  57  80 101 134 179 221 262 311
#     4  10  20  35  56  80 106 138 178 221 262 311
#     4  11  22  36  56  81 110 142 177 219 264 313
#     4  10  20  36  58  81 107 139 175 217 265 317
#     4  10  21  36  53  76 108 143 177 217 268 320
#
# _framework density 9.9589090000000002
#
# number of rings (size 3 to 8) (size 9 to 14) (size 15 to 20)
#    0.000    2.286    0.000    2.571    0.000    5.429 
#    0.000    4.286    0.000    3.000    0.000    0.000 
#    0.000    0.000    0.000    0.000    0.000    0.000 
#
# Total GULP energy -156034.874995 kJ/mol
# GULP energy per Si atom -5572.674107 kJ/mol
# Density = 0.993624 g / cm^3
# Si number density = 9.958909 Si / 1000 Ang^3
#
#
#
# Elastic Constant Matrix: (Units=GPa)
#
#
# Indices 1 2 3 4 5 6 
#
# 1 -1.5787 26.8099 27.7189 0.0000 33.9147 0.0000
# 2 26.8099 17.2195 13.6786 0.0000 14.5411 0.0000
# 3 27.7189 13.6786 48.9042 0.0000 30.2971 0.0000
# 4 0.0000 0.0000 0.0000 26.0778 0.0000 -2.0347
# 5 33.9147 14.5411 30.2971 0.0000 28.9879 0.0000
# 6 0.0000 0.0000 0.0000 -2.0347 0.0000 13.4681
#
#
#
# Elastic Compliance Matrix: (Units=1/GPa)
#
#
# Indices 1 2 3 4 5 6 
#
# 1 -0.018794 0.017498 -0.006882 0.000000 0.020404 0.000000
# 2 0.017498 0.085838 0.015409 0.000000 -0.079635 0.000000
# 3 -0.006882 0.015409 0.056281 0.000000 -0.058500 0.000000
# 4 0.000000 0.000000 0.000000 0.038804 0.000000 0.005862
# 5 0.020404 -0.079635 -0.058500 0.000000 0.111715 0.000000
# 6 0.000000 0.000000 0.000000 0.005862 0.000000 0.075135
#
#
# Mechanical properties :
#
#
# Convention : Reuss Voigt Hill
#
# Bulk Modulus (GPa) = 5.70209 22.32886 14.01548
# Shear Modulus (GPa) = 14.06904 13.46262 13.76583
#
# Velocity S-wave (km/s) = 2.66062 2.60264 2.63179
# Velocity P-wave (km/s) = 3.50821 4.50183 4.03572
#
# Compressibility (1/GPa) = 0.17537425
#
# Stress axis : x y z
#
# Youngs Moduli (GPa) = -53.20925 11.64979 17.76789
#
# Poissons Ratio (x) = -0.20385 0.12229
# Poissons Ratio (y) = 0.93105 -0.27378
# Poissons Ratio (z) = -0.36621 -0.17951
#
# Static dielectric constant tensor:
#      x y z
#    x 1.702300 0.000000 -0.062050 
#    y 0.000000 1.708760 0.000000 
#    z -0.062050 0.000000 1.802560 
# 
# From -- ./inp_files/275691.got.cif
#   From: 2010.05.17/outbox.ucp.g08.bks.cvg/sg12_138_cif.got.tgz:275691.got - 2010.06.11 11:47:21.
