data_PCOD9224324
_publ_section_title
;
Structure prediction by ZEFSAII (Michael W. Deem and Ramdas Pophale) SiO2 
 PCOD9224324
Probable space group: C 2/M
;
_chemical_formula_sum "Si O2"
_cell_formula_units_Z 32
_cell_length_a 15.000000
_cell_length_b 9.000000
_cell_length_c 24.000000
_cell_angle_alpha 90.000000
_cell_angle_beta 90.000000
_cell_angle_gamma 90.000000
_cell_volume 3240.000000
_symmetry_space_group_name_H-M "C 2/M"
_symmetry_group_IT_number 12
_symmetry_cell_setting 'monoclinic'
loop_
_space_group_symop_operation_xyz
x,y,z
-x,y,-z
-x,-y,-z
x,-y,z
1/2+x,1/2+y,z
1/2-x,1/2+y,-z
1/2-x,1/2-y,-z
1/2+x,1/2-y,z
loop_
_atom_site_type_symbol
_atom_site_label
_atom_site_fract_x
_atom_site_fract_y
_atom_site_fract_z
Si Si1 0.750568 0.672148 0.164387
Si Si2 0.582830 0.676474 0.872627
Si Si3 0.344802 0.823344 0.015017
Si Si4 0.435361 0.679944 0.626050
Si Si5 0.214899 0.171172 0.288585
Si Si6 0.905543 0.326849 0.894330
Si Si7 0.788871 0.674130 0.554073
Si Si8 0.136955 0.174063 0.648441
O O1 0.755671 0.500000 0.147078
O O2 0.848468 0.741817 0.168225
O O3 0.701574 0.679163 0.223261
O O4 0.691339 0.769926 0.123417
O O5 0.590708 0.500000 0.869327
O O6 0.614245 0.738658 0.932650
O O7 0.481693 0.729366 0.865952
O O8 0.334672 0.000000 0.026013
O O9 0.250000 0.750000 0.000000
O O10 0.407245 0.809770 0.960904
O O11 0.436651 0.500000 0.621195
O O12 0.372025 0.725357 0.678102
O O13 0.379403 0.747676 0.574984
O O14 0.537744 0.730115 0.633709
O O15 0.307776 0.249952 0.302576
O O16 0.226365 0.000000 0.305625
O O17 0.917263 0.500000 0.880769
O O18 0.805667 0.500000 0.546183
O O19 0.750000 0.750000 0.500000
O O20 0.708659 0.690229 0.598717
O O21 0.126977 0.000000 0.660967
#
# Coordination Sequence:
#
# PCOD9224324 Si02
#       8
#     8   8   8   8   8   8   8   8
#     4  11  23  40  60  85 118 151 188 236 287 344
#     4  12  25  40  60  86 115 152 193 233 282 339
#     4  11  22  38  62  87 116 149 187 231 282 343
#     4   9  18  36  58  80 109 145 186 230 278 332
#     4   9  20  37  58  83 110 142 182 231 284 333
#     4  11  24  41  61  87 116 149 188 233 288 346
#     4  10  20  34  52  80 115 151 189 229 277 326
#     4   9  19  35  57  82 110 147 189 231 277 333
#
# _framework density 9.8765429999999999
#
# number of rings (size 3 to 8) (size 9 to 14) (size 15 to 20)
#    0.000    1.750    1.250    3.000    0.000    6.500 
#    0.000    3.750    0.000    0.000    0.000    0.000 
#    0.000    0.000    0.000    0.000    0.000    0.000 
#
# Total GULP energy -178521.874665 kJ/mol
# GULP energy per Si atom -5578.808583 kJ/mol
# Density = 0.985406 g / cm^3
# Si number density = 9.876543 Si / 1000 Ang^3
#
#
#
# Elastic Constant Matrix: (Units=GPa)
#
#
# Indices 1 2 3 4 5 6 
#
# 1 85.2923 34.6413 -16.9442 0.0000 20.2095 0.0000
# 2 34.6413 32.8866 26.2351 0.0000 -7.2590 0.0000
# 3 -16.9442 26.2351 23.5895 0.0000 17.0908 0.0000
# 4 0.0000 0.0000 0.0000 20.8551 0.0000 3.7569
# 5 20.2095 -7.2590 17.0908 0.0000 8.0174 0.0000
# 6 0.0000 0.0000 0.0000 3.7569 0.0000 33.4737
#
#
#
# Elastic Compliance Matrix: (Units=1/GPa)
#
#
# Indices 1 2 3 4 5 6 
#
# 1 0.005256 0.004614 -0.009582 0.000000 0.011355 0.000000
# 2 0.004614 0.010232 0.011664 0.000000 -0.027231 0.000000
# 3 -0.009582 0.011664 0.004804 0.000000 0.024476 0.000000
# 4 0.000000 0.000000 0.000000 0.048939 0.000000 -0.005493
# 5 0.011355 -0.027231 0.024476 0.000000 0.019276 0.000000
# 6 0.000000 0.000000 0.000000 -0.005493 0.000000 0.030491
#
#
# Mechanical properties :
#
#
# Convention : Reuss Voigt Hill
#
# Bulk Modulus (GPa) = 29.68873 25.51478 27.60176
# Shear Modulus (GPa) = 42.79568 18.99165 30.89366
#
# Velocity S-wave (km/s) = 4.65965 3.10409 3.95902
# Velocity P-wave (km/s) = 6.63418 5.07859 5.90781
#
# Compressibility (1/GPa) = 0.03368281
#
# Stress axis : x y z
#
# Youngs Moduli (GPa) = 190.24730 97.73557 208.17848
#
# Poissons Ratio (x) = -0.45094 1.99487
# Poissons Ratio (y) = -0.87779 -2.42823
# Poissons Ratio (z) = 1.82304 -1.14001
#
# Static dielectric constant tensor:
#      x y z
#    x 1.683400 0.000000 -0.019350 
#    y 0.000000 1.672030 0.000000 
#    z -0.019350 0.000000 1.766320 
# 
# From -- ./inp_files/338861.got.cif
#   From: 2010.05.17/outbox.ucp.g08.bks.cvg/sg12_170_cif.got.tgz:338861.got - 2010.06.11 11:47:21.
