data_PCOD9224084
_publ_section_title
;
Structure prediction by ZEFSAII (Michael W. Deem and Ramdas Pophale) SiO2 
 PCOD9224084
Probable space group: C 2/M
;
_chemical_formula_sum "Si O2"
_cell_formula_units_Z 32
_cell_length_a 30.000000
_cell_length_b 9.000000
_cell_length_c 18.000000
_cell_angle_alpha 90.000000
_cell_angle_beta 40.000000
_cell_angle_gamma 90.000000
_cell_volume 3123.947783
_symmetry_space_group_name_H-M "C 2/M"
_symmetry_group_IT_number 12
_symmetry_cell_setting 'monoclinic'
loop_
_space_group_symop_operation_xyz
x,y,z
-x,y,-z
-x,-y,-z
x,-y,z
1/2+x,1/2+y,z
1/2-x,1/2+y,-z
1/2-x,1/2-y,-z
1/2+x,1/2-y,z
loop_
_atom_site_type_symbol
_atom_site_label
_atom_site_fract_x
_atom_site_fract_y
_atom_site_fract_z
Si Si1 0.800185 0.328574 0.994619
Si Si2 0.932541 0.326094 0.384098
Si Si3 0.824653 0.679307 0.392997
Si Si4 0.816667 0.322956 0.236570
Si Si5 0.710662 0.328784 0.256955
Si Si6 0.574449 0.172505 0.431581
Si Si7 0.539807 0.175555 0.023201
Si Si8 0.444975 0.325764 0.842255
O O1 0.810461 0.500000 0.959992
O O2 0.764978 0.325514 0.120619
O O3 0.750000 0.250000 0.000000
O O4 0.873346 0.248846 0.910255
O O5 0.949810 0.500000 0.346267
O O6 0.875163 0.279208 0.396388
O O7 0.914492 0.317855 0.493687
O O8 0.997973 0.221639 0.289615
O O9 0.821554 0.500000 0.398618
O O10 0.750000 0.750000 0.500000
O O11 0.841324 0.727338 0.286745
O O12 0.805134 0.500000 0.258978
O O13 0.748208 0.261581 0.282792
O O14 0.879820 0.305831 0.099482
O O15 0.693640 0.500000 0.295715
O O16 0.641767 0.252488 0.315230
O O17 0.500000 0.232322 0.500000
O O18 0.575909 0.000000 0.407607
O O19 0.527141 0.260163 0.115232
O O20 0.523756 0.000000 0.054234
O O21 0.500000 0.225279 0.000000
O O22 0.436171 0.500000 0.860061
#
# Coordination Sequence:
#
# PCOD9224084 Si02
#       8
#     8   8   8   8   8   8   8   8
#     4  11  24  43  66  93 125 163 208 255 312 377
#     4  10  22  41  61  86 123 166 209 255 309 373
#     4  10  20  35  59  87 117 156 203 250 305 366
#     4   9  17  33  56  84 114 150 195 239 290 357
#     4  10  21  39  63  89 120 154 196 250 302 365
#     4  10  23  41  61  87 117 155 202 253 310 363
#     4  10  19  36  62  87 119 166 210 248 301 367
#     4  12  25  40  61  93 130 166 208 260 315 367
#
# _framework density 10.243449
#
# number of rings (size 3 to 8) (size 9 to 14) (size 15 to 20)
#    0.000    1.750    1.250    3.000    1.750    4.500 
#    0.000    0.625    0.000    0.000    0.000    0.000 
#    0.000    0.000    0.000    0.000    0.000    0.000 
#
# Total GULP energy -178545.435379 kJ/mol
# GULP energy per Si atom -5579.544856 kJ/mol
# Density = 1.022013 g / cm^3
# Si number density = 10.243449 Si / 1000 Ang^3
#
#
#
# Elastic Constant Matrix: (Units=GPa)
#
#
# Indices 1 2 3 4 5 6 
#
# 1 85.2897 22.2137 13.2714 0.0039 -36.9060 -0.0009
# 2 22.2137 51.1737 20.6036 0.0177 -12.4494 -0.0055
# 3 13.2714 20.6036 22.5178 0.0087 -12.5353 -0.0037
# 4 0.0039 0.0177 0.0087 18.5530 -0.0033 -4.5643
# 5 -36.9060 -12.4494 -12.5353 -0.0033 31.4140 -0.0001
# 6 -0.0009 -0.0055 -0.0037 -4.5643 -0.0001 27.8017
#
#
#
# Elastic Compliance Matrix: (Units=1/GPa)
#
#
# Indices 1 2 3 4 5 6 
#
# 1 0.025404 -0.006993 0.008354 0.000003 0.030407 0.000001
# 2 -0.006993 0.032902 -0.029952 -0.000017 -0.007129 -0.000001
# 3 0.008354 -0.029952 0.084523 -0.000006 0.031672 0.000005
# 4 0.000003 -0.000017 -0.000006 0.056168 0.000000 0.009221
# 5 0.030407 -0.007129 0.031672 0.000000 0.077370 0.000004
# 6 0.000001 -0.000001 0.000005 0.009221 0.000004 0.037483
#
#
# Mechanical properties :
#
#
# Convention : Reuss Voigt Hill
#
# Bulk Modulus (GPa) = 11.67595 30.12872 20.90233
# Shear Modulus (GPa) = 12.51310 22.41322 17.46316
#
# Velocity S-wave (km/s) = 2.47409 3.31120 2.92277
# Velocity P-wave (km/s) = 3.72466 5.41821 4.64920
#
# Compressibility (1/GPa) = 0.08564615
#
# Stress axis : x y z
#
# Youngs Moduli (GPa) = 39.36392 30.39332 11.83110
#
# Poissons Ratio (x) = 0.21256 -0.09884
# Poissons Ratio (y) = 0.27529 0.35436
# Poissons Ratio (z) = -0.32884 0.91033
#
# Static dielectric constant tensor:
#      x y z
#    x 1.748820 0.000000 0.048890 
#    y 0.000000 1.710690 0.000000 
#    z 0.048890 0.000000 1.895220 
# 
# From -- ./inp_files/295561.got.cif
#   From: 2010.05.17/outbox.ucp.g08.bks.cvg/sg12_148_cif.got.tgz:295561.got - 2010.06.11 11:47:21.
