data_PCOD9224741
_publ_section_title
;
Structure prediction by ZEFSAII (Michael W. Deem and Ramdas Pophale) SiO2 
 PCOD9224741
Probable space group: C 2/M
;
_chemical_formula_sum "Si O2"
_cell_formula_units_Z 32
_cell_length_a 24.000000
_cell_length_b 21.000000
_cell_length_c 18.000000
_cell_angle_alpha 90.000000
_cell_angle_beta 160.000000
_cell_angle_gamma 90.000000
_cell_volume 3102.806740
_symmetry_space_group_name_H-M "C 2/M"
_symmetry_group_IT_number 12
_symmetry_cell_setting 'monoclinic'
loop_
_space_group_symop_operation_xyz
x,y,z
-x,y,-z
-x,-y,-z
x,-y,z
1/2+x,1/2+y,z
1/2-x,1/2+y,-z
1/2-x,1/2-y,-z
1/2+x,1/2-y,z
loop_
_atom_site_type_symbol
_atom_site_label
_atom_site_fract_x
_atom_site_fract_y
_atom_site_fract_z
Si Si1 0.805099 0.073397 0.757006
Si Si2 0.452712 0.161927 0.630523
Si Si3 0.748132 0.575677 0.012396
Si Si4 0.670315 0.573046 0.755725
Si Si5 0.319076 0.647753 0.921221
Si Si6 0.609215 0.846911 0.075787
Si Si7 0.437570 0.754520 0.753089
Si Si8 0.613689 0.744790 0.583426
O O1 0.721842 0.126646 0.600046
O O2 0.773636 0.095792 0.801994
O O3 0.755242 0.000000 0.680084
O O4 0.000000 0.076461 0.000000
O O5 0.571256 0.101643 0.775822
O O6 0.499190 0.204724 0.759439
O O7 0.466332 0.211326 0.579204
O O8 0.738718 0.500000 0.012705
O O9 0.697857 0.614097 0.021727
O O10 0.649773 0.594888 0.815059
O O11 0.500000 0.572666 0.500000
O O12 0.727202 0.500000 0.833105
O O13 0.806589 0.610232 0.880722
O O14 0.205259 0.706571 0.753924
O O15 0.490006 0.684915 0.140831
O O16 0.758371 0.803493 0.292222
O O17 0.500000 0.881875 0.000000
O O18 0.486129 0.797140 0.883795
O O19 0.250000 0.750000 0.500000
O O20 0.500000 0.708864 0.500000
#
# Coordination Sequence:
#
# PCOD9224741 Si02
#       8
#     8   8   8   8   8   8   8   8
#     4  10  21  38  60  88 128 171 206 247 308 379
#     4  11  21  37  60  90 122 163 205 252 307 365
#     4  11  22  39  64  92 121 157 207 262 311 365
#     4  10  23  44  66  88 119 161 212 271 326 374
#     4  10  22  37  60  90 123 163 206 251 303 368
#     4  11  23  39  61  89 120 164 209 257 315 377
#     4  11  23  38  58  88 126 163 201 252 308 370
#     4  10  20  36  58  89 126 162 201 244 306 374
#
# _framework density 10.313243
#
# number of rings (size 3 to 8) (size 9 to 14) (size 15 to 20)
#    0.000    1.500    2.500    2.625    0.000    7.250 
#    0.000    1.875    0.000    0.750    0.000    0.000 
#    0.000    0.000    0.000    0.000    0.000    0.000 
#
# Total GULP energy -178234.375359 kJ/mol
# GULP energy per Si atom -5569.824230 kJ/mol
# Density = 1.028977 g / cm^3
# Si number density = 10.313243 Si / 1000 Ang^3
#
#
#
# Elastic Constant Matrix: (Units=GPa)
#
#
# Indices 1 2 3 4 5 6 
#
# 1 76.6237 11.4531 -0.1762 0.0000 -2.5299 0.0000
# 2 11.4531 41.4237 -18.2356 0.0000 2.1446 0.0000
# 3 -0.1762 -18.2356 37.8981 0.0000 -7.6565 0.0000
# 4 0.0000 0.0000 0.0000 84.7840 0.0000 -4.3295
# 5 -2.5299 2.1446 -7.6565 0.0000 24.3110 0.0000
# 6 0.0000 0.0000 0.0000 -4.3295 0.0000 17.4101
#
#
#
# Elastic Compliance Matrix: (Units=1/GPa)
#
#
# Indices 1 2 3 4 5 6 
#
# 1 0.013796 -0.004746 -0.001970 0.000000 0.001234 0.000000
# 2 -0.004746 0.032359 0.015882 0.000000 0.001654 0.000000
# 3 -0.001970 0.015882 0.035985 0.000000 0.009727 0.000000
# 4 0.000000 0.000000 0.000000 0.011946 0.000000 0.002971
# 5 0.001234 0.001654 0.009727 0.000000 0.044180 0.000000
# 6 0.000000 0.000000 0.000000 0.002971 0.000000 0.058177
#
#
# Mechanical properties :
#
#
# Convention : Reuss Voigt Hill
#
# Bulk Modulus (GPa) = 9.95289 15.78090 12.86689
# Shear Modulus (GPa) = 23.62942 36.16130 29.89536
#
# Velocity S-wave (km/s) = 3.38832 4.19160 3.81119
# Velocity P-wave (km/s) = 4.48814 5.57615 5.06147
#
# Compressibility (1/GPa) = 0.10047331
#
# Stress axis : x y z
#
# Youngs Moduli (GPa) = 72.48302 30.90330 27.78960
#
# Poissons Ratio (x) = 0.14666 0.05475
# Poissons Ratio (y) = 0.34398 -0.44136
# Poissons Ratio (z) = 0.14280 -0.49082
#
# Static dielectric constant tensor:
#      x y z
#    x 1.815630 0.000000 0.055780 
#    y 0.000000 1.797290 0.000000 
#    z 0.055780 0.000000 1.827450 
# 
# From -- ./inp_files/290891.got.cif
#   From: 2010.05.17/outbox.ucp.g08.bks.cvg/sg12_146_cif.got.tgz:290891.got - 2010.06.11 11:47:21.
