data_PCOD9224621
_publ_section_title
;
Structure prediction by ZEFSAII (Michael W. Deem and Ramdas Pophale) SiO2 
 PCOD9224621
Probable space group: C 2/M
;
_chemical_formula_sum "Si O2"
_cell_formula_units_Z 20
_cell_length_a 21.000000
_cell_length_b 9.000000
_cell_length_c 30.000000
_cell_angle_alpha 90.000000
_cell_angle_beta 160.000000
_cell_angle_gamma 90.000000
_cell_volume 1939.254213
_symmetry_space_group_name_H-M "C 2/M"
_symmetry_group_IT_number 12
_symmetry_cell_setting 'monoclinic'
loop_
_space_group_symop_operation_xyz
x,y,z
-x,y,-z
-x,-y,-z
x,-y,z
1/2+x,1/2+y,z
1/2-x,1/2+y,-z
1/2-x,1/2-y,-z
1/2+x,1/2-y,z
loop_
_atom_site_type_symbol
_atom_site_label
_atom_site_fract_x
_atom_site_fract_y
_atom_site_fract_z
Si Si1 0.801289 0.171036 0.090982
Si Si2 0.555335 0.674381 0.182396
Si Si3 0.582947 0.822217 0.420024
Si Si4 0.566696 0.326301 0.594574
Si Si5 0.280852 0.827443 0.859305
O O1 0.790218 0.172906 0.136586
O O2 0.997724 0.207578 0.196212
O O3 0.757432 0.000000 0.047975
O O4 0.638861 0.280911 0.968503
O O5 0.596987 0.500000 0.205744
O O6 0.722235 0.764056 0.269354
O O7 0.750000 0.750000 0.500000
O O8 0.570225 0.761758 0.462312
O O9 0.375643 0.771298 0.267524
O O10 0.602594 0.000000 0.431440
O O11 0.500000 0.311796 0.500000
O O12 0.566693 0.500000 0.606997
O O13 0.275276 0.000000 0.839662
O O14 0.500000 0.781068 0.000000
#
# Coordination Sequence:
#
# PCOD9224621 Si02
#       5
#     8   8   8   8   8
#     4   9  19  35  58  90 127 169 209 259 320 381
#     4  10  20  35  58  91 127 165 212 264 320 379
#     4  12  27  46  69  98 135 175 220 272 329 394
#     4  11  25  44  66  92 125 168 217 267 323 384
#     4  10  21  39  65  95 131 174 219 268 326 388
#
# _framework density 10.313243
#
# number of rings (size 3 to 8) (size 9 to 14) (size 15 to 20)
#    0.000    1.600    0.000    4.200    2.800    5.200 
#    0.000    0.000    0.000    0.000    0.000    0.000 
#    0.000    0.000    0.000    0.000    0.000    0.000 
#
# Total GULP energy -111642.198466 kJ/mol
# GULP energy per Si atom -5582.109923 kJ/mol
# Density = 1.028977 g / cm^3
# Si number density = 10.313243 Si / 1000 Ang^3
#
#
#
# Elastic Constant Matrix: (Units=GPa)
#
#
# Indices 1 2 3 4 5 6 
#
# 1 140.0266 55.0070 36.3036 0.0024 20.6534 0.0008
# 2 55.0070 126.8320 42.1812 0.0029 16.6252 0.0003
# 3 36.3036 42.1812 79.0207 0.0284 19.4248 -0.0049
# 4 0.0024 0.0029 0.0284 28.0876 -0.0021 5.3129
# 5 20.6534 16.6252 19.4248 -0.0021 40.3736 -0.0010
# 6 0.0008 0.0003 -0.0049 5.3129 -0.0010 32.4395
#
#
#
# Elastic Compliance Matrix: (Units=1/GPa)
#
#
# Indices 1 2 3 4 5 6 
#
# 1 0.009211 -0.002995 -0.002016 0.000002 -0.002508 -0.000001
# 2 -0.002995 0.010663 -0.004097 0.000003 -0.000887 -0.000001
# 3 -0.002016 -0.004097 0.017126 -0.000018 -0.005521 0.000005
# 4 0.000002 0.000003 -0.000018 0.036741 0.000008 -0.006017
# 5 -0.002508 -0.000887 -0.005521 0.000008 0.029073 -0.000001
# 6 -0.000001 -0.000001 0.000005 -0.006017 -0.000001 0.031812
#
#
# Mechanical properties :
#
#
# Convention : Reuss Voigt Hill
#
# Bulk Modulus (GPa) = 53.24543 68.09588 60.67066
# Shear Modulus (GPa) = 31.42599 34.33929 32.88264
#
# Velocity S-wave (km/s) = 3.90753 4.08464 3.99707
# Velocity P-wave (km/s) = 6.79916 7.43849 7.12600
#
# Compressibility (1/GPa) = 0.01878095
#
# Stress axis : x y z
#
# Youngs Moduli (GPa) = 108.56716 93.78616 58.39241
#
# Poissons Ratio (x) = 0.28093 0.11772
# Poissons Ratio (y) = 0.32521 0.23926
# Poissons Ratio (z) = 0.21888 0.38429
#
# Static dielectric constant tensor:
#      x y z
#    x 1.804830 0.000000 -0.083840 
#    y 0.000000 1.715670 -0.000010 
#    z -0.083840 -0.000010 1.782910 
# 
# From -- ./inp_files/238089.got.cif
#   From: 2010.05.17/outbox.ucp.g08.bks.cvg/sg12_120_cif.got.tgz:238089.got - 2010.06.11 11:47:21.
