data_PCOD9224727
_publ_section_title
;
Structure prediction by ZEFSAII (Michael W. Deem and Ramdas Pophale) SiO2 
 PCOD9224727
Probable space group: C 2/M
;
_chemical_formula_sum "Si O2"
_cell_formula_units_Z 28
_cell_length_a 18.000000
_cell_length_b 24.000000
_cell_length_c 21.000000
_cell_angle_alpha 90.000000
_cell_angle_beta 20.000000
_cell_angle_gamma 90.000000
_cell_volume 3102.806740
_symmetry_space_group_name_H-M "C 2/M"
_symmetry_group_IT_number 12
_symmetry_cell_setting 'monoclinic'
loop_
_space_group_symop_operation_xyz
x,y,z
-x,y,-z
-x,-y,-z
x,-y,z
1/2+x,1/2+y,z
1/2-x,1/2+y,-z
1/2-x,1/2-y,-z
1/2+x,1/2-y,z
loop_
_atom_site_type_symbol
_atom_site_label
_atom_site_fract_x
_atom_site_fract_y
_atom_site_fract_z
Si Si1 0.986399 0.699344 0.732984
Si Si2 0.781973 0.875498 0.584386
Si Si3 0.506309 0.698586 0.919522
Si Si4 0.202496 0.000000 0.387710
Si Si5 0.862359 0.500000 0.044292
Si Si6 0.372704 0.618156 0.792831
Si Si7 0.853798 0.814396 0.334083
Si Si8 0.941772 0.328830 0.118251
O O1 0.091801 0.651813 0.694041
O O2 0.020520 0.757647 0.744064
O O3 0.126074 0.696137 0.554627
O O4 0.737922 0.693840 0.911774
O O5 0.742985 0.856094 0.688637
O O6 0.002939 0.858304 0.370099
O O7 0.798764 0.942510 0.572169
O O8 0.643717 0.678959 0.745023
O O9 0.581938 0.762831 0.865736
O O10 0.500000 0.677326 0.000000
O O11 0.000000 0.000000 0.500000
O O12 0.436766 0.000000 0.165782
O O13 0.716634 0.555594 0.149555
O O14 0.000000 0.500000 0.000000
O O15 0.534695 0.632094 0.720833
O O16 0.162671 0.654983 0.976083
O O17 0.000000 0.350461 0.000000
#
# Coordination Sequence:
#
# PCOD9224727 Si02
#       8
#     8   8   8   4   4   8   8   8
#     4  10  20  37  58  81 111 151 197 241 291 355
#     4  11  23  38  56  78 110 158 197 238 286 337
#     4  11  22  35  56  85 119 149 187 251 302 351
#     4  12  26  38  56  85 119 158 197 239 280 336
#     4  12  24  40  56  83 122 159 196 241 283 339
#     4  11  22  37  57  78 109 155 199 239 281 337
#     4  10  20  36  58  83 110 149 197 242 289 356
#     4  11  22  33  50  80 112 151 196 235 292 338
#
# _framework density 9.0240880000000008
#
# number of rings (size 3 to 8) (size 9 to 14) (size 15 to 20)
#    0.000    1.143    4.286    3.000    2.000    0.571 
#    0.000    2.857    0.000    0.000    0.000    2.000 
#    0.000    4.571    0.000    0.000    0.000    0.000 
#
# Total GULP energy -156011.458268 kJ/mol
# GULP energy per Si atom -5571.837795 kJ/mol
# Density = 0.900355 g / cm^3
# Si number density = 9.024088 Si / 1000 Ang^3
#
#
#
# Elastic Constant Matrix: (Units=GPa)
#
#
# Indices 1 2 3 4 5 6 
#
# 1 93.7107 24.5894 27.1043 0.0265 27.2806 -0.0174
# 2 24.5894 75.8050 3.0020 0.0318 -3.6492 -0.0179
# 3 27.1043 3.0020 102.4139 0.1396 26.1938 -0.0406
# 4 0.0265 0.0318 0.1396 21.9875 -0.0316 1.2194
# 5 27.2806 -3.6492 26.1938 -0.0316 42.3952 0.0275
# 6 -0.0174 -0.0179 -0.0406 1.2194 0.0275 28.6957
#
#
#
# Elastic Compliance Matrix: (Units=1/GPa)
#
#
# Indices 1 2 3 4 5 6 
#
# 1 0.015214 -0.005326 -0.001484 -0.000015 -0.009332 0.000013
# 2 -0.005326 0.015167 -0.000292 -0.000007 0.004913 0.000001
# 3 -0.001484 -0.000292 0.011791 -0.000083 -0.006356 0.000025
# 4 -0.000015 -0.000007 -0.000083 0.045588 0.000096 -0.001937
# 5 -0.009332 0.004913 -0.006356 0.000096 0.033942 -0.000048
# 6 0.000013 0.000001 0.000025 -0.001937 -0.000048 0.034931
#
#
# Mechanical properties :
#
#
# Convention : Reuss Voigt Hill
#
# Bulk Modulus (GPa) = 35.75129 42.36900 39.06014
# Shear Modulus (GPa) = 27.75312 33.09796 30.42554
#
# Velocity S-wave (km/s) = 3.92564 4.28701 4.11030
# Velocity P-wave (km/s) = 6.35605 6.93045 6.64945
#
# Compressibility (1/GPa) = 0.02797102
#
# Stress axis : x y z
#
# Youngs Moduli (GPa) = 65.72731 65.93129 84.80931
#
# Poissons Ratio (x) = 0.35113 0.12583
# Poissons Ratio (y) = 0.35004 0.02473
# Poissons Ratio (z) = 0.09752 0.01923
#
# Static dielectric constant tensor:
#      x y z
#    x 1.665930 -0.000020 0.032370 
#    y -0.000020 1.621150 0.000050 
#    z 0.032370 0.000050 1.678270 
# 
# From -- ./inp_files/318277.got.cif
#   From: 2010.05.17/outbox.ucp.g08.bks.cvg/sg12_160_cif.got.tgz:318277.got - 2010.06.11 11:47:21.
