data_PCOD9224367
_publ_section_title
;
Structure prediction by ZEFSAII (Michael W. Deem and Ramdas Pophale) SiO2 
 PCOD9224367
Probable space group: C 2/M
;
_chemical_formula_sum "Si O2"
_cell_formula_units_Z 28
_cell_length_a 30.000000
_cell_length_b 9.000000
_cell_length_c 12.000000
_cell_angle_alpha 90.000000
_cell_angle_beta 120.000000
_cell_angle_gamma 90.000000
_cell_volume 2805.922308
_symmetry_space_group_name_H-M "C 2/M"
_symmetry_group_IT_number 12
_symmetry_cell_setting 'monoclinic'
loop_
_space_group_symop_operation_xyz
x,y,z
-x,y,-z
-x,-y,-z
x,-y,z
1/2+x,1/2+y,z
1/2-x,1/2+y,-z
1/2-x,1/2-y,-z
1/2+x,1/2-y,z
loop_
_atom_site_type_symbol
_atom_site_label
_atom_site_fract_x
_atom_site_fract_y
_atom_site_fract_z
Si Si1 0.808647 0.677299 0.822257
Si Si2 0.098729 0.326028 0.626911
Si Si3 0.293335 0.828415 0.369162
Si Si4 0.161550 0.172294 0.366859
Si Si5 0.446828 0.670352 0.637038
Si Si6 0.118973 0.320233 0.902150
Si Si7 0.518700 0.178275 0.903280
O O1 0.815887 0.500000 0.819386
O O2 0.749839 0.724015 0.735902
O O3 0.837152 0.758576 0.754649
O O4 0.828983 0.723626 0.969826
O O5 0.082820 0.500000 0.610227
O O6 0.154601 0.319481 0.637693
O O7 0.062413 0.236696 0.497137
O O8 0.104937 0.266754 0.760765
O O9 0.304279 0.772021 0.507700
O O10 0.276819 0.000000 0.348981
O O11 0.106140 0.174646 0.357874
O O12 0.178357 0.000000 0.385413
O O13 0.463798 0.500000 0.650807
O O14 0.484864 0.766680 0.758501
O O15 0.119729 0.500000 0.892089
O O16 0.076036 0.279732 0.939663
O O17 0.516066 0.000000 0.904766
O O18 0.500000 0.236462 0.000000
#
# Coordination Sequence:
#
# PCOD9224367 Si02
#       7
#     8   8   8   8   8   8   8
#     4  11  21  34  54  79 109 142 177 221 270 316
#     4   9  19  38  59  77 103 142 185 222 258 311
#     4  10  20  34  54  79 106 139 180 222 266 317
#     4  10  20  35  54  78 109 142 178 219 265 319
#     4  10  21  36  56  82 111 141 174 220 273 317
#     4   9  20  37  56  79 106 140 183 224 260 309
#     4  10  20  36  59  84 109 140 179 218 260 317
#
# _framework density 9.9788940000000004
#
# number of rings (size 3 to 8) (size 9 to 14) (size 15 to 20)
#    0.000    2.143    0.000    3.000    0.000    4.857 
#    0.000    6.429    0.000    0.000    0.000    0.000 
#    0.000    0.000    0.000    0.000    0.000    0.000 
#
# Total GULP energy -156227.512387 kJ/mol
# GULP energy per Si atom -5579.554014 kJ/mol
# Density = 0.995618 g / cm^3
# Si number density = 9.978894 Si / 1000 Ang^3
#
#
#
# Elastic Constant Matrix: (Units=GPa)
#
#
# Indices 1 2 3 4 5 6 
#
# 1 15.9185 14.3726 21.9551 0.0000 -4.4459 0.0000
# 2 14.3726 23.6644 -6.6447 0.0000 -16.1394 0.0000
# 3 21.9551 -6.6447 110.9849 0.0000 -20.1583 0.0000
# 4 0.0000 0.0000 0.0000 13.9225 0.0000 -3.3230
# 5 -4.4459 -16.1394 -20.1583 0.0000 24.2982 0.0000
# 6 0.0000 0.0000 0.0000 -3.3230 0.0000 14.3214
#
#
#
# Elastic Compliance Matrix: (Units=1/GPa)
#
#
# Indices 1 2 3 4 5 6 
#
# 1 -0.064970 0.114455 0.036917 0.000000 0.094763 0.000000
# 2 0.114455 -0.086504 -0.040566 0.000000 -0.070170 0.000000
# 3 0.036917 -0.040566 -0.005167 0.000000 -0.024477 0.000000
# 4 0.000000 0.000000 0.000000 0.076037 0.000000 0.017643
# 5 0.094763 -0.070170 -0.024477 0.000000 -0.008421 0.000000
# 6 0.000000 0.000000 0.000000 0.017643 0.000000 0.073919
#
#
# Mechanical properties :
#
#
# Convention : Reuss Voigt Hill
#
# Bulk Modulus (GPa) = 15.39155 23.32598 19.35877
# Shear Modulus (GPa) = -23.24930 18.56739 -2.34095
#
# Velocity S-wave (km/s) = -3.41680 3.05345 -1.08420
# Velocity P-wave (km/s) = 2.79951 4.91370 2.85545
#
# Compressibility (1/GPa) = 0.06497072
#
# Stress axis : x y z
#
# Youngs Moduli (GPa) = -15.39179 -11.56012 -193.53304
#
# Poissons Ratio (x) = 1.32311 7.14460
# Poissons Ratio (y) = 1.76167 -7.85081
# Poissons Ratio (z) = 0.56821 -0.46894
#
# Static dielectric constant tensor:
#      x y z
#    x 1.762760 0.000000 0.047440 
#    y 0.000000 1.672250 0.000000 
#    z 0.047440 0.000000 1.701180 
# 
# From -- ./inp_files/187194.got.cif
#   From: 2010.05.17/outbox.ucp.g08.bks.cvg/sg12_94_cif.got.tgz:187194.got - 2010.06.11 11:47:21.
