data_PCOD9224493
_publ_section_title
;
Structure prediction by ZEFSAII (Michael W. Deem and Ramdas Pophale) SiO2 
 PCOD9224493
Probable space group: C 2/M
;
_chemical_formula_sum "Si O2"
_cell_formula_units_Z 32
_cell_length_a 30.000000
_cell_length_b 9.000000
_cell_length_c 24.000000
_cell_angle_alpha 90.000000
_cell_angle_beta 30.000000
_cell_angle_gamma 90.000000
_cell_volume 3240.000000
_symmetry_space_group_name_H-M "C 2/M"
_symmetry_group_IT_number 12
_symmetry_cell_setting 'monoclinic'
loop_
_space_group_symop_operation_xyz
x,y,z
-x,y,-z
-x,-y,-z
x,-y,z
1/2+x,1/2+y,z
1/2-x,1/2+y,-z
1/2-x,1/2-y,-z
1/2+x,1/2-y,z
loop_
_atom_site_type_symbol
_atom_site_label
_atom_site_fract_x
_atom_site_fract_y
_atom_site_fract_z
Si Si1 0.615242 0.821983 0.923310
Si Si2 0.155908 0.322744 0.187450
Si Si3 0.980550 0.820760 0.584496
Si Si4 0.148163 0.176149 0.999419
Si Si5 0.966377 0.676404 0.785849
Si Si6 0.095791 0.827862 0.565607
Si Si7 0.286076 0.827039 0.404590
Si Si8 0.906544 0.321144 0.176240
O O1 0.635633 0.773238 0.837752
O O2 0.629864 0.000000 0.910764
O O3 0.662973 0.736418 0.921102
O O4 0.511095 0.795153 0.051876
O O5 0.147170 0.500000 0.205212
O O6 0.108864 0.242373 0.290385
O O7 0.104054 0.284921 0.186943
O O8 0.259437 0.287064 0.069805
O O9 0.000000 0.770459 0.500000
O O10 0.055646 0.778566 0.549576
O O11 0.976006 0.000000 0.587918
O O12 0.068032 0.252251 0.119942
O O13 0.134423 0.000000 0.013509
O O14 0.971208 0.500000 0.787672
O O15 0.056509 0.737301 0.660480
O O16 0.201672 0.822253 0.454068
O O17 0.068224 0.000000 0.603360
O O18 0.250000 0.750000 0.500000
O O19 0.365990 0.764806 0.278774
O O20 0.305372 0.000000 0.397534
O O21 0.895021 0.500000 0.191246
#
# Coordination Sequence:
#
# PCOD9224493 Si02
#       8
#     8   8   8   8   8   8   8   8
#     4   9  18  35  58  81 103 139 183 221 267 319
#     4   9  20  36  51  73 106 142 177 216 263 315
#     4   9  18  33  55  81 107 139 178 220 265 319
#     4  11  22  34  51  79 111 138 171 218 271 319
#     4  10  20  35  55  75 101 140 183 219 259 319
#     4   9  19  35  52  76 110 141 173 220 278 321
#     4  10  21  36  55  80 110 145 182 224 272 321
#     4   8  17  36  58  78 106 139 178 226 267 312
#
# _framework density 9.8765429999999999
#
# number of rings (size 3 to 8) (size 9 to 14) (size 15 to 20)
#    0.000    2.625    0.000    1.875    1.750    3.250 
#    0.000    4.375    0.000    0.000    0.000    0.000 
#    0.000    0.000    0.000    0.000    0.000    0.000 
#
# Total GULP energy -178359.650875 kJ/mol
# GULP energy per Si atom -5573.739090 kJ/mol
# Density = 0.985406 g / cm^3
# Si number density = 9.876543 Si / 1000 Ang^3
#
#
#
# Elastic Constant Matrix: (Units=GPa)
#
#
# Indices 1 2 3 4 5 6 
#
# 1 61.1879 14.1107 31.3527 0.0008 16.1340 -0.0005
# 2 14.1107 19.0767 20.0391 0.0048 6.0450 0.0000
# 3 31.3527 20.0391 87.9210 0.0009 26.8585 0.0021
# 4 0.0008 0.0048 0.0009 23.5912 0.0007 5.4959
# 5 16.1340 6.0450 26.8585 0.0007 40.5701 -0.0032
# 6 -0.0005 0.0000 0.0021 5.4959 -0.0032 18.7159
#
#
#
# Elastic Compliance Matrix: (Units=1/GPa)
#
#
# Indices 1 2 3 4 5 6 
#
# 1 0.022065 -0.010615 -0.004076 0.000002 -0.004495 0.000000
# 2 -0.010615 0.074029 -0.013798 -0.000016 0.002326 0.000006
# 3 -0.004076 -0.013798 0.018613 0.000004 -0.008646 -0.000005
# 4 0.000002 -0.000016 0.000004 0.045501 -0.000003 -0.013361
# 5 -0.004495 0.002326 -0.008646 -0.000003 0.031813 0.000007
# 6 0.000000 0.000006 -0.000005 -0.013361 0.000007 0.057354
#
#
# Mechanical properties :
#
#
# Convention : Reuss Voigt Hill
#
# Bulk Modulus (GPa) = 17.32229 33.24341 25.28285
# Shear Modulus (GPa) = 15.35645 23.42099 19.38872
#
# Velocity S-wave (km/s) = 2.79125 3.44712 3.13638
# Velocity P-wave (km/s) = 4.37910 5.71922 5.09343
#
# Compressibility (1/GPa) = 0.05772908
#
# Stress axis : x y z
#
# Youngs Moduli (GPa) = 45.32121 13.50828 53.72522
#
# Poissons Ratio (x) = 0.14339 0.21897
# Poissons Ratio (y) = 0.48109 0.74129
# Poissons Ratio (z) = 0.18472 0.18638
#
# Static dielectric constant tensor:
#      x y z
#    x 1.785180 0.000000 -0.066180 
#    y 0.000000 1.672420 0.000000 
#    z -0.066180 0.000000 1.729600 
# 
# From -- ./inp_files/353305.got.cif
#   From: 2010.05.17/outbox.ucp.g08.bks.cvg/sg12_177_cif.got.tgz:353305.got - 2010.06.11 11:47:21.
