data_PCOD9224381
_publ_section_title
;
Structure prediction by ZEFSAII (Michael W. Deem and Ramdas Pophale) SiO2 
 PCOD9224381
Probable space group: C 2/M
;
_chemical_formula_sum "Si O2"
_cell_formula_units_Z 28
_cell_length_a 15.000000
_cell_length_b 9.000000
_cell_length_c 30.000000
_cell_angle_alpha 90.000000
_cell_angle_beta 130.000000
_cell_angle_gamma 90.000000
_cell_volume 3102.479995
_symmetry_space_group_name_H-M "C 2/M"
_symmetry_group_IT_number 12
_symmetry_cell_setting 'monoclinic'
loop_
_space_group_symop_operation_xyz
x,y,z
-x,y,-z
-x,-y,-z
x,-y,z
1/2+x,1/2+y,z
1/2-x,1/2+y,-z
1/2-x,1/2-y,-z
1/2+x,1/2-y,z
loop_
_atom_site_type_symbol
_atom_site_label
_atom_site_fract_x
_atom_site_fract_y
_atom_site_fract_z
Si Si1 0.434220 0.821712 0.886609
Si Si2 0.282518 0.177870 0.139942
Si Si3 0.284061 0.320071 0.344975
Si Si4 0.949426 0.679815 0.787004
Si Si5 0.556656 0.677889 0.434323
Si Si6 0.657815 0.677305 0.003669
Si Si7 0.275456 0.822154 0.439891
O O1 0.304655 0.766858 0.856385
O O2 0.452146 0.780447 0.840413
O O3 0.532099 0.748181 0.950508
O O4 0.444356 0.000000 0.894148
O O5 0.419232 0.224231 0.187064
O O6 0.278265 0.000000 0.147088
O O7 0.219173 0.200937 0.071457
O O8 0.280334 0.500000 0.344599
O O9 0.171336 0.272779 0.277573
O O10 0.421878 0.280665 0.378672
O O11 0.268028 0.253713 0.389261
O O12 0.947954 0.500000 0.784243
O O13 0.556260 0.500000 0.442629
O O14 0.615655 0.757923 0.496226
O O15 0.653570 0.706955 0.427045
O O16 0.647435 0.500000 0.994288
O O17 0.750000 0.750000 0.000000
O O18 0.288792 0.000000 0.440152
#
# Coordination Sequence:
#
# PCOD9224381 Si02
#       7
#     8   8   8   8   8   8   8
#     4  11  22  38  59  85 112 145 188 232 276 333
#     4  10  21  39  58  80 111 147 182 226 282 336
#     4  10  20  36  58  78 104 148 189 220 265 330
#     4   9  20  39  57  76 109 149 185 223 274 328
#     4   9  19  35  55  80 109 143 182 220 269 332
#     4  11  21  36  60  85 114 147 182 230 285 335
#     4  10  20  34  54  82 114 141 174 229 280 318
#
# _framework density 9.0250380000000003
#
# number of rings (size 3 to 8) (size 9 to 14) (size 15 to 20)
#    0.000    2.000    1.429    2.143    0.000    6.857 
#    0.000    3.571    0.000    0.000    0.000    0.000 
#    0.000    0.000    0.000    0.000    0.000    0.000 
#
# Total GULP energy -156016.670559 kJ/mol
# GULP energy per Si atom -5572.023949 kJ/mol
# Density = 0.900450 g / cm^3
# Si number density = 9.025038 Si / 1000 Ang^3
#
#
#
# Elastic Constant Matrix: (Units=GPa)
#
#
# Indices 1 2 3 4 5 6 
#
# 1 106.1759 26.7617 45.8585 0.0000 31.6270 0.0000
# 2 26.7617 32.3030 25.0422 0.0000 5.9804 0.0000
# 3 45.8585 25.0422 133.7988 0.0000 37.9773 0.0000
# 4 0.0000 0.0000 0.0000 28.9651 0.0000 4.6750
# 5 31.6270 5.9804 37.9773 0.0000 39.8114 0.0000
# 6 0.0000 0.0000 0.0000 4.6750 0.0000 32.4670
#
#
#
# Elastic Compliance Matrix: (Units=1/GPa)
#
#
# Indices 1 2 3 4 5 6 
#
# 1 0.015251 -0.010455 -0.000380 0.000000 -0.010182 0.000000
# 2 -0.010455 0.043435 -0.006927 0.000000 0.008389 0.000000
# 3 -0.000380 -0.006927 0.011683 0.000000 -0.009802 0.000000
# 4 0.000000 0.000000 0.000000 0.035346 0.000000 -0.005089
# 5 -0.010182 0.008389 -0.009802 0.000000 0.041298 0.000000
# 6 0.000000 0.000000 0.000000 -0.005089 0.000000 0.031533
#
#
# Mechanical properties :
#
#
# Convention : Reuss Voigt Hill
#
# Bulk Modulus (GPa) = 28.69883 51.95584 40.32733
# Shear Modulus (GPa) = 22.15474 31.88972 27.02223
#
# Velocity S-wave (km/s) = 3.50723 4.20782 3.87340
# Velocity P-wave (km/s) = 5.68639 7.24254 6.51112
#
# Compressibility (1/GPa) = 0.03484463
#
# Stress axis : x y z
#
# Youngs Moduli (GPa) = 65.57072 23.02268 85.59472
#
# Poissons Ratio (x) = 0.24070 0.03254
# Poissons Ratio (y) = 0.68553 0.59294
# Poissons Ratio (z) = 0.02493 0.15948
#
# Static dielectric constant tensor:
#      x y z
#    x 1.668850 0.000000 -0.008700 
#    y 0.000000 1.603820 0.000000 
#    z -0.008700 0.000000 1.613980 
# 
# From -- ./inp_files/375137.got.cif
#   From: 2010.05.17/outbox.ucp.g08.bks.cvg/sg12_188_cif.got.tgz:375137.got - 2010.06.11 11:47:21.
