data_PCOD9224145
_publ_section_title
;
Structure prediction by ZEFSAII (Michael W. Deem and Ramdas Pophale) SiO2 
 PCOD9224145
Probable space group: C 2/M
;
_chemical_formula_sum "Si O2"
_cell_formula_units_Z 30
_cell_length_a 18.000000
_cell_length_b 15.000000
_cell_length_c 12.000000
_cell_angle_alpha 90.000000
_cell_angle_beta 70.000000
_cell_angle_gamma 90.000000
_cell_volume 3044.604091
_symmetry_space_group_name_H-M "C 2/M"
_symmetry_group_IT_number 12
_symmetry_cell_setting 'monoclinic'
loop_
_space_group_symop_operation_xyz
x,y,z
-x,y,-z
-x,-y,-z
x,-y,z
1/2+x,1/2+y,z
1/2-x,1/2+y,-z
1/2-x,1/2-y,-z
1/2+x,1/2-y,z
loop_
_atom_site_type_symbol
_atom_site_label
_atom_site_fract_x
_atom_site_fract_y
_atom_site_fract_z
Si Si1 0.500000 0.211161 0.500000
Si Si2 0.905044 0.776978 0.754042
Si Si3 0.744320 0.598899 0.171654
Si Si4 0.111075 0.604454 0.750903
Si Si5 0.280244 0.839372 0.921276
Si Si6 0.840267 0.396133 0.525589
Si Si7 0.688013 0.393211 0.748435
Si Si8 0.528187 0.720312 0.857656
O O1 0.468128 0.265899 0.622569
O O2 0.578912 0.153449 0.482119
O O3 0.829129 0.837078 0.765285
O O4 0.864471 0.685953 0.822720
O O5 0.953772 0.819191 0.829818
O O6 0.724835 0.500000 0.222216
O O7 0.823124 0.629712 0.192734
O O8 0.770331 0.595257 0.029510
O O9 0.086136 0.500000 0.777332
O O10 0.155686 0.610488 0.609810
O O11 0.044509 0.679508 0.801691
O O12 0.226081 0.871817 0.848717
O O13 0.250000 0.750000 0.000000
O O14 0.847706 0.500000 0.554179
O O15 0.757336 0.365479 0.623917
O O16 0.674202 0.500000 0.742759
O O17 0.606554 0.337295 0.789770
O O18 0.500000 0.724492 0.000000
#
# Coordination Sequence:
#
# PCOD9224145 Si02
#       8
#     4   8   8   8   8   8   8   8
#     4  12  21  40  61  92 122 158 196 256 321 364
#     4  11  23  37  60  93 120 159 205 252 312 370
#     4  10  21  39  62  86 121 161 204 254 304 368
#     4  10  22  41  64  91 122 164 211 259 313 368
#     4  10  19  38  62  86 119 158 208 254 299 359
#     4  10  22  41  65  92 122 159 208 260 310 369
#     4  11  24  41  65  94 125 168 214 257 308 370
#     4  12  24  40  61  91 131 167 204 256 310 373
#
# _framework density 9.8534980000000001
#
# number of rings (size 3 to 8) (size 9 to 14) (size 15 to 20)
#    0.000    1.333    2.667    4.600    0.000    2.667 
#    0.000    1.667    0.000    0.000    0.000    0.000 
#    0.000    0.000    0.000    0.000    0.000    0.000 
#
# Total GULP energy -167210.624975 kJ/mol
# GULP energy per Si atom -5573.687499 kJ/mol
# Density = 0.983107 g / cm^3
# Si number density = 9.853498 Si / 1000 Ang^3
#
#
#
# Elastic Constant Matrix: (Units=GPa)
#
#
# Indices 1 2 3 4 5 6 
#
# 1 49.9769 10.5911 -20.0170 0.0000 -12.1441 0.0000
# 2 10.5911 61.1777 2.6102 0.0000 -16.2209 0.0000
# 3 -20.0170 2.6102 69.2610 0.0000 -20.7077 0.0000
# 4 0.0000 0.0000 0.0000 23.5816 0.0000 -2.0989
# 5 -12.1441 -16.2209 -20.7077 0.0000 38.8899 0.0000
# 6 0.0000 0.0000 0.0000 -2.0989 0.0000 23.2502
#
#
#
# Elastic Compliance Matrix: (Units=1/GPa)
#
#
# Indices 1 2 3 4 5 6 
#
# 1 0.029415 -0.001523 0.013219 0.000000 0.015589 0.000000
# 2 -0.001523 0.018670 0.001240 0.000000 0.007972 0.000000
# 3 0.013219 0.001240 0.023312 0.000000 0.017058 0.000000
# 4 0.000000 0.000000 0.000000 0.042750 0.000000 0.003859
# 5 0.015589 0.007972 0.017058 0.000000 0.042989 0.000000
# 6 0.000000 0.000000 0.000000 0.003859 0.000000 0.043359
#
#
# Mechanical properties :
#
#
# Convention : Reuss Voigt Hill
#
# Bulk Modulus (GPa) = 10.28079 18.53157 14.40618
# Shear Modulus (GPa) = 24.14927 29.62641 26.88784
#
# Velocity S-wave (km/s) = 3.50439 3.88151 3.69776
# Velocity P-wave (km/s) = 4.64785 5.43250 5.05542
#
# Compressibility (1/GPa) = 0.09726874
#
# Stress axis : x y z
#
# Youngs Moduli (GPa) = 33.99666 53.56110 42.89658
#
# Poissons Ratio (x) = 0.08157 -0.56706
# Poissons Ratio (y) = 0.05178 -0.05318
# Poissons Ratio (z) = -0.44941 -0.06640
#
# Static dielectric constant tensor:
#      x y z
#    x 1.710370 0.000000 0.047110 
#    y 0.000000 1.302080 0.000000 
#    z 0.047110 0.000000 1.729120 
# 
# From -- ./inp_files/156594.got.cif
#   From: 2010.05.17/outbox.ucp.g08.bks.cvg/sg12_79_cif.got.tgz:156594.got - 2010.06.11 11:47:21.
