data_PCOD9224958
_publ_section_title
;
Structure prediction by ZEFSAII (Michael W. Deem and Ramdas Pophale) SiO2 
 PCOD9224958
Probable space group: C 2/M
;
_chemical_formula_sum "Si O2"
_cell_formula_units_Z 32
_cell_length_a 18.000000
_cell_length_b 9.000000
_cell_length_c 30.000000
_cell_angle_alpha 90.000000
_cell_angle_beta 40.000000
_cell_angle_gamma 90.000000
_cell_volume 3123.947783
_symmetry_space_group_name_H-M "C 2/M"
_symmetry_group_IT_number 12
_symmetry_cell_setting 'monoclinic'
loop_
_space_group_symop_operation_xyz
x,y,z
-x,y,-z
-x,-y,-z
x,-y,z
1/2+x,1/2+y,z
1/2-x,1/2+y,-z
1/2-x,1/2-y,-z
1/2+x,1/2-y,z
loop_
_atom_site_type_symbol
_atom_site_label
_atom_site_fract_x
_atom_site_fract_y
_atom_site_fract_z
Si Si1 0.756035 0.321996 0.863012
Si Si2 0.327470 0.677555 0.503054
Si Si3 0.326232 0.677691 0.002924
Si Si4 0.334866 0.174755 0.268456
Si Si5 0.908740 0.822113 0.142921
Si Si6 0.179377 0.833202 0.639859
Si Si7 0.930143 0.829919 0.727743
Si Si8 0.581196 0.678531 0.362851
O O1 0.757554 0.500000 0.863728
O O2 0.671069 0.277750 0.861950
O O3 0.879477 0.261444 0.791623
O O4 0.712267 0.267511 0.930727
O O5 0.322870 0.500000 0.501149
O O6 0.250000 0.750000 0.500000
O O7 0.272681 0.727474 0.574821
O O8 0.460000 0.730171 0.437876
O O9 0.309966 0.500000 0.009539
O O10 0.459995 0.706050 0.931721
O O11 0.250000 0.750000 0.000000
O O12 0.377890 0.232302 0.201359
O O13 0.377972 0.274718 0.288680
O O14 0.196935 0.201105 0.336717
O O15 0.358802 0.000000 0.262467
O O16 0.894679 0.000000 0.157253
O O17 0.067759 0.835677 0.659286
O O18 0.224109 0.000000 0.624258
O O19 0.891658 0.759590 0.698703
O O20 0.888849 0.000000 0.751572
O O21 0.570284 0.500000 0.362037
#
# Coordination Sequence:
#
# PCOD9224958 Si02
#       8
#     8   8   8   8   8   8   8   8
#     4  10  21  38  62  90 117 153 202 247 287 345
#     4  11  21  38  62  88 118 157 202 247 300 357
#     4  10  23  41  60  87 123 159 195 240 295 350
#     4  11  23  40  62  88 119 155 198 246 295 353
#     4  10  21  40  63  86 118 159 196 240 298 350
#     4  11  24  41  59  86 123 159 197 245 303 358
#     4  10  20  38  61  85 117 157 196 240 296 353
#     4   9  19  38  61  85 117 155 194 241 297 352
#
# _framework density 10.243449
#
# number of rings (size 3 to 8) (size 9 to 14) (size 15 to 20)
#    0.000    1.750    2.500    1.500    1.750    4.000 
#    0.000    5.000    0.000    2.250    0.000    0.000 
#    0.000    0.000    0.000    0.000    0.000    0.000 
#
# Total GULP energy -178451.839138 kJ/mol
# GULP energy per Si atom -5576.619973 kJ/mol
# Density = 1.022013 g / cm^3
# Si number density = 10.243449 Si / 1000 Ang^3
#
#
#
# Elastic Constant Matrix: (Units=GPa)
#
#
# Indices 1 2 3 4 5 6 
#
# 1 46.1639 15.8029 36.1393 0.0000 13.2950 0.0004
# 2 15.8029 27.3822 24.1402 0.0000 3.0994 -0.0003
# 3 36.1393 24.1402 106.6775 0.0000 10.0877 -0.0002
# 4 0.0000 0.0000 0.0000 32.0253 0.0000 2.9785
# 5 13.2950 3.0994 10.0877 0.0000 30.6972 0.0001
# 6 0.0004 -0.0003 -0.0002 2.9785 0.0001 18.6434
#
#
#
# Elastic Compliance Matrix: (Units=1/GPa)
#
#
# Indices 1 2 3 4 5 6 
#
# 1 0.035497 -0.011921 -0.008244 0.000000 -0.011461 -0.000001
# 2 -0.011921 0.049672 -0.007447 0.000000 0.002595 0.000001
# 3 -0.008244 -0.007447 0.013875 0.000000 -0.000237 0.000000
# 4 0.000000 0.000000 0.000000 0.031696 0.000000 -0.005064
# 5 -0.011461 0.002595 -0.000237 0.000000 0.037356 0.000000
# 6 -0.000001 0.000001 0.000000 -0.005064 0.000000 0.054447
#
#
# Mechanical properties :
#
#
# Convention : Reuss Voigt Hill
#
# Bulk Modulus (GPa) = 22.82119 36.93205 29.87662
# Shear Modulus (GPa) = 17.10139 23.21594 20.15867
#
# Velocity S-wave (km/s) = 2.89233 3.36997 3.14025
# Velocity P-wave (km/s) = 4.72416 5.76269 5.26907
#
# Compressibility (1/GPa) = 0.04381893
#
# Stress axis : x y z
#
# Youngs Moduli (GPa) = 28.17108 20.13222 72.07455
#
# Poissons Ratio (x) = 0.24000 0.59419
# Poissons Ratio (y) = 0.33583 0.53675
# Poissons Ratio (z) = 0.23224 0.14993
#
# Static dielectric constant tensor:
#      x y z
#    x 2.063350 0.000000 -0.043280 
#    y 0.000000 1.701680 0.000000 
#    z -0.043280 0.000000 1.728710 
# 
# From -- ./inp_files/346161.got.cif
#   From: 2010.05.17/outbox.ucp.g08.bks.cvg/sg12_174_cif.got.tgz:346161.got - 2010.06.11 11:47:21.
