data_PCOD9224868
_publ_section_title
;
Structure prediction by ZEFSAII (Michael W. Deem and Ramdas Pophale) SiO2 
 PCOD9224868
Probable space group: C 2/M
;
_chemical_formula_sum "Si O2"
_cell_formula_units_Z 32
_cell_length_a 15.000000
_cell_length_b 9.000000
_cell_length_c 30.000000
_cell_angle_alpha 90.000000
_cell_angle_beta 130.000000
_cell_angle_gamma 90.000000
_cell_volume 3102.479995
_symmetry_space_group_name_H-M "C 2/M"
_symmetry_group_IT_number 12
_symmetry_cell_setting 'monoclinic'
loop_
_space_group_symop_operation_xyz
x,y,z
-x,y,-z
-x,-y,-z
x,-y,z
1/2+x,1/2+y,z
1/2-x,1/2+y,-z
1/2-x,1/2-y,-z
1/2+x,1/2-y,z
loop_
_atom_site_type_symbol
_atom_site_label
_atom_site_fract_x
_atom_site_fract_y
_atom_site_fract_z
Si Si1 0.862857 0.323138 0.739217
Si Si2 0.891203 0.179279 0.935725
Si Si3 0.375205 0.177183 0.345875
Si Si4 0.026182 0.678037 0.311392
Si Si5 0.689235 0.821755 0.937696
Si Si6 0.574970 0.667422 0.463531
Si Si7 0.262820 0.332878 0.571726
Si Si8 0.438741 0.321781 0.852580
O O1 0.862191 0.500000 0.744402
O O2 0.741051 0.265762 0.680862
O O3 0.968402 0.284079 0.739173
O O4 0.873522 0.242935 0.789534
O O5 0.773174 0.209248 0.923310
O O6 0.890745 0.230287 0.884908
O O7 0.905136 0.000000 0.938546
O O8 0.000000 0.236657 0.000000
O O9 0.421929 0.220576 0.311098
O O10 0.475463 0.227129 0.412061
O O11 0.357439 0.000000 0.341142
O O12 0.034987 0.500000 0.317459
O O13 0.142563 0.749442 0.368504
O O14 0.567896 0.742311 0.892036
O O15 0.677317 0.000000 0.938964
O O16 0.750000 0.750000 0.000000
O O17 0.533324 0.500000 0.458951
O O18 0.670179 0.655057 0.454219
O O19 0.645344 0.740965 0.526541
O O20 0.239299 0.500000 0.580255
O O21 0.437724 0.500000 0.850723
#
# Coordination Sequence:
#
# PCOD9224868 Si02
#       8
#     8   8   8   8   8   8   8   8
#     4  11  24  42  60  83 116 152 194 241 291 343
#     4   9  18  36  61  87 119 158 190 221 276 344
#     4  10  20  37  60  84 110 148 196 241 288 344
#     4   9  20  38  59  80 111 154 193 233 292 358
#     4  11  21  37  62  91 122 155 191 231 279 335
#     4   9  16  28  49  79 114 150 186 231 293 354
#     4   9  16  27  49  81 113 145 188 240 289 342
#     4  11  23  41  62  86 117 155 197 238 283 337
#
# _framework density 10.314329000000001
#
# number of rings (size 3 to 8) (size 9 to 14) (size 15 to 20)
#    0.000    2.125    1.250    2.250    0.000    5.500 
#    0.000    8.750    0.000    3.750    0.000    0.000 
#    0.000    0.000    0.000    0.000    0.000    0.000 
#
# Total GULP energy -178605.547811 kJ/mol
# GULP energy per Si atom -5581.423369 kJ/mol
# Density = 1.029085 g / cm^3
# Si number density = 10.314329 Si / 1000 Ang^3
#
#
#
# Elastic Constant Matrix: (Units=GPa)
#
#
# Indices 1 2 3 4 5 6 
#
# 1 79.0975 19.7522 13.1960 0.0000 -28.4068 0.0000
# 2 19.7522 -7.8161 -16.0998 0.0000 -0.4260 0.0000
# 3 13.1960 -16.0998 13.3923 0.0000 -2.5744 0.0000
# 4 0.0000 0.0000 0.0000 31.8506 0.0000 6.7095
# 5 -28.4068 -0.4260 -2.5744 0.0000 27.3719 0.0000
# 6 0.0000 0.0000 0.0000 6.7095 0.0000 16.3192
#
#
#
# Elastic Compliance Matrix: (Units=1/GPa)
#
#
# Indices 1 2 3 4 5 6 
#
# 1 0.012694 0.014804 0.008011 0.000000 0.014157 0.000000
# 2 0.014804 -0.018924 -0.035074 0.000000 0.011771 0.000000
# 3 0.008011 -0.035074 0.026585 0.000000 0.010269 0.000000
# 4 0.000000 0.000000 0.000000 0.034374 0.000000 -0.014132
# 5 0.014157 0.011771 0.010269 0.000000 0.052375 0.000000
# 6 0.000000 0.000000 0.000000 -0.014132 0.000000 0.067088
#
#
# Mechanical properties :
#
#
# Convention : Reuss Voigt Hill
#
# Bulk Modulus (GPa) = -240.29302 13.15227 -113.57038
# Shear Modulus (GPa) = 25.33943 19.63003 22.48473
#
# Velocity S-wave (km/s) = 3.50860 3.08813 3.30506
# Velocity P-wave (km/s) = 10.01620 4.37092 6.37257
#
# Compressibility (1/GPa) = -0.00416159
#
# Stress axis : x y z
#
# Youngs Moduli (GPa) = 78.78019 -52.84401 37.61542
#
# Poissons Ratio (x) = 0.78232 -0.30135
# Poissons Ratio (y) = -1.16629 1.31932
# Poissons Ratio (z) = -0.63114 -1.85345
#
# Static dielectric constant tensor:
#      x y z
#    x 1.736200 0.000000 -0.077600 
#    y 0.000000 1.692460 0.000000 
#    z -0.077600 0.000000 1.756340 
# 
# From -- ./inp_files/375671.got.cif
#   From: 2010.05.17/outbox.ucp.g08.bks.cvg/sg12_188_cif.got.tgz:375671.got - 2010.06.11 11:47:21.
