data_PCOD9224397
_publ_section_title
;
Structure prediction by ZEFSAII (Michael W. Deem and Ramdas Pophale) SiO2 
 PCOD9224397
Probable space group: C 2/M
;
_chemical_formula_sum "Si O2"
_cell_formula_units_Z 28
_cell_length_a 30.000000
_cell_length_b 9.000000
_cell_length_c 21.000000
_cell_angle_alpha 90.000000
_cell_angle_beta 150.000000
_cell_angle_gamma 90.000000
_cell_volume 2835.000000
_symmetry_space_group_name_H-M "C 2/M"
_symmetry_group_IT_number 12
_symmetry_cell_setting 'monoclinic'
loop_
_space_group_symop_operation_xyz
x,y,z
-x,y,-z
-x,-y,-z
x,-y,z
1/2+x,1/2+y,z
1/2-x,1/2+y,-z
1/2-x,1/2-y,-z
1/2+x,1/2-y,z
loop_
_atom_site_type_symbol
_atom_site_label
_atom_site_fract_x
_atom_site_fract_y
_atom_site_fract_z
Si Si1 0.873734 0.673590 0.096430
Si Si2 0.524064 0.177274 0.128080
Si Si3 0.937099 0.822902 0.693608
Si Si4 0.315279 0.323447 0.152767
Si Si5 0.484051 0.831726 0.406465
Si Si6 0.352106 0.822537 0.842521
Si Si7 0.845573 0.180675 0.449753
O O1 0.895486 0.500000 0.116586
O O2 0.834990 0.716159 0.117383
O O3 0.963144 0.767867 0.201274
O O4 0.784600 0.704176 0.944103
O O5 0.570658 0.251000 0.246447
O O6 0.588180 0.199960 0.146931
O O7 0.517686 0.000000 0.130911
O O8 0.422415 0.230828 0.984784
O O9 0.865593 0.783276 0.549645
O O10 0.936607 0.000000 0.697985
O O11 0.318750 0.500000 0.140797
O O12 0.398717 0.276776 0.297973
O O13 0.500000 0.849428 0.500000
O O14 0.570331 0.756894 0.480916
O O15 0.468979 0.000000 0.360839
O O16 0.250515 0.771874 0.699724
O O17 0.343913 0.000000 0.843073
O O18 0.850766 0.000000 0.450779
#
# Coordination Sequence:
#
# PCOD9224397 Si02
#       7
#     8   8   8   8   8   8   8
#     4  10  20  34  55  79 107 142 182 227 275 329
#     4   9  18  36  62  86 111 147 190 236 284 337
#     4  11  22  34  53  85 121 151 187 234 284 337
#     4  10  20  35  55  79 104 139 184 229 278 328
#     4  11  24  39  55  79 112 149 190 236 284 336
#     4   8  17  37  62  85 110 146 193 237 280 338
#     4  10  21  38  59  82 112 150 191 236 285 341
#
# _framework density 9.8765429999999999
#
# number of rings (size 3 to 8) (size 9 to 14) (size 15 to 20)
#    0.000    2.143    1.429    2.571    0.000    5.143 
#    0.000    7.143    0.000    0.000    0.000    0.000 
#    0.000    0.000    0.000    0.000    0.000    0.000 
#
# Total GULP energy -155873.449852 kJ/mol
# GULP energy per Si atom -5566.908923 kJ/mol
# Density = 0.985406 g / cm^3
# Si number density = 9.876543 Si / 1000 Ang^3
#
#
#
# Elastic Constant Matrix: (Units=GPa)
#
#
# Indices 1 2 3 4 5 6 
#
# 1 21.8502 9.4872 1.7325 0.0000 -10.3892 0.0000
# 2 9.4872 41.6642 25.8781 0.0000 -0.6057 0.0000
# 3 1.7325 25.8781 121.8968 0.0000 2.1171 0.0000
# 4 0.0000 0.0000 0.0000 27.3511 0.0000 -2.2892
# 5 -10.3892 -0.6057 2.1171 0.0000 23.1166 0.0000
# 6 0.0000 0.0000 0.0000 -2.2892 0.0000 23.7944
#
#
#
# Elastic Compliance Matrix: (Units=1/GPa)
#
#
# Indices 1 2 3 4 5 6 
#
# 1 0.066428 -0.015895 0.001922 0.000000 0.029262 0.000000
# 2 -0.015895 0.031487 -0.006359 0.000000 -0.005736 0.000000
# 3 0.001922 -0.006359 0.009529 0.000000 -0.000176 0.000000
# 4 0.000000 0.000000 0.000000 0.036858 0.000000 0.003546
# 5 0.029262 -0.005736 -0.000176 0.000000 0.056276 0.000000
# 6 0.000000 0.000000 0.000000 0.003546 0.000000 0.042368
#
#
# Mechanical properties :
#
#
# Convention : Reuss Voigt Hill
#
# Bulk Modulus (GPa) = 14.97419 28.84519 21.90969
# Shear Modulus (GPa) = 16.34679 24.73999 20.54339
#
# Velocity S-wave (km/s) = 2.87985 3.54285 3.22842
# Velocity P-wave (km/s) = 4.31916 5.60092 5.00128
#
# Compressibility (1/GPa) = 0.06678156
#
# Stress axis : x y z
#
# Youngs Moduli (GPa) = 15.05383 31.75915 104.93864
#
# Poissons Ratio (x) = 0.50480 -0.20169
# Poissons Ratio (y) = 0.23927 0.66731
# Poissons Ratio (z) = -0.02893 0.20196
#
# Static dielectric constant tensor:
#      x y z
#    x 1.715980 0.000000 -0.089580 
#    y 0.000000 1.664060 0.000000 
#    z -0.089580 0.000000 1.648690 
# 
# From -- ./inp_files/329707.got.cif
#   From: 2010.05.17/outbox.ucp.g08.bks.cvg/sg12_165_cif.got.tgz:329707.got - 2010.06.11 11:47:21.
