data_PCOD9224514
_publ_section_title
;
Structure prediction by ZEFSAII (Michael W. Deem and Ramdas Pophale) SiO2 
 PCOD9224514
Probable space group: C 2/M
;
_chemical_formula_sum "Si O2"
_cell_formula_units_Z 32
_cell_length_a 30.000000
_cell_length_b 9.000000
_cell_length_c 15.000000
_cell_angle_alpha 90.000000
_cell_angle_beta 130.000000
_cell_angle_gamma 90.000000
_cell_volume 3102.479995
_symmetry_space_group_name_H-M "C 2/M"
_symmetry_group_IT_number 12
_symmetry_cell_setting 'monoclinic'
loop_
_space_group_symop_operation_xyz
x,y,z
-x,y,-z
-x,-y,-z
x,-y,z
1/2+x,1/2+y,z
1/2-x,1/2+y,-z
1/2-x,1/2-y,-z
1/2+x,1/2-y,z
loop_
_atom_site_type_symbol
_atom_site_label
_atom_site_fract_x
_atom_site_fract_y
_atom_site_fract_z
Si Si1 0.747288 0.667976 0.219895
Si Si2 0.888620 0.822150 0.945043
Si Si3 0.529472 0.170496 0.313987
Si Si4 0.201451 0.175658 0.877016
Si Si5 0.419316 0.823787 0.813614
Si Si6 0.809788 0.168204 0.598061
Si Si7 0.345438 0.165331 0.492589
Si Si8 0.914994 0.177803 0.181476
O O1 0.744724 0.500000 0.177345
O O2 0.680715 0.710126 0.153146
O O3 0.779438 0.779522 0.196230
O O4 0.790181 0.660635 0.358539
O O5 0.929629 0.747892 0.923451
O O6 0.894895 0.000000 0.944565
O O7 0.904286 0.774834 0.065249
O O8 0.546715 0.219019 0.234017
O O9 0.587514 0.171579 0.449307
O O10 0.478038 0.265316 0.287616
O O11 0.510174 0.000000 0.281235
O O12 0.138002 0.230927 0.825379
O O13 0.202736 0.000000 0.890735
O O14 0.250000 0.250000 0.000000
O O15 0.353374 0.766350 0.711781
O O16 0.422899 0.000000 0.825771
O O17 0.750000 0.250000 0.500000
O O18 0.839491 0.183815 0.540348
O O19 0.804553 0.000000 0.623373
O O20 0.343747 0.000000 0.538745
O O21 0.914156 0.000000 0.180921
#
# Coordination Sequence:
#
# PCOD9224514 Si02
#       8
#     8   8   8   8   8   8   8   8
#     4  10  20  37  60  86 117 148 182 233 289 338
#     4  10  20  35  55  83 116 148 189 234 286 344
#     4   9  20  38  57  80 112 152 196 235 275 330
#     4  11  22  39  61  87 116 145 183 230 285 345
#     4  10  21  36  53  79 113 148 192 237 280 333
#     4  11  20  31  50  76 108 148 192 233 281 334
#     4   9  19  36  57  81 112 149 188 233 282 333
#     4  10  22  39  58  82 112 148 190 233 282 344
#
# _framework density 10.314329000000001
#
# number of rings (size 3 to 8) (size 9 to 14) (size 15 to 20)
#    0.000    2.000    1.250    3.375    0.000    6.500 
#    0.000    3.125    0.000    3.750    0.000    0.000 
#    0.000    0.000    0.000    0.000    0.000    0.000 
#
# Total GULP energy -178145.762597 kJ/mol
# GULP energy per Si atom -5567.055081 kJ/mol
# Density = 1.029085 g / cm^3
# Si number density = 10.314329 Si / 1000 Ang^3
#
#
#
# Elastic Constant Matrix: (Units=GPa)
#
#
# Indices 1 2 3 4 5 6 
#
# 1 67.3291 26.3950 6.3149 0.0000 23.9834 0.0000
# 2 26.3950 34.0326 4.5918 0.0000 3.8440 0.0000
# 3 6.3149 4.5918 31.5516 0.0000 12.5275 0.0000
# 4 0.0000 0.0000 0.0000 22.9060 0.0000 -1.1024
# 5 23.9834 3.8440 12.5275 0.0000 28.2051 0.0000
# 6 0.0000 0.0000 0.0000 -1.1024 0.0000 30.0440
#
#
#
# Elastic Compliance Matrix: (Units=1/GPa)
#
#
# Indices 1 2 3 4 5 6 
#
# 1 0.033992 -0.024179 0.008357 0.000000 -0.029321 0.000000
# 2 -0.024179 0.047330 -0.009289 0.000000 0.018235 0.000000
# 3 0.008357 -0.009289 0.040906 0.000000 -0.024009 0.000000
# 4 0.000000 0.000000 0.000000 0.043734 0.000000 0.001605
# 5 -0.029321 0.018235 -0.024009 0.000000 0.068565 0.000000
# 6 0.000000 0.000000 0.000000 0.001605 0.000000 0.033343
#
#
# Mechanical properties :
#
#
# Convention : Reuss Voigt Hill
#
# Bulk Modulus (GPa) = 13.88772 23.05741 18.47256
# Shear Modulus (GPa) = 14.61584 22.60514 18.61049
#
# Velocity S-wave (km/s) = 2.66469 3.31390 3.00687
# Velocity P-wave (km/s) = 4.02670 5.08372 4.58577
#
# Compressibility (1/GPa) = 0.07200606
#
# Stress axis : x y z
#
# Youngs Moduli (GPa) = 29.41873 21.12821 24.44622
#
# Poissons Ratio (x) = 0.51086 -0.20430
# Poissons Ratio (y) = 0.71132 0.22708
# Poissons Ratio (z) = -0.24586 0.19626
#
# Static dielectric constant tensor:
#      x y z
#    x 1.761580 0.000000 0.006390 
#    y 0.000000 1.423030 0.000000 
#    z 0.006390 0.000000 1.805820 
# 
# From -- ./inp_files/249929.got.cif
#   From: 2010.05.17/outbox.ucp.g08.bks.cvg/sg12_125_cif.got.tgz:249929.got - 2010.06.11 11:47:21.
