data_PCOD9224422
_publ_section_title
;
Structure prediction by ZEFSAII (Michael W. Deem and Ramdas Pophale) SiO2 
 PCOD9224422
Probable space group: C 2/M
;
_chemical_formula_sum "Si O2"
_cell_formula_units_Z 29
_cell_length_a 24.000000
_cell_length_b 12.000000
_cell_length_c 12.000000
_cell_angle_alpha 90.000000
_cell_angle_beta 70.000000
_cell_angle_gamma 90.000000
_cell_volume 3247.577697
_symmetry_space_group_name_H-M "C 2/M"
_symmetry_group_IT_number 12
_symmetry_cell_setting 'monoclinic'
loop_
_space_group_symop_operation_xyz
x,y,z
-x,y,-z
-x,-y,-z
x,-y,z
1/2+x,1/2+y,z
1/2-x,1/2+y,-z
1/2-x,1/2-y,-z
1/2+x,1/2-y,z
loop_
_atom_site_type_symbol
_atom_site_label
_atom_site_fract_x
_atom_site_fract_y
_atom_site_fract_z
Si Si1 0.335766 0.868950 0.663477
Si Si2 0.956246 0.378976 0.188335
Si Si3 0.301659 0.631839 0.284008
Si Si4 0.919941 0.296601 0.806382
Si Si5 0.504540 0.373798 0.630410
Si Si6 0.877135 0.259431 0.408023
Si Si7 0.407256 0.300344 0.049737
Si Si8 0.000000 0.000000 0.000000
O O1 0.265133 0.845180 0.712085
O O2 0.372175 0.845696 0.752490
O O3 0.361216 0.798435 0.542499
O O4 0.342878 0.000000 0.633647
O O5 0.949811 0.500000 0.141404
O O6 0.906768 0.359734 0.317742
O O7 0.941513 0.285846 0.107496
O O8 0.021698 0.367858 0.197514
O O9 0.305597 0.500000 0.308381
O O10 0.323229 0.704311 0.375943
O O11 0.349057 0.660665 0.155839
O O12 0.951824 0.195392 0.720310
O O13 0.892856 0.256030 0.941510
O O14 0.500000 0.367376 0.500000
O O15 0.500171 0.500000 0.671483
O O16 0.568202 0.327293 0.624001
O O17 0.450990 0.403122 0.003299
#
# Coordination Sequence:
#
# PCOD9224422 Si02
#       8
#     8   8   8   8   8   8   8   2
#     4  11  23  39  57  80 115 161 199 238 282 347
#     4  10  21  36  57  88 116 149 188 235 291 345
#     4  10  22  39  61  83 112 153 200 241 288 344
#     4  11  22  36  56  88 116 155 184 236 288 349
#     4  10  20  34  55  85 117 143 179 237 300 348
#     4  10  20  37  59  85 112 151 194 244 290 342
#     4  11  23  37  64  89 118 150 187 247 295 354
#     4  12  20  40  62  92 114 144 196 240 302 350
#
# _framework density 8.9297319999999996
#
# number of rings (size 3 to 8) (size 9 to 14) (size 15 to 20)
#    0.000    1.517    3.448    1.655    0.966    2.207 
#    0.000    2.069    0.000    4.138    0.000    0.000 
#    0.000    0.000    0.000    0.000    0.000    0.000 
#
# Total GULP energy -161537.410953 kJ/mol
# GULP energy per Si atom -5570.255550 kJ/mol
# Density = 0.890941 g / cm^3
# Si number density = 8.929732 Si / 1000 Ang^3
#
#
#
# Elastic Constant Matrix: (Units=GPa)
#
#
# Indices 1 2 3 4 5 6 
#
# 1 123.2015 34.0689 29.3579 0.0000 17.5209 0.0000
# 2 34.0689 91.7614 16.8045 0.0000 8.8263 0.0000
# 3 29.3579 16.8045 76.1537 0.0000 13.0455 0.0000
# 4 0.0000 0.0000 0.0000 -0.1086 0.0000 8.4985
# 5 17.5209 8.8263 13.0455 0.0000 23.8592 0.0000
# 6 0.0000 0.0000 0.0000 8.4985 0.0000 12.9407
#
#
#
# Elastic Compliance Matrix: (Units=1/GPa)
#
#
# Indices 1 2 3 4 5 6 
#
# 1 0.010213 -0.002855 -0.002431 0.000000 -0.005115 0.000000
# 2 -0.002855 0.012370 -0.001329 0.000000 -0.001753 0.000000
# 3 -0.002431 -0.001329 0.015416 0.000000 -0.006152 0.000000
# 4 0.000000 0.000000 0.000000 -0.175752 0.000000 0.115421
# 5 -0.005115 -0.001753 -0.006152 0.000000 0.049681 0.000000
# 6 0.000000 0.000000 0.000000 0.115421 0.000000 0.001475
#
#
# Mechanical properties :
#
#
# Convention : Reuss Voigt Hill
#
# Bulk Modulus (GPa) = 40.37278 50.17546 45.27412
# Shear Modulus (GPa) = -76.79025 21.39729 -27.69648
#
# Velocity S-wave (km/s) = -6.56432 3.46510 -3.94229
# Velocity P-wave (km/s) = 5.89905 6.64566 2.16403
#
# Compressibility (1/GPa) = 0.02476916
#
# Stress axis : x y z
#
# Youngs Moduli (GPa) = 97.91607 80.84303 64.86936
#
# Poissons Ratio (x) = 0.23078 0.15770
# Poissons Ratio (y) = 0.27951 0.08620
# Poissons Ratio (z) = 0.23804 0.10742
#
# Static dielectric constant tensor:
#      x y z
#    x 1.578700 0.000000 -0.003280 
#    y 0.000000 1.612100 0.000000 
#    z -0.003280 0.000000 1.634590 
# 
# From -- ./inp_files/174560.got.cif
#   From: 2010.05.17/outbox.ucp.g08.bks.cvg/sg12_88_cif.got.tgz:174560.got - 2010.06.11 11:47:21.
