data_PCOD9224132
_publ_section_title
;
Structure prediction by ZEFSAII (Michael W. Deem and Ramdas Pophale) SiO2 
 PCOD9224132
Probable space group: C 2/M
;
_chemical_formula_sum "Si O2"
_cell_formula_units_Z 32
_cell_length_a 18.000000
_cell_length_b 15.000000
_cell_length_c 18.000000
_cell_angle_alpha 90.000000
_cell_angle_beta 40.000000
_cell_angle_gamma 90.000000
_cell_volume 3123.947783
_symmetry_space_group_name_H-M "C 2/M"
_symmetry_group_IT_number 12
_symmetry_cell_setting 'monoclinic'
loop_
_space_group_symop_operation_xyz
x,y,z
-x,y,-z
-x,-y,-z
x,-y,z
1/2+x,1/2+y,z
1/2-x,1/2+y,-z
1/2-x,1/2-y,-z
1/2+x,1/2-y,z
loop_
_atom_site_type_symbol
_atom_site_label
_atom_site_fract_x
_atom_site_fract_y
_atom_site_fract_z
Si Si1 0.022875 0.396837 0.674231
Si Si2 0.737309 0.737782 0.752442
Si Si3 0.859113 0.239965 0.327068
Si Si4 0.403491 0.244259 0.497484
Si Si5 0.747140 0.602957 0.880353
Si Si6 0.132817 0.394001 0.919065
Si Si7 0.220194 0.893419 0.062214
Si Si8 0.988328 0.106677 0.331808
O O1 0.065147 0.500000 0.645549
O O2 0.074267 0.328148 0.695816
O O3 0.049743 0.346037 0.576004
O O4 0.885152 0.399562 0.787099
O O5 0.642041 0.723626 0.760643
O O6 0.725641 0.665873 0.826501
O O7 0.712742 0.834806 0.804779
O O8 0.862387 0.733768 0.614450
O O9 0.723188 0.256526 0.442851
O O10 0.903868 0.153196 0.336206
O O11 0.471180 0.332291 0.418209
O O12 0.708217 0.500000 0.897517
O O13 0.701282 0.642389 0.993849
O O14 0.155487 0.500000 0.893319
O O15 0.166049 0.368480 0.978268
O O16 0.000000 0.377776 0.000000
O O17 0.113788 0.877250 0.199053
O O18 0.227425 0.000000 0.044838
O O19 0.971450 0.000000 0.354742
#
# Coordination Sequence:
#
# PCOD9224132 Si02
#       8
#     8   8   8   8   8   8   8   8
#     4  10  20  37  65  90 119 167 215 262 315 361
#     4  10  24  40  58  93 130 165 199 256 318 377
#     4   9  22  38  55  92 126 156 208 257 302 377
#     4   9  22  39  55  93 132 156 210 261 303 385
#     4  10  23  42  64  92 124 166 215 264 312 368
#     4  10  23  42  63  91 126 163 205 258 316 376
#     4   9  21  40  62  91 118 155 216 259 300 374
#     4  10  19  37  65  89 121 168 206 254 317 369
#
# _framework density 10.243449
#
# number of rings (size 3 to 8) (size 9 to 14) (size 15 to 20)
#    0.750    1.625    0.000    1.500    5.250    6.000 
#    0.000    1.250    0.000    4.875    0.000    0.000 
#    0.000    0.000    0.000    0.000    0.000    0.000 
#
# Total GULP energy -178367.813882 kJ/mol
# GULP energy per Si atom -5573.994184 kJ/mol
# Density = 1.022013 g / cm^3
# Si number density = 10.243449 Si / 1000 Ang^3
#
#
#
# Elastic Constant Matrix: (Units=GPa)
#
#
# Indices 1 2 3 4 5 6 
#
# 1 105.5129 40.2432 33.6679 0.0000 23.1528 0.0000
# 2 40.2432 109.9873 30.6342 0.0000 1.8660 0.0000
# 3 33.6679 30.6342 64.2327 0.0000 17.8763 0.0000
# 4 0.0000 0.0000 0.0000 33.1955 0.0000 1.2179
# 5 23.1528 1.8660 17.8763 0.0000 28.2599 0.0000
# 6 0.0000 0.0000 0.0000 1.2179 0.0000 22.8622
#
#
#
# Elastic Compliance Matrix: (Units=1/GPa)
#
#
# Indices 1 2 3 4 5 6 
#
# 1 0.014036 -0.004224 -0.002694 0.000000 -0.009517 0.000000
# 2 -0.004224 0.011969 -0.005143 0.000000 0.005924 0.000000
# 3 -0.002694 -0.005143 0.022725 0.000000 -0.011828 0.000000
# 4 0.000000 0.000000 0.000000 0.030184 0.000000 -0.001608
# 5 -0.009517 0.005924 -0.011828 0.000000 0.050274 0.000000
# 6 0.000000 0.000000 0.000000 -0.001608 0.000000 0.043826
#
#
# Mechanical properties :
#
#
# Convention : Reuss Voigt Hill
#
# Bulk Modulus (GPa) = 40.63606 54.31371 47.47489
# Shear Modulus (GPa) = 24.34986 28.54270 26.44628
#
# Velocity S-wave (km/s) = 3.45129 3.73663 3.59679
# Velocity P-wave (km/s) = 5.97997 6.72202 6.36182
#
# Compressibility (1/GPa) = 0.02460869
#
# Stress axis : x y z
#
# Youngs Moduli (GPa) = 71.24283 83.54617 44.00374
#
# Poissons Ratio (x) = 0.35289 0.11856
# Poissons Ratio (y) = 0.30093 0.22632
# Poissons Ratio (z) = 0.19195 0.42969
#
# Static dielectric constant tensor:
#      x y z
#    x 1.812070 0.000000 0.021470 
#    y 0.000000 1.694590 0.000000 
#    z 0.021470 0.000000 1.789630 
# 
# From -- ./inp_files/183818.got.cif
#   From: 2010.05.17/outbox.ucp.g08.bks.cvg/sg12_92_cif.got.tgz:183818.got - 2010.06.11 11:47:21.
