data_PCOD9224371
_publ_section_title
;
Structure prediction by ZEFSAII (Michael W. Deem and Ramdas Pophale) SiO2 
 PCOD9224371
Probable space group: C 2/M
;
_chemical_formula_sum "Si O2"
_cell_formula_units_Z 32
_cell_length_a 18.000000
_cell_length_b 9.000000
_cell_length_c 21.000000
_cell_angle_alpha 90.000000
_cell_angle_beta 90.000000
_cell_angle_gamma 90.000000
_cell_volume 3402.000000
_symmetry_space_group_name_H-M "C 2/M"
_symmetry_group_IT_number 12
_symmetry_cell_setting 'monoclinic'
loop_
_space_group_symop_operation_xyz
x,y,z
-x,y,-z
-x,-y,-z
x,-y,z
1/2+x,1/2+y,z
1/2-x,1/2+y,-z
1/2-x,1/2-y,-z
1/2+x,1/2-y,z
loop_
_atom_site_type_symbol
_atom_site_label
_atom_site_fract_x
_atom_site_fract_y
_atom_site_fract_z
Si Si1 0.713711 0.674657 0.190044
Si Si2 0.462711 0.672871 0.432993
Si Si3 0.549497 0.169184 0.685406
Si Si4 0.797127 0.824007 0.302990
Si Si5 0.536391 0.826562 0.061341
Si Si6 0.557372 0.825640 0.195833
Si Si7 0.212881 0.175140 0.559316
Si Si8 0.214699 0.671395 0.059758
O O1 0.714972 0.500000 0.183910
O O2 0.764652 0.732089 0.245943
O O3 0.631261 0.732726 0.204769
O O4 0.737883 0.748184 0.124096
O O5 0.500000 0.697537 0.500000
O O6 0.473157 0.500000 0.414544
O O7 0.491457 0.782053 0.378806
O O8 0.375282 0.700204 0.442106
O O9 0.616263 0.284599 0.693007
O O10 0.495870 0.179474 0.744839
O O11 0.577743 0.000000 0.680268
O O12 0.761780 0.776042 0.370492
O O13 0.786172 0.000000 0.294835
O O14 0.517971 0.769199 0.131415
O O15 0.625186 0.819873 0.055694
O O16 0.512636 0.000000 0.062045
O O17 0.500000 0.753475 0.000000
O O18 0.578981 0.000000 0.185500
O O19 0.250000 0.250000 0.500000
O O20 0.225442 0.000000 0.555651
O O21 0.235859 0.500000 0.061838
O O22 0.250000 0.750000 0.000000
#
# Coordination Sequence:
#
# PCOD9224371 Si02
#       8
#     8   8   8   8   8   8   8   8
#     4  11  22  36  56  80 106 141 185 226 266 317
#     4   9  19  36  54  73 101 137 176 218 266 316
#     4  10  20  34  54  80 108 139 178 221 265 318
#     4  10  21  38  56  77 109 143 176 220 274 323
#     4   8  15  30  52  75 100 134 172 209 252 302
#     4   9  19  35  53  77 110 141 172 217 268 314
#     4   9  19  34  53  76 103 136 171 214 265 316
#     4  10  20  35  55  79 109 142 176 220 271 320
#
# _framework density 9.4062319999999993
#
# number of rings (size 3 to 8) (size 9 to 14) (size 15 to 20)
#    0.000    2.500    0.000    3.750    0.000    5.750 
#    0.000    5.000    0.000    9.375    0.000    0.000 
#    0.000    0.000    0.000    0.000    0.000    0.000 
#
# Total GULP energy -178268.466241 kJ/mol
# GULP energy per Si atom -5570.889570 kJ/mol
# Density = 0.938482 g / cm^3
# Si number density = 9.406232 Si / 1000 Ang^3
#
#
#
# Elastic Constant Matrix: (Units=GPa)
#
#
# Indices 1 2 3 4 5 6 
#
# 1 -1.8950 41.9467 60.5803 0.0000 10.2689 0.0000
# 2 41.9467 50.3053 55.1838 0.0000 -15.2329 0.0000
# 3 60.5803 55.1838 111.9712 0.0000 -11.3623 0.0000
# 4 0.0000 0.0000 0.0000 29.2510 0.0000 -3.4697
# 5 10.2689 -15.2329 -11.3623 0.0000 17.8512 0.0000
# 6 0.0000 0.0000 0.0000 -3.4697 0.0000 12.2017
#
#
#
# Elastic Compliance Matrix: (Units=1/GPa)
#
#
# Indices 1 2 3 4 5 6 
#
# 1 -0.012937 0.015893 0.001388 0.000000 0.021887 0.000000
# 2 0.015893 0.037453 -0.026450 0.000000 0.005982 0.000000
# 3 0.001388 -0.026450 0.020145 0.000000 -0.010546 0.000000
# 4 0.000000 0.000000 0.000000 0.035380 0.000000 0.010061
# 5 0.021887 0.005982 -0.010546 0.000000 0.041820 0.000000
# 6 0.000000 0.000000 0.000000 0.010061 0.000000 0.084817
#
#
# Mechanical properties :
#
#
# Convention : Reuss Voigt Hill
#
# Bulk Modulus (GPa) = 37.99018 52.86701 45.42859
# Shear Modulus (GPa) = 21.38675 12.03883 16.71279
#
# Velocity S-wave (km/s) = 3.37536 2.53245 2.98382
# Velocity P-wave (km/s) = 5.95221 6.05922 6.00595
#
# Compressibility (1/GPa) = 0.02632259
#
# Stress axis : x y z
#
# Youngs Moduli (GPa) = -77.29654 26.70047 49.63975
#
# Poissons Ratio (x) = -0.42434 -0.06890
# Poissons Ratio (y) = 1.22845 1.31295
# Poissons Ratio (z) = 0.10728 0.70622
#
# Static dielectric constant tensor:
#      x y z
#    x 1.652220 0.000000 0.044070 
#    y 0.000000 1.595140 0.000000 
#    z 0.044070 0.000000 1.701570 
# 
# From -- ./inp_files/314117.got.cif
#   From: 2010.05.17/outbox.ucp.g08.bks.cvg/sg12_158_cif.got.tgz:314117.got - 2010.06.11 11:47:21.
