data_PCOD9224679
_publ_section_title
;
Structure prediction by ZEFSAII (Michael W. Deem and Ramdas Pophale) SiO2 
 PCOD9224679
Probable space group: C 2/M
;
_chemical_formula_sum "Si O2"
_cell_formula_units_Z 20
_cell_length_a 18.000000
_cell_length_b 9.000000
_cell_length_c 27.000000
_cell_angle_alpha 90.000000
_cell_angle_beta 150.000000
_cell_angle_gamma 90.000000
_cell_volume 2187.000000
_symmetry_space_group_name_H-M "C 2/M"
_symmetry_group_IT_number 12
_symmetry_cell_setting 'monoclinic'
loop_
_space_group_symop_operation_xyz
x,y,z
-x,y,-z
-x,-y,-z
x,-y,z
1/2+x,1/2+y,z
1/2-x,1/2+y,-z
1/2-x,1/2-y,-z
1/2+x,1/2-y,z
loop_
_atom_site_type_symbol
_atom_site_label
_atom_site_fract_x
_atom_site_fract_y
_atom_site_fract_z
Si Si1 0.197697 0.326357 0.854365
Si Si2 0.776564 0.166179 0.229629
Si Si3 0.853676 0.823596 0.384102
Si Si4 0.930902 0.669838 0.060750
Si Si5 0.462301 0.323829 0.780782
O O1 0.209519 0.500000 0.871538
O O2 0.207130 0.289748 0.802153
O O3 0.042232 0.259848 0.782496
O O4 0.326533 0.239857 0.958768
O O5 0.867128 0.193814 0.332410
O O6 0.601813 0.163059 0.141877
O O7 0.814903 0.000000 0.232771
O O8 0.706966 0.731364 0.312908
O O9 0.000000 0.783851 0.500000
O O10 0.823850 0.000000 0.375088
O O11 0.883914 0.500000 0.044790
O O12 0.942605 0.769339 0.116565
O O13 0.469284 0.500000 0.780609
#
# Coordination Sequence:
#
# PCOD9224679 Si02
#       5
#     8   8   8   8   8
#     4  12  23  34  51  78 113 147 181 221 265 313
#     4   9  19  35  55  80 109 141 177 217 264 319
#     4   9  19  39  64  84 105 136 174 219 272 326
#     4  10  20  36  56  78 109 147 183 218 263 318
#     4  11  22  36  55  80 110 142 181 223 264 315
#
# _framework density 9.1449470000000002
#
# number of rings (size 3 to 8) (size 9 to 14) (size 15 to 20)
#    0.000    1.800    0.000    6.600    0.000    6.800 
#    0.000    1.000    0.000    0.000    0.000    0.000 
#    0.000    0.000    0.000    0.000    0.000    0.000 
#
# Total GULP energy -111639.449000 kJ/mol
# GULP energy per Si atom -5581.972450 kJ/mol
# Density = 0.912413 g / cm^3
# Si number density = 9.144947 Si / 1000 Ang^3
#
#
#
# Elastic Constant Matrix: (Units=GPa)
#
#
# Indices 1 2 3 4 5 6 
#
# 1 45.0257 22.0029 15.9385 0.0000 -5.6025 0.0000
# 2 22.0029 92.2931 37.5001 -0.0001 -7.6450 0.0000
# 3 15.9385 37.5001 112.6679 -0.0001 -11.3198 0.0001
# 4 0.0000 -0.0001 -0.0001 20.0234 0.0000 -2.1627
# 5 -5.6025 -7.6450 -11.3198 0.0000 5.7356 0.0000
# 6 0.0000 0.0000 0.0001 -2.1627 0.0000 28.9739
#
#
#
# Elastic Compliance Matrix: (Units=1/GPa)
#
#
# Indices 1 2 3 4 5 6 
#
# 1 0.027049 -0.004709 -0.000294 0.000000 0.019566 0.000000
# 2 -0.004709 0.013884 -0.003191 0.000000 0.007610 0.000000
# 3 -0.000294 -0.003191 0.011878 0.000000 0.018904 0.000000
# 4 0.000000 0.000000 0.000000 0.050348 0.000000 0.003758
# 5 0.019566 0.007610 0.018904 0.000000 0.240912 0.000000
# 6 0.000000 0.000000 0.000000 0.003758 0.000000 0.034794
#
#
# Mechanical properties :
#
#
# Convention : Reuss Voigt Hill
#
# Bulk Modulus (GPa) = 27.45261 44.54109 35.99685
# Shear Modulus (GPa) = 12.27318 22.58292 17.42805
#
# Velocity S-wave (km/s) = 2.59325 3.51767 3.09022
# Velocity P-wave (km/s) = 4.89988 6.39565 5.69707
#
# Compressibility (1/GPa) = 0.03642641
#
# Stress axis : x y z
#
# Youngs Moduli (GPa) = 36.97001 72.02366 84.18682
#
# Poissons Ratio (x) = 0.33913 0.02471
# Poissons Ratio (y) = 0.17408 0.26860
# Poissons Ratio (z) = 0.01085 0.22979
#
# Static dielectric constant tensor:
#      x y z
#    x 1.699880 0.000000 -0.001480 
#    y 0.000000 1.618280 0.000000 
#    z -0.001480 0.000000 1.585920 
# 
# From -- ./inp_files/151719.got.cif
#   From: 2010.05.17/outbox.ucp.g08.bks.cvg/sg12_76_cif.got.tgz:151719.got - 2010.06.11 11:47:21.
