data_PCOD9224828
_publ_section_title
;
Structure prediction by ZEFSAII (Michael W. Deem and Ramdas Pophale) SiO2 
 PCOD9224828
Probable space group: C 2/M
;
_chemical_formula_sum "Si O2"
_cell_formula_units_Z 32
_cell_length_a 9.000000
_cell_length_b 24.000000
_cell_length_c 30.000000
_cell_angle_alpha 90.000000
_cell_angle_beta 30.000000
_cell_angle_gamma 90.000000
_cell_volume 3240.000000
_symmetry_space_group_name_H-M "C 2/M"
_symmetry_group_IT_number 12
_symmetry_cell_setting 'monoclinic'
loop_
_space_group_symop_operation_xyz
x,y,z
-x,y,-z
-x,-y,-z
x,-y,z
1/2+x,1/2+y,z
1/2-x,1/2+y,-z
1/2-x,1/2-y,-z
1/2+x,1/2-y,z
loop_
_atom_site_type_symbol
_atom_site_label
_atom_site_fract_x
_atom_site_fract_y
_atom_site_fract_z
Si Si1 0.843054 0.066663 0.087561
Si Si2 0.533385 0.591084 0.617884
Si Si3 0.679504 0.439407 0.235734
Si Si4 0.601949 0.246288 0.704529
Si Si5 0.859313 0.630220 0.781159
Si Si6 0.208088 0.135884 0.717952
Si Si7 0.708259 0.937450 0.544578
Si Si8 0.827635 0.216177 0.408396
O O1 0.499257 0.079889 0.167998
O O2 0.877215 0.102060 0.123991
O O3 0.880480 0.000000 0.085945
O O4 0.000000 0.080263 0.000000
O O5 0.525545 0.559385 0.666851
O O6 0.695281 0.568107 0.532168
O O7 0.675265 0.649968 0.594143
O O8 0.184593 0.600420 0.696777
O O9 0.717811 0.500000 0.207052
O O10 0.556257 0.401665 0.229962
O O11 0.427873 0.195542 0.772088
O O12 0.613069 0.302976 0.728278
O O13 0.516404 0.259924 0.676273
O O14 0.946769 0.228298 0.610779
O O15 0.759897 0.628783 0.756184
O O16 0.492340 0.111901 0.616826
O O17 0.000000 0.934067 0.500000
O O18 0.578616 0.000000 0.585414
O O19 0.500000 0.238304 0.500000
#
# Coordination Sequence:
#
# PCOD9224828 Si02
#       8
#     8   8   8   8   8   8   8   8
#     4   9  20  42  71  97 120 148 183 229 289 367
#     4  10  20  37  53  77 112 160 206 245 292 345
#     4  10  21  36  60  88 116 151 193 242 295 354
#     4  11  22  37  55  78 113 158 201 253 294 346
#     4  10  22  38  60  86 115 156 197 237 296 357
#     4  12  22  38  56  84 124 158 203 252 301 336
#     4  11  23  36  53  78 118 165 213 256 295 343
#     4  11  21  34  51  78 107 155 210 258 299 332
#
# _framework density 9.8765429999999999
#
# number of rings (size 3 to 8) (size 9 to 14) (size 15 to 20)
#    0.000    1.500    3.750    1.875    0.000    3.000 
#    0.000    1.875    0.000    5.250    0.000    0.000 
#    0.000    0.000    0.000    0.000    0.000    0.000 
#
# Total GULP energy -178235.006187 kJ/mol
# GULP energy per Si atom -5569.843943 kJ/mol
# Density = 0.985406 g / cm^3
# Si number density = 9.876543 Si / 1000 Ang^3
#
#
#
# Elastic Constant Matrix: (Units=GPa)
#
#
# Indices 1 2 3 4 5 6 
#
# 1 72.6300 44.4655 28.7467 0.0998 14.9260 0.0303
# 2 44.4655 119.9852 30.8945 0.1058 25.2290 0.2729
# 3 28.7467 30.8945 71.5375 0.1755 37.8422 0.2018
# 4 0.0998 0.1058 0.1755 9.9298 0.0802 2.4831
# 5 14.9260 25.2290 37.8422 0.0802 26.8832 0.0043
# 6 0.0303 0.2729 0.2018 2.4831 0.0043 34.1359
#
#
#
# Elastic Compliance Matrix: (Units=1/GPa)
#
#
# Indices 1 2 3 4 5 6 
#
# 1 0.019991 -0.006811 -0.010188 -0.000051 0.009634 0.000099
# 2 -0.006811 0.012832 0.006130 -0.000008 -0.016889 -0.000130
# 3 -0.010188 0.006130 0.060607 -0.000251 -0.085409 -0.000369
# 4 -0.000051 -0.000008 -0.000251 0.102577 0.000084 -0.007460
# 5 0.009634 -0.016889 -0.085409 0.000084 0.167925 0.000604
# 6 0.000099 -0.000130 -0.000369 -0.007460 0.000604 0.029840
#
#
# Mechanical properties :
#
#
# Convention : Reuss Voigt Hill
#
# Bulk Modulus (GPa) = 13.94875 52.48513 33.21694
# Shear Modulus (GPa) = 11.37896 24.85951 18.11923
#
# Velocity S-wave (km/s) = 2.40273 3.55140 3.03196
# Velocity P-wave (km/s) = 3.84374 6.59127 5.39533
#
# Compressibility (1/GPa) = 0.07169101
#
# Stress axis : x y z
#
# Youngs Moduli (GPa) = 50.02285 77.93201 16.49970
#
# Poissons Ratio (x) = 0.53080 0.16810
# Poissons Ratio (y) = 0.34071 -0.10114
# Poissons Ratio (z) = 0.50965 -0.47773
#
# Static dielectric constant tensor:
#      x y z
#    x 1.733050 0.000470 -0.025070 
#    y 0.000470 1.531200 -0.000250 
#    z -0.025070 -0.000250 1.699940 
# 
# From -- ./inp_files/302304.got.cif
#   From: 2010.05.17/outbox.ucp.g08.bks.cvg/sg12_152_cif.got.tgz:302304.got - 2010.06.11 11:47:21.
