data_PCOD9224518
_publ_section_title
;
Structure prediction by ZEFSAII (Michael W. Deem and Ramdas Pophale) SiO2 
 PCOD9224518
Probable space group: C 2/M
;
_chemical_formula_sum "Si O2"
_cell_formula_units_Z 28
_cell_length_a 9.000000
_cell_length_b 18.000000
_cell_length_c 18.000000
_cell_angle_alpha 90.000000
_cell_angle_beta 110.000000
_cell_angle_gamma 90.000000
_cell_volume 2740.143682
_symmetry_space_group_name_H-M "C 2/M"
_symmetry_group_IT_number 12
_symmetry_cell_setting 'monoclinic'
loop_
_space_group_symop_operation_xyz
x,y,z
-x,y,-z
-x,-y,-z
x,-y,z
1/2+x,1/2+y,z
1/2-x,1/2+y,-z
1/2-x,1/2-y,-z
1/2+x,1/2-y,z
loop_
_atom_site_type_symbol
_atom_site_label
_atom_site_fract_x
_atom_site_fract_y
_atom_site_fract_z
Si Si1 0.494301 0.697691 0.417325
Si Si2 0.112801 0.084246 0.946239
Si Si3 0.990956 0.588006 0.369201
Si Si4 0.403820 0.286140 0.850456
Si Si5 0.760294 0.587350 0.454194
Si Si6 0.334143 0.185548 0.061239
Si Si7 0.641348 0.207502 0.312696
O O1 0.500000 0.733175 0.500000
O O2 0.593345 0.622916 0.440410
O O3 0.587491 0.747092 0.375190
O O4 0.321510 0.685145 0.356282
O O5 0.030226 0.145761 0.878764
O O6 0.117907 0.000000 0.918028
O O7 0.280692 0.112304 0.007860
O O8 0.000000 0.085236 0.000000
O O9 0.977566 0.500000 0.351921
O O10 0.128866 0.598475 0.454844
O O11 0.031804 0.634353 0.302782
O O12 0.839405 0.615431 0.390679
O O13 0.487032 0.213373 0.901614
O O14 0.251479 0.310129 0.872533
O O15 0.372193 0.258419 0.762120
O O16 0.749756 0.500000 0.442499
O O17 0.250000 0.250000 0.000000
#
# Coordination Sequence:
#
# PCOD9224518 Si02
#       7
#     8   8   8   8   8   8   8
#     4  12  24  37  55  81 111 156 209 259 293 354
#     4   8  15  31  59  89 113 144 188 231 269 328
#     4   9  19  37  60  82 108 144 191 248 309 366
#     4  10  20  35  55  86 120 152 187 237 292 351
#     4   9  19  37  60  83 105 138 195 260 307 352
#     4   9  17  33  59  85 113 149 190 229 278 342
#     4  12  24  36  55  81 120 157 198 248 313 355
#
# _framework density 10.218442
#
# number of rings (size 3 to 8) (size 9 to 14) (size 15 to 20)
#    0.000    2.143    1.429    4.286    2.000    0.857 
#    0.000    1.429    0.000   19.714    0.000    0.000 
#    0.000    0.000    0.000    0.000    0.000    0.000 
#
# Total GULP energy -156174.016010 kJ/mol
# GULP energy per Si atom -5577.643429 kJ/mol
# Density = 1.019518 g / cm^3
# Si number density = 10.218442 Si / 1000 Ang^3
#
#
#
# Elastic Constant Matrix: (Units=GPa)
#
#
# Indices 1 2 3 4 5 6 
#
# 1 81.6882 29.2463 25.4907 0.0000 -0.4602 0.0000
# 2 29.2463 90.2909 36.6314 0.0000 -6.7506 0.0000
# 3 25.4907 36.6314 89.3609 0.0000 -12.3738 0.0000
# 4 0.0000 0.0000 0.0000 29.3945 0.0000 5.0505
# 5 -0.4602 -6.7506 -12.3738 0.0000 21.3853 0.0000
# 6 0.0000 0.0000 0.0000 5.0505 0.0000 13.2518
#
#
#
# Elastic Compliance Matrix: (Units=1/GPa)
#
#
# Indices 1 2 3 4 5 6 
#
# 1 0.014471 -0.003671 -0.002979 0.000000 -0.002571 0.000000
# 2 -0.003671 0.014241 -0.004543 0.000000 0.001788 0.000000
# 3 -0.002979 -0.004543 0.014888 0.000000 0.007116 0.000000
# 4 0.000000 0.000000 0.000000 0.036404 0.000000 -0.013874
# 5 -0.002571 0.001788 0.007116 0.000000 0.051388 0.000000
# 6 0.000000 0.000000 0.000000 -0.013874 0.000000 0.080749
#
#
# Mechanical properties :
#
#
# Convention : Reuss Voigt Hill
#
# Bulk Modulus (GPa) = 47.13882 49.34189 48.24035
# Shear Modulus (GPa) = 20.69545 24.13776 22.41661
#
# Velocity S-wave (km/s) = 3.18567 3.44042 3.31550
# Velocity P-wave (km/s) = 6.05367 6.32281 6.18971
#
# Compressibility (1/GPa) = 0.02121394
#
# Stress axis : x y z
#
# Youngs Moduli (GPa) = 69.10312 70.21872 67.16755
#
# Poissons Ratio (x) = 0.25777 0.20010
# Poissons Ratio (y) = 0.25367 0.30515
# Poissons Ratio (z) = 0.20587 0.31901
#
# Static dielectric constant tensor:
#      x y z
#    x 1.793480 0.000000 0.007860 
#    y 0.000000 1.788310 0.000000 
#    z 0.007860 0.000000 1.744390 
# 
# From -- ./inp_files/257165.got.cif
#   From: 2010.05.17/outbox.ucp.g08.bks.cvg/sg12_129_cif.got.tgz:257165.got - 2010.06.11 11:47:21.
