data_PCOD9224016
_publ_section_title
;
Structure prediction by ZEFSAII (Michael W. Deem and Ramdas Pophale) SiO2 
 PCOD9224016
Probable space group: C 2/M
;
_chemical_formula_sum "Si O2"
_cell_formula_units_Z 28
_cell_length_a 18.000000
_cell_length_b 21.000000
_cell_length_c 21.000000
_cell_angle_alpha 90.000000
_cell_angle_beta 20.000000
_cell_angle_gamma 90.000000
_cell_volume 2714.955898
_symmetry_space_group_name_H-M "C 2/M"
_symmetry_group_IT_number 12
_symmetry_cell_setting 'monoclinic'
loop_
_space_group_symop_operation_xyz
x,y,z
-x,y,-z
-x,-y,-z
x,-y,z
1/2+x,1/2+y,z
1/2-x,1/2+y,-z
1/2-x,1/2-y,-z
1/2+x,1/2-y,z
loop_
_atom_site_type_symbol
_atom_site_label
_atom_site_fract_x
_atom_site_fract_y
_atom_site_fract_z
Si Si1 0.040440 0.072779 0.136135
Si Si2 0.809670 0.841489 0.420063
Si Si3 0.274103 0.703031 0.719101
Si Si4 0.000308 0.823355 0.924118
Si Si5 0.237235 0.432214 0.716553
Si Si6 0.570679 0.236141 0.279912
Si Si7 0.061941 0.430082 0.714774
O O1 0.937219 0.113190 0.162059
O O2 0.952615 0.107683 0.269000
O O3 0.973467 0.000000 0.188447
O O4 0.302003 0.075117 0.922413
O O5 0.608995 0.809872 0.543993
O O6 0.690817 0.875110 0.574871
O O7 0.956969 0.782863 0.322655
O O8 0.500000 0.699552 0.500000
O O9 0.168678 0.633773 0.802747
O O10 0.319042 0.722024 0.754992
O O11 0.138940 0.760718 0.798377
O O12 0.757506 0.805649 0.098760
O O13 0.000000 0.833459 0.000000
O O14 0.500000 0.432507 0.500000
O O15 0.173830 0.500000 0.797525
O O16 0.140689 0.430022 0.723729
O O17 0.118062 0.500000 0.641652
#
# Coordination Sequence:
#
# PCOD9224016 Si02
#       7
#     8   8   8   8   8   8   8
#     4  11  24  40  62  90 117 158 204 245 304 361
#     4  11  21  38  62  87 123 152 201 246 295 365
#     4  10  19  35  60  86 118 157 201 245 293 351
#     4  10  22  41  62  84 122 154 194 256 302 355
#     4   9  18  33  57  86 117 159 202 236 290 356
#     4  10  22  37  56  92 118 157 199 245 305 350
#     4  10  21  38  59  85 122 159 194 247 300 348
#
# _framework density 10.313243
#
# number of rings (size 3 to 8) (size 9 to 14) (size 15 to 20)
#    0.000    1.857    1.429    3.000    2.000    2.000 
#    0.000    0.714    0.000    7.714    0.000    0.000 
#    0.000    0.000    0.000    0.000    0.000    0.000 
#
# Total GULP energy -156057.958849 kJ/mol
# GULP energy per Si atom -5573.498530 kJ/mol
# Density = 1.028977 g / cm^3
# Si number density = 10.313243 Si / 1000 Ang^3
#
#
#
# Elastic Constant Matrix: (Units=GPa)
#
#
# Indices 1 2 3 4 5 6 
#
# 1 25.3764 45.9617 8.8717 -0.0312 -11.3833 -0.0251
# 2 45.9617 128.5300 20.8709 -0.0242 -6.0815 0.3269
# 3 8.8717 20.8709 36.8738 -0.0947 1.0928 0.2731
# 4 -0.0312 -0.0242 -0.0947 63.9781 0.0142 41.0324
# 5 -11.3833 -6.0815 1.0928 0.0142 17.0091 -0.0313
# 6 -0.0251 0.3269 0.2731 41.0324 -0.0313 70.9180
#
#
#
# Elastic Compliance Matrix: (Units=1/GPa)
#
#
# Indices 1 2 3 4 5 6 
#
# 1 0.272289 -0.086753 -0.020938 -0.000601 0.152559 0.000992
# 2 -0.086753 0.036407 0.001607 0.000203 -0.045147 -0.000342
# 3 -0.020938 0.001607 0.031709 0.000211 -0.015476 -0.000266
# 4 -0.000601 0.000203 0.000211 0.024855 -0.000390 -0.014383
# 5 0.152559 -0.045147 -0.015476 -0.000390 0.145746 0.000612
# 6 0.000992 -0.000342 -0.000266 -0.014383 0.000612 0.022426
#
#
# Mechanical properties :
#
#
# Convention : Reuss Voigt Hill
#
# Bulk Modulus (GPa) = 7.79819 38.02099 22.90959
# Shear Modulus (GPa) = 6.34239 38.05277 22.19758
#
# Velocity S-wave (km/s) = 1.75543 4.29983 3.28406
# Velocity P-wave (km/s) = 2.81027 6.56693 5.05085
#
# Compressibility (1/GPa) = 0.12823495
#
# Stress axis : x y z
#
# Youngs Moduli (GPa) = 3.67257 27.46749 31.53698
#
# Poissons Ratio (x) = 2.38290 0.66034
# Poissons Ratio (y) = 0.31861 -0.05068
# Poissons Ratio (z) = 0.07690 -0.04414
#
# Static dielectric constant tensor:
#      x y z
#    x 1.722090 -0.000010 0.002040 
#    y -0.000010 1.786320 0.000070 
#    z 0.002040 0.000070 1.751820 
# 
# From -- ./inp_files/286102.got.cif
#   From: 2010.05.17/outbox.ucp.g08.bks.cvg/sg12_144_cif.got.tgz:286102.got - 2010.06.11 11:47:21.
