data_PCOD9224066
_publ_section_title
;
Structure prediction by ZEFSAII (Michael W. Deem and Ramdas Pophale) SiO2 
 PCOD9224066
Probable space group: C 2/M
;
_chemical_formula_sum "Si O2"
_cell_formula_units_Z 28
_cell_length_a 24.000000
_cell_length_b 9.000000
_cell_length_c 18.000000
_cell_angle_alpha 90.000000
_cell_angle_beta 130.000000
_cell_angle_gamma 90.000000
_cell_volume 2978.380795
_symmetry_space_group_name_H-M "C 2/M"
_symmetry_group_IT_number 12
_symmetry_cell_setting 'monoclinic'
loop_
_space_group_symop_operation_xyz
x,y,z
-x,y,-z
-x,-y,-z
x,-y,z
1/2+x,1/2+y,z
1/2-x,1/2+y,-z
1/2-x,1/2-y,-z
1/2+x,1/2-y,z
loop_
_atom_site_type_symbol
_atom_site_label
_atom_site_fract_x
_atom_site_fract_y
_atom_site_fract_z
Si Si1 0.544254 0.676963 0.956231
Si Si2 0.881067 0.325126 0.259748
Si Si3 0.836322 0.822155 0.368390
Si Si4 0.078810 0.171444 0.275247
Si Si5 0.469343 0.673189 0.593446
Si Si6 0.272990 0.175800 0.597525
Si Si7 0.331866 0.181984 0.050544
O O1 0.560750 0.500000 0.978418
O O2 0.485247 0.696423 0.839291
O O3 0.618174 0.753760 0.977842
O O4 0.500000 0.717244 0.000000
O O5 0.868822 0.500000 0.253481
O O6 0.833786 0.248002 0.284257
O O7 0.870887 0.283393 0.163850
O O8 0.962099 0.279254 0.352365
O O9 0.909602 0.792649 0.479431
O O10 0.773612 0.771792 0.371585
O O11 0.831684 0.000000 0.355560
O O12 0.058807 0.185654 0.345542
O O13 0.143895 0.283859 0.316679
O O14 0.103320 0.000000 0.286379
O O15 0.491546 0.500000 0.602043
O O16 0.250000 0.250000 0.500000
O O17 0.260894 0.000000 0.579751
O O18 0.327034 0.000000 0.037889
O O19 0.250000 0.250000 0.000000
#
# Coordination Sequence:
#
# PCOD9224066 Si02
#       7
#     8   8   8   8   8   8   8
#     4  10  22  42  69  98 127 161 206 259 318 382
#     4  11  24  39  58  89 120 151 200 253 301 353
#     4  10  22  38  56  84 121 162 205 241 290 360
#     4  10  20  37  61  88 120 159 197 239 297 358
#     4  10  19  36  60  84 116 160 201 235 287 359
#     4  11  22  37  57  84 119 159 204 249 296 354
#     4  11  25  44  67  94 126 164 210 261 317 381
#
# _framework density 9.4010809999999996
#
# number of rings (size 3 to 8) (size 9 to 14) (size 15 to 20)
#    0.000    1.571    2.857    1.714    0.000    7.714 
#    0.000    4.286    0.000    0.000    0.000    0.000 
#    0.000    0.000    0.000    0.000    0.000    0.000 
#
# Total GULP energy -155884.324156 kJ/mol
# GULP energy per Si atom -5567.297291 kJ/mol
# Density = 0.937968 g / cm^3
# Si number density = 9.401081 Si / 1000 Ang^3
#
#
#
# Elastic Constant Matrix: (Units=GPa)
#
#
# Indices 1 2 3 4 5 6 
#
# 1 131.2023 45.2115 22.5744 0.0000 -22.3995 0.0000
# 2 45.2115 50.0887 18.3765 0.0000 -4.5986 0.0000
# 3 22.5744 18.3765 54.6057 0.0000 -14.5593 0.0000
# 4 0.0000 0.0000 0.0000 27.8656 0.0000 -2.9756
# 5 -22.3995 -4.5986 -14.5593 0.0000 38.5105 0.0000
# 6 0.0000 0.0000 0.0000 -2.9756 0.0000 40.8077
#
#
#
# Elastic Compliance Matrix: (Units=1/GPa)
#
#
# Indices 1 2 3 4 5 6 
#
# 1 0.012248 -0.010533 0.000051 0.000000 0.005885 0.000000
# 2 -0.010533 0.031837 -0.007762 0.000000 -0.005259 0.000000
# 3 0.000051 -0.007762 0.022982 0.000000 0.007791 0.000000
# 4 0.000000 0.000000 0.000000 0.036168 0.000000 0.002637
# 5 0.005885 -0.005259 0.007791 0.000000 0.031707 0.000000
# 6 0.000000 0.000000 0.000000 0.002637 0.000000 0.024697
#
#
# Mechanical properties :
#
#
# Convention : Reuss Voigt Hill
#
# Bulk Modulus (GPa) = 32.70417 45.35795 39.03106
# Shear Modulus (GPa) = 24.23413 31.41904 27.82659
#
# Velocity S-wave (km/s) = 3.59402 4.09226 3.85121
# Velocity P-wave (km/s) = 5.88679 6.81946 6.37021
#
# Compressibility (1/GPa) = 0.03057714
#
# Stress axis : x y z
#
# Youngs Moduli (GPa) = 81.64921 31.41002 43.51306
#
# Poissons Ratio (x) = 0.33085 -0.00220
# Poissons Ratio (y) = 0.86003 0.33774
# Poissons Ratio (z) = -0.00414 0.24380
#
# Static dielectric constant tensor:
#      x y z
#    x 1.729370 0.000000 0.008670 
#    y 0.000000 1.648020 0.000000 
#    z 0.008670 0.000000 1.653960 
# 
# From -- ./inp_files/288424.got.cif
#   From: 2010.05.17/outbox.ucp.g08.bks.cvg/sg12_145_cif.got.tgz:288424.got - 2010.06.11 11:47:21.
