data_PCOD9224250
_publ_section_title
;
Structure prediction by ZEFSAII (Michael W. Deem and Ramdas Pophale) SiO2 
 PCOD9224250
Probable space group: C 2/M
;
_chemical_formula_sum "Si O2"
_cell_formula_units_Z 32
_cell_length_a 30.000000
_cell_length_b 9.000000
_cell_length_c 12.000000
_cell_angle_alpha 90.000000
_cell_angle_beta 90.000000
_cell_angle_gamma 90.000000
_cell_volume 3240.000000
_symmetry_space_group_name_H-M "C 2/M"
_symmetry_group_IT_number 12
_symmetry_cell_setting 'monoclinic'
loop_
_space_group_symop_operation_xyz
x,y,z
-x,y,-z
-x,-y,-z
x,-y,z
1/2+x,1/2+y,z
1/2-x,1/2+y,-z
1/2-x,1/2-y,-z
1/2+x,1/2-y,z
loop_
_atom_site_type_symbol
_atom_site_label
_atom_site_fract_x
_atom_site_fract_y
_atom_site_fract_z
Si Si1 0.328636 0.322247 0.066841
Si Si2 0.092657 0.177851 0.766628
Si Si3 0.338545 0.321348 0.810115
Si Si4 0.393888 0.820361 0.473175
Si Si5 0.238991 0.323629 0.786135
Si Si6 0.294284 0.176457 0.453393
Si Si7 0.574998 0.821543 0.293926
Si Si8 0.994101 0.678328 0.131570
O O1 0.325998 0.500000 0.070315
O O2 0.366890 0.273432 0.152821
O O3 0.282553 0.256117 0.109529
O O4 0.339250 0.280476 0.940637
O O5 0.094599 0.249080 0.644574
O O6 0.048157 0.232965 0.825556
O O7 0.094208 0.000000 0.757411
O O8 0.343076 0.500000 0.799954
O O9 0.289859 0.277831 0.764682
O O10 0.378913 0.242290 0.750752
O O11 0.342405 0.775048 0.498362
O O12 0.426188 0.778179 0.575402
O O13 0.394385 0.000000 0.461917
O O14 0.239575 0.500000 0.805892
O O15 0.208637 0.293470 0.678710
O O16 0.250000 0.250000 0.500000
O O17 0.290731 0.000000 0.470304
O O18 0.535659 0.776718 0.210108
O O19 0.576546 0.000000 0.291658
O O20 0.987628 0.500000 0.145080
O O21 0.000000 0.706428 0.000000
#
# Coordination Sequence:
#
# PCOD9224250 Si02
#       8
#     8   8   8   8   8   8   8   8
#     4  10  21  36  54  81 115 150 189 233 283 338
#     4  11  23  38  60  88 116 151 194 238 288 343
#     4  10  21  36  55  82 117 151 185 234 289 337
#     4  10  21  39  59  81 115 153 191 236 285 339
#     4  10  20  34  53  80 111 148 193 232 278 338
#     4  10  20  33  52  78 109 149 192 233 278 327
#     4  10  22  39  60  86 112 146 192 234 281 342
#     4  10  22  41  64  89 116 148 188 234 288 349
#
# _framework density 9.8765429999999999
#
# number of rings (size 3 to 8) (size 9 to 14) (size 15 to 20)
#    0.000    1.875    1.250    2.250    0.000    4.250 
#    0.000    2.500    0.000    0.000    0.000    0.000 
#    0.000    0.000    0.000    0.000    0.000    0.000 
#
# Total GULP energy -178637.159491 kJ/mol
# GULP energy per Si atom -5582.411234 kJ/mol
# Density = 0.985406 g / cm^3
# Si number density = 9.876543 Si / 1000 Ang^3
#
#
#
# Elastic Constant Matrix: (Units=GPa)
#
#
# Indices 1 2 3 4 5 6 
#
# 1 73.4308 16.1470 15.4240 0.0000 14.7779 0.0000
# 2 16.1470 -16.3641 29.1168 0.0000 5.4681 0.0000
# 3 15.4240 29.1168 49.4460 0.0000 14.5746 0.0000
# 4 0.0000 0.0000 0.0000 22.1477 0.0000 -10.0410
# 5 14.7779 5.4681 14.5746 0.0000 35.1766 0.0000
# 6 0.0000 0.0000 0.0000 -10.0410 0.0000 30.6294
#
#
#
# Elastic Compliance Matrix: (Units=1/GPa)
#
#
# Indices 1 2 3 4 5 6 
#
# 1 0.014888 0.003564 -0.005395 0.000000 -0.004573 0.000000
# 2 0.003564 -0.028712 0.016997 0.000000 -0.004076 0.000000
# 3 -0.005395 0.016997 0.013679 0.000000 -0.006044 0.000000
# 4 0.000000 0.000000 0.000000 0.053033 0.000000 0.017385
# 5 -0.004573 -0.004076 -0.006044 0.000000 0.033487 0.000000
# 6 0.000000 0.000000 0.000000 0.017385 0.000000 0.038348
#
#
# Mechanical properties :
#
#
# Convention : Reuss Voigt Hill
#
# Bulk Modulus (GPa) = 33.12570 25.32091 29.22331
# Shear Modulus (GPa) = 47.86802 20.64573 34.25687
#
# Velocity S-wave (km/s) = 4.92806 3.23645 4.16896
# Velocity P-wave (km/s) = 7.01337 5.17809 6.16441
#
# Compressibility (1/GPa) = 0.03018804
#
# Stress axis : x y z
#
# Youngs Moduli (GPa) = 67.16745 -34.82882 73.10320
#
# Poissons Ratio (x) = 0.12412 0.39436
# Poissons Ratio (y) = -0.23936 -1.24255
# Poissons Ratio (z) = 0.36234 0.59199
#
# Static dielectric constant tensor:
#      x y z
#    x 1.667830 0.000000 0.022110 
#    y 0.000000 1.655960 0.000000 
#    z 0.022110 0.000000 1.711400 
# 
# From -- ./inp_files/187500.got.cif
#   From: 2010.05.17/outbox.ucp.g08.bks.cvg/sg12_94_cif.got.tgz:187500.got - 2010.06.11 11:47:21.
