data_PCOD9224776
_publ_section_title
;
Structure prediction by ZEFSAII (Michael W. Deem and Ramdas Pophale) SiO2 
 PCOD9224776
Probable space group: C 2/M
;
_chemical_formula_sum "Si O2"
_cell_formula_units_Z 28
_cell_length_a 21.000000
_cell_length_b 18.000000
_cell_length_c 21.000000
_cell_angle_alpha 90.000000
_cell_angle_beta 20.000000
_cell_angle_gamma 90.000000
_cell_volume 2714.955898
_symmetry_space_group_name_H-M "C 2/M"
_symmetry_group_IT_number 12
_symmetry_cell_setting 'monoclinic'
loop_
_space_group_symop_operation_xyz
x,y,z
-x,y,-z
-x,-y,-z
x,-y,z
1/2+x,1/2+y,z
1/2-x,1/2+y,-z
1/2-x,1/2-y,-z
1/2+x,1/2-y,z
loop_
_atom_site_type_symbol
_atom_site_label
_atom_site_fract_x
_atom_site_fract_y
_atom_site_fract_z
Si Si1 0.412352 0.586327 0.986734
Si Si2 0.709249 0.913411 0.314540
Si Si3 0.237495 0.913804 0.343725
Si Si4 0.744128 0.410034 0.479788
Si Si5 0.785495 0.086604 0.772005
Si Si6 0.650507 0.333710 0.162044
Si Si7 0.898992 0.333660 0.804950
O O1 0.427298 0.500000 0.952611
O O2 0.313428 0.587016 0.148837
O O3 0.263786 0.627648 0.082718
O O4 0.626026 0.616236 0.793230
O O5 0.500000 0.881287 0.500000
O O6 0.680408 0.000000 0.360996
O O7 0.293649 0.885213 0.360260
O O8 0.289512 0.883003 0.225197
O O9 0.011791 0.913113 0.556357
O O10 0.295295 0.000000 0.287742
O O11 0.745848 0.500000 0.481150
O O12 0.531292 0.381644 0.688671
O O13 0.903711 0.376328 0.375299
O O14 0.752166 0.132724 0.866690
O O15 0.730444 0.000000 0.830852
O O16 0.576716 0.250259 0.242520
O O17 0.806354 0.330753 0.961624
#
# Coordination Sequence:
#
# PCOD9224776 Si02
#       7
#     8   8   8   8   8   8   8
#     4   9  18  32  53  80 109 142 184 236 284 329
#     4   8  15  31  56  82 106 133 172 230 290 332
#     4   7  12  25  50  82 109 133 173 236 294 329
#     4  10  20  36  60  87 113 150 200 248 291 343
#     4   8  13  27  54  81 105 139 187 238 284 333
#     4  10  22  38  55  75 116 161 195 229 288 351
#     4  11  23  37  54  78 122 161 191 231 288 349
#
# _framework density 10.313243
#
# number of rings (size 3 to 8) (size 9 to 14) (size 15 to 20)
#    0.000    3.000    0.000    3.857    0.000    3.429 
#    0.000    2.143   18.857    2.571    0.000    0.000 
#    0.000    0.000    0.000    0.000    0.000    0.429 
#
# Total GULP energy -155968.129135 kJ/mol
# GULP energy per Si atom -5570.290326 kJ/mol
# Density = 1.028977 g / cm^3
# Si number density = 10.313243 Si / 1000 Ang^3
#
#
#
# Elastic Constant Matrix: (Units=GPa)
#
#
# Indices 1 2 3 4 5 6 
#
# 1 50.9571 14.6238 -11.9461 -0.0198 -10.1110 0.0341
# 2 14.6238 60.7834 1.7792 -0.0114 -2.0244 -0.0041
# 3 -11.9461 1.7792 62.4306 -0.0023 -17.4725 -0.0104
# 4 -0.0198 -0.0114 -0.0023 6.6516 0.0036 21.3551
# 5 -10.1110 -2.0244 -17.4725 0.0036 36.5951 -0.0053
# 6 0.0341 -0.0041 -0.0104 21.3551 -0.0053 -7.5649
#
#
#
# Elastic Compliance Matrix: (Units=1/GPa)
#
#
# Indices 1 2 3 4 5 6 
#
# 1 0.025264 -0.005963 0.007924 -0.000025 0.010434 0.000027
# 2 -0.005963 0.017893 -0.002118 0.000012 -0.001669 0.000000
# 3 0.007924 -0.002118 0.020978 0.000002 0.012088 0.000006
# 4 -0.000025 0.000012 0.000002 0.014940 -0.000001 0.042174
# 5 0.010434 -0.001669 0.012088 -0.000001 0.035888 0.000004
# 6 0.000027 0.000000 0.000006 0.042174 0.000004 -0.013136
#
#
# Mechanical properties :
#
#
# Convention : Reuss Voigt Hill
#
# Bulk Modulus (GPa) = 15.66874 20.34275 18.00574
# Shear Modulus (GPa) = 40.51470 18.45063 29.48266
#
# Velocity S-wave (km/s) = 4.43675 2.99408 3.78479
# Velocity P-wave (km/s) = 5.81887 4.67296 5.27711
#
# Compressibility (1/GPa) = 0.06382135
#
# Stress axis : x y z
#
# Youngs Moduli (GPa) = 39.58279 55.88842 47.66999
#
# Poissons Ratio (x) = 0.33324 -0.37775
# Poissons Ratio (y) = 0.23601 0.10096
# Poissons Ratio (z) = -0.31366 0.11837
#
# Static dielectric constant tensor:
#      x y z
#    x 1.807190 -0.000020 0.024500 
#    y -0.000020 1.729160 0.000040 
#    z 0.024500 0.000040 1.763040 
# 
# From -- ./inp_files/322647.got.cif
#   From: 2010.05.17/outbox.ucp.g08.bks.cvg/sg12_162_cif.got.tgz:322647.got - 2010.06.11 11:47:21.
