data_PCOD9224298
_publ_section_title
;
Structure prediction by ZEFSAII (Michael W. Deem and Ramdas Pophale) SiO2 
 PCOD9224298
Probable space group: C 2/M
;
_chemical_formula_sum "Si O2"
_cell_formula_units_Z 29
_cell_length_a 24.000000
_cell_length_b 9.000000
_cell_length_c 15.000000
_cell_angle_alpha 90.000000
_cell_angle_beta 90.000000
_cell_angle_gamma 90.000000
_cell_volume 3240.000000
_symmetry_space_group_name_H-M "C 2/M"
_symmetry_group_IT_number 12
_symmetry_cell_setting 'monoclinic'
loop_
_space_group_symop_operation_xyz
x,y,z
-x,y,-z
-x,-y,-z
x,-y,z
1/2+x,1/2+y,z
1/2-x,1/2+y,-z
1/2-x,1/2-y,-z
1/2+x,1/2-y,z
loop_
_atom_site_type_symbol
_atom_site_label
_atom_site_fract_x
_atom_site_fract_y
_atom_site_fract_z
Si Si1 0.055453 0.747676 0.873816
Si Si2 0.374262 0.829661 0.300679
Si Si3 0.224403 0.178407 0.793976
Si Si4 0.019487 0.320393 0.598801
Si Si5 0.046258 0.168117 0.242587
Si Si6 0.336584 0.667881 0.027750
Si Si7 0.654122 0.822704 0.160426
Si Si8 0.500000 0.000000 0.000000
O O1 0.089175 0.678945 0.790050
O O2 0.101924 0.835635 0.928888
O O3 0.003620 0.831646 0.829717
O O4 0.029976 0.627030 0.938710
O O5 0.317820 0.742764 0.278794
O O6 0.417446 0.772042 0.375489
O O7 0.360479 0.000000 0.320263
O O8 0.202988 0.225397 0.892672
O O9 0.289233 0.217777 0.787093
O O10 0.219513 0.000000 0.792835
O O11 0.018667 0.500000 0.606627
O O12 0.000000 0.279718 0.500000
O O13 0.978073 0.253151 0.671964
O O14 0.099457 0.249428 0.201419
O O15 0.060651 0.000000 0.265830
O O16 0.319693 0.500000 0.003373
O O17 0.338119 0.769029 0.941018
O O18 0.647555 0.000000 0.161053
#
# Coordination Sequence:
#
# PCOD9224298 Si02
#       8
#     8   8   8   8   8   8   8   2
#     4  10  21  31  49  73 105 138 179 220 270 314
#     4   9  17  32  54  80 105 133 172 212 258 312
#     4   9  20  36  51  72 102 142 184 228 270 309
#     4   9  19  37  62  90 115 136 165 209 267 333
#     4  11  23  37  54  77 111 144 177 221 275 330
#     4  10  20  34  51  71 101 137 185 233 276 314
#     4  11  23  35  50  71 102 143 187 227 270 314
#     4  12  20  28  46  72 102 140 182 224 248 318
#
# _framework density 8.9506169999999994
#
# number of rings (size 3 to 8) (size 9 to 14) (size 15 to 20)
#    0.000    2.069    0.690    2.483    4.828    5.241 
#    0.000    2.069    0.000    0.828    0.000    0.000 
#    0.000    0.000    0.000    0.000    0.000    0.000 
#
# Total GULP energy -161479.691292 kJ/mol
# GULP energy per Si atom -5568.265217 kJ/mol
# Density = 0.893025 g / cm^3
# Si number density = 8.950617 Si / 1000 Ang^3
#
#
#
# Elastic Constant Matrix: (Units=GPa)
#
#
# Indices 1 2 3 4 5 6 
#
# 1 124.7281 30.7244 36.7071 0.0000 18.9172 0.0000
# 2 30.7244 39.7460 12.2556 0.0000 2.6552 0.0000
# 3 36.7071 12.2556 31.0634 0.0000 20.2371 0.0000
# 4 0.0000 0.0000 0.0000 20.2518 0.0000 13.9662
# 5 18.9172 2.6552 20.2371 0.0000 20.7811 0.0000
# 6 0.0000 0.0000 0.0000 13.9662 0.0000 74.4620
#
#
#
# Elastic Compliance Matrix: (Units=1/GPa)
#
#
# Indices 1 2 3 4 5 6 
#
# 1 0.013725 -0.005608 -0.017324 0.000000 0.005093 0.000000
# 2 -0.005608 0.034371 -0.020237 0.000000 0.020421 0.000000
# 3 -0.017324 -0.020237 0.133183 0.000000 -0.111341 0.000000
# 4 0.000000 0.000000 0.000000 0.056714 0.000000 -0.010637
# 5 0.005093 0.020421 -0.111341 0.000000 0.149301 0.000000
# 6 0.000000 0.000000 0.000000 -0.010637 0.000000 0.015425
#
#
# Mechanical properties :
#
#
# Convention : Reuss Voigt Hill
#
# Bulk Modulus (GPa) = 10.53285 39.43464 24.98375
# Shear Modulus (GPa) = 9.60239 30.82234 20.21236
#
# Velocity S-wave (km/s) = 2.31856 4.15396 3.36386
# Velocity P-wave (km/s) = 3.61446 6.71446 5.39204
#
# Compressibility (1/GPa) = 0.09494102
#
# Stress axis : x y z
#
# Youngs Moduli (GPa) = 72.86124 29.09443 7.50845
#
# Poissons Ratio (x) = 0.16316 0.13007
# Poissons Ratio (y) = 0.40861 0.15195
# Poissons Ratio (z) = 1.26221 0.58879
#
# Static dielectric constant tensor:
#      x y z
#    x 1.629290 0.000000 0.029540 
#    y 0.000000 1.622810 0.000000 
#    z 0.029540 0.000000 1.587280 
# 
# From -- ./inp_files/237544.got.cif
#   From: 2010.05.17/outbox.ucp.g08.bks.cvg/sg12_119_cif.got.tgz:237544.got - 2010.06.11 11:47:21.
