data_PCOD9224015
_publ_section_title
;
Structure prediction by ZEFSAII (Michael W. Deem and Ramdas Pophale) SiO2 
 PCOD9224015
Probable space group: C 2/M
;
_chemical_formula_sum "Si O2"
_cell_formula_units_Z 28
_cell_length_a 30.000000
_cell_length_b 21.000000
_cell_length_c 9.000000
_cell_angle_alpha 90.000000
_cell_angle_beta 30.000000
_cell_angle_gamma 90.000000
_cell_volume 2835.000000
_symmetry_space_group_name_H-M "C 2/M"
_symmetry_group_IT_number 12
_symmetry_cell_setting 'monoclinic'
loop_
_space_group_symop_operation_xyz
x,y,z
-x,y,-z
-x,-y,-z
x,-y,z
1/2+x,1/2+y,z
1/2-x,1/2+y,-z
1/2-x,1/2-y,-z
1/2+x,1/2-y,z
loop_
_atom_site_type_symbol
_atom_site_label
_atom_site_fract_x
_atom_site_fract_y
_atom_site_fract_z
Si Si1 0.659998 0.740730 0.163174
Si Si2 0.218960 0.112376 0.865157
Si Si3 0.904906 0.378427 0.699366
Si Si4 0.049623 0.927783 0.202110
Si Si5 0.788127 0.072500 0.764560
Si Si6 0.910045 0.576064 0.349931
Si Si7 0.946612 0.834115 0.291530
O O1 0.624182 0.805133 0.194986
O O2 0.586989 0.715892 0.490522
O O3 0.750000 0.750000 0.000000
O O4 0.684262 0.684555 0.979617
O O5 0.321975 0.104705 0.527937
O O6 0.153331 0.077665 0.942003
O O7 0.211363 0.084393 0.056568
O O8 0.917784 0.391382 0.487442
O O9 0.000000 0.393630 0.500000
O O10 0.813137 0.416590 0.999980
O O11 0.000000 0.910864 0.500000
O O12 0.013764 0.882070 0.179799
O O13 0.025388 0.000000 0.235464
O O14 0.859281 0.123901 0.499901
O O15 0.815141 0.000000 0.657443
O O16 0.895982 0.500000 0.410370
O O17 0.000000 0.585575 0.000000
O O18 0.000000 0.805595 0.000000
#
# Coordination Sequence:
#
# PCOD9224015 Si02
#       7
#     8   8   8   8   8   8   8
#     4  11  20  40  62  82 113 160 202 241 286 345
#     4  10  19  35  60  86 113 150 200 240 281 347
#     4  11  23  38  63  89 112 152 207 249 287 342
#     4  11  20  34  61  92 118 152 196 240 286 357
#     4  10  19  36  61  85 117 156 192 235 293 359
#     4  10  21  39  61  86 119 154 190 242 303 351
#     4  11  24  39  58  90 124 157 191 239 306 359
#
# _framework density 9.8765429999999999
#
# number of rings (size 3 to 8) (size 9 to 14) (size 15 to 20)
#    0.000    1.429    7.143    3.000    2.000    2.857 
#    2.571    0.000    0.000    2.571    0.000    0.000 
#    0.000    0.000    0.000    0.000    0.000    0.000 
#
# Total GULP energy -156324.669431 kJ/mol
# GULP energy per Si atom -5583.023908 kJ/mol
# Density = 0.985406 g / cm^3
# Si number density = 9.876543 Si / 1000 Ang^3
#
#
#
# Elastic Constant Matrix: (Units=GPa)
#
#
# Indices 1 2 3 4 5 6 
#
# 1 60.8292 -8.1541 15.3211 0.0000 -37.6441 0.0000
# 2 -8.1541 58.8552 10.2899 0.0000 5.8179 0.0000
# 3 15.3211 10.2899 87.2309 0.0000 -24.0789 0.0000
# 4 0.0000 0.0000 0.0000 14.4311 0.0000 -11.7038
# 5 -37.6441 5.8179 -24.0789 0.0000 29.3798 0.0000
# 6 0.0000 0.0000 0.0000 -11.7038 0.0000 14.7650
#
#
#
# Elastic Compliance Matrix: (Units=1/GPa)
#
#
# Indices 1 2 3 4 5 6 
#
# 1 0.112593 -0.005729 0.027186 0.000000 0.167680 0.000000
# 2 -0.005729 0.018693 -0.005489 0.000000 -0.015541 0.000000
# 3 0.027186 -0.005489 0.022296 0.000000 0.054193 0.000000
# 4 0.000000 0.000000 0.000000 0.194028 0.000000 0.153801
# 5 0.167680 -0.015541 0.054193 0.000000 0.296376 0.000000
# 6 0.000000 0.000000 0.000000 0.153801 0.000000 0.189641
#
#
# Mechanical properties :
#
#
# Convention : Reuss Voigt Hill
#
# Bulk Modulus (GPa) = 5.39033 26.86989 16.13011
# Shear Modulus (GPa) = 5.79019 24.34574 15.06796
#
# Velocity S-wave (km/s) = 1.71396 3.51451 2.76491
# Velocity P-wave (km/s) = 2.57908 5.48648 4.28679
#
# Compressibility (1/GPa) = 0.18551726
#
# Stress axis : x y z
#
# Youngs Moduli (GPa) = 8.88158 53.49620 44.85192
#
# Poissons Ratio (x) = 0.30649 -1.21934
# Poissons Ratio (y) = 0.05088 0.24617
# Poissons Ratio (z) = -0.24145 0.29362
#
# Static dielectric constant tensor:
#      x y z
#    x 1.685910 0.000000 -0.013640 
#    y 0.000000 1.727270 0.000000 
#    z -0.013640 0.000000 1.723120 
# 
# From -- ./inp_files/113349.got.cif
#   From: 2010.05.17/outbox.ucp.g08.bks.cvg/sg12_57_cif.got.tgz:113349.got - 2010.06.11 11:47:21.
