data_PCOD9224068
_publ_section_title
;
Structure prediction by ZEFSAII (Michael W. Deem and Ramdas Pophale) SiO2 
 PCOD9224068
Probable space group: C 2/M
;
_chemical_formula_sum "Si O2"
_cell_formula_units_Z 32
_cell_length_a 30.000000
_cell_length_b 9.000000
_cell_length_c 18.000000
_cell_angle_alpha 90.000000
_cell_angle_beta 140.000000
_cell_angle_gamma 90.000000
_cell_volume 3123.947783
_symmetry_space_group_name_H-M "C 2/M"
_symmetry_group_IT_number 12
_symmetry_cell_setting 'monoclinic'
loop_
_space_group_symop_operation_xyz
x,y,z
-x,y,-z
-x,-y,-z
x,-y,z
1/2+x,1/2+y,z
1/2-x,1/2+y,-z
1/2-x,1/2-y,-z
1/2+x,1/2-y,z
loop_
_atom_site_type_symbol
_atom_site_label
_atom_site_fract_x
_atom_site_fract_y
_atom_site_fract_z
Si Si1 0.562079 0.674941 0.635353
Si Si2 0.392313 0.826938 0.772957
Si Si3 0.828773 0.174911 0.832976
Si Si4 0.316335 0.669064 0.555204
Si Si5 0.952368 0.329046 0.063649
Si Si6 0.309677 0.167353 0.263972
Si Si7 0.361223 0.843794 0.492166
Si Si8 0.022565 0.664495 0.729759
O O1 0.500000 0.732256 0.500000
O O2 0.564297 0.500000 0.626626
O O3 0.638937 0.738943 0.720225
O O4 0.545306 0.716443 0.698586
O O5 0.344933 0.753761 0.775497
O O6 0.378027 0.746866 0.677450
O O7 0.474848 0.813272 0.886408
O O8 0.375179 0.000000 0.745567
O O9 0.763709 0.227970 0.799536
O O10 0.817649 0.000000 0.805830
O O11 0.897799 0.210375 0.966373
O O12 0.314819 0.500000 0.570951
O O13 0.250000 0.750000 0.500000
O O14 0.323886 0.703318 0.478727
O O15 0.928389 0.500000 0.018565
O O16 0.961254 0.311936 0.163359
O O17 0.353776 0.155505 0.395740
O O18 0.298356 0.000000 0.219791
O O19 0.440217 0.841584 0.615647
O O20 0.329691 0.000000 0.480818
O O21 0.050185 0.500000 0.743886
#
# Coordination Sequence:
#
# PCOD9224068 Si02
#       8
#     8   8   8   8   8   8   8   8
#     4  11  23  37  59  94 127 152 191 245 303 364
#     4  11  22  40  63  88 119 159 209 254 300 358
#     4  11  24  40  60  91 123 159 206 253 302 357
#     4  12  24  36  54  83 122 163 201 246 302 361
#     4  10  22  41  63  88 119 161 208 250 296 358
#     4  10  22  40  62  86 119 160 201 242 295 365
#     4  10  19  36  60  85 116 155 197 244 296 358
#     4  10  20  38  64  89 116 155 200 241 295 360
#
# _framework density 10.243449
#
# number of rings (size 3 to 8) (size 9 to 14) (size 15 to 20)
#    0.000    1.375    2.500    3.375    0.000    6.500 
#    0.000    0.625    0.000    0.000    0.000    0.000 
#    0.000    0.000    0.000    0.000    0.000    0.000 
#
# Total GULP energy -178356.567567 kJ/mol
# GULP energy per Si atom -5573.642736 kJ/mol
# Density = 1.022013 g / cm^3
# Si number density = 10.243449 Si / 1000 Ang^3
#
#
#
# Elastic Constant Matrix: (Units=GPa)
#
#
# Indices 1 2 3 4 5 6 
#
# 1 79.4304 53.4340 0.7070 0.0000 22.5561 0.0000
# 2 53.4340 61.2221 29.8920 0.0000 20.2447 0.0000
# 3 0.7070 29.8920 28.0236 0.0000 1.4457 0.0000
# 4 0.0000 0.0000 0.0000 18.5178 0.0000 -4.5925
# 5 22.5561 20.2447 1.4457 0.0000 15.6724 0.0000
# 6 0.0000 0.0000 0.0000 -4.5925 0.0000 27.7964
#
#
#
# Elastic Compliance Matrix: (Units=1/GPa)
#
#
# Indices 1 2 3 4 5 6 
#
# 1 -0.020621 0.076609 -0.077993 0.000000 -0.062086 0.000000
# 2 0.076609 -0.139923 0.144370 0.000000 0.057170 0.000000
# 3 -0.077993 0.144370 -0.113051 0.000000 -0.063811 0.000000
# 4 0.000000 0.000000 0.000000 0.056309 0.000000 0.009303
# 5 -0.062086 0.057170 -0.063811 0.000000 0.085199 0.000000
# 6 0.000000 0.000000 0.000000 0.009303 0.000000 0.037513
#
#
# Mechanical properties :
#
#
# Convention : Reuss Voigt Hill
#
# Bulk Modulus (GPa) = 80.80666 37.41577 59.11121
# Shear Modulus (GPa) = -13.28302 18.04019 2.37858
#
# Velocity S-wave (km/s) = -2.54907 2.97066 1.07868
# Velocity P-wave (km/s) = 5.55563 5.48355 5.51971
#
# Compressibility (1/GPa) = 0.01237522
#
# Stress axis : x y z
#
# Youngs Moduli (GPa) = -48.49383 -7.14678 -8.84553
#
# Poissons Ratio (x) = 0.54750 -0.68989
# Poissons Ratio (y) = 3.71504 1.27703
# Poissons Ratio (z) = -3.78218 1.03178
#
# Static dielectric constant tensor:
#      x y z
#    x 1.720480 0.000000 0.002950 
#    y 0.000000 1.737230 0.000000 
#    z 0.002950 0.000000 1.771780 
# 
# From -- ./inp_files/295726.got.cif
#   From: 2010.05.17/outbox.ucp.g08.bks.cvg/sg12_148_cif.got.tgz:295726.got - 2010.06.11 11:47:21.
