data_PCOD9224385
_publ_section_title
;
Structure prediction by ZEFSAII (Michael W. Deem and Ramdas Pophale) SiO2 
 PCOD9224385
Probable space group: C 2/M
;
_chemical_formula_sum "Si O2"
_cell_formula_units_Z 20
_cell_length_a 15.000000
_cell_length_b 21.000000
_cell_length_c 9.000000
_cell_angle_alpha 90.000000
_cell_angle_beta 130.000000
_cell_angle_gamma 90.000000
_cell_volume 2171.735996
_symmetry_space_group_name_H-M "C 2/M"
_symmetry_group_IT_number 12
_symmetry_cell_setting 'monoclinic'
loop_
_space_group_symop_operation_xyz
x,y,z
-x,y,-z
-x,-y,-z
x,-y,z
1/2+x,1/2+y,z
1/2-x,1/2+y,-z
1/2-x,1/2-y,-z
1/2+x,1/2-y,z
loop_
_atom_site_type_symbol
_atom_site_label
_atom_site_fract_x
_atom_site_fract_y
_atom_site_fract_z
Si Si1 0.372335 0.073546 0.416169
Si Si2 0.377531 0.926484 0.779755
Si Si3 0.057538 0.239346 0.724489
Si Si4 0.784784 0.820244 0.894041
Si Si5 0.151684 0.279268 0.287309
O O1 0.500000 0.097183 0.500000
O O2 0.380795 0.072944 0.603840
O O3 0.265632 0.116598 0.241040
O O4 0.359463 0.000000 0.351087
O O5 0.328628 0.852706 0.747579
O O6 0.330163 0.000000 0.767038
O O7 0.500000 0.924461 0.000000
O O8 0.165274 0.287356 0.819731
O O9 0.000000 0.227412 0.500000
O O10 0.963907 0.271484 0.735486
O O11 0.120301 0.178208 0.870764
O O12 0.844097 0.770448 0.843598
O O13 0.250000 0.250000 0.500000
#
# Coordination Sequence:
#
# PCOD9224385 Si02
#       5
#     8   8   8   8   8
#     4  10  20  36  57  84 118 149 187 239 296 353
#     4  10  20  34  54  82 116 148 184 237 294 340
#     4  11  22  37  55  88 116 145 196 244 290 343
#     4  11  22  36  61  84 116 154 189 244 292 348
#     4  12  21  36  59  86 118 155 191 239 288 347
#
# _framework density 9.2092229999999997
#
# number of rings (size 3 to 8) (size 9 to 14) (size 15 to 20)
#    0.000    1.200    4.000    3.600    0.000    1.600 
#    0.000    0.000    0.000    4.200    0.000    0.000 
#    0.000    0.000    0.000    0.000    0.000    0.000 
#
# Total GULP energy -111334.468314 kJ/mol
# GULP energy per Si atom -5566.723416 kJ/mol
# Density = 0.918826 g / cm^3
# Si number density = 9.209223 Si / 1000 Ang^3
#
#
#
# Elastic Constant Matrix: (Units=GPa)
#
#
# Indices 1 2 3 4 5 6 
#
# 1 80.6429 12.7931 10.1713 0.0000 -0.6658 0.0000
# 2 12.7931 135.1469 42.1408 0.0000 5.3558 0.0000
# 3 10.1713 42.1408 129.6212 0.0000 9.1357 0.0000
# 4 0.0000 0.0000 0.0000 31.6541 0.0000 4.6091
# 5 -0.6658 5.3558 9.1357 0.0000 16.9111 0.0000
# 6 0.0000 0.0000 0.0000 4.6091 0.0000 23.4847
#
#
#
# Elastic Compliance Matrix: (Units=1/GPa)
#
#
# Indices 1 2 3 4 5 6 
#
# 1 0.012666 -0.001013 -0.000751 0.000000 0.001225 0.000000
# 2 -0.001013 0.008339 -0.002539 0.000000 -0.001309 0.000000
# 3 -0.000751 -0.002539 0.008883 0.000000 -0.004024 0.000000
# 4 0.000000 0.000000 0.000000 0.032521 0.000000 -0.006383
# 5 0.001225 -0.001309 -0.004024 0.000000 0.061769 0.000000
# 6 0.000000 0.000000 0.000000 -0.006383 0.000000 0.043834
#
#
# Mechanical properties :
#
#
# Convention : Reuss Voigt Hill
#
# Bulk Modulus (GPa) = 46.99067 52.84682 49.91875
# Shear Modulus (GPa) = 27.21651 33.09704 30.15678
#
# Velocity S-wave (km/s) = 3.84823 4.24364 4.05076
# Velocity P-wave (km/s) = 6.73152 7.26402 7.00283
#
# Compressibility (1/GPa) = 0.02128082
#
# Stress axis : x y z
#
# Youngs Moduli (GPa) = 78.95205 119.91931 112.57654
#
# Poissons Ratio (x) = 0.12153 0.08452
# Poissons Ratio (y) = 0.08001 0.28586
# Poissons Ratio (z) = 0.05927 0.30451
#
# Static dielectric constant tensor:
#      x y z
#    x 1.667190 0.000000 -0.023980 
#    y 0.000000 1.695570 0.000000 
#    z -0.023980 0.000000 1.700130 
# 
# From -- ./inp_files/62572.got.cif
#   From: 2010.05.17/outbox.ucp.g08.bks.cvg/sg12_32_cif.got.tgz:62572.got - 2010.06.11 11:47:21.
