data_PCOD9224839
_publ_section_title
;
Structure prediction by ZEFSAII (Michael W. Deem and Ramdas Pophale) SiO2 
 PCOD9224839
Probable space group: C 2/M
;
_chemical_formula_sum "Si O2"
_cell_formula_units_Z 32
_cell_length_a 24.000000
_cell_length_b 24.000000
_cell_length_c 18.000000
_cell_angle_alpha 90.000000
_cell_angle_beta 160.000000
_cell_angle_gamma 90.000000
_cell_volume 3546.064846
_symmetry_space_group_name_H-M "C 2/M"
_symmetry_group_IT_number 12
_symmetry_cell_setting 'monoclinic'
loop_
_space_group_symop_operation_xyz
x,y,z
-x,y,-z
-x,-y,-z
x,-y,z
1/2+x,1/2+y,z
1/2-x,1/2+y,-z
1/2-x,1/2-y,-z
1/2+x,1/2-y,z
loop_
_atom_site_type_symbol
_atom_site_label
_atom_site_fract_x
_atom_site_fract_y
_atom_site_fract_z
Si Si1 0.066514 0.677308 0.262717
Si Si2 0.618871 0.360233 0.436522
Si Si3 0.189856 0.436790 0.212573
Si Si4 0.047165 0.256447 0.395674
Si Si5 0.685136 0.433570 0.961920
Si Si6 0.656715 0.832934 0.749835
Si Si7 0.137840 0.435502 0.974579
Si Si8 0.370936 0.262015 0.905056
O O1 0.985467 0.617005 0.179213
O O2 0.243153 0.663691 0.447066
O O3 0.078422 0.710546 0.356573
O O4 0.958168 0.713134 0.065602
O O5 0.714077 0.389148 0.623914
O O6 0.511631 0.307278 0.328083
O O7 0.496143 0.408210 0.255132
O O8 0.241543 0.500000 0.298769
O O9 0.210214 0.432377 0.149042
O O10 0.000000 0.431794 0.000000
O O11 0.206881 0.250638 0.650002
O O12 0.908175 0.288353 0.269343
O O13 0.695362 0.500000 0.993343
O O14 0.793249 0.390689 0.146931
O O15 0.743085 0.428970 0.947561
O O16 0.500000 0.842046 0.500000
O O17 0.802641 0.806788 0.881101
O O18 0.071321 0.500000 0.885953
O O19 0.500000 0.277522 0.000000
#
# Coordination Sequence:
#
# PCOD9224839 Si02
#       8
#     8   8   8   8   8   8   8   8
#     4  12  23  40  65  93 133 173 213 259 325 387
#     4  12  24  36  61  96 130 168 209 267 316 380
#     4  10  20  37  58  85 125 172 211 252 310 376
#     4  11  24  41  63  98 128 173 213 261 326 386
#     4  11  25  44  65  94 124 164 222 275 320 375
#     4  10  24  46  68  93 127 169 211 269 329 385
#     4  10  22  39  63  89 124 170 220 265 310 380
#     4  11  24  41  66  98 133 165 215 262 315 394
#
# _framework density 9.0240880000000008
#
# number of rings (size 3 to 8) (size 9 to 14) (size 15 to 20)
#    0.000    1.125    3.750    2.250    3.500    2.250 
#    2.250    1.875    0.000    0.375    0.000    0.000 
#    0.000    0.000    0.000    0.000    0.000    0.000 
#
# Total GULP energy -178515.105874 kJ/mol
# GULP energy per Si atom -5578.597059 kJ/mol
# Density = 0.900355 g / cm^3
# Si number density = 9.024088 Si / 1000 Ang^3
#
#
#
# Elastic Constant Matrix: (Units=GPa)
#
#
# Indices 1 2 3 4 5 6 
#
# 1 134.4605 57.0325 32.0319 0.0000 -0.1502 0.0000
# 2 57.0325 157.7576 43.9895 0.0000 1.3213 0.0000
# 3 32.0319 43.9895 66.1482 0.0000 1.8261 0.0000
# 4 0.0000 0.0000 0.0000 39.4573 0.0000 -5.5315
# 5 -0.1502 1.3213 1.8261 0.0000 32.0808 0.0000
# 6 0.0000 0.0000 0.0000 -5.5315 0.0000 41.3206
#
#
#
# Elastic Compliance Matrix: (Units=1/GPa)
#
#
# Indices 1 2 3 4 5 6 
#
# 1 0.009176 -0.002552 -0.002755 0.000000 0.000305 0.000000
# 2 -0.002552 0.008491 -0.004408 0.000000 -0.000111 0.000000
# 3 -0.002755 -0.004408 0.019409 0.000000 -0.000936 0.000000
# 4 0.000000 0.000000 0.000000 0.025829 0.000000 0.003458
# 5 0.000305 -0.000111 -0.000936 0.000000 0.031231 0.000000
# 6 0.000000 0.000000 0.000000 0.003458 0.000000 0.024664
#
#
# Mechanical properties :
#
#
# Convention : Reuss Voigt Hill
#
# Bulk Modulus (GPa) = 56.66758 69.38602 63.02680
# Shear Modulus (GPa) = 34.69530 37.59256 36.14393
#
# Velocity S-wave (km/s) = 4.38924 4.56883 4.47994
# Velocity P-wave (km/s) = 7.55999 8.14621 7.85856
#
# Compressibility (1/GPa) = 0.01764678
#
# Stress axis : x y z
#
# Youngs Moduli (GPa) = 108.97890 117.76536 51.52235
#
# Poissons Ratio (x) = 0.30050 0.14194
# Poissons Ratio (y) = 0.27808 0.22712
# Poissons Ratio (z) = 0.30023 0.51914
#
# Static dielectric constant tensor:
#      x y z
#    x 1.619320 0.000000 -0.002030 
#    y 0.000000 1.627010 0.000000 
#    z -0.002030 0.000000 1.656480 
# 
# From -- ./inp_files/272810.got.cif
#   From: 2010.05.17/outbox.ucp.g08.bks.cvg/sg12_137_cif.got.tgz:272810.got - 2010.06.11 11:47:21.
