data_PCOD9224956
_publ_section_title
;
Structure prediction by ZEFSAII (Michael W. Deem and Ramdas Pophale) SiO2 
 PCOD9224956
Probable space group: C 2/M
;
_chemical_formula_sum "Si O2"
_cell_formula_units_Z 28
_cell_length_a 21.000000
_cell_length_b 9.000000
_cell_length_c 15.000000
_cell_angle_alpha 90.000000
_cell_angle_beta 90.000000
_cell_angle_gamma 90.000000
_cell_volume 2835.000000
_symmetry_space_group_name_H-M "C 2/M"
_symmetry_group_IT_number 12
_symmetry_cell_setting 'monoclinic'
loop_
_space_group_symop_operation_xyz
x,y,z
-x,y,-z
-x,-y,-z
x,-y,z
1/2+x,1/2+y,z
1/2-x,1/2+y,-z
1/2-x,1/2-y,-z
1/2+x,1/2-y,z
loop_
_atom_site_type_symbol
_atom_site_label
_atom_site_fract_x
_atom_site_fract_y
_atom_site_fract_z
Si Si1 0.144605 0.674943 0.790050
Si Si2 0.316660 0.322840 0.028140
Si Si3 0.395185 0.674892 0.862981
Si Si4 0.500398 0.821161 0.749702
Si Si5 0.215108 0.828970 0.283154
Si Si6 0.808842 0.328617 0.543375
Si Si7 0.443625 0.818887 0.564098
O O1 0.139625 0.500000 0.814517
O O2 0.161579 0.771750 0.875413
O O3 0.209038 0.685054 0.731677
O O4 0.075420 0.719339 0.751375
O O5 0.309298 0.500000 0.022432
O O6 0.250000 0.250000 0.000000
O O7 0.371486 0.276445 0.959396
O O8 0.410513 0.500000 0.863268
O O9 0.456891 0.761063 0.829168
O O10 0.331511 0.690526 0.801334
O O11 0.462955 0.766029 0.661837
O O12 0.498661 0.000000 0.748614
O O13 0.195478 0.702579 0.351846
O O14 0.204137 0.000000 0.315182
O O15 0.806304 0.500000 0.519703
O O16 0.750000 0.250000 0.500000
O O17 0.878020 0.264947 0.521759
O O18 0.500000 0.779227 0.500000
O O19 0.438733 0.000000 0.568281
#
# Coordination Sequence:
#
# PCOD9224956 Si02
#       7
#     8   8   8   8   8   8   8
#     4  10  22  39  60  88 120 155 196 242 293 345
#     4  11  22  38  60  87 118 155 198 244 294 348
#     4  10  21  38  60  83 116 157 191 235 296 350
#     4  10  21  38  61  87 115 151 197 241 284 345
#     4  10  20  38  61  84 116 155 193 235 289 344
#     4  11  23  38  60  89 118 149 193 241 290 345
#     4   9  19  36  59  84 111 148 191 233 281 339
#
# _framework density 9.8765429999999999
#
# number of rings (size 3 to 8) (size 9 to 14) (size 15 to 20)
#    0.000    1.857    2.857    0.857    2.000    2.857 
#    0.000    2.857    0.000    2.143    0.000    0.000 
#    0.000    0.000    0.000    0.000    0.000    0.000 
#
# Total GULP energy -156070.621708 kJ/mol
# GULP energy per Si atom -5573.950775 kJ/mol
# Density = 0.985406 g / cm^3
# Si number density = 9.876543 Si / 1000 Ang^3
#
#
#
# Elastic Constant Matrix: (Units=GPa)
#
#
# Indices 1 2 3 4 5 6 
#
# 1 143.3659 23.2042 2.1519 0.0000 4.4542 0.0000
# 2 23.2042 -4.7839 -4.2842 0.0000 6.6029 0.0000
# 3 2.1519 -4.2842 9.3932 0.0000 0.7073 0.0000
# 4 0.0000 0.0000 0.0000 25.2933 0.0000 3.6138
# 5 4.4542 6.6029 0.7073 0.0000 23.2851 0.0000
# 6 0.0000 0.0000 0.0000 3.6138 0.0000 23.3618
#
#
#
# Elastic Compliance Matrix: (Units=1/GPa)
#
#
# Indices 1 2 3 4 5 6 
#
# 1 0.004958 0.012902 0.005107 0.000000 -0.004762 0.000000
# 2 0.012902 -0.080030 -0.041074 0.000000 0.021474 0.000000
# 3 0.005107 -0.041074 0.085949 0.000000 0.008059 0.000000
# 4 0.000000 0.000000 0.000000 0.040430 0.000000 -0.006254
# 5 -0.004762 0.021474 0.008059 0.000000 0.037523 0.000000
# 6 0.000000 0.000000 0.000000 -0.006254 0.000000 0.043772
#
#
# Mechanical properties :
#
#
# Convention : Reuss Voigt Hill
#
# Bulk Modulus (GPa) = -28.36782 21.12435 -3.62174
# Shear Modulus (GPa) = 29.94367 22.84827 26.39597
#
# Velocity S-wave (km/s) = 3.89768 3.40471 3.65950
# Velocity P-wave (km/s) = 2.42146 5.11600 4.00231
#
# Compressibility (1/GPa) = -0.03525121
#
# Stress axis : x y z
#
# Youngs Moduli (GPa) = 201.68760 -12.49537 11.63484
#
# Poissons Ratio (x) = 0.16122 -0.05942
# Poissons Ratio (y) = -2.60225 0.47789
# Poissons Ratio (z) = -1.03011 -0.51324
#
# Static dielectric constant tensor:
#      x y z
#    x 1.704400 0.000000 -0.022070 
#    y 0.000000 1.676380 0.000000 
#    z -0.022070 0.000000 1.744630 
# 
# From -- ./inp_files/230856.got.cif
#   From: 2010.05.17/outbox.ucp.g08.bks.cvg/sg12_116_cif.got.tgz:230856.got - 2010.06.11 11:47:21.
