data_PCOD9224025
_publ_section_title
;
Structure prediction by ZEFSAII (Michael W. Deem and Ramdas Pophale) SiO2 
 PCOD9224025
Probable space group: C 2/M
;
_chemical_formula_sum "Si O2"
_cell_formula_units_Z 24
_cell_length_a 12.000000
_cell_length_b 15.000000
_cell_length_c 27.000000
_cell_angle_alpha 90.000000
_cell_angle_beta 150.000000
_cell_angle_gamma 90.000000
_cell_volume 2430.000000
_symmetry_space_group_name_H-M "C 2/M"
_symmetry_group_IT_number 12
_symmetry_cell_setting 'monoclinic'
loop_
_space_group_symop_operation_xyz
x,y,z
-x,y,-z
-x,-y,-z
x,-y,z
1/2+x,1/2+y,z
1/2-x,1/2+y,-z
1/2-x,1/2-y,-z
1/2+x,1/2-y,z
loop_
_atom_site_type_symbol
_atom_site_label
_atom_site_fract_x
_atom_site_fract_y
_atom_site_fract_z
Si Si1 0.977528 0.602617 0.271770
Si Si2 0.575107 0.742774 0.232989
Si Si3 0.548410 0.396376 0.733554
Si Si4 0.071771 0.256997 0.388624
Si Si5 0.971223 0.327778 0.091670
Si Si6 0.494022 0.644751 0.055510
O O1 0.046455 0.500000 0.294356
O O2 0.707642 0.608017 0.167079
O O3 0.035614 0.666745 0.248450
O O4 0.084921 0.655425 0.359116
O O5 0.491685 0.656580 0.230492
O O6 0.470724 0.763588 0.139852
O O7 0.835112 0.734535 0.323806
O O8 0.479160 0.500000 0.706752
O O9 0.433507 0.330960 0.648625
O O10 0.812344 0.388938 0.824121
O O11 0.250000 0.250000 0.500000
O O12 0.006045 0.253317 0.062755
O O13 0.738608 0.378487 0.007354
O O14 0.500000 0.617016 0.000000
#
# Coordination Sequence:
#
# PCOD9224025 Si02
#       6
#     8   8   8   8   8   8
#     4  11  23  38  59  93 123 153 200 248 294 351
#     4  10  19  41  59  84 117 159 192 249 297 354
#     4  10  21  37  60  90 117 152 200 246 294 351
#     4  10  23  44  64  84 116 157 196 246 309 360
#     4  10  19  35  61  84 122 166 199 238 291 348
#     4  11  19  35  60  89 122 164 204 238 292 347
#
# _framework density 9.8765429999999999
#
# number of rings (size 3 to 8) (size 9 to 14) (size 15 to 20)
#    0.000    1.667    6.667    0.000    0.000    7.667 
#    0.000    1.667    0.000    4.500    0.000    0.000 
#    0.000    0.000    0.000    0.000    0.000    0.000 
#
# Total GULP energy -133797.202252 kJ/mol
# GULP energy per Si atom -5574.883427 kJ/mol
# Density = 0.985406 g / cm^3
# Si number density = 9.876543 Si / 1000 Ang^3
#
#
#
# Elastic Constant Matrix: (Units=GPa)
#
#
# Indices 1 2 3 4 5 6 
#
# 1 63.6065 31.0489 -1.3014 0.0000 -18.6162 0.0000
# 2 31.0489 141.8936 -3.8314 0.0000 -16.0806 0.0000
# 3 -1.3014 -3.8314 29.7002 -0.0002 -41.6501 0.0001
# 4 0.0000 0.0000 -0.0002 9.3141 0.0000 3.2396
# 5 -18.6162 -16.0806 -41.6501 0.0000 7.3918 0.0000
# 6 0.0000 0.0000 0.0001 3.2396 0.0000 6.3395
#
#
#
# Elastic Compliance Matrix: (Units=1/GPa)
#
#
# Indices 1 2 3 4 5 6 
#
# 1 0.016292 -0.004276 -0.006471 0.000000 -0.004730 0.000000
# 2 -0.004276 0.007770 -0.001365 0.000000 -0.001554 0.000000
# 3 -0.006471 -0.001365 -0.000897 0.000000 -0.024322 0.000000
# 4 0.000000 0.000000 0.000000 0.130573 -0.000001 -0.066725
# 5 -0.004730 -0.001554 -0.024322 -0.000001 -0.017053 0.000001
# 6 0.000000 0.000000 0.000000 -0.066725 0.000001 0.191839
#
#
# Mechanical properties :
#
#
# Convention : Reuss Voigt Hill
#
# Bulk Modulus (GPa) = -945.83126 31.89249 -456.96938
# Shear Modulus (GPa) = 14.18868 18.56135 16.37502
#
# Velocity S-wave (km/s) = 2.68302 3.06873 2.88233
# Velocity P-wave (km/s) = 21.68567 5.36067 14.85819
#
# Compressibility (1/GPa) = -0.00105727
#
# Stress axis : x y z
#
# Youngs Moduli (GPa) = 61.37939 128.69768 -1114.33353
#
# Poissons Ratio (x) = 0.55028 -7.21043
# Poissons Ratio (y) = 0.26244 -1.52072
# Poissons Ratio (z) = 0.39716 0.17563
#
# Static dielectric constant tensor:
#      x y z
#    x 1.752660 0.000000 0.004790 
#    y 0.000000 1.679600 0.000000 
#    z 0.004790 0.000000 1.777720 
# 
# From -- ./inp_files/204368.got.cif
#   From: 2010.05.17/outbox.ucp.g08.bks.cvg/sg12_103_cif.got.tgz:204368.got - 2010.06.11 11:47:21.
