data_PCOD9224476
_publ_section_title
;
Structure prediction by ZEFSAII (Michael W. Deem and Ramdas Pophale) SiO2 
 PCOD9224476
Probable space group: C 2/M
;
_chemical_formula_sum "Si O2"
_cell_formula_units_Z 28
_cell_length_a 15.000000
_cell_length_b 9.000000
_cell_length_c 30.000000
_cell_angle_alpha 90.000000
_cell_angle_beta 50.000000
_cell_angle_gamma 90.000000
_cell_volume 3102.479995
_symmetry_space_group_name_H-M "C 2/M"
_symmetry_group_IT_number 12
_symmetry_cell_setting 'monoclinic'
loop_
_space_group_symop_operation_xyz
x,y,z
-x,y,-z
-x,-y,-z
x,-y,z
1/2+x,1/2+y,z
1/2-x,1/2+y,-z
1/2-x,1/2-y,-z
1/2+x,1/2-y,z
loop_
_atom_site_type_symbol
_atom_site_label
_atom_site_fract_x
_atom_site_fract_y
_atom_site_fract_z
Si Si1 0.214783 0.321896 0.118870
Si Si2 0.104280 0.670748 0.003341
Si Si3 0.943715 0.179479 0.425098
Si Si4 0.440924 0.179303 0.212629
Si Si5 0.770159 0.178698 0.558625
Si Si6 0.288760 0.319880 0.656361
Si Si7 0.421305 0.676956 0.123688
O O1 0.213866 0.500000 0.110918
O O2 0.280166 0.241760 0.056127
O O3 0.307259 0.294175 0.129419
O O4 0.080032 0.277163 0.173630
O O5 0.126567 0.500000 0.009780
O O6 0.000000 0.668060 0.000000
O O7 0.040338 0.764385 0.062370
O O8 0.885358 0.216786 0.492269
O O9 0.846320 0.247004 0.423643
O O10 0.078136 0.228500 0.373175
O O11 0.943411 0.000000 0.421865
O O12 0.331617 0.228390 0.279771
O O13 0.409044 0.239312 0.174149
O O14 0.441428 0.000000 0.214023
O O15 0.781362 0.219203 0.606602
O O16 0.757561 0.000000 0.559638
O O17 0.289674 0.500000 0.659820
O O18 0.429421 0.500000 0.127093
#
# Coordination Sequence:
#
# PCOD9224476 Si02
#       7
#     8   8   8   8   8   8   8
#     4   9  19  35  53  73 100 132 165 206 254 301
#     4   9  17  31  54  80 101 126 164 208 253 300
#     4   9  17  31  52  78 104 130 165 209 254 297
#     4  10  21  36  52  72  99 135 176 208 242 296
#     4   9  17  31  53  78 102 131 168 208 251 299
#     4   9  18  33  52  72  99 137 174 205 243 298
#     4  10  20  35  54  76 103 132 164 207 256 301
#
# _framework density 9.0250380000000003
#
# number of rings (size 3 to 8) (size 9 to 14) (size 15 to 20)
#    0.000    2.714    0.000    1.286    0.000    6.286 
#    0.000    3.571    0.000    3.429    0.000    0.000 
#    0.000    0.000    0.000    0.000    0.000    0.000 
#
# Total GULP energy -155907.689149 kJ/mol
# GULP energy per Si atom -5568.131755 kJ/mol
# Density = 0.900450 g / cm^3
# Si number density = 9.025038 Si / 1000 Ang^3
#
#
#
# Elastic Constant Matrix: (Units=GPa)
#
#
# Indices 1 2 3 4 5 6 
#
# 1 85.4540 15.8077 55.6428 0.0000 -29.1556 -0.0001
# 2 15.8077 17.9464 19.5167 -0.0001 -9.7154 -0.0001
# 3 55.6428 19.5167 137.8383 0.0000 -34.8770 0.0000
# 4 0.0000 -0.0001 0.0000 25.7359 0.0000 -2.5703
# 5 -29.1556 -9.7154 -34.8770 0.0000 38.6509 0.0000
# 6 -0.0001 -0.0001 0.0000 -2.5703 0.0000 24.8569
#
#
#
# Elastic Compliance Matrix: (Units=1/GPa)
#
#
# Indices 1 2 3 4 5 6 
#
# 1 0.018775 -0.007181 -0.004452 0.000000 0.008340 0.000000
# 2 -0.007181 0.072105 -0.005307 0.000000 0.007919 0.000000
# 3 -0.004452 -0.005307 0.011166 0.000000 0.005383 0.000000
# 4 0.000000 0.000000 0.000000 0.039262 0.000000 0.004060
# 5 0.008340 0.007919 0.005383 0.000000 0.039012 0.000000
# 6 0.000000 0.000000 0.000000 0.004060 0.000000 0.040650
#
#
# Mechanical properties :
#
#
# Convention : Reuss Voigt Hill
#
# Bulk Modulus (GPa) = 14.67009 47.01924 30.84467
# Shear Modulus (GPa) = 18.01340 27.86684 22.94012
#
# Velocity S-wave (km/s) = 3.16249 3.93346 3.56886
# Velocity P-wave (km/s) = 4.63467 6.83633 5.84019
#
# Compressibility (1/GPa) = 0.06816592
#
# Stress axis : x y z
#
# Youngs Moduli (GPa) = 53.26216 13.86864 89.56100
#
# Poissons Ratio (x) = 0.09959 0.39873
# Poissons Ratio (y) = 0.38247 0.47529
# Poissons Ratio (z) = 0.23713 0.07360
#
# Static dielectric constant tensor:
#      x y z
#    x 1.644780 0.000000 0.009210 
#    y 0.000000 1.605210 0.000000 
#    z 0.009210 0.000000 1.627880 
# 
# From -- ./inp_files/374953.got.cif
#   From: 2010.05.17/outbox.ucp.g08.bks.cvg/sg12_188_cif.got.tgz:374953.got - 2010.06.11 11:47:21.
