data_PCOD9224340
_publ_section_title
;
Structure prediction by ZEFSAII (Michael W. Deem and Ramdas Pophale) SiO2 
 PCOD9224340
Probable space group: C 2/M
;
_chemical_formula_sum "Si O2"
_cell_formula_units_Z 24
_cell_length_a 15.000000
_cell_length_b 9.000000
_cell_length_c 27.000000
_cell_angle_alpha 90.000000
_cell_angle_beta 40.000000
_cell_angle_gamma 90.000000
_cell_volume 2342.960837
_symmetry_space_group_name_H-M "C 2/M"
_symmetry_group_IT_number 12
_symmetry_cell_setting 'monoclinic'
loop_
_space_group_symop_operation_xyz
x,y,z
-x,y,-z
-x,-y,-z
x,-y,z
1/2+x,1/2+y,z
1/2-x,1/2+y,-z
1/2-x,1/2-y,-z
1/2+x,1/2-y,z
loop_
_atom_site_type_symbol
_atom_site_label
_atom_site_fract_x
_atom_site_fract_y
_atom_site_fract_z
Si Si1 0.599807 0.670412 0.681236
Si Si2 0.936564 0.678289 0.839586
Si Si3 0.322084 0.180073 0.196152
Si Si4 0.846226 0.820475 0.080245
Si Si5 0.374935 0.168200 0.514549
Si Si6 0.550612 0.332192 0.359301
O O1 0.625147 0.500000 0.687451
O O2 0.520813 0.758829 0.756989
O O3 0.744564 0.736125 0.599173
O O4 0.504287 0.664192 0.673329
O O5 0.940118 0.500000 0.835191
O O6 0.776533 0.724821 0.904979
O O7 0.025661 0.721504 0.849280
O O8 0.302599 0.254413 0.151625
O O9 0.206509 0.229011 0.285889
O O10 0.309937 0.000000 0.197430
O O11 0.848871 0.000000 0.082207
O O12 0.000000 0.769355 0.000000
O O13 0.500000 0.161391 0.500000
O O14 0.439176 0.247351 0.439766
O O15 0.332111 0.000000 0.518653
O O16 0.560125 0.500000 0.374926
#
# Coordination Sequence:
#
# PCOD9224340 Si02
#       6
#     8   8   8   8   8   8
#     4  10  20  35  54  78 110 147 188 232 275 325
#     4  10  21  37  59  85 113 148 188 229 276 333
#     4  10  21  38  59  85 115 147 187 231 276 330
#     4  10  22  40  60  85 116 146 181 228 280 336
#     4  10  21  34  49  75 109 144 186 232 275 323
#     4  10  20  34  53  77 107 144 186 231 274 322
#
# _framework density 10.243449
#
# number of rings (size 3 to 8) (size 9 to 14) (size 15 to 20)
#    0.000    2.000    1.667    1.500    0.000    4.000 
#    0.000    0.000    0.000    0.000    0.000    0.000 
#    0.000    0.000    0.000    0.000    0.000    0.000 
#
# Total GULP energy -133877.251909 kJ/mol
# GULP energy per Si atom -5578.218830 kJ/mol
# Density = 1.022013 g / cm^3
# Si number density = 10.243449 Si / 1000 Ang^3
#
#
#
# Elastic Constant Matrix: (Units=GPa)
#
#
# Indices 1 2 3 4 5 6 
#
# 1 64.5311 -2.3814 0.4719 0.0000 -28.8995 0.0000
# 2 -2.3814 -4.7830 -2.9887 0.0000 -5.1675 0.0000
# 3 0.4719 -2.9887 72.2473 0.0000 -34.8820 0.0000
# 4 0.0000 0.0000 0.0000 23.2387 0.0000 1.4890
# 5 -28.8995 -5.1675 -34.8820 0.0000 38.3878 0.0000
# 6 0.0000 0.0000 0.0000 1.4890 0.0000 0.0503
#
#
#
# Elastic Compliance Matrix: (Units=1/GPa)
#
#
# Indices 1 2 3 4 5 6 
#
# 1 0.022558 -0.036298 0.007468 0.000002 0.018882 -0.000023
# 2 -0.036298 -0.085794 -0.039341 0.000006 -0.074624 -0.000096
# 3 0.007468 -0.039341 0.021954 0.000002 0.020275 -0.000033
# 4 0.000002 0.000006 0.000002 -0.047938 0.000004 1.419730
# 5 0.018882 -0.074624 0.020275 0.000004 0.048643 -0.000061
# 6 -0.000023 -0.000096 -0.000033 1.419730 -0.000061-22.157079
#
#
# Mechanical properties :
#
#
# Convention : Reuss Voigt Hill
#
# Bulk Modulus (GPa) = -5.62984 13.57764 3.97390
# Shear Modulus (GPa) = -0.22603 21.46158 10.61777
#
# Velocity S-wave (km/s) = -0.33252 3.24014 2.27903
# Velocity P-wave (km/s) = 1.70335 4.54311 2.97812
#
# Compressibility (1/GPa) = -0.17762483
#
# Stress axis : x y z
#
# Youngs Moduli (GPa) = 44.32946 -11.65577 45.54936
#
# Poissons Ratio (x) = -0.42308 -0.34014
# Poissons Ratio (y) = 1.60906 1.79197
# Poissons Ratio (z) = -0.33103 -0.45855
#
# Static dielectric constant tensor:
#      x y z
#    x 1.782750 0.000000 -0.064760 
#    y 0.000000 1.725710 0.000000 
#    z -0.064760 0.000000 1.723380 
# 
# From -- ./inp_files/274081.got.cif
#   From: 2010.05.17/outbox.ucp.g08.bks.cvg/sg12_138_cif.got.tgz:274081.got - 2010.06.11 11:47:21.
