data_PCOD9224626
_publ_section_title
;
Structure prediction by ZEFSAII (Michael W. Deem and Ramdas Pophale) SiO2 
 PCOD9224626
Probable space group: C 2/M
;
_chemical_formula_sum "Si O2"
_cell_formula_units_Z 32
_cell_length_a 9.000000
_cell_length_b 21.000000
_cell_length_c 21.000000
_cell_angle_alpha 90.000000
_cell_angle_beta 120.000000
_cell_angle_gamma 90.000000
_cell_volume 3437.254828
_symmetry_space_group_name_H-M "C 2/M"
_symmetry_group_IT_number 12
_symmetry_cell_setting 'monoclinic'
loop_
_space_group_symop_operation_xyz
x,y,z
-x,y,-z
-x,-y,-z
x,-y,z
1/2+x,1/2+y,z
1/2-x,1/2+y,-z
1/2-x,1/2-y,-z
1/2+x,1/2-y,z
loop_
_atom_site_type_symbol
_atom_site_label
_atom_site_fract_x
_atom_site_fract_y
_atom_site_fract_z
Si Si1 0.558839 0.074018 0.185946
Si Si2 0.613465 0.159938 0.078407
Si Si3 0.335629 0.170863 0.199687
Si Si4 0.037296 0.771768 0.873138
Si Si5 0.386167 0.664575 0.626326
Si Si6 0.564941 0.209361 0.644313
Si Si7 0.145027 0.073551 0.647471
Si Si8 0.683934 0.666059 0.533493
O O1 0.635440 0.114174 0.143594
O O2 0.383545 0.108744 0.169839
O O3 0.684832 0.079450 0.273544
O O4 0.537926 0.000000 0.165829
O O5 0.792275 0.185704 0.088466
O O6 0.501019 0.220572 0.079400
O O7 0.500000 0.127385 0.000000
O O8 0.431745 0.228837 0.183360
O O9 0.407844 0.169448 0.285987
O O10 0.135427 0.186918 0.164023
O O11 0.543818 0.716008 0.657232
O O12 0.227430 0.690816 0.634500
O O13 0.491777 0.599848 0.660245
O O14 0.314526 0.649640 0.540506
O O15 0.369167 0.197130 0.581079
O O16 0.163381 0.113176 0.584900
O O17 0.115818 0.000000 0.625235
O O18 0.500000 0.703948 0.500000
#
# Coordination Sequence:
#
# PCOD9224626 Si02
#       8
#     8   8   8   8   8   8   8   8
#     4  10  22  40  60  82 114 153 199 234 274 337
#     4  10  20  36  62  90 124 153 182 228 283 338
#     4  10  20  35  59  85 117 152 188 237 283 337
#     4   9  20  34  58  92 121 147 189 228 282 340
#     4  11  24  34  58  84 116 147 189 239 292 347
#     4  12  22  36  57  86 121 146 185 238 299 345
#     4  10  22  42  61  79 108 154 199 236 280 338
#     4  10  21  38  57  81 111 149 190 234 290 345
#
# _framework density 9.3097549999999991
#
# number of rings (size 3 to 8) (size 9 to 14) (size 15 to 20)
#    0.000    1.750    1.250    3.375    7.000    3.500 
#    0.000    1.875    0.000    4.500    0.000    0.000 
#    0.000    0.000    0.000    0.000    0.000    0.000 
#
# Total GULP energy -178184.123267 kJ/mol
# GULP energy per Si atom -5568.253852 kJ/mol
# Density = 0.928857 g / cm^3
# Si number density = 9.309755 Si / 1000 Ang^3
#
#
#
# Elastic Constant Matrix: (Units=GPa)
#
#
# Indices 1 2 3 4 5 6 
#
# 1 145.5876 36.3243 15.6394 0.0000 13.5288 0.0000
# 2 36.3243 75.5711 6.6558 0.0000 11.5388 0.0000
# 3 15.6394 6.6558 40.9315 0.0000 2.5839 0.0000
# 4 0.0000 0.0000 0.0000 13.4336 0.0000 5.3477
# 5 13.5288 11.5388 2.5839 0.0000 13.4143 0.0000
# 6 0.0000 0.0000 0.0000 5.3477 0.0000 11.2016
#
#
#
# Elastic Compliance Matrix: (Units=1/GPa)
#
#
# Indices 1 2 3 4 5 6 
#
# 1 0.008372 -0.002988 -0.002371 0.000000 -0.005416 0.000000
# 2 -0.002988 0.016414 -0.000836 0.000000 -0.010944 0.000000
# 3 -0.002371 -0.000836 0.025588 0.000000 -0.001818 0.000000
# 4 0.000000 0.000000 0.000000 0.091907 0.000000 -0.043877
# 5 -0.005416 -0.010944 -0.001818 0.000000 0.089774 0.000000
# 6 0.000000 0.000000 0.000000 -0.043877 0.000000 0.110220
#
#
# Mechanical properties :
#
#
# Convention : Reuss Voigt Hill
#
# Bulk Modulus (GPa) = 26.32821 42.14768 34.23794
# Shear Modulus (GPa) = 13.61186 21.17462 17.39324
#
# Velocity S-wave (km/s) = 2.70673 3.37594 3.05969
# Velocity P-wave (km/s) = 4.89279 6.15479 5.55971
#
# Compressibility (1/GPa) = 0.03798207
#
# Stress axis : x y z
#
# Youngs Moduli (GPa) = 119.44039 60.92495 39.08116
#
# Poissons Ratio (x) = 0.18207 0.09267
# Poissons Ratio (y) = 0.35694 0.03268
# Poissons Ratio (z) = 0.28321 0.05095
#
# Static dielectric constant tensor:
#      x y z
#    x 1.637880 0.000000 0.006830 
#    y 0.000000 1.678890 0.000000 
#    z 0.006830 0.000000 1.699920 
# 
# From -- ./inp_files/301769.got.cif
#   From: 2010.05.17/outbox.ucp.g08.bks.cvg/sg12_151_cif.got.tgz:301769.got - 2010.06.11 11:47:21.
