data_PCOD9224838
_publ_section_title
;
Structure prediction by ZEFSAII (Michael W. Deem and Ramdas Pophale) SiO2 
 PCOD9224838
Probable space group: C 2/M
;
_chemical_formula_sum "Si O2"
_cell_formula_units_Z 32
_cell_length_a 21.000000
_cell_length_b 9.000000
_cell_length_c 18.000000
_cell_angle_alpha 90.000000
_cell_angle_beta 90.000000
_cell_angle_gamma 90.000000
_cell_volume 3402.000000
_symmetry_space_group_name_H-M "C 2/M"
_symmetry_group_IT_number 12
_symmetry_cell_setting 'monoclinic'
loop_
_space_group_symop_operation_xyz
x,y,z
-x,y,-z
-x,-y,-z
x,-y,z
1/2+x,1/2+y,z
1/2-x,1/2+y,-z
1/2-x,1/2-y,-z
1/2+x,1/2-y,z
loop_
_atom_site_type_symbol
_atom_site_label
_atom_site_fract_x
_atom_site_fract_y
_atom_site_fract_z
Si Si1 0.211754 0.670292 0.713156
Si Si2 0.093898 0.824023 0.795459
Si Si3 0.945340 0.319928 0.442233
Si Si4 0.013159 0.678198 0.291437
Si Si5 0.143423 0.178835 0.250805
Si Si6 0.191640 0.331507 0.536999
Si Si7 0.176887 0.176953 0.929168
Si Si8 0.190672 0.821694 0.096103
O O1 0.207009 0.500000 0.742334
O O2 0.154923 0.765657 0.748410
O O3 0.284793 0.720932 0.724356
O O4 0.200990 0.664384 0.625311
O O5 0.029645 0.738939 0.775500
O O6 0.115496 0.796465 0.879727
O O7 0.085906 0.000000 0.783191
O O8 0.937340 0.500000 0.437152
O O9 0.971418 0.271556 0.362645
O O10 0.878097 0.260328 0.471106
O O11 0.000000 0.287346 0.500000
O O12 0.016441 0.500000 0.291809
O O13 0.084171 0.743652 0.290304
O O14 0.144522 0.219270 0.163325
O O15 0.137721 0.000000 0.259399
O O16 0.190506 0.500000 0.507631
O O17 0.250000 0.250000 0.500000
O O18 0.238645 0.256014 0.894539
O O19 0.189503 0.000000 0.928277
O O20 0.169582 0.225975 0.014138
O O21 0.195569 0.000000 0.097341
#
# Coordination Sequence:
#
# PCOD9224838 Si02
#       8
#     8   8   8   8   8   8   8   8
#     4  10  20  37  58  81 113 149 186 228 276 329
#     4  11  21  35  57  84 113 144 187 235 274 324
#     4   9  19  37  58  79 106 142 181 223 272 329
#     4  11  23  39  59  79 109 149 188 227 277 335
#     4  10  21  36  56  82 113 146 183 228 278 328
#     4  10  21  37  57  82 114 143 179 226 273 328
#     4   9  18  31  52  83 112 142 183 228 274 326
#     4   9  17  32  54  80 112 147 180 223 278 330
#
# _framework density 9.4062319999999993
#
# number of rings (size 3 to 8) (size 9 to 14) (size 15 to 20)
#    0.000    2.125    2.500    0.750    1.750    2.000 
#    0.000    0.625    0.000    5.625    0.000    0.000 
#    0.000    0.000    0.000    0.000    0.000    0.000 
#
# Total GULP energy -178378.818215 kJ/mol
# GULP energy per Si atom -5574.338069 kJ/mol
# Density = 0.938482 g / cm^3
# Si number density = 9.406232 Si / 1000 Ang^3
#
#
#
# Elastic Constant Matrix: (Units=GPa)
#
#
# Indices 1 2 3 4 5 6 
#
# 1 109.6120 12.2755 9.3866 0.0000 -11.3107 0.0000
# 2 12.2755 10.3467 -4.4595 0.0000 -7.8608 0.0000
# 3 9.3866 -4.4595 22.3800 0.0000 -2.0135 0.0000
# 4 0.0000 0.0000 0.0000 9.6648 0.0000 -4.1228
# 5 -11.3107 -7.8608 -2.0135 0.0000 14.5002 0.0000
# 6 0.0000 0.0000 0.0000 -4.1228 0.0000 32.3476
#
#
#
# Elastic Compliance Matrix: (Units=1/GPa)
#
#
# Indices 1 2 3 4 5 6 
#
# 1 0.011903 -0.020570 -0.009376 0.000000 -0.003169 0.000000
# 2 -0.020570 0.248721 0.069747 0.000000 0.128475 0.000000
# 3 -0.009376 0.069747 0.066082 0.000000 0.039673 0.000000
# 4 0.000000 0.000000 0.000000 0.109417 0.000000 0.013946
# 5 -0.003169 0.128475 0.039673 0.000000 0.141650 0.000000
# 6 0.000000 0.000000 0.000000 0.013946 0.000000 0.032692
#
#
# Mechanical properties :
#
#
# Convention : Reuss Voigt Hill
#
# Bulk Modulus (GPa) = 2.46119 19.63822 11.04971
# Shear Modulus (GPa) = 7.50413 19.64493 13.57453
#
# Velocity S-wave (km/s) = 1.99939 3.23499 2.68912
# Velocity P-wave (km/s) = 2.57706 4.94117 3.94058
#
# Compressibility (1/GPa) = 0.40630736
#
# Stress axis : x y z
#
# Youngs Moduli (GPa) = 84.01466 4.02057 15.13262
#
# Poissons Ratio (x) = 0.08270 0.14189
# Poissons Ratio (y) = 1.72819 -1.05545
# Poissons Ratio (z) = 0.78773 -0.28042
#
# Static dielectric constant tensor:
#      x y z
#    x 1.637090 0.000000 0.034680 
#    y 0.000000 1.653420 0.000000 
#    z 0.034680 0.000000 1.707800 
# 
# From -- ./inp_files/281373.got.cif
#   From: 2010.05.17/outbox.ucp.g08.bks.cvg/sg12_141_cif.got.tgz:281373.got - 2010.06.11 11:47:21.
