data_PCOD9224328
_publ_section_title
;
Structure prediction by ZEFSAII (Michael W. Deem and Ramdas Pophale) SiO2 
 PCOD9224328
Probable space group: C 2/M
;
_chemical_formula_sum "Si O2"
_cell_formula_units_Z 32
_cell_length_a 15.000000
_cell_length_b 9.000000
_cell_length_c 30.000000
_cell_angle_alpha 90.000000
_cell_angle_beta 60.000000
_cell_angle_gamma 90.000000
_cell_volume 3507.402885
_symmetry_space_group_name_H-M "C 2/M"
_symmetry_group_IT_number 12
_symmetry_cell_setting 'monoclinic'
loop_
_space_group_symop_operation_xyz
x,y,z
-x,y,-z
-x,-y,-z
x,-y,z
1/2+x,1/2+y,z
1/2-x,1/2+y,-z
1/2-x,1/2-y,-z
1/2+x,1/2-y,z
loop_
_atom_site_type_symbol
_atom_site_label
_atom_site_fract_x
_atom_site_fract_y
_atom_site_fract_z
Si Si1 0.223089 0.680698 0.889728
Si Si2 0.521413 0.180793 0.883143
Si Si3 0.297044 0.177361 0.606707
Si Si4 0.969478 0.822185 0.615707
Si Si5 0.064620 0.179768 0.687568
Si Si6 0.105556 0.327767 0.002915
Si Si7 0.044357 0.180475 0.192527
Si Si8 0.346604 0.677792 0.500407
O O1 0.222300 0.500000 0.892723
O O2 0.190961 0.736651 0.947577
O O3 0.335004 0.724197 0.843440
O O4 0.130139 0.720120 0.879397
O O5 0.510073 0.251281 0.837430
O O6 0.516412 0.000000 0.881960
O O7 0.430779 0.233733 0.940109
O O8 0.371720 0.225973 0.627378
O O9 0.182138 0.228246 0.648849
O O10 0.342842 0.253457 0.550693
O O11 0.294850 0.000000 0.600091
O O12 0.006139 0.784176 0.656279
O O13 0.056153 0.792436 0.556125
O O14 0.948767 0.000000 0.619204
O O15 0.008951 0.228966 0.747366
O O16 0.067545 0.000000 0.689537
O O17 0.133745 0.500000 0.003856
O O18 0.000000 0.328116 0.000000
O O19 0.039518 0.000000 0.192082
O O20 0.337201 0.500000 0.506191
O O21 0.250000 0.750000 0.500000
#
# Coordination Sequence:
#
# PCOD9224328 Si02
#       8
#     8   8   8   8   8   8   8   8
#     4   8  15  29  50  74  98 133 176 209 250 319
#     4   9  17  31  51  75 102 131 167 217 265 308
#     4  11  22  38  58  83 111 143 179 219 267 321
#     4  10  21  39  59  81 109 143 178 217 264 317
#     4   9  20  39  55  71 105 145 177 215 267 312
#     4   7  11  23  45  71  99 129 163 206 258 312
#     4  10  20  34  53  74  99 137 179 216 258 313
#     4  11  21  36  60  87 116 146 175 214 265 317
#
# _framework density 9.1235599999999994
#
# number of rings (size 3 to 8) (size 9 to 14) (size 15 to 20)
#    0.000    2.625    1.250    2.625    0.000    4.000 
#    0.000    3.750    0.000    3.375    0.000    0.000 
#    0.000    0.000    0.000    0.000    0.000    0.000 
#
# Total GULP energy -178308.997738 kJ/mol
# GULP energy per Si atom -5572.156179 kJ/mol
# Density = 0.910279 g / cm^3
# Si number density = 9.123560 Si / 1000 Ang^3
#
#
#
# Elastic Constant Matrix: (Units=GPa)
#
#
# Indices 1 2 3 4 5 6 
#
# 1 73.9186 16.7723 43.8062 0.0000 13.3207 0.0000
# 2 16.7723 18.0856 23.8096 0.0000 2.2087 0.0000
# 3 43.8062 23.8096 163.5578 0.0000 19.8499 0.0000
# 4 0.0000 0.0000 0.0000 22.6482 0.0000 8.3427
# 5 13.3207 2.2087 19.8499 0.0000 16.9509 0.0000
# 6 0.0000 0.0000 0.0000 8.3427 0.0000 25.2083
#
#
#
# Elastic Compliance Matrix: (Units=1/GPa)
#
#
# Indices 1 2 3 4 5 6 
#
# 1 0.020069 -0.014817 -0.001793 0.000000 -0.011740 0.000000
# 2 -0.014817 0.079490 -0.009045 0.000000 0.011878 0.000000
# 3 -0.001793 -0.009045 0.008856 0.000000 -0.007782 0.000000
# 4 0.000000 0.000000 0.000000 0.050284 0.000000 -0.016642
# 5 -0.011740 0.011878 -0.007782 0.000000 0.075786 0.000000
# 6 0.000000 0.000000 0.000000 -0.016642 0.000000 0.045177
#
#
# Mechanical properties :
#
#
# Convention : Reuss Voigt Hill
#
# Bulk Modulus (GPa) = 17.51168 47.14869 32.33018
# Shear Modulus (GPa) = 14.28548 24.37306 19.32927
#
# Velocity S-wave (km/s) = 2.80105 3.65872 3.25823
# Velocity P-wave (km/s) = 4.48096 6.61388 5.64900
#
# Compressibility (1/GPa) = 0.05710475
#
# Stress axis : x y z
#
# Youngs Moduli (GPa) = 49.82848 12.58016 112.92411
#
# Poissons Ratio (x) = 0.18640 0.20251
# Poissons Ratio (y) = 0.73830 1.02136
# Poissons Ratio (z) = 0.08936 0.11378
#
# Static dielectric constant tensor:
#      x y z
#    x 1.659860 0.000000 0.000210 
#    y 0.000000 1.612550 0.000000 
#    z 0.000210 0.000000 1.645370 
# 
# From -- ./inp_files/375056.got.cif
#   From: 2010.05.17/outbox.ucp.g08.bks.cvg/sg12_188_cif.got.tgz:375056.got - 2010.06.11 11:47:21.
