data_PCOD9224875
_publ_section_title
;
Structure prediction by ZEFSAII (Michael W. Deem and Ramdas Pophale) SiO2 
 PCOD9224875
Probable space group: C 2/M
;
_chemical_formula_sum "Si O2"
_cell_formula_units_Z 32
_cell_length_a 18.000000
_cell_length_b 9.000000
_cell_length_c 30.000000
_cell_angle_alpha 90.000000
_cell_angle_beta 40.000000
_cell_angle_gamma 90.000000
_cell_volume 3123.947783
_symmetry_space_group_name_H-M "C 2/M"
_symmetry_group_IT_number 12
_symmetry_cell_setting 'monoclinic'
loop_
_space_group_symop_operation_xyz
x,y,z
-x,y,-z
-x,-y,-z
x,-y,z
1/2+x,1/2+y,z
1/2-x,1/2+y,-z
1/2-x,1/2-y,-z
1/2+x,1/2-y,z
loop_
_atom_site_type_symbol
_atom_site_label
_atom_site_fract_x
_atom_site_fract_y
_atom_site_fract_z
Si Si1 0.782404 0.322400 0.850139
Si Si2 0.331669 0.675279 0.499920
Si Si3 0.323739 0.677334 0.004623
Si Si4 0.258823 0.323359 0.274155
Si Si5 0.916483 0.818605 0.128069
Si Si6 0.264109 0.830355 0.621490
Si Si7 0.008670 0.832385 0.712750
Si Si8 0.511312 0.828699 0.364563
O O1 0.804026 0.500000 0.834393
O O2 0.679537 0.277908 0.864000
O O3 0.898659 0.232025 0.788175
O O4 0.735113 0.295410 0.921107
O O5 0.317109 0.500000 0.504910
O O6 0.250000 0.750000 0.500000
O O7 0.305155 0.739895 0.560429
O O8 0.458784 0.725935 0.426545
O O9 0.326888 0.500000 0.996591
O O10 0.455890 0.731829 0.942422
O O11 0.250000 0.750000 0.000000
O O12 0.276138 0.500000 0.274339
O O13 0.370028 0.265401 0.197465
O O14 0.212157 0.259592 0.341685
O O15 0.147697 0.312195 0.293692
O O16 0.917092 0.000000 0.128717
O O17 0.124899 0.839121 0.687435
O O18 0.309451 0.000000 0.596648
O O19 0.041410 0.723933 0.657404
O O20 0.985611 0.000000 0.706463
O O21 0.487198 0.000000 0.386195
#
# Coordination Sequence:
#
# PCOD9224875 Si02
#       8
#     8   8   8   8   8   8   8   8
#     4  10  20  37  60  86 114 152 203 246 287 341
#     4  12  24  39  60  86 118 157 198 242 298 354
#     4  10  22  37  59  88 121 155 192 242 294 348
#     4   9  19  36  61  89 114 151 198 243 289 346
#     4   9  17  35  62  86 110 150 202 244 279 337
#     4  10  22  39  59  86 117 152 199 243 293 355
#     4  11  22  35  58  89 119 154 195 243 296 351
#     4  11  21  38  64  89 117 151 197 250 291 344
#
# _framework density 10.243449
#
# number of rings (size 3 to 8) (size 9 to 14) (size 15 to 20)
#    0.000    1.750    2.500    2.250    1.750    3.000 
#    0.000    4.375    0.000    1.500    0.000    0.000 
#    0.000    0.000    0.000    0.000    0.000    0.000 
#
# Total GULP energy -178405.960611 kJ/mol
# GULP energy per Si atom -5575.186269 kJ/mol
# Density = 1.022013 g / cm^3
# Si number density = 10.243449 Si / 1000 Ang^3
#
#
#
# Elastic Constant Matrix: (Units=GPa)
#
#
# Indices 1 2 3 4 5 6 
#
# 1 51.3912 5.2401 28.8003 -0.0001 10.0753 -0.0003
# 2 5.2401 46.8630 31.7431 -0.0005 10.8839 -0.0019
# 3 28.8003 31.7431 108.7214 0.0000 -0.6430 0.0000
# 4 -0.0001 -0.0005 0.0000 24.1925 0.0000 -4.0664
# 5 10.0753 10.8839 -0.6430 0.0000 24.7415 0.0000
# 6 -0.0003 -0.0019 0.0000 -4.0664 0.0000 16.7225
#
#
#
# Elastic Compliance Matrix: (Units=1/GPa)
#
#
# Indices 1 2 3 4 5 6 
#
# 1 0.026542 0.006306 -0.008954 0.000000 -0.013815 0.000001
# 2 0.006306 0.032135 -0.011153 0.000001 -0.016994 0.000004
# 3 -0.008954 -0.011153 0.014879 -0.000001 0.008939 -0.000002
# 4 0.000000 0.000001 -0.000001 0.043097 -0.000001 0.010480
# 5 -0.013815 -0.016994 0.008939 -0.000001 0.053752 -0.000002
# 6 0.000001 0.000004 -0.000002 0.010480 -0.000002 0.062348
#
#
# Mechanical properties :
#
#
# Convention : Reuss Voigt Hill
#
# Bulk Modulus (GPa) = 21.76118 37.61582 29.68850
# Shear Modulus (GPa) = 18.13739 22.54410 20.34074
#
# Velocity S-wave (km/s) = 2.97865 3.32085 3.15440
# Velocity P-wave (km/s) = 4.74077 5.75368 5.27161
#
# Compressibility (1/GPa) = 0.04595339
#
# Stress axis : x y z
#
# Youngs Moduli (GPa) = 37.67630 31.11827 67.20916
#
# Poissons Ratio (x) = -0.19622 0.60177
# Poissons Ratio (y) = -0.23757 0.74961
# Poissons Ratio (z) = 0.33734 0.34707
#
# Static dielectric constant tensor:
#      x y z
#    x 1.760980 0.000000 0.006890 
#    y 0.000000 1.709260 0.000000 
#    z 0.006890 0.000000 1.733100 
# 
# From -- ./inp_files/378208.got.cif
#   From: 2010.05.17/outbox.ucp.g08.bks.cvg/sg12_190_cif.got.tgz:378208.got - 2010.06.11 11:47:21.
