data_PCOD9224162
_publ_section_title
;
Structure prediction by ZEFSAII (Michael W. Deem and Ramdas Pophale) SiO2 
 PCOD9224162
Probable space group: C 2/M
;
_chemical_formula_sum "Si O2"
_cell_formula_units_Z 20
_cell_length_a 24.000000
_cell_length_b 9.000000
_cell_length_c 30.000000
_cell_angle_alpha 90.000000
_cell_angle_beta 160.000000
_cell_angle_gamma 90.000000
_cell_volume 2216.290529
_symmetry_space_group_name_H-M "C 2/M"
_symmetry_group_IT_number 12
_symmetry_cell_setting 'monoclinic'
loop_
_space_group_symop_operation_xyz
x,y,z
-x,y,-z
-x,-y,-z
x,-y,z
1/2+x,1/2+y,z
1/2-x,1/2+y,-z
1/2-x,1/2-y,-z
1/2+x,1/2-y,z
loop_
_atom_site_type_symbol
_atom_site_label
_atom_site_fract_x
_atom_site_fract_y
_atom_site_fract_z
Si Si1 0.876146 0.676943 0.365005
Si Si2 0.608163 0.318651 0.304877
Si Si3 0.523477 0.321086 0.137996
Si Si4 0.460706 0.321015 0.596778
Si Si5 0.342766 0.181379 0.171156
O O1 0.880073 0.500000 0.355974
O O2 0.689086 0.718124 0.235801
O O3 0.000000 0.692603 0.500000
O O4 0.944465 0.777379 0.376934
O O5 0.615044 0.500000 0.313739
O O6 0.566731 0.279749 0.221937
O O7 0.779162 0.251242 0.452684
O O8 0.459896 0.248043 0.221104
O O9 0.515679 0.500000 0.132247
O O10 0.347089 0.275108 0.984122
O O11 0.446110 0.500000 0.592063
O O12 0.570877 0.248867 0.719320
O O13 0.349445 0.000000 0.177977
#
# Coordination Sequence:
#
# PCOD9224162 Si02
#       5
#     8   8   8   8   8
#     4  10  19  39  67  90 116 154 199 246 295 355
#     4  11  21  40  65  90 119 157 201 247 297 355
#     4   9  20  38  64  92 119 155 198 242 299 359
#     4  12  25  40  59  89 123 160 201 246 297 349
#     4  11  23  40  60  89 124 159 198 244 298 356
#
# _framework density 9.0240880000000008
#
# number of rings (size 3 to 8) (size 9 to 14) (size 15 to 20)
#    0.000    1.400    2.000    4.200    0.000    1.200 
#    0.000    9.000    0.000    0.000    0.000    0.000 
#    0.000    0.000    0.000    0.000    0.000    0.000 
#
# Total GULP energy -111544.477294 kJ/mol
# GULP energy per Si atom -5577.223865 kJ/mol
# Density = 0.900355 g / cm^3
# Si number density = 9.024088 Si / 1000 Ang^3
#
#
#
# Elastic Constant Matrix: (Units=GPa)
#
#
# Indices 1 2 3 4 5 6 
#
# 1 71.1919 25.8185 51.9874 0.0016 8.5529 -0.0002
# 2 25.8185 97.4574 47.6723 -0.0066 -0.5630 0.0001
# 3 51.9874 47.6723 211.5851 -0.0034 10.1084 0.0009
# 4 0.0016 -0.0066 -0.0034 30.5766 0.0004 2.6214
# 5 8.5529 -0.5630 10.1084 0.0004 39.0878 0.0001
# 6 -0.0002 0.0001 0.0009 2.6214 0.0001 33.4523
#
#
#
# Elastic Compliance Matrix: (Units=1/GPa)
#
#
# Indices 1 2 3 4 5 6 
#
# 1 0.018176 -0.003058 -0.003630 -0.000002 -0.003083 0.000000
# 2 -0.003058 0.012074 -0.002035 0.000003 0.001369 0.000000
# 3 -0.003630 -0.002035 0.006116 0.000000 -0.000817 0.000000
# 4 -0.000002 0.000003 0.000000 0.032926 0.000000 -0.002580
# 5 -0.003083 0.001369 -0.000817 0.000000 0.026489 0.000000
# 6 0.000000 0.000000 0.000000 -0.002580 0.000000 0.030096
#
#
# Mechanical properties :
#
#
# Convention : Reuss Voigt Hill
#
# Bulk Modulus (GPa) = 52.84840 70.13231 61.49035
# Shear Modulus (GPa) = 33.41632 37.60709 35.51171
#
# Velocity S-wave (km/s) = 4.30758 4.56971 4.44058
# Velocity P-wave (km/s) = 7.35430 8.17226 7.77405
#
# Compressibility (1/GPa) = 0.01892205
#
# Stress axis : x y z
#
# Youngs Moduli (GPa) = 55.01637 82.82239 163.51833
#
# Poissons Ratio (x) = 0.25323 0.59355
# Poissons Ratio (y) = 0.16821 0.33269
# Poissons Ratio (z) = 0.19970 0.16851
#
# Static dielectric constant tensor:
#      x y z
#    x 1.658460 0.000000 -0.000230 
#    y 0.000000 1.608750 0.000000 
#    z -0.000230 0.000000 1.615870 
# 
# From -- ./inp_files/92761.got.cif
#   From: 2010.05.17/outbox.ucp.g08.bks.cvg/sg12_47_cif.got.tgz:92761.got - 2010.06.11 11:47:21.
