data_PCOD9224000
_publ_section_title
;
Structure prediction by ZEFSAII (Michael W. Deem and Ramdas Pophale) SiO2 
 PCOD9224000
Probable space group: C 2/M
;
_chemical_formula_sum "Si O2"
_cell_formula_units_Z 32
_cell_length_a 15.000000
_cell_length_b 9.000000
_cell_length_c 30.000000
_cell_angle_alpha 90.000000
_cell_angle_beta 130.000000
_cell_angle_gamma 90.000000
_cell_volume 3102.479995
_symmetry_space_group_name_H-M "C 2/M"
_symmetry_group_IT_number 12
_symmetry_cell_setting 'monoclinic'
loop_
_space_group_symop_operation_xyz
x,y,z
-x,y,-z
-x,-y,-z
x,-y,z
1/2+x,1/2+y,z
1/2-x,1/2+y,-z
1/2-x,1/2-y,-z
1/2+x,1/2-y,z
loop_
_atom_site_type_symbol
_atom_site_label
_atom_site_fract_x
_atom_site_fract_y
_atom_site_fract_z
Si Si1 0.135870 0.172026 0.444276
Si Si2 0.799269 0.819761 0.684445
Si Si3 0.797503 0.326904 0.082864
Si Si4 0.436488 0.673428 0.051999
Si Si5 0.730176 0.823713 0.759759
Si Si6 0.323944 0.176012 0.877995
Si Si7 0.937871 0.320735 0.434485
Si Si8 0.010469 0.827563 0.314930
O O1 0.250000 0.250000 0.500000
O O2 0.114716 0.173540 0.384705
O O3 0.024857 0.260731 0.425671
O O4 0.135055 0.000000 0.458318
O O5 0.784619 0.778575 0.730473
O O6 0.690469 0.765859 0.619557
O O7 0.925191 0.775816 0.708465
O O8 0.795157 0.000000 0.680300
O O9 0.821005 0.500000 0.098781
O O10 0.896458 0.253933 0.084362
O O11 0.772945 0.236593 0.119415
O O12 0.675748 0.317257 0.016126
O O13 0.461986 0.500000 0.067611
O O14 0.551025 0.752483 0.070468
O O15 0.787592 0.734353 0.818057
O O16 0.595929 0.779080 0.710835
O O17 0.743003 0.000000 0.770989
O O18 0.331479 0.000000 0.882472
O O19 0.935555 0.500000 0.434470
O O20 0.000000 0.270956 0.500000
O O21 0.970113 0.000000 0.299660
#
# Coordination Sequence:
#
# PCOD9224000 Si02
#       8
#     8   8   8   8   8   8   8   8
#     4  11  22  35  56  85 120 153 191 242 294 361
#     4   9  19  37  61  84 111 151 193 235 297 365
#     4  10  21  39  64  95 130 167 210 259 312 371
#     4  10  21  39  64  95 131 168 207 257 315 372
#     4  11  23  41  62  85 116 156 205 259 306 365
#     4  12  25  40  61  89 125 168 215 263 311 367
#     4  10  19  35  59  85 116 151 191 238 295 363
#     4  10  21  40  62  85 114 152 195 243 302 367
#
# _framework density 10.314329000000001
#
# number of rings (size 3 to 8) (size 9 to 14) (size 15 to 20)
#    0.000    1.625    1.250    3.750    0.000    6.750 
#    0.000    5.625    0.000    0.000    0.000    0.000 
#    0.000    0.000    0.000    0.000    0.000    0.000 
#
# Total GULP energy -178622.016669 kJ/mol
# GULP energy per Si atom -5581.938021 kJ/mol
# Density = 1.029085 g / cm^3
# Si number density = 10.314329 Si / 1000 Ang^3
#
#
#
# Elastic Constant Matrix: (Units=GPa)
#
#
# Indices 1 2 3 4 5 6 
#
# 1 80.9256 8.5137 0.1210 0.0000 -29.0139 0.0000
# 2 8.5137 58.9523 24.5076 0.0000 -16.6974 0.0000
# 3 0.1210 24.5076 26.1435 0.0000 -6.9605 0.0000
# 4 0.0000 0.0000 0.0000 21.4696 0.0000 2.4239
# 5 -29.0139 -16.6974 -6.9605 0.0000 6.9733 0.0000
# 6 0.0000 0.0000 0.0000 2.4239 0.0000 21.3715
#
#
#
# Elastic Compliance Matrix: (Units=1/GPa)
#
#
# Indices 1 2 3 4 5 6 
#
# 1 -0.004228 -0.013187 -0.000966 0.000000 -0.050133 0.000000
# 2 -0.013187 0.022289 -0.028917 0.000000 -0.030362 0.000000
# 3 -0.000966 -0.028917 0.062455 0.000000 -0.010918 0.000000
# 4 0.000000 0.000000 0.000000 0.047182 0.000000 -0.005351
# 5 -0.050133 -0.030362 -0.010918 0.000000 -0.148786 0.000000
# 6 0.000000 0.000000 0.000000 -0.005351 0.000000 0.047398
#
#
# Mechanical properties :
#
#
# Convention : Reuss Voigt Hill
#
# Bulk Modulus (GPa) = -177.81285 25.81179 -76.00053
# Shear Modulus (GPa) = 45.21810 18.82147 32.01979
#
# Velocity S-wave (km/s) = 4.68696 3.02386 3.94407
# Velocity P-wave (km/s) = 7.55605 4.97307 4.02260
#
# Compressibility (1/GPa) = -0.00562389
#
# Stress axis : x y z
#
# Youngs Moduli (GPa) = -236.51017 44.86545 16.01146
#
# Poissons Ratio (x) = 0.59166 0.01546
# Poissons Ratio (y) = -3.11894 0.46300
# Poissons Ratio (z) = -0.22841 1.29737
#
# Static dielectric constant tensor:
#      x y z
#    x 1.795610 0.000000 -0.074540 
#    y 0.000000 1.674040 0.000000 
#    z -0.074540 0.000000 1.815960 
# 
# From -- ./inp_files/375601.got.cif
#   From: 2010.05.17/outbox.ucp.g08.bks.cvg/sg12_188_cif.got.tgz:375601.got - 2010.06.11 11:47:21.
