data_PCOD9224960
_publ_section_title
;
Structure prediction by ZEFSAII (Michael W. Deem and Ramdas Pophale) SiO2 
 PCOD9224960
Probable space group: C 2/M
;
_chemical_formula_sum "Si O2"
_cell_formula_units_Z 32
_cell_length_a 30.000000
_cell_length_b 9.000000
_cell_length_c 24.000000
_cell_angle_alpha 90.000000
_cell_angle_beta 150.000000
_cell_angle_gamma 90.000000
_cell_volume 3240.000000
_symmetry_space_group_name_H-M "C 2/M"
_symmetry_group_IT_number 12
_symmetry_cell_setting 'monoclinic'
loop_
_space_group_symop_operation_xyz
x,y,z
-x,y,-z
-x,-y,-z
x,-y,z
1/2+x,1/2+y,z
1/2-x,1/2+y,-z
1/2-x,1/2-y,-z
1/2+x,1/2-y,z
loop_
_atom_site_type_symbol
_atom_site_label
_atom_site_fract_x
_atom_site_fract_y
_atom_site_fract_z
Si Si1 0.895114 0.177451 0.071093
Si Si2 0.210511 0.820016 0.714702
Si Si3 0.951851 0.178867 0.259443
Si Si4 0.142073 0.821307 0.520573
Si Si5 0.595021 0.829955 0.112829
Si Si6 0.218760 0.174169 0.410117
Si Si7 0.446381 0.166766 0.803911
Si Si8 0.807125 0.322434 0.184214
O O1 0.929329 0.217019 0.170599
O O2 0.953830 0.272345 0.091477
O O3 0.908454 0.000000 0.077838
O O4 0.791258 0.209052 0.947678
O O5 0.149371 0.784316 0.594414
O O6 0.312000 0.770117 0.809385
O O7 0.184574 0.747755 0.745161
O O8 0.210336 0.000000 0.719769
O O9 0.880034 0.254478 0.221849
O O10 0.050265 0.218377 0.389406
O O11 0.944122 0.000000 0.255220
O O12 0.223285 0.743424 0.576842
O O13 0.153296 0.000000 0.528361
O O14 0.594553 0.840087 0.178827
O O15 0.588518 0.000000 0.082838
O O16 0.500000 0.751707 0.000000
O O17 0.250000 0.250000 0.500000
O O18 0.115282 0.215729 0.293693
O O19 0.231611 0.000000 0.425539
O O20 0.441396 0.000000 0.774896
O O21 0.816912 0.500000 0.198346
#
# Coordination Sequence:
#
# PCOD9224960 Si02
#       8
#     8   8   8   8   8   8   8   8
#     4  10  22  40  60  89 125 159 199 254 312 372
#     4  10  20  38  61  85 121 161 204 251 300 366
#     4  10  22  41  65  87 113 154 204 255 314 373
#     4  10  21  40  64  90 120 157 204 258 307 364
#     4   9  17  31  54  84 117 154 196 240 284 345
#     4  12  24  38  59  87 124 164 203 247 299 360
#     4  11  21  36  60  90 122 158 201 243 296 359
#     4  11  24  40  60  88 123 158 202 257 313 367
#
# _framework density 9.8765429999999999
#
# number of rings (size 3 to 8) (size 9 to 14) (size 15 to 20)
#    0.000    1.625    1.250    3.750    0.000    5.000 
#    0.000    2.500    0.000    2.625    0.000    0.000 
#    0.000    0.000    0.000    0.000    0.000    0.000 
#
# Total GULP energy -178639.070184 kJ/mol
# GULP energy per Si atom -5582.470943 kJ/mol
# Density = 0.985406 g / cm^3
# Si number density = 9.876543 Si / 1000 Ang^3
#
#
#
# Elastic Constant Matrix: (Units=GPa)
#
#
# Indices 1 2 3 4 5 6 
#
# 1 79.9923 30.6215 7.3394 0.0000 1.6266 0.0000
# 2 30.6215 39.6125 31.2146 0.0000 3.6264 0.0000
# 3 7.3394 31.2146 84.8933 0.0000 -2.2188 0.0000
# 4 0.0000 0.0000 0.0000 24.2591 0.0000 3.8755
# 5 1.6266 3.6264 -2.2188 0.0000 35.7275 0.0000
# 6 0.0000 0.0000 0.0000 3.8755 0.0000 27.8773
#
#
#
# Elastic Compliance Matrix: (Units=1/GPa)
#
#
# Indices 1 2 3 4 5 6 
#
# 1 0.019435 -0.019516 0.005533 0.000000 0.001440 0.000000
# 2 -0.019516 0.055852 -0.019005 0.000000 -0.005961 0.000000
# 3 0.005533 -0.019005 0.018363 0.000000 0.002818 0.000000
# 4 0.000000 0.000000 0.000000 0.042158 0.000000 -0.005861
# 5 0.001440 -0.005961 0.002818 0.000000 0.028704 0.000000
# 6 0.000000 0.000000 0.000000 -0.005861 0.000000 0.036686
#
#
# Mechanical properties :
#
#
# Convention : Reuss Voigt Hill
#
# Bulk Modulus (GPa) = 36.13374 38.09435 37.11404
# Shear Modulus (GPa) = 18.08982 26.59428 22.34205
#
# Velocity S-wave (km/s) = 3.02950 3.67322 3.36678
# Velocity P-wave (km/s) = 5.52897 6.10878 5.82610
#
# Compressibility (1/GPa) = 0.02767497
#
# Stress axis : x y z
#
# Youngs Moduli (GPa) = 51.45365 17.90435 54.45807
#
# Poissons Ratio (x) = 0.34942 -0.30132
# Poissons Ratio (y) = 1.00415 1.03498
# Poissons Ratio (z) = -0.28470 0.34027
#
# Static dielectric constant tensor:
#      x y z
#    x 1.681650 0.000000 0.002790 
#    y 0.000000 1.674490 0.000000 
#    z 0.002790 0.000000 1.758800 
# 
# From -- ./inp_files/249874.got.cif
#   From: 2010.05.17/outbox.ucp.g08.bks.cvg/sg12_125_cif.got.tgz:249874.got - 2010.06.11 11:47:21.
