data_PCOD9224033
_publ_section_title
;
Structure prediction by ZEFSAII (Michael W. Deem and Ramdas Pophale) SiO2 
 PCOD9224033
Probable space group: C 2/M
;
_chemical_formula_sum "Si O2"
_cell_formula_units_Z 24
_cell_length_a 21.000000
_cell_length_b 12.000000
_cell_length_c 12.000000
_cell_angle_alpha 90.000000
_cell_angle_beta 130.000000
_cell_angle_gamma 90.000000
_cell_volume 2316.518396
_symmetry_space_group_name_H-M "C 2/M"
_symmetry_group_IT_number 12
_symmetry_cell_setting 'monoclinic'
loop_
_space_group_symop_operation_xyz
x,y,z
-x,y,-z
-x,-y,-z
x,-y,z
1/2+x,1/2+y,z
1/2-x,1/2+y,-z
1/2-x,1/2-y,-z
1/2+x,1/2-y,z
loop_
_atom_site_type_symbol
_atom_site_label
_atom_site_fract_x
_atom_site_fract_y
_atom_site_fract_z
Si Si1 0.238513 0.799647 0.110444
Si Si2 0.545580 0.706684 0.160167
Si Si3 0.405428 0.760871 0.387350
Si Si4 0.340948 0.372823 0.526710
Si Si5 0.673212 0.129376 0.224373
Si Si6 0.083361 0.876171 0.824998
O O1 0.327235 0.837302 0.260744
O O2 0.205268 0.705517 0.158380
O O3 0.250000 0.750000 0.000000
O O4 0.163599 0.881191 0.995847
O O5 0.622128 0.645156 0.308480
O O6 0.585752 0.822033 0.166004
O O7 0.477126 0.709014 0.179745
O O8 0.500000 0.655733 0.000000
O O9 0.500000 0.805017 0.500000
O O10 0.383001 0.706704 0.481393
O O11 0.403307 0.667060 0.285949
O O12 0.357674 0.500000 0.511426
O O13 0.242025 0.358062 0.399741
O O14 0.669437 0.000000 0.188766
O O15 0.046433 0.000000 0.779655
#
# Coordination Sequence:
#
# PCOD9224033 Si02
#       6
#     8   8   8   8   8   8
#     4   9  20  38  58  86 118 149 190 237 297 345
#     4  12  23  37  57  86 124 156 194 241 296 354
#     4  10  19  35  63  89 113 152 199 247 291 339
#     4  10  21  37  61  87 117 153 195 247 295 348
#     4  10  22  42  61  83 114 159 208 243 284 345
#     4  11  22  37  58  89 125 155 191 239 301 357
#
# _framework density 10.360374999999999
#
# number of rings (size 3 to 8) (size 9 to 14) (size 15 to 20)
#    0.000    1.667    3.333    1.500    0.000    6.333 
#    0.000    0.000    0.000    0.500    0.000    0.000 
#    0.000    0.000    0.000    0.000    0.000    0.000 
#
# Total GULP energy -133672.765168 kJ/mol
# GULP energy per Si atom -5569.698549 kJ/mol
# Density = 1.033679 g / cm^3
# Si number density = 10.360375 Si / 1000 Ang^3
#
#
#
# Elastic Constant Matrix: (Units=GPa)
#
#
# Indices 1 2 3 4 5 6 
#
# 1 63.5969 25.9791 26.9601 0.0000 13.0278 0.0000
# 2 25.9791 43.9423 17.7449 0.0000 4.5023 0.0000
# 3 26.9601 17.7449 164.2951 0.0000 10.0351 0.0000
# 4 0.0000 0.0000 0.0000 10.4881 0.0000 -2.1125
# 5 13.0278 4.5023 10.0351 0.0000 47.7801 0.0000
# 6 0.0000 0.0000 0.0000 -2.1125 0.0000 1.2217
#
#
#
# Elastic Compliance Matrix: (Units=1/GPa)
#
#
# Indices 1 2 3 4 5 6 
#
# 1 0.022429 -0.011941 -0.002113 0.000000 -0.004547 0.000000
# 2 -0.011941 0.030293 -0.001354 0.000000 0.000686 0.000000
# 3 -0.002113 -0.001354 0.006622 0.000000 -0.000687 0.000000
# 4 0.000000 0.000000 0.000000 0.146295 0.000000 0.252952
# 5 -0.004547 0.000686 -0.000687 0.000000 0.022249 0.000000
# 6 0.000000 0.000000 0.000000 0.252952 0.000000 1.255866
#
#
# Mechanical properties :
#
#
# Convention : Reuss Voigt Hill
#
# Bulk Modulus (GPa) = 35.05438 45.91138 40.48288
# Shear Modulus (GPa) = 3.28067 25.30800 14.29433
#
# Velocity S-wave (km/s) = 1.25965 3.49862 2.62936
# Velocity P-wave (km/s) = 4.36691 6.20691 5.36636
#
# Compressibility (1/GPa) = 0.02852711
#
# Stress axis : x y z
#
# Youngs Moduli (GPa) = 44.58496 33.01042 151.02125
#
# Poissons Ratio (x) = 0.39418 0.31912
# Poissons Ratio (y) = 0.53240 0.20452
# Poissons Ratio (z) = 0.09421 0.04471
#
# Static dielectric constant tensor:
#      x y z
#    x 1.791530 0.000000 0.083220 
#    y 0.000000 1.790750 0.000000 
#    z 0.083220 0.000000 1.790340 
# 
# From -- ./inp_files/165827.got.cif
#   From: 2010.05.17/outbox.ucp.g08.bks.cvg/sg12_83_cif.got.tgz:165827.got - 2010.06.11 11:47:21.
