data_PCOD9224619
_publ_section_title
;
Structure prediction by ZEFSAII (Michael W. Deem and Ramdas Pophale) SiO2 
 PCOD9224619
Probable space group: C 2/M
;
_chemical_formula_sum "Si O2"
_cell_formula_units_Z 20
_cell_length_a 21.000000
_cell_length_b 9.000000
_cell_length_c 15.000000
_cell_angle_alpha 90.000000
_cell_angle_beta 130.000000
_cell_angle_gamma 90.000000
_cell_volume 2171.735996
_symmetry_space_group_name_H-M "C 2/M"
_symmetry_group_IT_number 12
_symmetry_cell_setting 'monoclinic'
loop_
_space_group_symop_operation_xyz
x,y,z
-x,y,-z
-x,-y,-z
x,-y,z
1/2+x,1/2+y,z
1/2-x,1/2+y,-z
1/2-x,1/2-y,-z
1/2+x,1/2-y,z
loop_
_atom_site_type_symbol
_atom_site_label
_atom_site_fract_x
_atom_site_fract_y
_atom_site_fract_z
Si Si1 0.629926 0.175869 0.326543
Si Si2 0.799169 0.324116 0.418895
Si Si3 0.919844 0.677822 0.365605
Si Si4 0.344092 0.181747 0.098434
Si Si5 0.978892 0.821254 0.085837
O O1 0.717921 0.226381 0.363969
O O2 0.638803 0.201538 0.441257
O O3 0.558114 0.269789 0.215378
O O4 0.615546 0.000000 0.300208
O O5 0.776948 0.500000 0.402540
O O6 0.843044 0.295148 0.364219
O O7 0.933564 0.500000 0.369350
O O8 0.890067 0.723272 0.236730
O O9 0.000000 0.731249 0.500000
O O10 0.401301 0.242008 0.067365
O O11 0.339628 0.000000 0.092599
O O12 0.250000 0.250000 0.000000
O O13 0.967212 0.000000 0.078730
O O14 0.000000 0.783286 0.000000
#
# Coordination Sequence:
#
# PCOD9224619 Si02
#       5
#     8   8   8   8   8
#     4  10  20  35  58  89 121 153 198 254 308 359
#     4   9  18  34  58  87 121 159 198 242 300 371
#     4   9  18  35  61  88 117 159 205 245 297 367
#     4  11  24  42  65  94 129 164 206 256 311 374
#     4  11  25  43  63  85 117 163 213 257 308 370
#
# _framework density 9.2092229999999997
#
# number of rings (size 3 to 8) (size 9 to 14) (size 15 to 20)
#    0.000    2.000    0.000    3.000    2.800    5.600 
#    0.000    1.000    0.000    4.200    0.000    0.000 
#    0.000    0.000    0.000    0.000    0.000    0.000 
#
# Total GULP energy -111462.386873 kJ/mol
# GULP energy per Si atom -5573.119344 kJ/mol
# Density = 0.918826 g / cm^3
# Si number density = 9.209223 Si / 1000 Ang^3
#
#
#
# Elastic Constant Matrix: (Units=GPa)
#
#
# Indices 1 2 3 4 5 6 
#
# 1 119.5422 35.7575 63.5345 0.0000 -19.2601 0.0000
# 2 35.7575 64.1693 33.0549 0.0000 -5.1354 0.0000
# 3 63.5345 33.0549 123.8080 0.0000 -4.3614 0.0000
# 4 0.0000 0.0000 0.0000 36.5612 0.0000 2.5251
# 5 -19.2601 -5.1354 -4.3614 0.0000 38.0149 0.0000
# 6 0.0000 0.0000 0.0000 2.5251 0.0000 33.4342
#
#
#
# Elastic Compliance Matrix: (Units=1/GPa)
#
#
# Indices 1 2 3 4 5 6 
#
# 1 0.013510 -0.004184 -0.005618 0.000000 0.005635 0.000000
# 2 -0.004184 0.019501 -0.003054 0.000000 0.000164 0.000000
# 3 -0.005618 -0.003054 0.011708 0.000000 -0.001915 0.000000
# 4 0.000000 0.000000 0.000000 0.027495 0.000000 -0.002076
# 5 0.005635 0.000164 -0.001915 0.000000 0.028963 0.000000
# 6 0.000000 0.000000 0.000000 -0.002076 0.000000 0.030066
#
#
# Mechanical properties :
#
#
# Convention : Reuss Voigt Hill
#
# Bulk Modulus (GPa) = 52.60655 63.57926 58.09291
# Shear Modulus (GPa) = 30.62042 33.28024 31.95033
#
# Velocity S-wave (km/s) = 4.08178 4.25537 4.16948
# Velocity P-wave (km/s) = 7.13011 7.66411 7.40193
#
# Compressibility (1/GPa) = 0.01900904
#
# Stress axis : x y z
#
# Youngs Moduli (GPa) = 74.01811 51.27853 85.41444
#
# Poissons Ratio (x) = 0.21453 0.47982
# Poissons Ratio (y) = 0.30967 0.26084
# Poissons Ratio (z) = 0.41580 0.15660
#
# Static dielectric constant tensor:
#      x y z
#    x 1.653620 0.000000 0.004600 
#    y 0.000000 1.619240 0.000000 
#    z 0.004600 0.000000 1.659340 
# 
# From -- ./inp_files/230620.got.cif
#   From: 2010.05.17/outbox.ucp.g08.bks.cvg/sg12_116_cif.got.tgz:230620.got - 2010.06.11 11:47:21.
