data_PCOD9224833
_publ_section_title
;
Structure prediction by ZEFSAII (Michael W. Deem and Ramdas Pophale) SiO2 
 PCOD9224833
Probable space group: C 2/M
;
_chemical_formula_sum "Si O2"
_cell_formula_units_Z 32
_cell_length_a 30.000000
_cell_length_b 9.000000
_cell_length_c 24.000000
_cell_angle_alpha 90.000000
_cell_angle_beta 30.000000
_cell_angle_gamma 90.000000
_cell_volume 3240.000000
_symmetry_space_group_name_H-M "C 2/M"
_symmetry_group_IT_number 12
_symmetry_cell_setting 'monoclinic'
loop_
_space_group_symop_operation_xyz
x,y,z
-x,y,-z
-x,-y,-z
x,-y,z
1/2+x,1/2+y,z
1/2-x,1/2+y,-z
1/2-x,1/2-y,-z
1/2+x,1/2-y,z
loop_
_atom_site_type_symbol
_atom_site_label
_atom_site_fract_x
_atom_site_fract_y
_atom_site_fract_z
Si Si1 0.628698 0.165141 0.017148
Si Si2 0.956798 0.665896 0.273371
Si Si3 0.516669 0.675495 0.314215
Si Si4 0.431320 0.671560 0.026689
Si Si5 0.282090 0.177351 0.407904
Si Si6 0.691405 0.824275 0.170189
Si Si7 0.279653 0.831381 0.731742
Si Si8 0.657083 0.677168 0.443195
O O1 0.555619 0.156279 0.143511
O O2 0.660919 0.000000 0.967132
O O3 0.576967 0.234421 0.020489
O O4 0.711523 0.260246 0.948823
O O5 0.931256 0.500000 0.322356
O O6 0.964468 0.784407 0.313862
O O7 0.888297 0.702393 0.297700
O O8 0.530760 0.500000 0.302021
O O9 0.610358 0.753587 0.224152
O O10 0.443637 0.729247 0.437788
O O11 0.455954 0.500000 0.987247
O O12 0.327858 0.671206 0.157011
O O13 0.500000 0.724649 0.000000
O O14 0.250000 0.250000 0.500000
O O15 0.227769 0.234566 0.413213
O O16 0.267942 0.000000 0.425374
O O17 0.688898 0.794814 0.239738
O O18 0.690473 0.000000 0.163202
O O19 0.314913 0.720645 0.648185
O O20 0.308598 0.000000 0.688336
O O21 0.655974 0.500000 0.450378
#
# Coordination Sequence:
#
# PCOD9224833 Si02
#       8
#     8   8   8   8   8   8   8   8
#     4  10  21  37  58  86 115 147 190 237 285 338
#     4  10  22  38  58  85 118 153 191 232 281 340
#     4  11  23  39  60  86 113 147 194 239 285 338
#     4   9  19  36  55  80 115 153 193 235 280 335
#     4  10  20  37  57  81 116 154 189 231 279 333
#     4  10  22  42  63  83 113 150 189 237 289 340
#     4   9  20  37  57  82 111 148 192 232 278 338
#     4  10  22  37  56  85 119 150 186 234 284 334
#
# _framework density 9.8765429999999999
#
# number of rings (size 3 to 8) (size 9 to 14) (size 15 to 20)
#    0.000    2.125    1.250    1.875    1.750    6.250 
#    0.000    2.500    0.000    0.000    0.000    0.000 
#    0.000    0.000    0.000    0.000    0.000    0.000 
#
# Total GULP energy -178250.944082 kJ/mol
# GULP energy per Si atom -5570.342003 kJ/mol
# Density = 0.985406 g / cm^3
# Si number density = 9.876543 Si / 1000 Ang^3
#
#
#
# Elastic Constant Matrix: (Units=GPa)
#
#
# Indices 1 2 3 4 5 6 
#
# 1 -6.7465 8.1248 5.4190 0.0070 -29.9119 -0.0031
# 2 8.1248 22.9978 25.4559 0.0176 -4.5574 -0.0091
# 3 5.4190 25.4559 47.5238 0.0169 -8.7773 -0.0056
# 4 0.0070 0.0176 0.0169 6.5124 -0.0050 5.5796
# 5 -29.9119 -4.5574 -8.7773 -0.0050 16.9181 0.0010
# 6 -0.0031 -0.0091 -0.0056 5.5796 0.0010 28.7361
#
#
#
# Elastic Compliance Matrix: (Units=1/GPa)
#
#
# Indices 1 2 3 4 5 6 
#
# 1 -0.015330 0.008998 -0.008439 -0.000010 -0.029059 0.000003
# 2 0.008998 0.101543 -0.052453 -0.000187 0.016050 0.000059
# 3 -0.008439 -0.052453 0.049476 0.000033 -0.003381 -0.000014
# 4 -0.000010 -0.000187 0.000033 0.184198 0.000004 -0.035766
# 5 -0.029059 0.016050 -0.003381 0.000004 0.010301 0.000000
# 6 0.000003 0.000059 -0.000014 -0.035766 0.000000 0.041744
#
#
# Mechanical properties :
#
#
# Convention : Reuss Voigt Hill
#
# Bulk Modulus (GPa) = 31.34558 15.75271 23.54914
# Shear Modulus (GPa) = 10.28061 12.08500 11.18280
#
# Velocity S-wave (km/s) = 2.28382 2.47615 2.38193
# Velocity P-wave (km/s) = 4.78096 4.02085 4.41729
#
# Compressibility (1/GPa) = 0.03190242
#
# Stress axis : x y z
#
# Youngs Moduli (GPa) = -65.23077 9.84802 20.21187
#
# Poissons Ratio (x) = -0.08861 0.17056
# Poissons Ratio (y) = 0.58696 1.06017
# Poissons Ratio (z) = -0.55046 0.51656
#
# Static dielectric constant tensor:
#      x y z
#    x 1.667270 0.000000 0.012970 
#    y 0.000000 1.728840 0.000000 
#    z 0.012970 0.000000 1.783840 
# 
# From -- ./inp_files/353258.got.cif
#   From: 2010.05.17/outbox.ucp.g08.bks.cvg/sg12_177_cif.got.tgz:353258.got - 2010.06.11 11:47:21.
