data_PCOD9224412
_publ_section_title
;
Structure prediction by ZEFSAII (Michael W. Deem and Ramdas Pophale) SiO2 
 PCOD9224412
Probable space group: C 2/M
;
_chemical_formula_sum "Si O2"
_cell_formula_units_Z 28
_cell_length_a 24.000000
_cell_length_b 9.000000
_cell_length_c 15.000000
_cell_angle_alpha 90.000000
_cell_angle_beta 120.000000
_cell_angle_gamma 90.000000
_cell_volume 2805.922308
_symmetry_space_group_name_H-M "C 2/M"
_symmetry_group_IT_number 12
_symmetry_cell_setting 'monoclinic'
loop_
_space_group_symop_operation_xyz
x,y,z
-x,y,-z
-x,-y,-z
x,-y,z
1/2+x,1/2+y,z
1/2-x,1/2+y,-z
1/2-x,1/2-y,-z
1/2+x,1/2-y,z
loop_
_atom_site_type_symbol
_atom_site_label
_atom_site_fract_x
_atom_site_fract_y
_atom_site_fract_z
Si Si1 0.734808 0.832700 0.699145
Si Si2 0.425205 0.167382 0.265673
Si Si3 0.159596 0.158970 0.923774
Si Si4 0.892016 0.825201 0.418576
Si Si5 0.065714 0.327025 0.385871
Si Si6 0.811950 0.169258 0.590281
Si Si7 0.283614 0.160018 0.898895
O O1 0.669968 0.772328 0.602341
O O2 0.793857 0.836903 0.679288
O O3 0.748335 0.709763 0.782654
O O4 0.723964 0.000000 0.725178
O O5 0.375851 0.204365 0.149353
O O6 0.409096 0.278188 0.332752
O O7 0.496586 0.183706 0.285172
O O8 0.418956 0.000000 0.295638
O O9 0.227128 0.146356 0.926454
O O10 0.126147 0.000000 0.887102
O O11 0.172165 0.205160 0.034645
O O12 0.942995 0.767061 0.530575
O O13 0.881791 0.000000 0.416231
O O14 0.078534 0.500000 0.415909
O O15 0.123218 0.256326 0.376898
O O16 0.750000 0.250000 0.500000
O O17 0.816657 0.000000 0.560026
O O18 0.315616 0.000000 0.915812
#
# Coordination Sequence:
#
# PCOD9224412 Si02
#       7
#     8   8   8   8   8   8   8
#     4  11  22  36  57  83 115 149 184 231 284 333
#     4  11  23  38  57  81 115 153 188 231 282 338
#     4  10  20  34  55  83 115 148 184 227 278 336
#     4  12  23  35  55  83 114 151 189 230 280 335
#     4  11  24  40  57  80 112 153 194 233 281 333
#     4  11  23  38  59  83 111 149 191 236 282 329
#     4  10  20  34  55  84 114 147 185 227 279 334
#
# _framework density 9.9788940000000004
#
# number of rings (size 3 to 8) (size 9 to 14) (size 15 to 20)
#    0.000    1.143    2.857    4.286    0.000    6.857 
#    0.000    0.000    0.000    0.857    0.000    6.000 
#    0.000    0.000    0.000    0.000    0.000    0.000 
#
# Total GULP energy -155968.626377 kJ/mol
# GULP energy per Si atom -5570.308085 kJ/mol
# Density = 0.995618 g / cm^3
# Si number density = 9.978894 Si / 1000 Ang^3
#
#
#
# Elastic Constant Matrix: (Units=GPa)
#
#
# Indices 1 2 3 4 5 6 
#
# 1 75.1752 34.8077 3.0188 0.0000 9.8094 0.0000
# 2 34.8077 115.9331 7.0017 0.0000 -1.6699 0.0000
# 3 3.0188 7.0017 12.1826 0.0000 -3.0650 0.0000
# 4 0.0000 0.0000 0.0000 -9.3894 0.0000 9.0532
# 5 9.8094 -1.6699 -3.0650 0.0000 1.5271 0.0000
# 6 0.0000 0.0000 0.0000 9.0532 0.0000 13.8473
#
#
#
# Elastic Compliance Matrix: (Units=1/GPa)
#
#
# Indices 1 2 3 4 5 6 
#
# 1 -0.012142 0.003450 0.043627 0.000000 0.169330 0.000000
# 2 0.003450 0.007957 -0.017804 0.000000 -0.049192 0.000000
# 3 0.043627 -0.017804 0.012330 0.000000 -0.274960 0.000000
# 4 0.000000 0.000000 0.000000 -0.065324 0.000000 0.042708
# 5 0.169330 -0.049192 -0.274960 0.000000 -1.038504 0.000000
# 6 0.000000 0.000000 0.000000 0.042708 0.000000 0.044294
#
#
# Mechanical properties :
#
#
# Convention : Reuss Voigt Hill
#
# Bulk Modulus (GPa) = 14.99461 32.54970 23.77215
# Shear Modulus (GPa) = -4.59683 11.76118 3.58217
#
# Velocity S-wave (km/s) = -1.51930 2.43019 1.34118
# Velocity P-wave (km/s) = 2.10992 4.92129 3.78622
#
# Compressibility (1/GPa) = 0.06669064
#
# Stress axis : x y z
#
# Youngs Moduli (GPa) = -82.35581 125.68196 81.10249
#
# Poissons Ratio (x) = -0.43358 -3.53826
# Poissons Ratio (y) = 0.28411 1.44392
# Poissons Ratio (z) = 3.59294 2.23760
#
# Static dielectric constant tensor:
#      x y z
#    x 1.706560 0.000000 -0.004880 
#    y 0.000000 1.715240 0.000000 
#    z -0.004880 0.000000 1.685480 
# 
# From -- ./inp_files/238964.got.cif
#   From: 2010.05.17/outbox.ucp.g08.bks.cvg/sg12_120_cif.got.tgz:238964.got - 2010.06.11 11:47:21.
