data_PCOD9224437
_publ_section_title
;
Structure prediction by ZEFSAII (Michael W. Deem and Ramdas Pophale) SiO2 
 PCOD9224437
Probable space group: C 2/M
;
_chemical_formula_sum "Si O2"
_cell_formula_units_Z 24
_cell_length_a 15.000000
_cell_length_b 9.000000
_cell_length_c 21.000000
_cell_angle_alpha 90.000000
_cell_angle_beta 70.000000
_cell_angle_gamma 90.000000
_cell_volume 2664.028580
_symmetry_space_group_name_H-M "C 2/M"
_symmetry_group_IT_number 12
_symmetry_cell_setting 'monoclinic'
loop_
_space_group_symop_operation_xyz
x,y,z
-x,y,-z
-x,-y,-z
x,-y,z
1/2+x,1/2+y,z
1/2-x,1/2+y,-z
1/2-x,1/2-y,-z
1/2+x,1/2-y,z
loop_
_atom_site_type_symbol
_atom_site_label
_atom_site_fract_x
_atom_site_fract_y
_atom_site_fract_z
Si Si1 0.552093 0.325232 0.678886
Si Si2 0.432096 0.320814 0.175802
Si Si3 0.685771 0.322210 0.918355
Si Si4 0.242185 0.673375 0.433374
Si Si5 0.049669 0.320862 0.419207
Si Si6 0.887626 0.677092 0.935451
O O1 0.524667 0.500000 0.687293
O O2 0.558485 0.271133 0.751663
O O3 0.658780 0.313640 0.626539
O O4 0.490630 0.247864 0.636961
O O5 0.429812 0.500000 0.179417
O O6 0.346853 0.279428 0.145901
O O7 0.524580 0.260804 0.117367
O O8 0.668695 0.500000 0.928494
O O9 0.795139 0.296198 0.912885
O O10 0.629818 0.238290 0.988740
O O11 0.221961 0.500000 0.451084
O O12 0.250000 0.750000 0.500000
O O13 0.157767 0.725703 0.407852
O O14 0.042324 0.500000 0.414331
O O15 0.000000 0.282220 0.500000
O O16 0.903061 0.500000 0.934361
#
# Coordination Sequence:
#
# PCOD9224437 Si02
#       6
#     8   8   8   8   8   8
#     4  10  22  37  54  79 107 142 183 223 265 320
#     4  10  21  37  54  75 109 147 183 218 266 324
#     4   9  19  36  57  79 108 147 182 217 265 322
#     4  10  20  35  56  79 105 137 175 219 267 320
#     4  10  20  35  56  81 107 136 172 220 275 324
#     4  10  20  34  56  85 110 139 182 226 267 312
#
# _framework density 9.0089120000000005
#
# number of rings (size 3 to 8) (size 9 to 14) (size 15 to 20)
#    0.000    2.167    1.667    1.000    0.000    6.333 
#    0.000    3.333    0.000    0.000    0.000    0.000 
#    0.000    0.000    0.000    0.000    0.000    0.000 
#
# Total GULP energy -133640.344814 kJ/mol
# GULP energy per Si atom -5568.347701 kJ/mol
# Density = 0.898841 g / cm^3
# Si number density = 9.008912 Si / 1000 Ang^3
#
#
#
# Elastic Constant Matrix: (Units=GPa)
#
#
# Indices 1 2 3 4 5 6 
#
# 1 117.9558 28.7314 41.9473 0.0000 44.5084 0.0000
# 2 28.7314 18.1679 22.9989 0.0000 12.7822 0.0000
# 3 41.9473 22.9989 99.5219 0.0000 46.1613 0.0000
# 4 0.0000 0.0000 0.0000 28.8139 0.0000 8.7635
# 5 44.5084 12.7822 46.1613 0.0000 40.4235 0.0000
# 6 0.0000 0.0000 0.0000 8.7635 0.0000 30.2109
#
#
#
# Elastic Compliance Matrix: (Units=1/GPa)
#
#
# Indices 1 2 3 4 5 6 
#
# 1 0.021582 -0.027797 0.009084 0.000000 -0.025346 0.000000
# 2 -0.027797 0.115055 -0.025926 0.000000 0.023831 0.000000
# 3 0.009084 -0.025926 0.027740 0.000000 -0.033481 0.000000
# 4 0.000000 0.000000 0.000000 0.038064 0.000000 -0.011041
# 5 -0.025346 0.023831 -0.033481 0.000000 0.083344 0.000000
# 6 0.000000 0.000000 0.000000 -0.011041 0.000000 0.036303
#
#
# Mechanical properties :
#
#
# Convention : Reuss Voigt Hill
#
# Bulk Modulus (GPa) = 13.31578 47.00010 30.15794
# Shear Modulus (GPa) = 11.45736 29.35419 20.40578
#
# Velocity S-wave (km/s) = 2.52442 4.04068 3.36896
# Velocity P-wave (km/s) = 3.98790 6.92181 5.64866
#
# Compressibility (1/GPa) = 0.07509889
#
# Stress axis : x y z
#
# Youngs Moduli (GPa) = 46.33439 8.69151 36.04845
#
# Poissons Ratio (x) = 0.24160 -0.32745
# Poissons Ratio (y) = 1.28796 0.93458
# Poissons Ratio (z) = -0.42088 0.22533
#
# Static dielectric constant tensor:
#      x y z
#    x 1.666780 0.000000 -0.003460 
#    y 0.000000 1.618160 0.000000 
#    z -0.003460 0.000000 1.607180 
# 
# From -- ./inp_files/308302.got.cif
#   From: 2010.05.17/outbox.ucp.g08.bks.cvg/sg12_155_cif.got.tgz:308302.got - 2010.06.11 11:47:21.
