data_PCOD9224130
_publ_section_title
;
Structure prediction by ZEFSAII (Michael W. Deem and Ramdas Pophale) SiO2 
 PCOD9224130
Probable space group: C 2/M
;
_chemical_formula_sum "Si O2"
_cell_formula_units_Z 32
_cell_length_a 27.000000
_cell_length_b 15.000000
_cell_length_c 12.000000
_cell_angle_alpha 90.000000
_cell_angle_beta 140.000000
_cell_angle_gamma 90.000000
_cell_volume 3123.947783
_symmetry_space_group_name_H-M "C 2/M"
_symmetry_group_IT_number 12
_symmetry_cell_setting 'monoclinic'
loop_
_space_group_symop_operation_xyz
x,y,z
-x,y,-z
-x,-y,-z
x,-y,z
1/2+x,1/2+y,z
1/2-x,1/2+y,-z
1/2-x,1/2-y,-z
1/2+x,1/2-y,z
loop_
_atom_site_type_symbol
_atom_site_label
_atom_site_fract_x
_atom_site_fract_y
_atom_site_fract_z
Si Si1 0.723834 0.158986 0.900210
Si Si2 0.176253 0.245153 0.615633
Si Si3 0.690439 0.104282 0.085555
Si Si4 0.705961 0.105108 0.477007
Si Si5 0.952965 0.891547 0.677820
Si Si6 0.620072 0.605440 0.221667
Si Si7 0.574210 0.895135 0.064431
Si Si8 0.625054 0.393738 0.979373
O O1 0.665619 0.188565 0.702932
O O2 0.750000 0.250000 0.000000
O O3 0.693215 0.105628 0.954975
O O4 0.800722 0.126322 0.967697
O O5 0.248121 0.177732 0.764221
O O6 0.189762 0.315631 0.537662
O O7 0.106446 0.175747 0.481393
O O8 0.609698 0.132086 0.005833
O O9 0.707039 0.000000 0.148103
O O10 0.793082 0.116967 0.582310
O O11 0.644541 0.112463 0.272620
O O12 0.702606 0.000000 0.513807
O O13 0.941009 0.868963 0.789249
O O14 0.039843 0.872670 0.787952
O O15 0.937946 0.000000 0.639234
O O16 0.606125 0.500000 0.183780
O O17 0.625736 0.644792 0.106949
O O18 0.555550 0.000000 0.015932
O O19 0.500000 0.854117 0.000000
O O20 0.626650 0.500000 0.993888
#
# Coordination Sequence:
#
# PCOD9224130 Si02
#       8
#     8   8   8   8   8   8   8   8
#     4  10  22  40  59  82 119 163 216 261 289 358
#     4  11  22  39  60  92 129 163 206 257 306 377
#     4  10  21  39  66  91 119 161 208 257 308 368
#     4  10  20  36  60  89 124 165 204 251 311 373
#     4  10  21  36  59  94 133 165 200 257 326 381
#     4   9  17  32  58  91 127 163 203 251 311 383
#     4   9  19  38  62  90 122 157 203 257 314 373
#     4  10  19  37  63  88 121 167 212 256 316 380
#
# _framework density 10.243449
#
# number of rings (size 3 to 8) (size 9 to 14) (size 15 to 20)
#    0.000    2.125    1.250    1.875    0.000    6.000 
#    4.500    2.500    0.000    6.750    0.000    3.500 
#    0.000    0.000    0.000    0.000    0.000    0.000 
#
# Total GULP energy -178294.934133 kJ/mol
# GULP energy per Si atom -5571.716692 kJ/mol
# Density = 1.022013 g / cm^3
# Si number density = 10.243449 Si / 1000 Ang^3
#
#
#
# Elastic Constant Matrix: (Units=GPa)
#
#
# Indices 1 2 3 4 5 6 
#
# 1 154.0802 24.0294 58.9489 0.0000 2.9619 0.0000
# 2 24.0294 71.9275 24.4383 0.0000 -0.1735 0.0000
# 3 58.9489 24.4383 54.1825 0.0000 7.6178 0.0000
# 4 0.0000 0.0000 0.0000 27.1529 0.0000 -7.6861
# 5 2.9619 -0.1735 7.6178 0.0000 24.9253 0.0000
# 6 0.0000 0.0000 0.0000 -7.6861 0.0000 19.0266
#
#
#
# Elastic Compliance Matrix: (Units=1/GPa)
#
#
# Indices 1 2 3 4 5 6 
#
# 1 0.011291 0.000629 -0.012936 0.000000 0.002616 0.000000
# 2 0.000629 0.016603 -0.008546 0.000000 0.002653 0.000000
# 3 -0.012936 -0.008546 0.037801 0.000000 -0.010075 0.000000
# 4 0.000000 0.000000 0.000000 0.041584 0.000000 0.016798
# 5 0.002616 0.002653 -0.010075 0.000000 0.042907 0.000000
# 6 0.000000 0.000000 0.000000 0.016798 0.000000 0.059344
#
#
# Mechanical properties :
#
#
# Convention : Reuss Voigt Hill
#
# Bulk Modulus (GPa) = 41.68489 55.00259 48.34374
# Shear Modulus (GPa) = 19.28796 25.73920 22.51358
#
# Velocity S-wave (km/s) = 3.07168 3.54838 3.31860
# Velocity P-wave (km/s) = 5.74209 6.61014 6.19135
#
# Compressibility (1/GPa) = 0.02398951
#
# Stress axis : x y z
#
# Youngs Moduli (GPa) = 88.56899 60.23132 26.45453
#
# Poissons Ratio (x) = -0.03791 0.34220
# Poissons Ratio (y) = -0.05574 0.22608
# Poissons Ratio (z) = 1.14569 0.51474
#
# Static dielectric constant tensor:
#      x y z
#    x 1.755400 0.000000 -0.060000 
#    y 0.000000 1.758370 0.000000 
#    z -0.060000 0.000000 1.759300 
# 
# From -- ./inp_files/183851.got.cif
#   From: 2010.05.17/outbox.ucp.g08.bks.cvg/sg12_92_cif.got.tgz:183851.got - 2010.06.11 11:47:21.
