data_PCOD9224082
_publ_section_title
;
Structure prediction by ZEFSAII (Michael W. Deem and Ramdas Pophale) SiO2 
 PCOD9224082
Probable space group: C 2/M
;
_chemical_formula_sum "Si O2"
_cell_formula_units_Z 24
_cell_length_a 21.000000
_cell_length_b 9.000000
_cell_length_c 15.000000
_cell_angle_alpha 90.000000
_cell_angle_beta 110.000000
_cell_angle_gamma 90.000000
_cell_volume 2664.028580
_symmetry_space_group_name_H-M "C 2/M"
_symmetry_group_IT_number 12
_symmetry_cell_setting 'monoclinic'
loop_
_space_group_symop_operation_xyz
x,y,z
-x,y,-z
-x,-y,-z
x,-y,z
1/2+x,1/2+y,z
1/2-x,1/2+y,-z
1/2-x,1/2-y,-z
1/2+x,1/2-y,z
loop_
_atom_site_type_symbol
_atom_site_label
_atom_site_fract_x
_atom_site_fract_y
_atom_site_fract_z
Si Si1 0.658993 0.321539 0.190649
Si Si2 0.430901 0.679926 0.014069
Si Si3 0.817366 0.677216 0.492571
Si Si4 0.571902 0.177320 0.306596
Si Si5 0.316873 0.821198 0.289473
Si Si6 0.571770 0.321214 0.783017
O O1 0.651384 0.500000 0.199944
O O2 0.612392 0.241127 0.240999
O O3 0.737848 0.285046 0.236618
O O4 0.630745 0.282125 0.079986
O O5 0.435495 0.500000 0.019244
O O6 0.422291 0.729107 0.110981
O O7 0.500000 0.733404 0.000000
O O8 0.806032 0.500000 0.485842
O O9 0.750000 0.750000 0.500000
O O10 0.880311 0.708618 0.586285
O O11 0.831576 0.723656 0.398342
O O12 0.500066 0.256511 0.282627
O O13 0.563091 0.000000 0.293721
O O14 0.367055 0.741561 0.245945
O O15 0.324717 0.000000 0.284736
O O16 0.570941 0.500000 0.779385
#
# Coordination Sequence:
#
# PCOD9224082 Si02
#       6
#     8   8   8   8   8   8
#     4  10  19  36  62  86 112 152 194 230 283 348
#     4   9  17  33  59  86 111 146 193 239 281 335
#     4  10  21  37  60  87 115 150 189 234 284 339
#     4  11  22  36  58  88 118 147 189 240 286 334
#     4  10  22  39  58  84 119 152 185 235 294 342
#     4  11  23  39  59  83 116 155 194 236 286 341
#
# _framework density 9.0089120000000005
#
# number of rings (size 3 to 8) (size 9 to 14) (size 15 to 20)
#    0.000    1.833    3.333    1.000    0.000    3.333 
#    0.000    5.833    0.000    0.000    0.000    0.000 
#    0.000    0.000    0.000    0.000    0.000    0.000 
#
# Total GULP energy -133970.046649 kJ/mol
# GULP energy per Si atom -5582.085277 kJ/mol
# Density = 0.898841 g / cm^3
# Si number density = 9.008912 Si / 1000 Ang^3
#
#
#
# Elastic Constant Matrix: (Units=GPa)
#
#
# Indices 1 2 3 4 5 6 
#
# 1 27.6818 -6.6514 -16.9103 0.0000 -3.2012 0.0000
# 2 -6.6514 2.9094 -3.0698 0.0000 9.1678 0.0000
# 3 -16.9103 -3.0698 67.8433 0.0000 -1.1481 0.0000
# 4 0.0000 0.0000 0.0000 19.7039 0.0000 -6.6278
# 5 -3.2012 9.1678 -1.1481 0.0000 27.2060 0.0000
# 6 0.0000 0.0000 0.0000 -6.6278 0.0000 37.1515
#
#
#
# Elastic Compliance Matrix: (Units=1/GPa)
#
#
# Indices 1 2 3 4 5 6 
#
# 1 0.006272 -0.136961 -0.003843 0.000000 0.046729 0.000000
# 2 -0.136961 -0.504671 -0.054408 0.000000 0.151651 0.000000
# 3 -0.003843 -0.054408 0.011631 0.000000 0.018373 0.000000
# 4 0.000000 0.000000 0.000000 0.053991 0.000000 0.009632
# 5 0.046729 0.151651 0.018373 0.000000 -0.008073 0.000000
# 6 0.000000 0.000000 0.000000 0.009632 0.000000 0.028635
#
#
# Mechanical properties :
#
#
# Convention : Reuss Voigt Hill
#
# Bulk Modulus (GPa) = -1.14000 5.01907 1.93953
# Shear Modulus (GPa) = -15.91407 25.15002 4.61798
#
# Velocity S-wave (km/s) = -2.97516 3.74015 1.60268
# Velocity P-wave (km/s) = 3.52650 4.63069 2.12216
#
# Compressibility (1/GPa) = -0.87719181
#
# Stress axis : x y z
#
# Youngs Moduli (GPa) = 159.44289 -1.98149 85.97739
#
# Poissons Ratio (x) = -0.27139 0.33043
# Poissons Ratio (y) = 21.83749 4.67782
# Poissons Ratio (z) = 0.61278 -0.10781
#
# Static dielectric constant tensor:
#      x y z
#    x 1.577020 0.000000 0.024920 
#    y 0.000000 1.608950 0.000000 
#    z 0.024920 0.000000 1.656960 
# 
# From -- ./inp_files/229870.got.cif
#   From: 2010.05.17/outbox.ucp.g08.bks.cvg/sg12_115_cif.got.tgz:229870.got - 2010.06.11 11:47:21.
