data_PCOD9224562
_publ_section_title
;
Structure prediction by ZEFSAII (Michael W. Deem and Ramdas Pophale) SiO2 
 PCOD9224562
Probable space group: C 2/M
;
_chemical_formula_sum "Si O2"
_cell_formula_units_Z 28
_cell_length_a 30.000000
_cell_length_b 9.000000
_cell_length_c 12.000000
_cell_angle_alpha 90.000000
_cell_angle_beta 60.000000
_cell_angle_gamma 90.000000
_cell_volume 2805.922308
_symmetry_space_group_name_H-M "C 2/M"
_symmetry_group_IT_number 12
_symmetry_cell_setting 'monoclinic'
loop_
_space_group_symop_operation_xyz
x,y,z
-x,y,-z
-x,-y,-z
x,-y,z
1/2+x,1/2+y,z
1/2-x,1/2+y,-z
1/2-x,1/2-y,-z
1/2+x,1/2-y,z
loop_
_atom_site_type_symbol
_atom_site_label
_atom_site_fract_x
_atom_site_fract_y
_atom_site_fract_z
Si Si1 0.721134 0.663405 0.198043
Si Si2 0.048507 0.832203 0.294442
Si Si3 0.809577 0.162188 0.021917
Si Si4 0.379241 0.831609 0.625127
Si Si5 0.432541 0.666312 0.386448
Si Si6 0.094667 0.669839 0.040043
Si Si7 0.942537 0.827764 0.110724
O O1 0.736242 0.500000 0.219185
O O2 0.763904 0.788618 0.159251
O O3 0.668098 0.720616 0.311009
O O4 0.710917 0.652689 0.078013
O O5 0.078879 0.722621 0.337010
O O6 0.058491 0.778138 0.156344
O O7 0.987479 0.833668 0.380165
O O8 0.068242 0.000000 0.286357
O O9 0.831381 0.000000 0.023524
O O10 0.850187 0.294201 0.976825
O O11 0.402772 0.803442 0.475098
O O12 0.364459 0.000000 0.666076
O O13 0.410396 0.500000 0.435207
O O14 0.438404 0.683318 0.247771
O O15 0.079683 0.500000 0.071441
O O16 0.094301 0.721897 0.913392
O O17 0.933353 0.000000 0.091728
O O18 0.000000 0.788540 0.000000
#
# Coordination Sequence:
#
# PCOD9224562 Si02
#       7
#     8   8   8   8   8   8   8
#     4  10  20  35  57  82 113 148 185 229 277 335
#     4  11  21  37  57  80 111 152 194 231 277 335
#     4  10  20  35  57  83 113 148 184 229 280 334
#     4  12  24  36  54  83 119 152 186 230 282 339
#     4  10  22  39  59  79 108 152 197 234 276 334
#     4  12  23  34  55  86 119 149 183 232 286 334
#     4  10  20  39  61  81 107 148 196 237 278 329
#
# _framework density 9.9788940000000004
#
# number of rings (size 3 to 8) (size 9 to 14) (size 15 to 20)
#    0.000    1.286    2.857    4.286    0.000    4.857 
#    0.000    0.000    0.000    0.857    0.000    0.000 
#    0.000    0.000    0.000    0.000    0.000    0.000 
#
# Total GULP energy -156089.359983 kJ/mol
# GULP energy per Si atom -5574.619999 kJ/mol
# Density = 0.995618 g / cm^3
# Si number density = 9.978894 Si / 1000 Ang^3
#
#
#
# Elastic Constant Matrix: (Units=GPa)
#
#
# Indices 1 2 3 4 5 6 
#
# 1 -5.5238 7.3716 9.8031 0.0000 1.4351 0.0000
# 2 7.3716 51.7224 25.4066 0.0000 -1.7332 0.0000
# 3 9.8031 25.4066 49.0506 0.0000 1.2407 0.0000
# 4 0.0000 0.0000 0.0000 25.7335 0.0000 2.3236
# 5 1.4351 -1.7332 1.2407 0.0000 16.1879 0.0000
# 6 0.0000 0.0000 0.0000 2.3236 0.0000 18.9627
#
#
#
# Elastic Compliance Matrix: (Units=1/GPa)
#
#
# Indices 1 2 3 4 5 6 
#
# 1 -0.129371 0.008357 0.021256 0.000000 0.010735 0.000000
# 2 0.008357 0.025629 -0.015025 0.000000 0.003155 0.000000
# 3 0.021256 -0.015025 0.024056 0.000000 -0.005337 0.000000
# 4 0.000000 0.000000 0.000000 0.039295 0.000000 -0.004815
# 5 0.010735 0.003155 -0.005337 0.000000 0.061570 0.000000
# 6 0.000000 0.000000 0.000000 -0.004815 0.000000 0.053325
#
#
# Mechanical properties :
#
#
# Convention : Reuss Voigt Hill
#
# Bulk Modulus (GPa) = -19.79798 20.04576 0.12389
# Shear Modulus (GPa) = 175.48707 15.68800 95.58754
#
# Velocity S-wave (km/s) = 9.38723 2.80672 6.92812
# Velocity P-wave (km/s) = 10.37072 4.53535 8.00379
#
# Compressibility (1/GPa) = -0.05051021
#
# Stress axis : x y z
#
# Youngs Moduli (GPa) = -7.72971 39.01821 41.56885
#
# Poissons Ratio (x) = -0.32607 -0.88357
# Poissons Ratio (y) = 0.06460 0.62457
# Poissons Ratio (z) = 0.16430 0.58625
#
# Static dielectric constant tensor:
#      x y z
#    x 1.743430 0.000000 -0.045010 
#    y 0.000000 1.695440 0.000000 
#    z -0.045010 0.000000 1.774300 
# 
# From -- ./inp_files/186836.got.cif
#   From: 2010.05.17/outbox.ucp.g08.bks.cvg/sg12_94_cif.got.tgz:186836.got - 2010.06.11 11:47:21.
