data_PCOD9224175
_publ_section_title
;
Structure prediction by ZEFSAII (Michael W. Deem and Ramdas Pophale) SiO2 
 PCOD9224175
Probable space group: C 2/M
;
_chemical_formula_sum "Si O2"
_cell_formula_units_Z 24
_cell_length_a 30.000000
_cell_length_b 9.000000
_cell_length_c 18.000000
_cell_angle_alpha 90.000000
_cell_angle_beta 30.000000
_cell_angle_gamma 90.000000
_cell_volume 2430.000000
_symmetry_space_group_name_H-M "C 2/M"
_symmetry_group_IT_number 12
_symmetry_cell_setting 'monoclinic'
loop_
_space_group_symop_operation_xyz
x,y,z
-x,y,-z
-x,-y,-z
x,-y,z
1/2+x,1/2+y,z
1/2-x,1/2+y,-z
1/2-x,1/2-y,-z
1/2+x,1/2-y,z
loop_
_atom_site_type_symbol
_atom_site_label
_atom_site_fract_x
_atom_site_fract_y
_atom_site_fract_z
Si Si1 0.076410 0.179824 0.295319
Si Si2 0.371170 0.321042 0.623138
Si Si3 0.814675 0.176827 0.312106
Si Si4 0.192003 0.178241 0.837275
Si Si5 0.430891 0.318014 0.853038
Si Si6 0.625209 0.322015 0.617957
O O1 0.131210 0.229194 0.287399
O O2 0.107620 0.230109 0.170300
O O3 0.971569 0.218083 0.453817
O O4 0.078313 0.000000 0.295418
O O5 0.363352 0.500000 0.628362
O O6 0.290421 0.245880 0.697848
O O7 0.852227 0.213404 0.177636
O O8 0.718431 0.253053 0.458451
O O9 0.877202 0.213352 0.290837
O O10 0.799334 0.000000 0.337855
O O11 0.199495 0.000000 0.832881
O O12 0.131085 0.234864 0.991499
O O13 0.432452 0.500000 0.852819
O O14 0.533725 0.270694 0.712974
O O15 0.630567 0.500000 0.599686
#
# Coordination Sequence:
#
# PCOD9224175 Si02
#       6
#     8   8   8   8   8   8
#     4   8  15  29  49  70  89 114 154 198 227 255
#     4   9  17  31  51  70  88 116 156 195 226 261
#     4   9  18  31  47  70  96 118 146 189 233 266
#     4  10  20  31  44  67  99 126 146 180 230 275
#     4   9  17  29  46  68  93 122 154 185 222 271
#     4   9  17  31  52  71  87 117 158 190 219 265
#
# _framework density 9.8765429999999999
#
# number of rings (size 3 to 8) (size 9 to 14) (size 15 to 20)
#    0.000    3.000    0.000    2.000    0.000    3.333 
#    0.000    5.833    0.000    2.000    0.000    5.833 
#    0.000    0.000    0.000    0.000    0.000    0.000 
#
# Total GULP energy -133635.103617 kJ/mol
# GULP energy per Si atom -5568.129317 kJ/mol
# Density = 0.985406 g / cm^3
# Si number density = 9.876543 Si / 1000 Ang^3
#
#
#
# Elastic Constant Matrix: (Units=GPa)
#
#
# Indices 1 2 3 4 5 6 
#
# 1 102.9226 10.6545 9.2573 -0.0010 30.3670 0.0007
# 2 10.6545 -10.6300 -1.1291 -0.0009 8.9055 0.0005
# 3 9.2573 -1.1291 -4.7418 -0.0022 21.6562 0.0013
# 4 -0.0010 -0.0009 -0.0022 10.8514 0.0008 -2.7280
# 5 30.3670 8.9055 21.6562 0.0008 31.8526 -0.0004
# 6 0.0007 0.0005 0.0013 -2.7280 -0.0004 10.0394
#
#
#
# Elastic Compliance Matrix: (Units=1/GPa)
#
#
# Indices 1 2 3 4 5 6 
#
# 1 0.011833 0.007197 -0.009580 0.000000 -0.006781 0.000000
# 2 0.007197 -0.091145 0.029426 -0.000001 -0.001385 0.000001
# 3 -0.009580 0.029426 -0.056628 -0.000012 0.039406 0.000004
# 4 0.000000 -0.000001 -0.000012 0.098911 0.000006 0.026877
# 5 -0.006781 -0.001385 0.039406 0.000006 0.011455 -0.000002
# 6 0.000000 0.000001 0.000004 0.026877 -0.000002 0.106911
#
#
# Mechanical properties :
#
#
# Convention : Reuss Voigt Hill
#
# Bulk Modulus (GPa) = -12.21727 13.90182 0.84227
# Shear Modulus (GPa) = -140784.89811 15.13320 -70384.88245
#
# Velocity S-wave (km/s) = -267.25845 2.77089 -188.97011
# Velocity P-wave (km/s) = 308.61352 4.15814 218.20291
#
# Compressibility (1/GPa) = -0.08185132
#
# Stress axis : x y z
#
# Youngs Moduli (GPa) = 84.50810 -10.97148 -17.65924
#
# Poissons Ratio (x) = 0.07897 -0.16917
# Poissons Ratio (y) = -0.60823 0.51965
# Poissons Ratio (z) = 0.80955 0.32285
#
# Static dielectric constant tensor:
#      x y z
#    x 1.739580 0.000000 0.089470 
#    y 0.000000 1.578980 0.000000 
#    z 0.089470 0.000000 1.690210 
# 
# From -- ./inp_files/212530.got.cif
#   From: 2010.05.17/outbox.ucp.g08.bks.cvg/sg12_107_cif.got.tgz:212530.got - 2010.06.11 11:47:21.
