data_PCOD9224267
_publ_section_title
;
Structure prediction by ZEFSAII (Michael W. Deem and Ramdas Pophale) SiO2 
 PCOD9224267
Probable space group: C 2/M
;
_chemical_formula_sum "Si O2"
_cell_formula_units_Z 28
_cell_length_a 30.000000
_cell_length_b 9.000000
_cell_length_c 12.000000
_cell_angle_alpha 90.000000
_cell_angle_beta 110.000000
_cell_angle_gamma 90.000000
_cell_volume 3044.604091
_symmetry_space_group_name_H-M "C 2/M"
_symmetry_group_IT_number 12
_symmetry_cell_setting 'monoclinic'
loop_
_space_group_symop_operation_xyz
x,y,z
-x,y,-z
-x,-y,-z
x,-y,z
1/2+x,1/2+y,z
1/2-x,1/2+y,-z
1/2-x,1/2-y,-z
1/2+x,1/2-y,z
loop_
_atom_site_type_symbol
_atom_site_label
_atom_site_fract_x
_atom_site_fract_y
_atom_site_fract_z
Si Si1 0.458547 0.675708 0.780537
Si Si2 0.692354 0.670511 0.869957
Si Si3 0.041754 0.328555 0.451687
Si Si4 0.607514 0.165642 0.709400
Si Si5 0.945000 0.328841 0.111059
Si Si6 0.792610 0.672708 0.883661
Si Si7 0.121315 0.823982 0.119225
O O1 0.464734 0.500000 0.796881
O O2 0.454531 0.724275 0.650023
O O3 0.504803 0.754981 0.868657
O O4 0.411767 0.721479 0.806905
O O5 0.694745 0.500000 0.910337
O O6 0.644577 0.707914 0.766876
O O7 0.736685 0.696741 0.826753
O O8 0.696469 0.774538 0.981017
O O9 0.032917 0.500000 0.408025
O O10 0.087571 0.326496 0.569042
O O11 0.000000 0.284842 0.500000
O O12 0.566196 0.178709 0.766677
O O13 0.628455 0.000000 0.745468
O O14 0.944794 0.500000 0.077204
O O15 0.903831 0.244166 0.010912
O O16 0.803786 0.500000 0.882378
O O17 0.825749 0.764228 0.830788
O O18 0.121302 0.000000 0.109833
#
# Coordination Sequence:
#
# PCOD9224267 Si02
#       7
#     8   8   8   8   8   8   8
#     4  11  24  38  53  78 111 145 183 224 269 318
#     4  10  20  33  53  81 111 141 174 220 273 321
#     4  10  20  38  58  77 105 141 183 226 265 312
#     4  10  20  34  55  81 110 141 178 223 267 316
#     4  11  21  35  55  80 110 146 183 217 262 322
#     4  10  20  34  53  79 109 142 180 218 265 325
#     4  11  23  37  53  78 112 146 180 223 270 317
#
# _framework density 9.1965979999999998
#
# number of rings (size 3 to 8) (size 9 to 14) (size 15 to 20)
#    0.000    1.571    2.857    2.571    0.000    7.143 
#    0.000    0.000    0.000    0.857    0.000    0.000 
#    0.000    0.000    0.000    0.000    0.000    0.000 
#
# Total GULP energy -156219.847236 kJ/mol
# GULP energy per Si atom -5579.280258 kJ/mol
# Density = 0.917567 g / cm^3
# Si number density = 9.196598 Si / 1000 Ang^3
#
#
#
# Elastic Constant Matrix: (Units=GPa)
#
#
# Indices 1 2 3 4 5 6 
#
# 1 94.5967 51.0283 15.0220 0.0000 -6.2501 0.0000
# 2 51.0283 38.4668 12.5947 0.0000 -6.5663 0.0000
# 3 15.0220 12.5947 12.5741 0.0000 8.4276 0.0000
# 4 0.0000 0.0000 0.0000 14.6467 0.0000 4.2070
# 5 -6.2501 -6.5663 8.4276 0.0000 0.7495 0.0000
# 6 0.0000 0.0000 0.0000 4.2070 0.0000 28.9833
#
#
#
# Elastic Compliance Matrix: (Units=1/GPa)
#
#
# Indices 1 2 3 4 5 6 
#
# 1 0.035583 -0.042591 -0.007858 0.000000 0.011947 0.000000
# 2 -0.042591 0.064901 0.024046 0.000000 -0.056951 0.000000
# 3 -0.007858 0.024046 0.004964 0.000000 0.089323 0.000000
# 4 0.000000 0.000000 0.000000 0.071245 0.000000 -0.010341
# 5 0.011947 -0.056951 0.089323 0.000000 -0.069456 0.000000
# 6 0.000000 0.000000 0.000000 -0.010341 0.000000 0.036004
#
#
# Mechanical properties :
#
#
# Convention : Reuss Voigt Hill
#
# Bulk Modulus (GPa) = 18.99613 33.65862 26.32737
# Shear Modulus (GPa) = 23.40896 13.34206 18.37551
#
# Velocity S-wave (km/s) = 3.57136 2.69621 3.16419
# Velocity P-wave (km/s) = 5.23033 5.29452 5.26252
#
# Compressibility (1/GPa) = 0.05264231
#
# Stress axis : x y z
#
# Youngs Moduli (GPa) = 28.10323 15.40808 201.46327
#
# Poissons Ratio (x) = 0.65624 1.58300
# Poissons Ratio (y) = 1.19694 -4.84430
# Poissons Ratio (z) = 0.22082 -0.37050
#
# Static dielectric constant tensor:
#      x y z
#    x 1.670770 0.000000 0.016810 
#    y 0.000000 1.628840 0.000000 
#    z 0.016810 0.000000 1.624340 
# 
# From -- ./inp_files/186848.got.cif
#   From: 2010.05.17/outbox.ucp.g08.bks.cvg/sg12_94_cif.got.tgz:186848.got - 2010.06.11 11:47:21.
