data_PCOD9224859
_publ_section_title
;
Structure prediction by ZEFSAII (Michael W. Deem and Ramdas Pophale) SiO2 
 PCOD9224859
Probable space group: C 2/M
;
_chemical_formula_sum "Si O2"
_cell_formula_units_Z 32
_cell_length_a 15.000000
_cell_length_b 9.000000
_cell_length_c 30.000000
_cell_angle_alpha 90.000000
_cell_angle_beta 50.000000
_cell_angle_gamma 90.000000
_cell_volume 3102.479995
_symmetry_space_group_name_H-M "C 2/M"
_symmetry_group_IT_number 12
_symmetry_cell_setting 'monoclinic'
loop_
_space_group_symop_operation_xyz
x,y,z
-x,y,-z
-x,-y,-z
x,-y,z
1/2+x,1/2+y,z
1/2-x,1/2+y,-z
1/2-x,1/2-y,-z
1/2+x,1/2-y,z
loop_
_atom_site_type_symbol
_atom_site_label
_atom_site_fract_x
_atom_site_fract_y
_atom_site_fract_z
Si Si1 0.150593 0.177860 0.726169
Si Si2 0.286719 0.178311 0.941730
Si Si3 0.628623 0.328945 0.477422
Si Si4 0.690469 0.173647 0.888577
Si Si5 0.460309 0.321789 0.141241
Si Si6 0.414934 0.326199 0.757487
Si Si7 0.864027 0.169881 0.416601
Si Si8 0.890158 0.323787 0.676864
O O1 0.109874 0.201502 0.790154
O O2 0.283770 0.234063 0.680037
O O3 0.043594 0.229408 0.729934
O O4 0.154847 0.000000 0.717889
O O5 0.199419 0.238535 0.931819
O O6 0.416515 0.240867 0.892223
O O7 0.286351 0.000000 0.942944
O O8 0.250000 0.250000 0.000000
O O9 0.500000 0.277783 0.500000
O O10 0.641079 0.500000 0.457852
O O11 0.747429 0.236049 0.430880
O O12 0.635581 0.330362 0.529286
O O13 0.607761 0.251040 0.878724
O O14 0.822760 0.176913 0.827003
O O15 0.658360 0.000000 0.904709
O O16 0.475459 0.500000 0.130567
O O17 0.421890 0.500000 0.741044
O O18 0.362513 0.224671 0.735914
O O19 0.981994 0.258137 0.370016
O O20 0.874103 0.000000 0.398609
O O21 0.895048 0.500000 0.670360
#
# Coordination Sequence:
#
# PCOD9224859 Si02
#       8
#     8   8   8   8   8   8   8   8
#     4   9  19  36  58  84 116 156 196 239 294 352
#     4  12  26  44  65  92 122 158 202 252 309 366
#     4   9  19  38  63  87 115 151 196 245 296 350
#     4  11  22  39  64  93 123 158 198 248 302 364
#     4  11  21  40  65  91 123 158 199 248 302 362
#     4  10  20  37  59  85 117 155 197 243 295 352
#     4  10  21  37  57  85 120 156 194 242 297 351
#     4  11  22  37  57  85 121 159 200 245 294 350
#
# _framework density 10.314329000000001
#
# number of rings (size 3 to 8) (size 9 to 14) (size 15 to 20)
#    0.000    1.625    2.500    2.625    0.000    2.750 
#    0.000    6.250    0.000    0.000    0.000    0.000 
#    0.000    0.000    0.000    0.000    0.000    0.000 
#
# Total GULP energy -178562.968214 kJ/mol
# GULP energy per Si atom -5580.092757 kJ/mol
# Density = 1.029085 g / cm^3
# Si number density = 10.314329 Si / 1000 Ang^3
#
#
#
# Elastic Constant Matrix: (Units=GPa)
#
#
# Indices 1 2 3 4 5 6 
#
# 1 117.2832 17.4978 -18.7110 0.0000 -10.5637 -0.0001
# 2 17.4978 96.8064 11.2605 0.0000 -7.7132 -0.0001
# 3 -18.7110 11.2605 8.3750 0.0000 7.1852 0.0000
# 4 0.0000 0.0000 0.0000 21.7802 0.0000 -1.1856
# 5 -10.5637 -7.7132 7.1852 0.0000 16.9899 0.0000
# 6 -0.0001 -0.0001 0.0000 -1.1856 0.0000 35.0695
#
#
#
# Elastic Compliance Matrix: (Units=1/GPa)
#
#
# Indices 1 2 3 4 5 6 
#
# 1 0.042647 -0.040810 0.224898 0.000000 -0.087123 0.000000
# 2 -0.040810 0.057646 -0.265812 0.000000 0.113211 0.000000
# 3 0.224898 -0.265812 1.511095 0.000000 -0.619902 -0.000001
# 4 0.000000 0.000000 0.000000 0.045998 0.000000 0.001555
# 5 -0.087123 0.113211 -0.619902 0.000000 0.318249 0.000000
# 6 0.000000 0.000000 -0.000001 0.001555 0.000000 0.028567
#
#
# Mechanical properties :
#
#
# Convention : Reuss Voigt Hill
#
# Bulk Modulus (GPa) = 0.69064 26.95102 13.82083
# Shear Modulus (GPa) = 1.88658 28.92906 15.40782
#
# Velocity S-wave (km/s) = 0.95736 3.74889 2.73594
# Velocity P-wave (km/s) = 1.24802 5.64199 4.08593
#
# Compressibility (1/GPa) = 1.44794000
#
# Stress axis : x y z
#
# Youngs Moduli (GPa) = 23.44813 17.34734 0.66177
#
# Poissons Ratio (x) = 0.70795 -0.14883
# Poissons Ratio (y) = 0.95692 0.17591
# Poissons Ratio (z) = -5.27344 4.61113
#
# Static dielectric constant tensor:
#      x y z
#    x 1.731070 0.000000 -0.002440 
#    y 0.000000 1.693140 0.000000 
#    z -0.002440 0.000000 1.849630 
# 
# From -- ./inp_files/359987.got.cif
#   From: 2010.05.17/outbox.ucp.g08.bks.cvg/sg12_180_cif.got.tgz:359987.got - 2010.06.11 11:47:21.
