data_PCOD9224564
_publ_section_title
;
Structure prediction by ZEFSAII (Michael W. Deem and Ramdas Pophale) SiO2 
 PCOD9224564
Probable space group: C 2/M
;
_chemical_formula_sum "Si O2"
_cell_formula_units_Z 28
_cell_length_a 24.000000
_cell_length_b 9.000000
_cell_length_c 15.000000
_cell_angle_alpha 90.000000
_cell_angle_beta 60.000000
_cell_angle_gamma 90.000000
_cell_volume 2805.922308
_symmetry_space_group_name_H-M "C 2/M"
_symmetry_group_IT_number 12
_symmetry_cell_setting 'monoclinic'
loop_
_space_group_symop_operation_xyz
x,y,z
-x,y,-z
-x,-y,-z
x,-y,z
1/2+x,1/2+y,z
1/2-x,1/2+y,-z
1/2-x,1/2-y,-z
1/2+x,1/2-y,z
loop_
_atom_site_type_symbol
_atom_site_label
_atom_site_fract_x
_atom_site_fract_y
_atom_site_fract_z
Si Si1 0.817394 0.327030 0.809568
Si Si2 0.919324 0.823968 0.391965
Si Si3 0.819582 0.820496 0.113107
Si Si4 0.322873 0.171892 0.589969
Si Si5 0.462290 0.676645 0.939246
Si Si6 0.043538 0.322569 0.239604
Si Si7 0.822196 0.819873 0.314385
O O1 0.815828 0.500000 0.839919
O O2 0.745492 0.261427 0.881614
O O3 0.821150 0.324100 0.698642
O O4 0.883996 0.265358 0.796334
O O5 0.875951 0.781152 0.510441
O O6 0.875378 0.769552 0.342644
O O7 0.988077 0.745956 0.345105
O O8 0.928239 0.000000 0.375681
O O9 0.830514 0.766795 0.205885
O O10 0.810814 0.000000 0.126776
O O11 0.886380 0.796163 0.011276
O O12 0.252692 0.213808 0.607107
O O13 0.336225 0.000000 0.553915
O O14 0.473634 0.500000 0.914316
O O15 0.479682 0.770551 0.839331
O O16 0.500000 0.713776 0.000000
O O17 0.044121 0.500000 0.246960
O O18 0.826843 0.000000 0.309419
#
# Coordination Sequence:
#
# PCOD9224564 Si02
#       7
#     8   8   8   8   8   8   8
#     4   8  17  34  54  75 100 134 176 215 251 300
#     4  11  21  33  50  76 108 139 172 212 262 310
#     4   8  14  29  54  78 100 132 171 208 250 303
#     4   9  17  33  56  78 100 132 174 215 257 305
#     4  10  20  35  57  83 108 134 165 204 256 314
#     4  11  23  37  52  73 103 138 177 217 253 296
#     4   8  15  29  52  79 104 131 167 210 254 307
#
# _framework density 9.9788940000000004
#
# number of rings (size 3 to 8) (size 9 to 14) (size 15 to 20)
#    0.000    2.714    0.000    3.857    0.000    3.714 
#    0.000    5.000    0.000    4.286    0.000    0.000 
#    0.000    0.000    0.000    0.000    0.000    0.000 
#
# Total GULP energy -156018.119329 kJ/mol
# GULP energy per Si atom -5572.075690 kJ/mol
# Density = 0.995618 g / cm^3
# Si number density = 9.978894 Si / 1000 Ang^3
#
#
#
# Elastic Constant Matrix: (Units=GPa)
#
#
# Indices 1 2 3 4 5 6 
#
# 1 109.8428 18.3830 7.5340 0.0000 -15.9470 0.0000
# 2 18.3830 16.8718 14.5203 0.0000 -10.0757 0.0000
# 3 7.5340 14.5203 27.0380 0.0000 -10.9223 0.0000
# 4 0.0000 0.0000 0.0000 20.0005 0.0000 -0.2542
# 5 -15.9470 -10.0757 -10.9223 0.0000 25.1193 0.0000
# 6 0.0000 0.0000 0.0000 -0.2542 0.0000 21.3116
#
#
#
# Elastic Compliance Matrix: (Units=1/GPa)
#
#
# Indices 1 2 3 4 5 6 
#
# 1 0.012047 -0.017172 0.007487 0.000000 0.004016 0.000000
# 2 -0.017172 0.146160 -0.066026 0.000000 0.019016 0.000000
# 3 0.007487 -0.066026 0.074700 0.000000 0.010750 0.000000
# 4 0.000000 0.000000 0.000000 0.050006 0.000000 0.000596
# 5 0.004016 0.019016 0.010750 0.000000 0.054661 0.000000
# 6 0.000000 0.000000 0.000000 0.000596 0.000000 0.046930
#
#
# Mechanical properties :
#
#
# Convention : Reuss Voigt Hill
#
# Bulk Modulus (GPa) = 12.27213 26.06969 19.17091
# Shear Modulus (GPa) = 8.87961 20.84064 14.86013
#
# Velocity S-wave (km/s) = 2.11160 3.23497 2.73166
# Velocity P-wave (km/s) = 3.47959 5.20040 4.42446
#
# Compressibility (1/GPa) = 0.08148542
#
# Stress axis : x y z
#
# Youngs Moduli (GPa) = 83.00670 6.84181 13.38695
#
# Poissons Ratio (x) = 0.11748 -0.10023
# Poissons Ratio (y) = 1.42536 0.88389
# Poissons Ratio (z) = -0.62148 0.45174
#
# Static dielectric constant tensor:
#      x y z
#    x 1.718790 0.000000 -0.034820 
#    y 0.000000 1.665750 0.000000 
#    z -0.034820 0.000000 1.806620 
# 
# From -- ./inp_files/238363.got.cif
#   From: 2010.05.17/outbox.ucp.g08.bks.cvg/sg12_120_cif.got.tgz:238363.got - 2010.06.11 11:47:21.
