data_PCOD9224104
_publ_section_title
;
Structure prediction by ZEFSAII (Michael W. Deem and Ramdas Pophale) SiO2 
 PCOD9224104
Probable space group: C 2/M
;
_chemical_formula_sum "Si O2"
_cell_formula_units_Z 28
_cell_length_a 27.000000
_cell_length_b 12.000000
_cell_length_c 15.000000
_cell_angle_alpha 90.000000
_cell_angle_beta 40.000000
_cell_angle_gamma 90.000000
_cell_volume 3123.947783
_symmetry_space_group_name_H-M "C 2/M"
_symmetry_group_IT_number 12
_symmetry_cell_setting 'monoclinic'
loop_
_space_group_symop_operation_xyz
x,y,z
-x,y,-z
-x,-y,-z
x,-y,z
1/2+x,1/2+y,z
1/2-x,1/2+y,-z
1/2-x,1/2-y,-z
1/2+x,1/2-y,z
loop_
_atom_site_type_symbol
_atom_site_label
_atom_site_fract_x
_atom_site_fract_y
_atom_site_fract_z
Si Si1 0.655703 0.630901 0.364743
Si Si2 0.801323 0.865721 0.331892
Si Si3 0.864872 0.253172 0.419927
Si Si4 0.721652 0.376792 0.965730
Si Si5 0.872759 0.266036 0.769589
Si Si6 0.828789 0.282253 0.120815
Si Si7 0.532896 0.134521 0.195478
O O1 0.636527 0.500000 0.381072
O O2 0.632200 0.679950 0.493534
O O3 0.615222 0.707709 0.343382
O O4 0.750018 0.643499 0.231053
O O5 0.842917 0.824879 0.365643
O O6 0.709558 0.835749 0.466520
O O7 0.833972 0.784797 0.207558
O O8 0.810589 0.000000 0.304723
O O9 0.947004 0.316404 0.294995
O O10 0.693575 0.500000 0.998095
O O11 0.813950 0.368943 0.839573
O O12 0.693019 0.310235 0.920975
O O13 0.683174 0.323172 0.105115
O O14 0.935834 0.305557 0.755588
O O15 0.904981 0.338961 0.970783
O O16 0.530089 0.000000 0.210818
#
# Coordination Sequence:
#
# PCOD9224104 Si02
#       7
#     8   8   8   8   8   8   8
#     4  10  19  37  58  82 115 155 192 230 266 321
#     4  10  20  41  63  82 110 149 188 236 280 330
#     4  10  23  38  59  86 112 146 195 228 277 346
#     4   9  15  28  48  78 112 145 179 224 269 320
#     4   9  19  30  51  80 110 147 191 221 267 334
#     4   9  20  34  59  88 110 141 191 229 274 336
#     4  11  22  40  58  83 117 145 178 238 291 330
#
# _framework density 8.9630179999999999
#
# number of rings (size 3 to 8) (size 9 to 14) (size 15 to 20)
#    0.000    2.286    0.000    3.429    0.000    1.143 
#    0.000   15.714    0.000    0.000    0.000    0.000 
#    0.000    0.000    0.000    0.000    0.000    0.000 
#
# Total GULP energy -155912.697256 kJ/mol
# GULP energy per Si atom -5568.310616 kJ/mol
# Density = 0.894262 g / cm^3
# Si number density = 8.963018 Si / 1000 Ang^3
#
#
#
# Elastic Constant Matrix: (Units=GPa)
#
#
# Indices 1 2 3 4 5 6 
#
# 1 103.1269 25.8659 44.2126 0.0000 6.8181 0.0000
# 2 25.8659 99.6327 26.8350 0.0000 -4.0969 0.0000
# 3 44.2126 26.8350 90.6663 0.0000 0.0566 0.0000
# 4 0.0000 0.0000 0.0000 17.3777 0.0000 -3.6109
# 5 6.8181 -4.0969 0.0566 0.0000 42.8771 0.0000
# 6 0.0000 0.0000 0.0000 -3.6109 0.0000 3.2604
#
#
#
# Elastic Compliance Matrix: (Units=1/GPa)
#
#
# Indices 1 2 3 4 5 6 
#
# 1 0.012736 -0.001874 -0.005655 0.000000 -0.002197 0.000000
# 2 -0.001874 0.011229 -0.002411 0.000000 0.001374 0.000000
# 3 -0.005655 -0.002411 0.014500 0.000000 0.000650 0.000000
# 4 0.000000 0.000000 0.000000 0.074745 0.000000 0.082779
# 5 -0.002197 0.001374 0.000650 0.000000 0.023802 0.000000
# 6 0.000000 0.000000 0.000000 0.082779 0.000000 0.398382
#
#
# Mechanical properties :
#
#
# Convention : Reuss Voigt Hill
#
# Bulk Modulus (GPa) = 53.80098 54.13920 53.97009
# Shear Modulus (GPa) = 8.90521 25.80387 17.35454
#
# Velocity S-wave (km/s) = 2.23126 3.79814 3.11484
# Velocity P-wave (km/s) = 6.05937 7.03573 6.56572
#
# Compressibility (1/GPa) = 0.01858702
#
# Stress axis : x y z
#
# Youngs Moduli (GPa) = 78.51549 89.05420 68.96529
#
# Poissons Ratio (x) = 0.16687 0.38998
# Poissons Ratio (y) = 0.14712 0.16625
# Poissons Ratio (z) = 0.44399 0.21468
#
# Static dielectric constant tensor:
#      x y z
#    x 1.597230 0.000000 0.061470 
#    y 0.000000 1.615620 0.000000 
#    z 0.061470 0.000000 1.545810 
# 
# From -- ./inp_files/245635.got.cif
#   From: 2010.05.17/outbox.ucp.g08.bks.cvg/sg12_123_cif.got.tgz:245635.got - 2010.06.11 11:47:21.
