data_PCOD9224613
_publ_section_title
;
Structure prediction by ZEFSAII (Michael W. Deem and Ramdas Pophale) SiO2 
 PCOD9224613
Probable space group: C 2/M
;
_chemical_formula_sum "Si O2"
_cell_formula_units_Z 32
_cell_length_a 24.000000
_cell_length_b 9.000000
_cell_length_c 30.000000
_cell_angle_alpha 90.000000
_cell_angle_beta 30.000000
_cell_angle_gamma 90.000000
_cell_volume 3240.000000
_symmetry_space_group_name_H-M "C 2/M"
_symmetry_group_IT_number 12
_symmetry_cell_setting 'monoclinic'
loop_
_space_group_symop_operation_xyz
x,y,z
-x,y,-z
-x,-y,-z
x,-y,z
1/2+x,1/2+y,z
1/2-x,1/2+y,-z
1/2-x,1/2-y,-z
1/2+x,1/2-y,z
loop_
_atom_site_type_symbol
_atom_site_label
_atom_site_fract_x
_atom_site_fract_y
_atom_site_fract_z
Si Si1 0.761956 0.320272 0.540145
Si Si2 0.192620 0.325497 0.173802
Si Si3 0.407235 0.324605 0.599357
Si Si4 0.894697 0.825510 0.102898
Si Si5 0.307409 0.321813 0.916620
Si Si6 0.565596 0.321811 0.743204
Si Si7 0.482590 0.178370 0.635274
Si Si8 0.149788 0.674101 0.772226
O O1 0.756211 0.500000 0.541719
O O2 0.750000 0.250000 0.500000
O O3 0.663324 0.268863 0.641707
O O4 0.889484 0.279383 0.463445
O O5 0.180135 0.500000 0.170553
O O6 0.284903 0.314269 0.148533
O O7 0.236275 0.238067 0.100475
O O8 0.076758 0.271237 0.277471
O O9 0.500000 0.270950 0.500000
O O10 0.427514 0.500000 0.592936
O O11 0.415663 0.240271 0.639948
O O12 0.281156 0.306972 0.670661
O O13 0.878631 0.735030 0.159266
O O14 0.911068 0.000000 0.102893
O O15 0.000000 0.777831 0.000000
O O16 0.297832 0.500000 0.926431
O O17 0.438378 0.279564 0.821312
O O18 0.250000 0.250000 0.000000
O O19 0.571214 0.500000 0.738699
O O20 0.587537 0.262986 0.777235
O O21 0.476557 0.000000 0.640445
O O22 0.123510 0.500000 0.788158
#
# Coordination Sequence:
#
# PCOD9224613 Si02
#       8
#     8   8   8   8   8   8   8   8
#     4  10  21  37  59  88 118 153 198 245 295 352
#     4  10  21  39  62  90 122 154 196 244 294 354
#     4  10  21  36  54  82 120 158 194 234 287 345
#     4  10  22  40  63  88 119 161 198 238 298 362
#     4  11  25  43  64  88 117 156 199 247 300 352
#     4  10  23  42  61  85 121 162 200 239 296 364
#     4  10  20  35  58  87 116 150 193 240 287 343
#     4  11  23  38  60  91 123 156 199 250 296 343
#
# _framework density 9.8765429999999999
#
# number of rings (size 3 to 8) (size 9 to 14) (size 15 to 20)
#    0.000    1.750    1.250    2.250    1.750    4.000 
#    0.000    0.000    0.000    0.000    0.000    0.000 
#    0.000    0.000    0.000    0.000    0.000    0.000 
#
# Total GULP energy -178614.300617 kJ/mol
# GULP energy per Si atom -5581.696894 kJ/mol
# Density = 0.985406 g / cm^3
# Si number density = 9.876543 Si / 1000 Ang^3
#
#
#
# Elastic Constant Matrix: (Units=GPa)
#
#
# Indices 1 2 3 4 5 6 
#
# 1 47.9680 -1.0298 13.5850 -0.0002 17.6836 0.0008
# 2 -1.0298 -19.0310 26.1160 -0.0003 0.3835 -0.0005
# 3 13.5850 26.1160 120.4340 -0.0004 22.8066 0.0001
# 4 -0.0002 -0.0003 -0.0004 30.7584 -0.0001 9.3500
# 5 17.6836 0.3835 22.8066 -0.0001 33.4288 0.0005
# 6 0.0008 -0.0005 0.0001 9.3500 0.0005 28.0242
#
#
#
# Elastic Compliance Matrix: (Units=1/GPa)
#
#
# Indices 1 2 3 4 5 6 
#
# 1 0.025844 -0.001635 0.000028 0.000000 -0.013672 -0.000001
# 2 -0.001635 -0.039252 0.009700 0.000000 -0.005303 -0.000001
# 3 0.000028 0.009700 0.007143 0.000000 -0.005000 0.000000
# 4 0.000000 0.000000 0.000000 0.036181 0.000000 -0.012071
# 5 -0.013672 -0.005303 -0.005000 0.000000 0.040619 0.000000
# 6 -0.000001 -0.000001 0.000000 -0.012071 0.000000 0.039711
#
#
# Mechanical properties :
#
#
# Convention : Reuss Voigt Hill
#
# Bulk Modulus (GPa) = 100.77641 25.19038 62.98339
# Shear Modulus (GPa) = 51.35267 25.82227 38.58747
#
# Velocity S-wave (km/s) = 5.10429 3.61952 4.42463
# Velocity P-wave (km/s) = 9.26645 5.49984 7.61956
#
# Compressibility (1/GPa) = 0.00992296
#
# Stress axis : x y z
#
# Youngs Moduli (GPa) = 38.69311 -25.47616 139.98982
#
# Poissons Ratio (x) = -0.04166 -0.00398
# Poissons Ratio (y) = 0.06327 -1.35797
# Poissons Ratio (z) = -0.00110 0.24713
#
# Static dielectric constant tensor:
#      x y z
#    x 1.787320 0.000040 -0.070230 
#    y 0.000040 1.683780 -0.000020 
#    z -0.070230 -0.000020 1.719810 
# 
# From -- ./inp_files/382208.got.cif
#   From: 2010.05.17/outbox.ucp.g08.bks.cvg/sg12_192_cif.got.tgz:382208.got - 2010.06.11 11:47:21.
