data_PCOD9224146
_publ_section_title
;
Structure prediction by ZEFSAII (Michael W. Deem and Ramdas Pophale) SiO2 
 PCOD9224146
Probable space group: C 2/M
;
_chemical_formula_sum "Si O2"
_cell_formula_units_Z 32
_cell_length_a 18.000000
_cell_length_b 9.000000
_cell_length_c 30.000000
_cell_angle_alpha 90.000000
_cell_angle_beta 40.000000
_cell_angle_gamma 90.000000
_cell_volume 3123.947783
_symmetry_space_group_name_H-M "C 2/M"
_symmetry_group_IT_number 12
_symmetry_cell_setting 'monoclinic'
loop_
_space_group_symop_operation_xyz
x,y,z
-x,y,-z
-x,-y,-z
x,-y,z
1/2+x,1/2+y,z
1/2-x,1/2+y,-z
1/2-x,1/2-y,-z
1/2+x,1/2-y,z
loop_
_atom_site_type_symbol
_atom_site_label
_atom_site_fract_x
_atom_site_fract_y
_atom_site_fract_z
Si Si1 0.278273 0.672682 0.705514
Si Si2 0.870478 0.175834 0.073357
Si Si3 0.041373 0.680057 0.795691
Si Si4 0.533842 0.823623 0.704017
Si Si5 0.793023 0.322396 0.935510
Si Si6 0.629272 0.179965 0.566936
Si Si7 0.542918 0.177792 0.432884
Si Si8 0.691071 0.671261 0.208951
O O1 0.278531 0.500000 0.692153
O O2 0.335861 0.763911 0.640116
O O3 0.338088 0.685159 0.725549
O O4 0.148169 0.718461 0.776959
O O5 0.791631 0.205322 0.066564
O O6 0.816881 0.274555 0.136950
O O7 0.863817 0.000000 0.087543
O O8 0.000000 0.211676 0.000000
O O9 0.029165 0.500000 0.799933
O O10 0.919381 0.739764 0.866142
O O11 0.084162 0.728985 0.727338
O O12 0.588343 0.763721 0.633984
O O13 0.400139 0.782045 0.770792
O O14 0.544546 0.000000 0.696451
O O15 0.799054 0.500000 0.938638
O O16 0.750000 0.250000 0.000000
O O17 0.750000 0.250000 0.500000
O O18 0.543399 0.222445 0.566819
O O19 0.634853 0.000000 0.565175
O O20 0.500000 0.236103 0.500000
O O21 0.545729 0.000000 0.433849
O O22 0.674412 0.500000 0.203651
#
# Coordination Sequence:
#
# PCOD9224146 Si02
#       8
#     8   8   8   8   8   8   8   8
#     4  10  22  38  58  85 113 147 189 232 282 339
#     4  10  22  40  61  84 112 153 197 232 277 341
#     4   9  19  37  59  81 109 146 188 230 278 333
#     4  10  19  38  63  81 107 151 194 232 280 337
#     4  10  21  38  59  82 114 151 185 230 280 332
#     4  10  22  37  58  85 113 149 190 233 283 336
#     4  10  22  40  58  81 116 153 187 230 285 338
#     4  11  22  36  58  87 115 144 185 240 290 330
#
# _framework density 10.243449
#
# number of rings (size 3 to 8) (size 9 to 14) (size 15 to 20)
#    0.000    2.000    2.500    0.375    3.500    2.500 
#    0.000    1.250    0.000    0.000    0.000    0.000 
#    0.000    0.000    0.000    0.000    0.000    0.000 
#
# Total GULP energy -178164.693172 kJ/mol
# GULP energy per Si atom -5567.646662 kJ/mol
# Density = 1.022013 g / cm^3
# Si number density = 10.243449 Si / 1000 Ang^3
#
#
#
# Elastic Constant Matrix: (Units=GPa)
#
#
# Indices 1 2 3 4 5 6 
#
# 1 65.9994 19.3581 62.5986 -0.0001 -2.3440 0.0003
# 2 19.3581 -33.6829 14.7713 -0.0002 12.5733 0.0002
# 3 62.5986 14.7713 143.4137 0.0000 7.6557 -0.0001
# 4 -0.0001 -0.0002 0.0000 32.0493 0.0000 2.3528
# 5 -2.3440 12.5733 7.6557 0.0000 32.6286 0.0000
# 6 0.0003 0.0002 -0.0001 2.3528 0.0000 -2.3701
#
#
#
# Elastic Compliance Matrix: (Units=1/GPa)
#
#
# Indices 1 2 3 4 5 6 
#
# 1 0.023063 0.008749 -0.011014 0.000000 0.000870 0.000004
# 2 0.008749 -0.021988 -0.002066 0.000000 0.009586 0.000000
# 3 -0.011014 -0.002066 0.012145 0.000000 -0.002845 -0.000002
# 4 0.000000 0.000000 0.000000 0.029082 0.000000 0.028871
# 5 0.000870 0.009586 -0.002845 0.000000 0.027684 0.000001
# 6 0.000004 0.000000 -0.000002 0.028871 0.000001 -0.393268
#
#
# Mechanical properties :
#
#
# Convention : Reuss Voigt Hill
#
# Bulk Modulus (GPa) = 219.39457 41.02069 130.20763
# Shear Modulus (GPa) = -15.96935 17.72838 0.87952
#
# Velocity S-wave (km/s) = -2.79497 2.94488 0.65593
# Velocity P-wave (km/s) = 9.84413 5.62401 8.01674
#
# Compressibility (1/GPa) = 0.00455800
#
# Stress axis : x y z
#
# Youngs Moduli (GPa) = 43.35909 -45.47937 82.33730
#
# Poissons Ratio (x) = 0.39791 0.90690
# Poissons Ratio (y) = -0.37936 0.17010
# Poissons Ratio (z) = 0.47758 -0.09396
#
# Static dielectric constant tensor:
#      x y z
#    x 1.776230 0.000000 -0.006670 
#    y 0.000000 1.704320 0.000000 
#    z -0.006670 0.000000 1.717390 
# 
# From -- ./inp_files/378146.got.cif
#   From: 2010.05.17/outbox.ucp.g08.bks.cvg/sg12_190_cif.got.tgz:378146.got - 2010.06.11 11:47:21.
