data_PCOD9224730
_publ_section_title
;
Structure prediction by ZEFSAII (Michael W. Deem and Ramdas Pophale) SiO2 
 PCOD9224730
Probable space group: C 2/M
;
_chemical_formula_sum "Si O2"
_cell_formula_units_Z 28
_cell_length_a 21.000000
_cell_length_b 9.000000
_cell_length_c 15.000000
_cell_angle_alpha 90.000000
_cell_angle_beta 90.000000
_cell_angle_gamma 90.000000
_cell_volume 2835.000000
_symmetry_space_group_name_H-M "C 2/M"
_symmetry_group_IT_number 12
_symmetry_cell_setting 'monoclinic'
loop_
_space_group_symop_operation_xyz
x,y,z
-x,y,-z
-x,-y,-z
x,-y,z
1/2+x,1/2+y,z
1/2-x,1/2+y,-z
1/2-x,1/2-y,-z
1/2+x,1/2-y,z
loop_
_atom_site_type_symbol
_atom_site_label
_atom_site_fract_x
_atom_site_fract_y
_atom_site_fract_z
Si Si1 0.815133 0.172935 0.973659
Si Si2 0.470650 0.676475 0.407078
Si Si3 0.438568 0.820678 0.058973
Si Si4 0.337875 0.824396 0.424942
Si Si5 0.712067 0.826697 0.380680
Si Si6 0.504064 0.829926 0.234870
Si Si7 0.851954 0.666435 0.807398
O O1 0.824346 0.207818 0.869532
O O2 0.813627 0.000000 0.992788
O O3 0.750000 0.250000 0.000000
O O4 0.874925 0.247825 0.022730
O O5 0.500000 0.733280 0.500000
O O6 0.468691 0.500000 0.410825
O O7 0.400411 0.740820 0.394699
O O8 0.509061 0.730683 0.321714
O O9 0.453038 0.780591 0.161604
O O10 0.433689 0.000000 0.054047
O O11 0.500000 0.776702 0.000000
O O12 0.324661 0.785780 0.528848
O O13 0.275102 0.771130 0.373924
O O14 0.346470 0.000000 0.417397
O O15 0.668763 0.814286 0.294279
O O16 0.731066 0.000000 0.390537
O O17 0.572078 0.831442 0.186684
O O18 0.489966 0.000000 0.262110
O O19 0.830616 0.500000 0.836227
#
# Coordination Sequence:
#
# PCOD9224730 Si02
#       7
#     8   8   8   8   8   8   8
#     4  12  26  42  63  91 125 162 204 254 309 367
#     4  11  24  39  56  83 122 160 197 248 301 348
#     4  10  20  41  69  93 123 160 200 252 311 373
#     4  10  20  36  58  83 114 154 199 243 294 357
#     4   9  19  35  59  86 115 152 194 243 297 358
#     4  10  21  38  65  93 118 157 202 246 300 366
#     4  10  20  39  63  88 118 154 198 245 303 365
#
# _framework density 9.8765429999999999
#
# number of rings (size 3 to 8) (size 9 to 14) (size 15 to 20)
#    0.000    1.714    1.429    3.000    0.000    6.000 
#    0.000    0.000    0.000    0.000    0.000    0.000 
#    0.000    0.000    0.000    0.000    0.000    0.000 
#
# Total GULP energy -156348.926380 kJ/mol
# GULP energy per Si atom -5583.890228 kJ/mol
# Density = 0.985406 g / cm^3
# Si number density = 9.876543 Si / 1000 Ang^3
#
#
#
# Elastic Constant Matrix: (Units=GPa)
#
#
# Indices 1 2 3 4 5 6 
#
# 1 79.9347 34.0441 26.6232 0.0000 1.7085 0.0000
# 2 34.0441 40.6183 27.8934 0.0000 0.8895 0.0000
# 3 26.6232 27.8934 50.4038 0.0000 12.7241 0.0000
# 4 0.0000 0.0000 0.0000 27.7397 0.0000 2.1944
# 5 1.7085 0.8895 12.7241 0.0000 24.9422 0.0000
# 6 0.0000 0.0000 0.0000 2.1944 0.0000 16.8402
#
#
#
# Elastic Compliance Matrix: (Units=1/GPa)
#
#
# Indices 1 2 3 4 5 6 
#
# 1 0.019585 -0.014949 -0.002144 0.000000 0.000285 0.000000
# 2 -0.014949 0.054072 -0.025021 0.000000 0.011860 0.000000
# 3 -0.002144 -0.025021 0.039665 0.000000 -0.019195 0.000000
# 4 0.000000 0.000000 0.000000 0.036425 0.000000 -0.004746
# 5 0.000285 0.011860 -0.019195 0.000000 0.049443 0.000000
# 6 0.000000 0.000000 0.000000 -0.004746 0.000000 0.060000
#
#
# Mechanical properties :
#
#
# Convention : Reuss Voigt Hill
#
# Bulk Modulus (GPa) = 34.37253 38.67536 36.52394
# Shear Modulus (GPa) = 14.15970 19.39751 16.77861
#
# Velocity S-wave (km/s) = 2.68028 3.13709 2.91764
# Velocity P-wave (km/s) = 5.19783 5.72221 5.46631
#
# Compressibility (1/GPa) = 0.02909300
#
# Stress axis : x y z
#
# Youngs Moduli (GPa) = 51.05957 18.49398 25.21135
#
# Poissons Ratio (x) = 0.27647 0.05405
# Poissons Ratio (y) = 0.76329 0.63082
# Poissons Ratio (z) = 0.10947 0.46274
#
# Static dielectric constant tensor:
#      x y z
#    x 1.710990 0.000000 -0.003920 
#    y 0.000000 1.673230 0.000000 
#    z -0.003920 0.000000 1.706230 
# 
# From -- ./inp_files/231052.got.cif
#   From: 2010.05.17/outbox.ucp.g08.bks.cvg/sg12_116_cif.got.tgz:231052.got - 2010.06.11 11:47:21.
