data_PCOD9224409
_publ_section_title
;
Structure prediction by ZEFSAII (Michael W. Deem and Ramdas Pophale) SiO2 
 PCOD9224409
Probable space group: C 2/M
;
_chemical_formula_sum "Si O2"
_cell_formula_units_Z 32
_cell_length_a 21.000000
_cell_length_b 12.000000
_cell_length_c 27.000000
_cell_angle_alpha 90.000000
_cell_angle_beta 30.000000
_cell_angle_gamma 90.000000
_cell_volume 3402.000000
_symmetry_space_group_name_H-M "C 2/M"
_symmetry_group_IT_number 12
_symmetry_cell_setting 'monoclinic'
loop_
_space_group_symop_operation_xyz
x,y,z
-x,y,-z
-x,-y,-z
x,-y,z
1/2+x,1/2+y,z
1/2-x,1/2+y,-z
1/2-x,1/2-y,-z
1/2+x,1/2-y,z
loop_
_atom_site_type_symbol
_atom_site_label
_atom_site_fract_x
_atom_site_fract_y
_atom_site_fract_z
Si Si1 0.755150 0.203517 0.417023
Si Si2 0.655430 0.206537 0.180058
Si Si3 0.484810 0.375013 0.799186
Si Si4 0.604022 0.879221 0.608532
Si Si5 0.049874 0.872819 0.522134
Si Si6 0.082898 0.128910 0.039158
Si Si7 0.688978 0.628379 0.246498
Si Si8 0.973301 0.372101 0.076903
O O1 0.863267 0.143487 0.311722
O O2 0.659938 0.131207 0.515400
O O3 0.834240 0.279529 0.402194
O O4 0.665326 0.287750 0.448207
O O5 0.588978 0.282103 0.182627
O O6 0.546426 0.134765 0.281028
O O7 0.702950 0.291306 0.190369
O O8 0.770976 0.139346 0.077652
O O9 0.454555 0.500000 0.801224
O O10 0.442100 0.368520 0.885027
O O11 0.643425 0.000000 0.601481
O O12 0.000000 0.872123 0.500000
O O13 0.934950 0.842765 0.637268
O O14 0.088194 0.000000 0.508604
O O15 0.026011 0.250801 0.059666
O O16 0.039490 0.000000 0.052920
O O17 0.673076 0.500000 0.240767
O O18 0.820864 0.632790 0.187765
O O19 0.015123 0.500000 0.066481
O O20 0.000000 0.374534 0.000000
#
# Coordination Sequence:
#
# PCOD9224409 Si02
#       8
#     8   8   8   8   8   8   8   8
#     4  10  20  36  57  82 112 149 190 234 294 359
#     4  11  20  38  60  87 114 153 198 248 294 356
#     4  10  23  39  59  85 120 163 201 243 297 363
#     4  10  20  34  55  83 112 141 182 240 294 349
#     4  10  21  36  57  85 117 151 191 244 299 355
#     4  11  24  41  60  88 126 163 202 251 308 363
#     4  10  20  36  59  86 115 148 197 252 299 352
#     4  10  21  39  62  88 114 151 204 254 297 353
#
# _framework density 9.4062319999999993
#
# number of rings (size 3 to 8) (size 9 to 14) (size 15 to 20)
#    0.000    1.750    2.500    1.875    1.750    0.750 
#    0.000    3.125    0.000    1.500    0.000    0.000 
#    0.000    0.000    0.000    0.000    0.000    0.000 
#
# Total GULP energy -178179.920489 kJ/mol
# GULP energy per Si atom -5568.122515 kJ/mol
# Density = 0.938482 g / cm^3
# Si number density = 9.406232 Si / 1000 Ang^3
#
#
#
# Elastic Constant Matrix: (Units=GPa)
#
#
# Indices 1 2 3 4 5 6 
#
# 1 33.7579 24.5406 25.1558 -0.0001 3.1581 0.0000
# 2 24.5406 115.7602 30.2957 -0.0002 2.2506 -0.0001
# 3 25.1558 30.2957 114.0697 -0.0003 9.9250 -0.0001
# 4 -0.0001 -0.0002 -0.0003 23.1764 0.0000 -5.0276
# 5 3.1581 2.2506 9.9250 0.0000 25.6065 0.0000
# 6 0.0000 -0.0001 -0.0001 -5.0276 0.0000 32.3917
#
#
#
# Elastic Compliance Matrix: (Units=1/GPa)
#
#
# Indices 1 2 3 4 5 6 
#
# 1 0.039673 -0.006584 -0.006856 0.000000 -0.001657 0.000000
# 2 -0.006584 0.010377 -0.001341 0.000000 0.000420 0.000000
# 3 -0.006856 -0.001341 0.010919 0.000000 -0.003269 0.000000
# 4 0.000000 0.000000 0.000000 0.044651 0.000000 0.006930
# 5 -0.001657 0.000420 -0.003269 0.000000 0.040487 0.000000
# 6 0.000000 0.000000 0.000000 0.006930 0.000000 0.031948
#
#
# Mechanical properties :
#
#
# Convention : Reuss Voigt Hill
#
# Bulk Modulus (GPa) = 31.83954 47.06358 39.45156
# Shear Modulus (GPa) = 22.92679 28.47463 25.70071
#
# Velocity S-wave (km/s) = 3.49478 3.89473 3.70016
# Velocity P-wave (km/s) = 5.76594 6.73029 6.26669
#
# Compressibility (1/GPa) = 0.03140749
#
# Stress axis : x y z
#
# Youngs Moduli (GPa) = 25.20597 96.36704 91.58299
#
# Poissons Ratio (x) = 0.63447 0.62792
# Poissons Ratio (y) = 0.16595 0.12277
# Poissons Ratio (z) = 0.17282 0.12919
#
# Static dielectric constant tensor:
#      x y z
#    x 1.647910 0.000000 -0.025880 
#    y 0.000000 1.684210 0.000000 
#    z -0.025880 0.000000 1.665180 
# 
# From -- ./inp_files/174657.got.cif
#   From: 2010.05.17/outbox.ucp.g08.bks.cvg/sg12_88_cif.got.tgz:174657.got - 2010.06.11 11:47:21.
