data_PCOD9224769
_publ_section_title
;
Structure prediction by ZEFSAII (Michael W. Deem and Ramdas Pophale) SiO2 
 PCOD9224769
Probable space group: C 2/M
;
_chemical_formula_sum "Si O2"
_cell_formula_units_Z 32
_cell_length_a 12.000000
_cell_length_b 30.000000
_cell_length_c 18.000000
_cell_angle_alpha 90.000000
_cell_angle_beta 30.000000
_cell_angle_gamma 90.000000
_cell_volume 3240.000000
_symmetry_space_group_name_H-M "C 2/M"
_symmetry_group_IT_number 12
_symmetry_cell_setting 'monoclinic'
loop_
_space_group_symop_operation_xyz
x,y,z
-x,y,-z
-x,-y,-z
x,-y,z
1/2+x,1/2+y,z
1/2-x,1/2+y,-z
1/2-x,1/2-y,-z
1/2+x,1/2-y,z
loop_
_atom_site_type_symbol
_atom_site_label
_atom_site_fract_x
_atom_site_fract_y
_atom_site_fract_z
Si Si1 0.154658 0.446732 0.837049
Si Si2 0.000852 0.552988 0.753034
Si Si3 0.537556 0.297317 0.368336
Si Si4 0.922716 0.105434 0.460727
Si Si5 0.077656 0.785852 0.173144
Si Si6 0.761895 0.632762 0.847173
Si Si7 0.470270 0.811650 0.852241
Si Si8 0.879199 0.305092 0.643093
O O1 0.212552 0.500000 0.807617
O O2 0.039278 0.440708 0.821272
O O3 0.376416 0.415148 0.705598
O O4 0.000000 0.437230 0.000000
O O5 0.994080 0.500000 0.745952
O O6 0.201708 0.575518 0.589037
O O7 0.792669 0.579744 0.838246
O O8 0.388292 0.340789 0.473448
O O9 0.532387 0.297628 0.283173
O O10 0.509495 0.244445 0.405926
O O11 0.776570 0.309592 0.266818
O O12 0.000000 0.099217 0.500000
O O13 0.092690 0.732616 0.157947
O O14 0.877318 0.797442 0.233087
O O15 0.306189 0.808633 0.016790
O O16 0.896729 0.648963 0.841981
O O17 0.869697 0.660109 0.716085
O O18 0.500000 0.644593 0.000000
O O19 0.000000 0.323248 0.500000
#
# Coordination Sequence:
#
# PCOD9224769 Si02
#       8
#     8   8   8   8   8   8   8   8
#     4   9  18  36  62  96 133 160 194 252 322 389
#     4  10  23  42  67  95 122 163 212 266 328 383
#     4  11  22  36  60  95 129 166 210 259 308 371
#     4  10  20  36  59  92 130 166 202 248 316 383
#     4  10  21  36  59  87 128 172 213 253 305 364
#     4  12  24  44  67  86 123 169 220 264 314 378
#     4  10  20  37  60  90 125 166 214 254 310 369
#     4  11  25  41  59  89 128 172 213 257 312 369
#
# _framework density 9.8765429999999999
#
# number of rings (size 3 to 8) (size 9 to 14) (size 15 to 20)
#    0.000    1.625    2.500    2.625    1.750    5.250 
#    0.000    0.000    0.000    0.375    0.000    0.000 
#    0.000    0.000    0.000    0.000    0.000    0.000 
#
# Total GULP energy -178459.977556 kJ/mol
# GULP energy per Si atom -5576.874299 kJ/mol
# Density = 0.985406 g / cm^3
# Si number density = 9.876543 Si / 1000 Ang^3
#
#
#
# Elastic Constant Matrix: (Units=GPa)
#
#
# Indices 1 2 3 4 5 6 
#
# 1 61.4924 44.0964 17.9105 0.0002 4.3540 0.0006
# 2 44.0964 102.1638 45.5127 0.0001 12.2190 -0.0002
# 3 17.9105 45.5127 88.1658 0.0013 5.5045 0.0034
# 4 0.0002 0.0001 0.0013 28.9346 -0.0003 -3.6163
# 5 4.3540 12.2190 5.5045 -0.0003 12.3013 -0.0003
# 6 0.0006 -0.0002 0.0034 -3.6163 -0.0003 25.9385
#
#
#
# Elastic Compliance Matrix: (Units=1/GPa)
#
#
# Indices 1 2 3 4 5 6 
#
# 1 0.023620 -0.010702 0.000601 0.000000 0.002001 -0.000001
# 2 -0.010702 0.018871 -0.006824 0.000000 -0.011903 0.000001
# 3 0.000601 -0.006824 0.014745 -0.000001 -0.000032 -0.000002
# 4 0.000000 0.000000 -0.000001 0.035174 0.000001 0.004904
# 5 0.002001 -0.011903 -0.000032 0.000001 0.092422 0.000001
# 6 -0.000001 0.000001 -0.000002 0.004904 0.000001 0.039236
#
#
# Mechanical properties :
#
#
# Convention : Reuss Voigt Hill
#
# Bulk Modulus (GPa) = 42.76097 51.87347 47.31722
# Shear Modulus (GPa) = 18.81723 23.05505 20.93614
#
# Velocity S-wave (km/s) = 3.08981 3.42008 3.25913
# Velocity P-wave (km/s) = 5.86719 6.47409 6.17810
#
# Compressibility (1/GPa) = 0.02338581
#
# Stress axis : x y z
#
# Youngs Moduli (GPa) = 42.33720 52.99006 67.81960
#
# Poissons Ratio (x) = 0.56711 -0.04079
# Poissons Ratio (y) = 0.45310 0.46283
# Poissons Ratio (z) = -0.02546 0.36163
#
# Static dielectric constant tensor:
#      x y z
#    x 1.683920 0.000000 -0.020240 
#    y 0.000000 1.765270 0.000000 
#    z -0.020240 0.000000 1.765140 
# 
# From -- ./inp_files/266264.got.cif
#   From: 2010.05.17/outbox.ucp.g08.bks.cvg/sg12_134_cif.got.tgz:266264.got - 2010.06.11 11:47:21.
