data_PCOD9224623
_publ_section_title
;
Structure prediction by ZEFSAII (Michael W. Deem and Ramdas Pophale) SiO2 
 PCOD9224623
Probable space group: C 2/M
;
_chemical_formula_sum "Si O2"
_cell_formula_units_Z 24
_cell_length_a 18.000000
_cell_length_b 18.000000
_cell_length_c 21.000000
_cell_angle_alpha 90.000000
_cell_angle_beta 20.000000
_cell_angle_gamma 90.000000
_cell_volume 2327.105055
_symmetry_space_group_name_H-M "C 2/M"
_symmetry_group_IT_number 12
_symmetry_cell_setting 'monoclinic'
loop_
_space_group_symop_operation_xyz
x,y,z
-x,y,-z
-x,-y,-z
x,-y,z
1/2+x,1/2+y,z
1/2-x,1/2+y,-z
1/2-x,1/2-y,-z
1/2+x,1/2-y,z
loop_
_atom_site_type_symbol
_atom_site_label
_atom_site_fract_x
_atom_site_fract_y
_atom_site_fract_z
Si Si1 0.413132 0.705497 0.212403
Si Si2 0.552455 0.921652 0.613507
Si Si3 0.924236 0.915627 0.825504
Si Si4 0.562906 0.234032 0.600069
Si Si5 0.649768 0.833957 0.942365
Si Si6 0.205334 0.078279 0.786507
O O1 0.573311 0.654093 0.127312
O O2 0.203539 0.725803 0.423193
O O3 0.325250 0.650008 0.230013
O O4 0.519164 0.776926 0.093605
O O5 0.466297 0.843029 0.706027
O O6 0.432160 0.922659 0.641844
O O7 0.815139 0.917275 0.402179
O O8 0.490415 0.000000 0.694636
O O9 0.758762 0.896971 0.900587
O O10 0.877754 0.000000 0.885938
O O11 0.750000 0.250000 0.500000
O O12 0.366866 0.289545 0.746866
O O13 0.500000 0.852100 0.000000
O O14 0.191913 0.000000 0.760355
O O15 0.000000 0.078133 0.000000
#
# Coordination Sequence:
#
# PCOD9224623 Si02
#       6
#     8   8   8   8   8   8
#     4  11  22  40  66  92 129 161 209 258 319 378
#     4   9  18  34  57  84 121 158 198 245 305 374
#     4  10  22  40  62  89 120 167 216 256 307 372
#     4  11  22  39  61  89 123 162 207 257 312 367
#     4  12  25  42  65  95 127 165 211 262 319 372
#     4  10  20  35  58  95 135 167 201 252 318 388
#
# _framework density 10.313243
#
# number of rings (size 3 to 8) (size 9 to 14) (size 15 to 20)
#    0.000    1.500    3.333    3.500    0.000    7.000 
#    0.000    8.333    0.000    1.000    0.000    2.333 
#    0.000    0.000    0.000    0.000    0.000    0.000 
#
# Total GULP energy -133706.398727 kJ/mol
# GULP energy per Si atom -5571.099947 kJ/mol
# Density = 1.028977 g / cm^3
# Si number density = 10.313243 Si / 1000 Ang^3
#
#
#
# Elastic Constant Matrix: (Units=GPa)
#
#
# Indices 1 2 3 4 5 6 
#
# 1 84.4652 23.6672 36.1344 0.0382 -35.8816 0.0802
# 2 23.6672 70.2615 14.5592 -0.0180 -3.7365 0.0417
# 3 36.1344 14.5592 97.7856 -0.1109 -0.1959 0.2643
# 4 0.0382 -0.0180 -0.1109 14.5917 0.0231 -26.4922
# 5 -35.8816 -3.7365 -0.1959 0.0231 42.3623 -0.0812
# 6 0.0802 0.0417 0.2643 -26.4922 -0.0812 76.7993
#
#
#
# Elastic Compliance Matrix: (Units=1/GPa)
#
#
# Indices 1 2 3 4 5 6 
#
# 1 0.026700 -0.005970 -0.008933 -0.000339 0.022048 -0.000088
# 2 -0.005970 0.016091 -0.000197 0.000079 -0.003638 0.000022
# 3 -0.008933 -0.000197 0.013542 0.000150 -0.007522 0.000007
# 4 -0.000339 0.000079 0.000150 0.183387 -0.000259 0.063260
# 5 0.022048 -0.003638 -0.007522 -0.000259 0.041925 -0.000040
# 6 -0.000088 0.000022 0.000007 0.063260 -0.000040 0.034843
#
#
# Mechanical properties :
#
#
# Convention : Reuss Voigt Hill
#
# Bulk Modulus (GPa) = 38.26737 44.58152 41.42444
# Shear Modulus (GPa) = 14.06869 38.62741 26.34805
#
# Velocity S-wave (km/s) = 2.61448 4.33218 3.57794
# Velocity P-wave (km/s) = 5.26373 6.83259 6.09882
#
# Compressibility (1/GPa) = 0.02613193
#
# Stress axis : x y z
#
# Youngs Moduli (GPa) = 37.45312 62.14704 73.84440
#
# Poissons Ratio (x) = 0.37103 0.65969
# Poissons Ratio (y) = 0.22360 0.01454
# Poissons Ratio (z) = 0.33459 0.01224
#
# Static dielectric constant tensor:
#      x y z
#    x 1.798350 -0.000180 0.043370 
#    y -0.000180 1.889180 0.000100 
#    z 0.043370 0.000100 1.757540 
# 
# From -- ./inp_files/317469.got.cif
#   From: 2010.05.17/outbox.ucp.g08.bks.cvg/sg12_159_cif.got.tgz:317469.got - 2010.06.11 11:47:21.
