data_PCOD9224062
_publ_section_title
;
Structure prediction by ZEFSAII (Michael W. Deem and Ramdas Pophale) SiO2 
 PCOD9224062
Probable space group: C 2/M
;
_chemical_formula_sum "Si O2"
_cell_formula_units_Z 28
_cell_length_a 30.000000
_cell_length_b 9.000000
_cell_length_c 12.000000
_cell_angle_alpha 90.000000
_cell_angle_beta 120.000000
_cell_angle_gamma 90.000000
_cell_volume 2805.922308
_symmetry_space_group_name_H-M "C 2/M"
_symmetry_group_IT_number 12
_symmetry_cell_setting 'monoclinic'
loop_
_space_group_symop_operation_xyz
x,y,z
-x,y,-z
-x,-y,-z
x,-y,z
1/2+x,1/2+y,z
1/2-x,1/2+y,-z
1/2-x,1/2-y,-z
1/2+x,1/2-y,z
loop_
_atom_site_type_symbol
_atom_site_label
_atom_site_fract_x
_atom_site_fract_y
_atom_site_fract_z
Si Si1 0.734750 0.669987 0.866557
Si Si2 0.439510 0.823341 0.408203
Si Si3 0.865050 0.323310 0.664175
Si Si4 0.422311 0.325339 0.152480
Si Si5 0.513529 0.171433 0.148323
Si Si6 0.844283 0.671230 0.886896
Si Si7 0.349210 0.321994 0.417251
O O1 0.720329 0.500000 0.876840
O O2 0.786650 0.669232 0.859458
O O3 0.689829 0.730757 0.729529
O O4 0.750000 0.750000 0.000000
O O5 0.500000 0.792675 0.500000
O O6 0.420406 0.764750 0.265008
O O7 0.405367 0.738269 0.455398
O O8 0.431846 0.000000 0.408558
O O9 0.856688 0.500000 0.639832
O O10 0.926775 0.300301 0.751186
O O11 0.844799 0.276942 0.760166
O O12 0.839609 0.240050 0.528726
O O13 0.416813 0.500000 0.166186
O O14 0.477068 0.284218 0.166932
O O15 0.379663 0.267534 0.012430
O O16 0.502176 0.000000 0.168722
O O17 0.500000 0.181426 0.000000
O O18 0.864556 0.500000 0.913006
O O19 0.347266 0.500000 0.416070
#
# Coordination Sequence:
#
# PCOD9224062 Si02
#       7
#     8   8   8   8   8   8   8
#     4  10  23  42  65  90 118 154 199 250 303 359
#     4  11  24  42  63  86 115 159 210 247 287 358
#     4  10  21  38  62  89 118 160 210 246 287 355
#     4  12  24  36  57  91 126 156 194 252 315 359
#     4  10  19  36  59  84 118 163 208 246 285 347
#     4  10  21  41  64  86 116 160 209 249 287 352
#     4  11  24  41  61  91 128 157 190 248 316 362
#
# _framework density 9.9788940000000004
#
# number of rings (size 3 to 8) (size 9 to 14) (size 15 to 20)
#    0.000    1.429    1.429    3.857    0.000   10.571 
#    0.000    0.000    0.000    0.000    0.000    0.000 
#    0.000    0.000    0.000    0.000    0.000    0.000 
#
# Total GULP energy -156507.724911 kJ/mol
# GULP energy per Si atom -5589.561604 kJ/mol
# Density = 0.995618 g / cm^3
# Si number density = 9.978894 Si / 1000 Ang^3
#
#
#
# Elastic Constant Matrix: (Units=GPa)
#
#
# Indices 1 2 3 4 5 6 
#
# 1 55.7331 13.5689 30.3637 0.0000 -5.5456 0.0000
# 2 13.5689 44.1231 43.6394 0.0000 4.2012 0.0000
# 3 30.3637 43.6394 151.2953 0.0000 -8.5422 0.0000
# 4 0.0000 0.0000 0.0000 32.9424 0.0000 0.5618
# 5 -5.5456 4.2012 -8.5422 0.0000 25.9083 0.0000
# 6 0.0000 0.0000 0.0000 0.5618 0.0000 11.7600
#
#
#
# Elastic Compliance Matrix: (Units=1/GPa)
#
#
# Indices 1 2 3 4 5 6 
#
# 1 0.020865 -0.004073 -0.002775 0.000000 0.004212 0.000000
# 2 -0.004073 0.034365 -0.009638 0.000000 -0.009622 0.000000
# 3 -0.002775 -0.009638 0.010191 0.000000 0.004329 0.000000
# 4 0.000000 0.000000 0.000000 0.030381 0.000000 -0.001451
# 5 0.004212 -0.009622 0.004329 0.000000 0.042487 0.000000
# 6 0.000000 0.000000 0.000000 -0.001451 0.000000 0.085104
#
#
# Mechanical properties :
#
#
# Convention : Reuss Voigt Hill
#
# Bulk Modulus (GPa) = 30.81760 47.36618 39.09189
# Shear Modulus (GPa) = 18.71394 25.02743 21.87069
#
# Velocity S-wave (km/s) = 3.06547 3.54505 3.31395
# Velocity P-wave (km/s) = 5.29192 6.36720 5.85430
#
# Compressibility (1/GPa) = 0.03244899
#
# Stress axis : x y z
#
# Youngs Moduli (GPa) = 47.92686 29.09939 98.12721
#
# Poissons Ratio (x) = 0.11853 0.27228
# Poissons Ratio (y) = 0.19522 0.94575
# Poissons Ratio (z) = 0.13299 0.28046
#
# Static dielectric constant tensor:
#      x y z
#    x 1.738410 0.000000 -0.028810 
#    y 0.000000 1.685160 0.000000 
#    z -0.028810 0.000000 1.695070 
# 
# From -- ./inp_files/187700.got.cif
#   From: 2010.05.17/outbox.ucp.g08.bks.cvg/sg12_94_cif.got.tgz:187700.got - 2010.06.11 11:47:21.
