data_PCOD9224532
_publ_section_title
;
Structure prediction by ZEFSAII (Michael W. Deem and Ramdas Pophale) SiO2 
 PCOD9224532
Probable space group: C 2/M
;
_chemical_formula_sum "Si O2"
_cell_formula_units_Z 28
_cell_length_a 15.000000
_cell_length_b 9.000000
_cell_length_c 24.000000
_cell_angle_alpha 90.000000
_cell_angle_beta 60.000000
_cell_angle_gamma 90.000000
_cell_volume 2805.922308
_symmetry_space_group_name_H-M "C 2/M"
_symmetry_group_IT_number 12
_symmetry_cell_setting 'monoclinic'
loop_
_space_group_symop_operation_xyz
x,y,z
-x,y,-z
-x,-y,-z
x,-y,z
1/2+x,1/2+y,z
1/2-x,1/2+y,-z
1/2-x,1/2-y,-z
1/2+x,1/2-y,z
loop_
_atom_site_type_symbol
_atom_site_label
_atom_site_fract_x
_atom_site_fract_y
_atom_site_fract_z
Si Si1 0.044548 0.331740 0.924178
Si Si2 0.172321 0.177706 0.479903
Si Si3 0.002343 0.821806 0.616061
Si Si4 0.679671 0.322278 0.645935
Si Si5 0.290995 0.821210 0.712288
Si Si6 0.253553 0.822989 0.845134
Si Si7 0.835838 0.679643 0.933644
O O1 0.077903 0.500000 0.898690
O O2 0.136904 0.219058 0.892890
O O3 0.949992 0.282952 0.916229
O O4 0.000000 0.338165 0.000000
O O5 0.250000 0.250000 0.500000
O O6 0.060553 0.210309 0.539801
O O7 0.216748 0.249708 0.410951
O O8 0.183055 0.000000 0.474616
O O9 0.080595 0.774726 0.641504
O O10 0.896147 0.740334 0.655157
O O11 0.988727 0.000000 0.623369
O O12 0.685874 0.500000 0.636356
O O13 0.689564 0.284999 0.707697
O O14 0.283536 0.759894 0.776492
O O15 0.296892 0.000000 0.711243
O O16 0.317889 0.766846 0.876876
O O17 0.265621 0.000000 0.839347
O O18 0.825738 0.500000 0.940243
O O19 0.750000 0.750000 0.000000
#
# Coordination Sequence:
#
# PCOD9224532 Si02
#       7
#     8   8   8   8   8   8   8
#     4  10  20  35  56  82 110 139 172 216 269 321
#     4   9  17  31  53  81 110 140 179 227 275 322
#     4   9  19  35  54  77 106 140 178 222 270 319
#     4   9  19  36  55  76 108 145 181 223 272 324
#     4  10  22  38  54  76 108 145 183 223 267 320
#     4  10  22  38  55  79 110 142 180 223 266 319
#     4  10  20  35  56  81 109 138 171 214 265 318
#
# _framework density 9.9788940000000004
#
# number of rings (size 3 to 8) (size 9 to 14) (size 15 to 20)
#    0.000    2.429    1.429    1.286    0.000    6.571 
#    0.000    2.857    0.000    0.000    0.000    0.000 
#    0.000    0.000    0.000    0.000    0.000    0.000 
#
# Total GULP energy -155937.296620 kJ/mol
# GULP energy per Si atom -5569.189165 kJ/mol
# Density = 0.995618 g / cm^3
# Si number density = 9.978894 Si / 1000 Ang^3
#
#
#
# Elastic Constant Matrix: (Units=GPa)
#
#
# Indices 1 2 3 4 5 6 
#
# 1 116.5652 4.5991 46.1720 0.0000 41.5045 0.0000
# 2 4.5991 -24.4397 -5.0915 0.0000 12.7297 0.0000
# 3 46.1720 -5.0915 27.0962 0.0000 24.3543 0.0000
# 4 0.0000 0.0000 0.0000 25.2729 0.0000 -20.2121
# 5 41.5045 12.7297 24.3543 0.0000 22.6986 0.0000
# 6 0.0000 0.0000 0.0000 -20.2121 0.0000 34.8952
#
#
#
# Elastic Compliance Matrix: (Units=1/GPa)
#
#
# Indices 1 2 3 4 5 6 
#
# 1 0.026092 0.000869 -0.027454 0.000000 -0.018740 0.000000
# 2 0.000869 -0.002498 -0.049992 0.000000 0.053451 0.000000
# 3 -0.027454 -0.049992 0.111544 0.000000 -0.041446 0.000000
# 4 0.000000 0.000000 0.000000 0.073716 0.000000 0.042698
# 5 -0.018740 0.053451 -0.041446 0.000000 0.092814 0.000000
# 6 0.000000 0.000000 0.000000 0.042698 0.000000 0.053389
#
#
# Mechanical properties :
#
#
# Convention : Reuss Voigt Hill
#
# Bulk Modulus (GPa) = -55.50682 23.39787 -16.05448
# Shear Modulus (GPa) = 9.95609 21.47614 15.71612
#
# Velocity S-wave (km/s) = 2.23594 3.28392 2.80923
# Velocity P-wave (km/s) = 4.60506 5.11155 1.56866
#
# Compressibility (1/GPa) = -0.01801580
#
# Stress axis : x y z
#
# Youngs Moduli (GPa) = 38.32658 -400.29662 8.96504
#
# Poissons Ratio (x) = 0.34772 0.24612
# Poissons Ratio (y) = -0.03329 0.44818
# Poissons Ratio (z) = 1.05220 -20.01159
#
# Static dielectric constant tensor:
#      x y z
#    x 1.646830 0.000000 0.068790 
#    y 0.000000 1.674170 0.000000 
#    z 0.068790 0.000000 1.764120 
# 
# From -- ./inp_files/338464.got.cif
#   From: 2010.05.17/outbox.ucp.g08.bks.cvg/sg12_170_cif.got.tgz:338464.got - 2010.06.11 11:47:21.
