data_PCOD9224393
_publ_section_title
;
Structure prediction by ZEFSAII (Michael W. Deem and Ramdas Pophale) SiO2 
 PCOD9224393
Probable space group: C 2/M
;
_chemical_formula_sum "Si O2"
_cell_formula_units_Z 32
_cell_length_a 30.000000
_cell_length_b 9.000000
_cell_length_c 24.000000
_cell_angle_alpha 90.000000
_cell_angle_beta 150.000000
_cell_angle_gamma 90.000000
_cell_volume 3240.000000
_symmetry_space_group_name_H-M "C 2/M"
_symmetry_group_IT_number 12
_symmetry_cell_setting 'monoclinic'
loop_
_space_group_symop_operation_xyz
x,y,z
-x,y,-z
-x,-y,-z
x,-y,z
1/2+x,1/2+y,z
1/2-x,1/2+y,-z
1/2-x,1/2-y,-z
1/2+x,1/2-y,z
loop_
_atom_site_type_symbol
_atom_site_label
_atom_site_fract_x
_atom_site_fract_y
_atom_site_fract_z
Si Si1 0.837466 0.673673 0.732518
Si Si2 0.805202 0.329875 0.829688
Si Si3 0.818459 0.825122 0.116061
Si Si4 0.802380 0.338016 0.207258
Si Si5 0.027446 0.822049 0.354842
Si Si6 0.489936 0.167501 0.551269
Si Si7 0.982311 0.828797 0.047842
Si Si8 0.797457 0.321586 0.497953
O O1 0.840238 0.500000 0.718325
O O2 0.817914 0.677510 0.777390
O O3 0.933767 0.752431 0.831458
O O4 0.761750 0.761845 0.617677
O O5 0.788023 0.500000 0.826137
O O6 0.727534 0.223026 0.765911
O O7 0.893282 0.268330 0.955864
O O8 0.782461 0.779015 0.137826
O O9 0.924360 0.782875 0.227451
O O10 0.815686 0.000000 0.105463
O O11 0.750000 0.750000 0.000000
O O12 0.762335 0.500000 0.152711
O O13 0.907794 0.351684 0.320772
O O14 0.101995 0.739993 0.399103
O O15 0.047759 0.769317 0.440547
O O16 0.036489 0.000000 0.360846
O O17 0.500000 0.230913 0.500000
O O18 0.449142 0.000000 0.504461
O O19 0.970758 0.000000 0.052972
O O20 0.000000 0.831088 0.000000
O O21 0.797273 0.500000 0.499843
O O22 0.750000 0.250000 0.500000
#
# Coordination Sequence:
#
# PCOD9224393 Si02
#       8
#     8   8   8   8   8   8   8   8
#     4  10  21  38  60  86 118 157 199 246 305 365
#     4  10  20  34  55  85 122 158 196 244 299 360
#     4  10  21  40  65  90 121 158 200 248 302 363
#     4  10  20  34  54  84 122 156 196 244 291 353
#     4  10  22  41  64  92 124 160 201 251 309 368
#     4   9  19  35  56  87 123 161 200 242 293 356
#     4   9  17  32  54  81 113 151 194 239 290 349
#     4  12  26  45  67  90 121 159 207 262 311 369
#
# _framework density 9.8765429999999999
#
# number of rings (size 3 to 8) (size 9 to 14) (size 15 to 20)
#    0.000    2.000    0.000    3.375    1.750    5.250 
#    2.250    0.000    0.000    0.000    0.000    0.000 
#    0.000    0.000    0.000    0.000    0.000    0.000 
#
# Total GULP energy -178432.788079 kJ/mol
# GULP energy per Si atom -5576.024627 kJ/mol
# Density = 0.985406 g / cm^3
# Si number density = 9.876543 Si / 1000 Ang^3
#
#
#
# Elastic Constant Matrix: (Units=GPa)
#
#
# Indices 1 2 3 4 5 6 
#
# 1 68.6671 47.3811 26.4735 0.0000 8.4661 0.0000
# 2 47.3811 119.3312 58.8086 0.0000 13.1561 0.0000
# 3 26.4735 58.8086 73.9266 0.0000 -3.7845 0.0000
# 4 0.0000 0.0000 0.0000 33.1687 0.0000 0.3601
# 5 8.4661 13.1561 -3.7845 0.0000 21.3543 0.0000
# 6 0.0000 0.0000 0.0000 0.3601 0.0000 10.8912
#
#
#
# Elastic Compliance Matrix: (Units=1/GPa)
#
#
# Indices 1 2 3 4 5 6 
#
# 1 0.020515 -0.006413 -0.002482 0.000000 -0.004622 0.000000
# 2 -0.006413 0.018617 -0.013089 0.000000 -0.011247 0.000000
# 3 -0.002482 -0.013089 0.025522 0.000000 0.013571 0.000000
# 4 0.000000 0.000000 0.000000 0.030160 0.000000 -0.000997
# 5 -0.004622 -0.011247 0.013571 0.000000 0.057996 0.000000
# 6 0.000000 0.000000 0.000000 -0.000997 0.000000 0.091850
#
#
# Mechanical properties :
#
#
# Convention : Reuss Voigt Hill
#
# Bulk Modulus (GPa) = 48.33903 58.58347 53.46125
# Shear Modulus (GPa) = 16.91925 21.70027 19.30976
#
# Velocity S-wave (km/s) = 2.92984 3.31807 3.12998
# Velocity P-wave (km/s) = 5.99750 6.66346 6.33923
#
# Compressibility (1/GPa) = 0.02068722
#
# Stress axis : x y z
#
# Youngs Moduli (GPa) = 48.74586 53.71546 39.18126
#
# Poissons Ratio (x) = 0.34447 0.09723
# Poissons Ratio (y) = 0.31260 0.51283
# Poissons Ratio (z) = 0.12096 0.70307
#
# Static dielectric constant tensor:
#      x y z
#    x 1.736770 0.000000 0.003900 
#    y 0.000000 1.689040 0.000000 
#    z 0.003900 0.000000 1.705870 
# 
# From -- ./inp_files/353572.got.cif
#   From: 2010.05.17/outbox.ucp.g08.bks.cvg/sg12_177_cif.got.tgz:353572.got - 2010.06.11 11:47:21.
