data_PCOD9224539
_publ_section_title
;
Structure prediction by ZEFSAII (Michael W. Deem and Ramdas Pophale) SiO2 
 PCOD9224539
Probable space group: C 2/M
;
_chemical_formula_sum "Si O2"
_cell_formula_units_Z 32
_cell_length_a 30.000000
_cell_length_b 9.000000
_cell_length_c 15.000000
_cell_angle_alpha 90.000000
_cell_angle_beta 130.000000
_cell_angle_gamma 90.000000
_cell_volume 3102.479995
_symmetry_space_group_name_H-M "C 2/M"
_symmetry_group_IT_number 12
_symmetry_cell_setting 'monoclinic'
loop_
_space_group_symop_operation_xyz
x,y,z
-x,y,-z
-x,-y,-z
x,-y,z
1/2+x,1/2+y,z
1/2-x,1/2+y,-z
1/2-x,1/2-y,-z
1/2+x,1/2-y,z
loop_
_atom_site_type_symbol
_atom_site_label
_atom_site_fract_x
_atom_site_fract_y
_atom_site_fract_z
Si Si1 0.118545 0.171199 0.092167
Si Si2 0.921871 0.834039 0.491473
Si Si3 0.326739 0.332635 0.528451
Si Si4 0.502855 0.174478 0.722346
Si Si5 0.876375 0.177986 0.105887
Si Si6 0.744775 0.169422 0.705597
Si Si7 0.914624 0.322237 0.771248
Si Si8 0.674258 0.678197 0.773985
O O1 0.186007 0.168667 0.206051
O O2 0.083842 0.255589 0.126473
O O3 0.096978 0.000000 0.059829
O O4 0.123578 0.233674 0.997175
O O5 0.873349 0.843289 0.507222
O O6 0.964258 0.711467 0.585902
O O7 0.887452 0.799305 0.356684
O O8 0.948317 0.000000 0.518455
O O9 0.311558 0.500000 0.537360
O O10 0.275461 0.250164 0.410758
O O11 0.358338 0.244727 0.647999
O O12 0.559047 0.275831 0.783856
O O13 0.467508 0.212086 0.769140
O O14 0.516982 0.000000 0.744458
O O15 0.833473 0.227800 0.132262
O O16 0.868522 0.000000 0.091027
O O17 0.720343 0.244393 0.765960
O O18 0.722516 0.000000 0.676121
O O19 0.910722 0.500000 0.771919
O O20 0.685350 0.500000 0.787342
#
# Coordination Sequence:
#
# PCOD9224539 Si02
#       8
#     8   8   8   8   8   8   8   8
#     4  10  23  40  56  78 108 145 190 231 267 321
#     4   8  15  30  53  80 108 139 174 213 263 325
#     4   9  17  32  56  84 112 143 180 219 266 329
#     4  10  21  36  55  82 112 140 175 223 278 328
#     4  10  22  40  58  77 106 146 191 230 266 319
#     4  10  20  35  56  83 114 144 177 223 277 325
#     4  10  21  37  58  83 112 145 179 224 279 327
#     4   9  19  36  58  83 110 143 183 224 268 324
#
# _framework density 10.314329000000001
#
# number of rings (size 3 to 8) (size 9 to 14) (size 15 to 20)
#    0.000    2.500    0.000    2.250    0.000    8.500 
#    0.000    5.000    0.000    0.000    0.000    0.000 
#    0.000    0.000    0.000    0.000    0.000    0.000 
#
# Total GULP energy -178401.481968 kJ/mol
# GULP energy per Si atom -5575.046312 kJ/mol
# Density = 1.029085 g / cm^3
# Si number density = 10.314329 Si / 1000 Ang^3
#
#
#
# Elastic Constant Matrix: (Units=GPa)
#
#
# Indices 1 2 3 4 5 6 
#
# 1 65.2894 10.3459 -6.6911 0.0000 -21.5350 0.0000
# 2 10.3459 32.3782 -7.5463 0.0000 -9.5402 0.0000
# 3 -6.6911 -7.5463 16.4466 0.0000 -14.5629 0.0000
# 4 0.0000 0.0000 0.0000 18.6779 0.0000 -5.9636
# 5 -21.5350 -9.5402 -14.5629 0.0000 34.4486 0.0000
# 6 0.0000 0.0000 0.0000 -5.9636 0.0000 22.9454
#
#
#
# Elastic Compliance Matrix: (Units=1/GPa)
#
#
# Indices 1 2 3 4 5 6 
#
# 1 0.059355 0.047579 0.144646 0.000000 0.111429 0.000000
# 2 0.047579 0.097998 0.183306 0.000000 0.134374 0.000000
# 3 0.144646 0.183306 0.525474 0.000000 0.363329 0.000000
# 4 0.000000 0.000000 0.000000 0.058384 0.000000 0.015174
# 5 0.111429 0.134374 0.363329 0.000000 0.289496 0.000000
# 6 0.000000 0.000000 0.000000 0.015174 0.000000 0.047526
#
#
# Mechanical properties :
#
#
# Convention : Reuss Voigt Hill
#
# Bulk Modulus (GPa) = 0.69740 11.81459 6.25600
# Shear Modulus (GPa) = 6.21015 23.08140 14.64577
#
# Velocity S-wave (km/s) = 1.73695 3.34862 2.66742
# Velocity P-wave (km/s) = 2.08841 4.54871 3.53922
#
# Compressibility (1/GPa) = 1.43388818
#
# Stress axis : x y z
#
# Youngs Moduli (GPa) = 16.84792 10.20431 1.90304
#
# Poissons Ratio (x) = -0.48551 -0.27527
# Poissons Ratio (y) = -0.80161 -0.34884
# Poissons Ratio (z) = -2.43698 -1.87051
#
# Static dielectric constant tensor:
#      x y z
#    x 1.750420 0.000000 0.004190 
#    y 0.000000 1.726670 0.000000 
#    z 0.004190 0.000000 1.778750 
# 
# From -- ./inp_files/249947.got.cif
#   From: 2010.05.17/outbox.ucp.g08.bks.cvg/sg12_125_cif.got.tgz:249947.got - 2010.06.11 11:47:21.
