data_PCOD9224791
_publ_section_title
;
Structure prediction by ZEFSAII (Michael W. Deem and Ramdas Pophale) SiO2 
 PCOD9224791
Probable space group: C 2/M
;
_chemical_formula_sum "Si O2"
_cell_formula_units_Z 28
_cell_length_a 9.000000
_cell_length_b 18.000000
_cell_length_c 27.000000
_cell_angle_alpha 90.000000
_cell_angle_beta 140.000000
_cell_angle_gamma 90.000000
_cell_volume 2811.553005
_symmetry_space_group_name_H-M "C 2/M"
_symmetry_group_IT_number 12
_symmetry_cell_setting 'monoclinic'
loop_
_space_group_symop_operation_xyz
x,y,z
-x,y,-z
-x,-y,-z
x,-y,z
1/2+x,1/2+y,z
1/2-x,1/2+y,-z
1/2-x,1/2-y,-z
1/2+x,1/2-y,z
loop_
_atom_site_type_symbol
_atom_site_label
_atom_site_fract_x
_atom_site_fract_y
_atom_site_fract_z
Si Si1 0.683454 0.087583 0.773743
Si Si2 0.083499 0.682380 0.093567
Si Si3 0.983012 0.827906 0.274974
Si Si4 0.749560 0.679015 0.682228
Si Si5 0.886492 0.085523 0.525090
Si Si6 0.129726 0.840001 0.932751
Si Si7 0.100577 0.412627 0.638903
O O1 0.469921 0.125934 0.745812
O O2 0.650095 0.114450 0.707954
O O3 0.926159 0.106477 0.861850
O O4 0.656459 0.000000 0.766356
O O5 0.275506 0.659775 0.182926
O O6 0.225028 0.679419 0.078995
O O7 0.000982 0.766425 0.082194
O O8 0.837211 0.638741 0.024150
O O9 0.863505 0.808617 0.294675
O O10 0.149176 0.758102 0.307344
O O11 0.157318 0.896503 0.325364
O O12 0.557955 0.638759 0.599248
O O13 0.625961 0.115834 0.448161
O O14 0.000000 0.080256 0.500000
O O15 0.878584 0.000000 0.543359
O O16 0.054689 0.500000 0.631209
#
# Coordination Sequence:
#
# PCOD9224791 Si02
#       7
#     8   8   8   8   8   8   8
#     4  11  21  39  63  90 121 162 207 249 302 365
#     4  10  20  36  60  90 121 154 200 250 300 357
#     4  12  24  41  62  92 126 158 204 255 305 362
#     4  12  25  39  63  91 123 161 207 255 304 360
#     4  10  21  41  66  90 120 162 207 248 302 371
#     4  10  20  36  61  91 117 158 202 247 303 362
#     4  10  22  41  65  88 123 164 201 249 306 365
#
# _framework density 9.9589090000000002
#
# number of rings (size 3 to 8) (size 9 to 14) (size 15 to 20)
#    0.000    1.286    4.286    2.143    0.000    2.286 
#    0.000    3.571    0.000    0.857    0.000    0.000 
#    0.000    0.000    0.000    0.000    0.000    0.000 
#
# Total GULP energy -156012.414154 kJ/mol
# GULP energy per Si atom -5571.871934 kJ/mol
# Density = 0.993624 g / cm^3
# Si number density = 9.958909 Si / 1000 Ang^3
#
#
#
# Elastic Constant Matrix: (Units=GPa)
#
#
# Indices 1 2 3 4 5 6 
#
# 1 78.2066 -3.4165 11.5327 -0.0001 4.9244 -0.0001
# 2 -3.4165 31.7526 10.0135 0.0001 -0.4533 0.0000
# 3 11.5327 10.0135 130.2030 0.0002 19.5994 0.0000
# 4 -0.0001 0.0001 0.0002 27.6136 0.0000 7.0815
# 5 4.9244 -0.4533 19.5994 0.0000 31.2465 -0.0001
# 6 -0.0001 0.0000 0.0000 7.0815 -0.0001 19.9319
#
#
#
# Elastic Compliance Matrix: (Units=1/GPa)
#
#
# Indices 1 2 3 4 5 6 
#
# 1 0.013109 0.001735 -0.001090 0.000000 -0.001357 0.000000
# 2 0.001735 0.032648 -0.002976 0.000000 0.002067 0.000000
# 3 -0.001090 -0.002976 0.008819 0.000000 -0.005403 0.000000
# 4 0.000000 0.000000 0.000000 0.039844 0.000000 -0.014156
# 5 -0.001357 0.002067 -0.005403 0.000000 0.035636 0.000000
# 6 0.000000 0.000000 0.000000 -0.014156 0.000000 0.055200
#
#
# Mechanical properties :
#
#
# Convention : Reuss Voigt Hill
#
# Bulk Modulus (GPa) = 20.03453 30.71350 25.37402
# Shear Modulus (GPa) = 24.20642 30.56058 27.38350
#
# Velocity S-wave (km/s) = 3.48992 3.92131 3.71188
# Velocity P-wave (km/s) = 5.13028 5.99631 5.58013
#
# Compressibility (1/GPa) = 0.04991383
#
# Stress axis : x y z
#
# Youngs Moduli (GPa) = 76.28555 30.62968 113.39091
#
# Poissons Ratio (x) = -0.05314 0.12363
# Poissons Ratio (y) = -0.13235 0.33741
# Poissons Ratio (z) = 0.08317 0.09114
#
# Static dielectric constant tensor:
#      x y z
#    x 1.885140 0.000000 0.045720 
#    y 0.000000 1.674850 0.000000 
#    z 0.045720 0.000000 1.752970 
# 
# From -- ./inp_files/356652.got.cif
#   From: 2010.05.17/outbox.ucp.g08.bks.cvg/sg12_179_cif.got.tgz:356652.got - 2010.06.11 11:47:21.
