data_PCOD9224923
_publ_section_title
;
Structure prediction by ZEFSAII (Michael W. Deem and Ramdas Pophale) SiO2 
 PCOD9224923
Probable space group: C 2/M
;
_chemical_formula_sum "Si O2"
_cell_formula_units_Z 20
_cell_length_a 18.000000
_cell_length_b 21.000000
_cell_length_c 15.000000
_cell_angle_alpha 90.000000
_cell_angle_beta 20.000000
_cell_angle_gamma 90.000000
_cell_volume 1939.254213
_symmetry_space_group_name_H-M "C 2/M"
_symmetry_group_IT_number 12
_symmetry_cell_setting 'monoclinic'
loop_
_space_group_symop_operation_xyz
x,y,z
-x,y,-z
-x,-y,-z
x,-y,z
1/2+x,1/2+y,z
1/2-x,1/2+y,-z
1/2-x,1/2-y,-z
1/2+x,1/2-y,z
loop_
_atom_site_type_symbol
_atom_site_label
_atom_site_fract_x
_atom_site_fract_y
_atom_site_fract_z
Si Si1 0.758143 0.269893 0.145115
Si Si2 0.142786 0.163937 0.451029
Si Si3 0.413925 0.840417 0.326933
Si Si4 0.516944 0.640286 0.081220
Si Si5 0.816800 0.924045 0.921270
O O1 0.518284 0.275321 0.374642
O O2 0.758472 0.324376 0.224141
O O3 0.830450 0.202347 0.101168
O O4 0.919390 0.283639 0.881218
O O5 0.300452 0.158671 0.357146
O O6 0.974460 0.106891 0.667078
O O7 0.220980 0.837681 0.615716
O O8 0.575215 0.898119 0.171269
O O9 0.609954 0.600364 0.061845
O O10 0.500000 0.611045 0.000000
O O11 0.827913 0.000000 0.906244
#
# Coordination Sequence:
#
# PCOD9224923 Si02
#       5
#     8   8   8   8   8
#     4  10  20  37  62  98 131 155 196 251 322 392
#     4   9  20  38  65  94 126 160 197 256 319 378
#     4  10  21  37  60  90 125 168 207 254 312 367
#     4  11  24  39  62  92 125 165 209 262 314 366
#     4  10  24  44  63  89 125 169 219 259 300 363
#
# _framework density 10.313243
#
# number of rings (size 3 to 8) (size 9 to 14) (size 15 to 20)
#    0.000    2.000    0.000    2.400    0.000   18.000 
#    0.000    9.000    0.000   15.600    0.000    0.000 
#    0.000    0.000    0.000    0.000    0.000    0.000 
#
# Total GULP energy -111382.584839 kJ/mol
# GULP energy per Si atom -5569.129242 kJ/mol
# Density = 1.028977 g / cm^3
# Si number density = 10.313243 Si / 1000 Ang^3
#
#
#
# Elastic Constant Matrix: (Units=GPa)
#
#
# Indices 1 2 3 4 5 6 
#
# 1 154.8491 46.2158 50.7365 -0.0024 12.5532 -0.0054
# 2 46.2158 95.4134 24.0175 -0.0089 -3.5046 0.0069
# 3 50.7365 24.0175 126.1642 0.0093 -0.9177 -0.0048
# 4 -0.0024 -0.0089 0.0093 15.7764 -0.0084 4.5980
# 5 12.5532 -3.5046 -0.9177 -0.0084 47.3014 0.0155
# 6 -0.0054 0.0069 -0.0048 4.5980 0.0155 26.8660
#
#
#
# Elastic Compliance Matrix: (Units=1/GPa)
#
#
# Indices 1 2 3 4 5 6 
#
# 1 0.008664 -0.003583 -0.002821 -0.000002 -0.002619 0.000004
# 2 -0.003583 0.012518 -0.000929 0.000010 0.001860 -0.000007
# 3 -0.002821 -0.000929 0.009244 -0.000007 0.000859 0.000002
# 4 -0.000002 0.000010 -0.000007 0.066713 0.000017 -0.011418
# 5 -0.002619 0.001860 0.000859 0.000017 0.021991 -0.000016
# 6 0.000004 -0.000007 0.000002 -0.011418 -0.000016 0.039176
#
#
# Mechanical properties :
#
#
# Convention : Reuss Voigt Hill
#
# Bulk Modulus (GPa) = 63.44923 68.70737 66.07830
# Shear Modulus (GPa) = 28.05451 35.01922 31.53686
#
# Velocity S-wave (km/s) = 3.69198 4.12488 3.91442
# Velocity P-wave (km/s) = 7.00015 7.48791 7.24813
#
# Compressibility (1/GPa) = 0.01576063
#
# Stress axis : x y z
#
# Youngs Moduli (GPa) = 115.42172 79.88390 108.18098
#
# Poissons Ratio (x) = 0.28619 0.30520
# Poissons Ratio (y) = 0.41351 0.10048
# Poissons Ratio (z) = 0.32563 0.07419
#
# Static dielectric constant tensor:
#      x y z
#    x 1.791750 -0.000010 -0.039080 
#    y -0.000010 1.713830 0.000030 
#    z -0.039080 0.000030 1.846330 
# 
# From -- ./inp_files/227519.got.cif
#   From: 2010.05.17/outbox.ucp.g08.bks.cvg/sg12_114_cif.got.tgz:227519.got - 2010.06.11 11:47:21.
