data_PCOD9224758
_publ_section_title
;
Structure prediction by ZEFSAII (Michael W. Deem and Ramdas Pophale) SiO2 
 PCOD9224758
Probable space group: C 2/M
;
_chemical_formula_sum "Si O2"
_cell_formula_units_Z 26
_cell_length_a 9.000000
_cell_length_b 30.000000
_cell_length_c 15.000000
_cell_angle_alpha 90.000000
_cell_angle_beta 40.000000
_cell_angle_gamma 90.000000
_cell_volume 2603.289819
_symmetry_space_group_name_H-M "C 2/M"
_symmetry_group_IT_number 12
_symmetry_cell_setting 'monoclinic'
loop_
_space_group_symop_operation_xyz
x,y,z
-x,y,-z
-x,-y,-z
x,-y,z
1/2+x,1/2+y,z
1/2-x,1/2+y,-z
1/2-x,1/2-y,-z
1/2+x,1/2-y,z
loop_
_atom_site_type_symbol
_atom_site_label
_atom_site_fract_x
_atom_site_fract_y
_atom_site_fract_z
Si Si1 0.508134 0.097226 0.361755
Si Si2 0.607158 0.205931 0.852199
Si Si3 0.450486 0.895510 0.176527
Si Si4 0.522320 0.289489 0.774533
Si Si5 0.480131 0.551852 0.400849
Si Si6 0.500000 0.176384 0.500000
Si Si7 0.031833 0.117191 0.093319
O O1 0.476813 0.096703 0.269986
O O2 0.459894 0.143611 0.434193
O O3 0.794336 0.092418 0.238426
O O4 0.286310 0.067530 0.498433
O O5 0.579742 0.157132 0.824537
O O6 0.500204 0.245026 0.842834
O O7 0.873035 0.213828 0.753829
O O8 0.500000 0.206514 0.000000
O O9 0.207835 0.920422 0.260864
O O10 0.709495 0.904885 0.015204
O O11 0.783227 0.294574 0.624427
O O12 0.463451 0.334555 0.858804
O O13 0.500000 0.554751 0.500000
O O14 0.505327 0.500000 0.363694
O O15 0.000000 0.123254 0.000000
#
# Coordination Sequence:
#
# PCOD9224758 Si02
#       7
#     8   8   8   8   8   4   8
#     4   9  19  36  60  84 112 155 193 238 291 355
#     4  12  24  37  58  84 116 157 204 243 292 342
#     4  10  20  36  59  86 115 152 198 243 293 346
#     4  11  24  37  54  83 116 161 198 248 283 342
#     4   9  18  36  61  88 116 148 190 237 294 361
#     4  10  22  40  57  80 122 156 193 238 298 344
#     4   9  18  34  56  80 115 153 198 241 287 336
#
# _framework density 9.9873630000000002
#
# number of rings (size 3 to 8) (size 9 to 14) (size 15 to 20)
#    0.000    2.000    1.538    1.846    6.462    0.615 
#    4.154    1.154    0.000    5.077    0.000    0.000 
#    0.000    0.000    0.000    0.000    0.000    0.000 
#
# Total GULP energy -144801.752214 kJ/mol
# GULP energy per Si atom -5569.298162 kJ/mol
# Density = 0.996463 g / cm^3
# Si number density = 9.987363 Si / 1000 Ang^3
#
#
#
# Elastic Constant Matrix: (Units=GPa)
#
#
# Indices 1 2 3 4 5 6 
#
# 1 47.8538 15.1347 23.2652 0.0000 -37.3483 0.0000
# 2 15.1347 69.5608 48.4076 0.0000 -37.5956 0.0000
# 3 23.2652 48.4076 136.3417 0.0000 -42.0047 0.0000
# 4 0.0000 0.0000 0.0000 20.5329 0.0000 -20.3869
# 5 -37.3483 -37.5956 -42.0047 0.0000 41.2494 0.0000
# 6 0.0000 0.0000 0.0000 -20.3869 0.0000 102.8667
#
#
#
# Elastic Compliance Matrix: (Units=1/GPa)
#
#
# Indices 1 2 3 4 5 6 
#
# 1 0.339182 0.171650 0.034958 0.000000 0.499148 0.000000
# 2 0.171650 0.116107 0.014528 0.000000 0.276033 0.000000
# 3 0.034958 0.014528 0.014633 0.000000 0.059793 0.000000
# 4 0.000000 0.000000 0.000000 0.060634 0.000000 0.012017
# 5 0.499148 0.276033 0.059793 0.000000 0.788654 0.000000
# 6 0.000000 0.000000 0.000000 0.012017 0.000000 0.012103
#
#
# Mechanical properties :
#
#
# Convention : Reuss Voigt Hill
#
# Bulk Modulus (GPa) = 1.09626 47.48568 24.29097
# Shear Modulus (GPa) = 4.19075 44.05974 24.12524
#
# Velocity S-wave (km/s) = 1.45003 4.70166 3.47910
# Velocity P-wave (km/s) = 1.83124 7.30059 5.32222
#
# Compressibility (1/GPa) = 0.91219363
#
# Stress axis : x y z
#
# Youngs Moduli (GPa) = 2.94827 8.61274 68.34026
#
# Poissons Ratio (x) = -1.47838 -2.38903
# Poissons Ratio (y) = -0.50607 -0.99282
# Poissons Ratio (z) = -0.10307 -0.12512
#
# Static dielectric constant tensor:
#      x y z
#    x 1.779250 0.000000 -0.068710 
#    y 0.000000 1.667380 0.000000 
#    z -0.068710 0.000000 1.768830 
# 
# From -- ./inp_files/201185.got.cif
#   From: 2010.05.17/outbox.ucp.g08.bks.cvg/sg12_101_cif.got.tgz:201185.got - 2010.06.11 11:47:21.
