data_PCOD9224926
_publ_section_title
;
Structure prediction by ZEFSAII (Michael W. Deem and Ramdas Pophale) SiO2 
 PCOD9224926
Probable space group: C 2/M
;
_chemical_formula_sum "Si O2"
_cell_formula_units_Z 32
_cell_length_a 30.000000
_cell_length_b 9.000000
_cell_length_c 24.000000
_cell_angle_alpha 90.000000
_cell_angle_beta 30.000000
_cell_angle_gamma 90.000000
_cell_volume 3240.000000
_symmetry_space_group_name_H-M "C 2/M"
_symmetry_group_IT_number 12
_symmetry_cell_setting 'monoclinic'
loop_
_space_group_symop_operation_xyz
x,y,z
-x,y,-z
-x,-y,-z
x,-y,z
1/2+x,1/2+y,z
1/2-x,1/2+y,-z
1/2-x,1/2-y,-z
1/2+x,1/2-y,z
loop_
_atom_site_type_symbol
_atom_site_label
_atom_site_fract_x
_atom_site_fract_y
_atom_site_fract_z
Si Si1 0.099713 0.681200 0.905392
Si Si2 0.823991 0.329169 0.382415
Si Si3 0.985407 0.178324 0.258414
Si Si4 0.560823 0.177168 0.573955
Si Si5 0.434135 0.677786 0.623428
Si Si6 0.233125 0.321835 0.850643
Si Si7 0.679839 0.178041 0.034188
Si Si8 0.758651 0.829302 0.650805
O O1 0.093690 0.500000 0.911984
O O2 0.145698 0.733261 0.912763
O O3 0.177063 0.720086 0.777772
O O4 0.000000 0.735555 0.000000
O O5 0.838183 0.500000 0.385172
O O6 0.750000 0.250000 0.500000
O O7 0.783154 0.331269 0.365296
O O8 0.916394 0.240893 0.287399
O O9 0.083334 0.246620 0.144692
O O10 0.946646 0.240148 0.358753
O O11 0.987448 0.000000 0.256600
O O12 0.477999 0.233648 0.626788
O O13 0.652749 0.230877 0.445650
O O14 0.559659 0.000000 0.581979
O O15 0.500000 0.699655 0.500000
O O16 0.433177 0.500000 0.637050
O O17 0.331681 0.726810 0.724273
O O18 0.233299 0.500000 0.842193
O O19 0.219255 0.293710 0.930331
O O20 0.671863 0.000000 0.051059
O O21 0.750000 0.250000 0.000000
O O22 0.783663 0.000000 0.639423
#
# Coordination Sequence:
#
# PCOD9224926 Si02
#       8
#     8   8   8   8   8   8   8   8
#     4   9  18  34  60  92 121 154 201 251 297 354
#     4  11  22  37  60  92 125 161 201 252 311 375
#     4  12  25  41  61  86 120 162 209 257 311 374
#     4  12  24  38  60  89 121 157 199 254 314 374
#     4  10  20  37  63  91 122 159 201 247 301 367
#     4   9  19  35  58  89 123 158 198 251 305 357
#     4  11  23  40  63  91 126 165 210 259 313 374
#     4  10  21  37  61  90 122 159 202 250 306 371
#
# _framework density 9.8765429999999999
#
# number of rings (size 3 to 8) (size 9 to 14) (size 15 to 20)
#    0.000    1.500    1.250    4.500    1.750    3.750 
#    0.000    0.625    0.000    1.875    0.000    0.000 
#    0.000    0.000    0.000    0.000    0.000    0.000 
#
# Total GULP energy -178751.937285 kJ/mol
# GULP energy per Si atom -5585.998040 kJ/mol
# Density = 0.985406 g / cm^3
# Si number density = 9.876543 Si / 1000 Ang^3
#
#
#
# Elastic Constant Matrix: (Units=GPa)
#
#
# Indices 1 2 3 4 5 6 
#
# 1 102.1418 25.4005 45.5743 -0.0014 -23.2305 0.0000
# 2 25.4005 89.7180 39.7826 -0.0048 -2.7385 0.0019
# 3 45.5743 39.7826 119.1768 -0.0017 -35.0534 0.0002
# 4 -0.0014 -0.0048 -0.0017 26.8849 0.0030 -10.0529
# 5 -23.2305 -2.7385 -35.0534 0.0030 38.7260 -0.0007
# 6 0.0000 0.0019 0.0002 -10.0529 -0.0007 23.5789
#
#
#
# Elastic Compliance Matrix: (Units=1/GPa)
#
#
# Indices 1 2 3 4 5 6 
#
# 1 0.012671 -0.002287 -0.002581 0.000000 0.005103 0.000000
# 2 -0.002287 0.013998 -0.005329 0.000003 -0.005206 0.000000
# 3 -0.002581 -0.005329 0.014433 -0.000001 0.011139 0.000000
# 4 0.000000 0.000003 -0.000001 0.044250 -0.000004 0.018866
# 5 0.005103 -0.005206 0.011139 -0.000004 0.038598 0.000000
# 6 0.000000 0.000000 0.000000 0.018866 0.000000 0.050454
#
#
# Mechanical properties :
#
#
# Convention : Reuss Voigt Hill
#
# Bulk Modulus (GPa) = 48.29220 59.17239 53.73230
# Shear Modulus (GPa) = 24.78895 31.18991 27.98943
#
# Velocity S-wave (km/s) = 3.54636 3.97796 3.76834
# Velocity P-wave (km/s) = 6.42416 7.14982 6.79668
#
# Compressibility (1/GPa) = 0.02070728
#
# Stress axis : x y z
#
# Youngs Moduli (GPa) = 78.91808 71.44026 69.28404
#
# Poissons Ratio (x) = 0.16339 0.17884
# Poissons Ratio (y) = 0.18049 0.36923
# Poissons Ratio (z) = 0.20371 0.38072
#
# Static dielectric constant tensor:
#      x y z
#    x 1.775560 0.000000 0.047770 
#    y 0.000000 1.670160 0.000000 
#    z 0.047770 0.000000 1.699740 
# 
# From -- ./inp_files/353356.got.cif
#   From: 2010.05.17/outbox.ucp.g08.bks.cvg/sg12_177_cif.got.tgz:353356.got - 2010.06.11 11:47:21.
