data_PCOD9224444
_publ_section_title
;
Structure prediction by ZEFSAII (Michael W. Deem and Ramdas Pophale) SiO2 
 PCOD9224444
Probable space group: C 2/M
;
_chemical_formula_sum "Si O2"
_cell_formula_units_Z 20
_cell_length_a 21.000000
_cell_length_b 9.000000
_cell_length_c 30.000000
_cell_angle_alpha 90.000000
_cell_angle_beta 20.000000
_cell_angle_gamma 90.000000
_cell_volume 1939.254213
_symmetry_space_group_name_H-M "C 2/M"
_symmetry_group_IT_number 12
_symmetry_cell_setting 'monoclinic'
loop_
_space_group_symop_operation_xyz
x,y,z
-x,y,-z
-x,-y,-z
x,-y,z
1/2+x,1/2+y,z
1/2-x,1/2+y,-z
1/2-x,1/2-y,-z
1/2+x,1/2-y,z
loop_
_atom_site_type_symbol
_atom_site_label
_atom_site_fract_x
_atom_site_fract_y
_atom_site_fract_z
Si Si1 0.629442 0.822562 0.457840
Si Si2 0.476940 0.168443 0.807503
Si Si3 0.333465 0.179579 0.141814
Si Si4 0.076747 0.821460 0.587619
Si Si5 0.886905 0.669300 0.971211
O O1 0.500000 0.786438 0.500000
O O2 0.573008 0.730877 0.538728
O O3 0.844756 0.774979 0.310817
O O4 0.615474 0.000000 0.474541
O O5 0.419752 0.161880 0.896974
O O6 0.523172 0.000000 0.762332
O O7 0.296960 0.232843 0.900356
O O8 0.421499 0.222548 0.131751
O O9 0.129472 0.230195 0.261309
O O10 0.319295 0.000000 0.151252
O O11 0.500000 0.224823 0.000000
O O12 0.250000 0.750000 0.500000
O O13 0.092482 0.000000 0.580630
O O14 0.849495 0.500000 0.011914
#
# Coordination Sequence:
#
# PCOD9224444 Si02
#       5
#     8   8   8   8   8
#     4  11  24  41  63  89 121 165 215 264 318 374
#     4  10  20  34  56  88 121 156 199 251 312 373
#     4   9  19  36  60  87 116 159 206 246 296 363
#     4  11  24  42  65  95 132 169 210 259 315 380
#     4   9  18  34  57  85 119 157 200 248 303 366
#
# _framework density 10.313243
#
# number of rings (size 3 to 8) (size 9 to 14) (size 15 to 20)
#    0.000    2.000    0.000    3.000    2.800    4.000 
#    0.000    2.000    0.000    3.000    0.000    0.000 
#    0.000    0.000    0.000    0.000    0.000    0.000 
#
# Total GULP energy -111555.144309 kJ/mol
# GULP energy per Si atom -5577.757215 kJ/mol
# Density = 1.028977 g / cm^3
# Si number density = 10.313243 Si / 1000 Ang^3
#
#
#
# Elastic Constant Matrix: (Units=GPa)
#
#
# Indices 1 2 3 4 5 6 
#
# 1 105.9418 27.3723 52.9897 -0.0018 -31.1778 0.0001
# 2 27.3723 61.9818 27.7792 -0.0012 -15.6932 0.0011
# 3 52.9897 27.7792 131.3314 -0.0282 -42.9283 -0.0012
# 4 -0.0018 -0.0012 -0.0282 24.6483 -0.0070 -6.7227
# 5 -31.1778 -15.6932 -42.9283 -0.0070 39.5634 0.0020
# 6 0.0001 0.0011 -0.0012 -6.7227 0.0020 29.1722
#
#
#
# Elastic Compliance Matrix: (Units=1/GPa)
#
#
# Indices 1 2 3 4 5 6 
#
# 1 0.013489 -0.003118 -0.002654 -0.000001 0.006513 -0.000001
# 2 -0.003118 0.019106 -0.001719 -0.000001 0.003256 -0.000001
# 3 -0.002654 -0.001719 0.012617 0.000018 0.010917 0.000004
# 4 -0.000001 -0.000001 0.000018 0.043292 0.000026 0.009977
# 5 0.006513 0.003256 0.010917 0.000026 0.043546 0.000003
# 6 -0.000001 -0.000001 0.000004 0.009977 0.000003 0.036578
#
#
# Mechanical properties :
#
#
# Convention : Reuss Voigt Hill
#
# Bulk Modulus (GPa) = 33.08001 57.28193 45.18097
# Shear Modulus (GPa) = 25.81488 31.41770 28.61629
#
# Velocity S-wave (km/s) = 3.54155 3.90702 3.72876
# Velocity P-wave (km/s) = 5.72677 6.94150 6.36319
#
# Compressibility (1/GPa) = 0.03022974
#
# Stress axis : x y z
#
# Youngs Moduli (GPa) = 74.13360 52.34064 79.25720
#
# Poissons Ratio (x) = 0.16322 0.21035
# Poissons Ratio (y) = 0.23118 0.13622
# Poissons Ratio (z) = 0.19675 0.08996
#
# Static dielectric constant tensor:
#      x y z
#    x 1.799350 0.000000 0.073290 
#    y 0.000000 1.719050 0.000010 
#    z 0.073290 0.000010 1.833820 
# 
# From -- ./inp_files/230602.got.cif
#   From: 2010.05.17/outbox.ucp.g08.bks.cvg/sg12_116_cif.got.tgz:230602.got - 2010.06.11 11:47:21.
