data_PCOD9224463
_publ_section_title
;
Structure prediction by ZEFSAII (Michael W. Deem and Ramdas Pophale) SiO2 
 PCOD9224463
Probable space group: C 2/M
;
_chemical_formula_sum "Si O2"
_cell_formula_units_Z 32
_cell_length_a 15.000000
_cell_length_b 18.000000
_cell_length_c 24.000000
_cell_angle_alpha 90.000000
_cell_angle_beta 30.000000
_cell_angle_gamma 90.000000
_cell_volume 3240.000000
_symmetry_space_group_name_H-M "C 2/M"
_symmetry_group_IT_number 12
_symmetry_cell_setting 'monoclinic'
loop_
_space_group_symop_operation_xyz
x,y,z
-x,y,-z
-x,-y,-z
x,-y,z
1/2+x,1/2+y,z
1/2-x,1/2+y,-z
1/2-x,1/2-y,-z
1/2+x,1/2-y,z
loop_
_atom_site_type_symbol
_atom_site_label
_atom_site_fract_x
_atom_site_fract_y
_atom_site_fract_z
Si Si1 0.792826 0.090143 0.893068
Si Si2 0.970431 0.641269 0.146389
Si Si3 0.953294 0.410729 0.771795
Si Si4 0.842242 0.088950 0.162299
Si Si5 0.933831 0.200286 0.903422
Si Si6 0.624382 0.587696 0.279803
Si Si7 0.759000 0.409309 0.473692
Si Si8 0.039033 0.410167 0.416248
O O1 0.925310 0.144242 0.855603
O O2 0.814954 0.110447 0.815810
O O3 0.820547 0.000000 0.884618
O O4 0.605423 0.111477 0.024856
O O5 0.784689 0.601640 0.235234
O O6 0.048302 0.622448 0.165371
O O7 0.934739 0.729720 0.163839
O O8 0.959281 0.500000 0.774560
O O9 0.784330 0.395710 0.822568
O O10 0.130654 0.386261 0.641199
O O11 0.719666 0.105705 0.283593
O O12 0.011923 0.143239 0.076525
O O13 0.886185 0.000000 0.138204
O O14 0.750000 0.250000 0.000000
O O15 0.594959 0.500000 0.289849
O O16 0.439935 0.618255 0.405278
O O17 0.756496 0.500000 0.472249
O O18 0.879522 0.388273 0.461444
O O19 0.037463 0.500000 0.420474
O O20 0.000000 0.382208 0.500000
#
# Coordination Sequence:
#
# PCOD9224463 Si02
#       8
#     8   8   8   8   8   8   8   8
#     4  10  21  38  60  85 109 139 195 252 291 337
#     4  11  22  37  56  80 118 160 191 228 287 351
#     4   9  18  35  60  85 115 152 196 243 279 337
#     4   9  18  35  61  87 112 148 195 245 294 339
#     4  10  23  39  56  83 115 153 190 234 295 353
#     4  10  20  34  59  87 115 149 190 245 291 339
#     4   8  16  30  50  86 117 143 188 236 292 336
#     4   8  14  25  50  85 115 139 175 237 295 337
#
# _framework density 9.8765429999999999
#
# number of rings (size 3 to 8) (size 9 to 14) (size 15 to 20)
#    0.000    2.625    0.000    3.375    1.750    2.500 
#    0.000    8.125    2.750    9.000    0.000    0.000 
#    0.000    0.000    0.000    0.000    0.000    0.000 
#
# Total GULP energy -178204.858883 kJ/mol
# GULP energy per Si atom -5568.901840 kJ/mol
# Density = 0.985406 g / cm^3
# Si number density = 9.876543 Si / 1000 Ang^3
#
#
#
# Elastic Constant Matrix: (Units=GPa)
#
#
# Indices 1 2 3 4 5 6 
#
# 1 93.4065 27.5225 45.9570 0.0006 1.5937 0.0003
# 2 27.5225 63.3145 18.0522 0.0044 5.6715 -0.0025
# 3 45.9570 18.0522 94.8936 0.0138 -3.4570 -0.0029
# 4 0.0006 0.0044 0.0138 10.7062 -0.0039 -4.8930
# 5 1.5937 5.6715 -3.4570 -0.0039 28.4648 -0.0008
# 6 0.0003 -0.0025 -0.0029 -4.8930 -0.0008 16.7375
#
#
#
# Elastic Compliance Matrix: (Units=1/GPa)
#
#
# Indices 1 2 3 4 5 6 
#
# 1 0.015337 -0.004735 -0.006553 0.000010 -0.000711 0.000001
# 2 -0.004735 0.018566 -0.001370 -0.000007 -0.003600 0.000001
# 3 -0.006553 -0.001370 0.014058 -0.000018 0.002347 -0.000003
# 4 0.000010 -0.000007 -0.000018 0.107807 0.000015 0.031516
# 5 -0.000711 -0.003600 0.002347 0.000015 0.036173 0.000006
# 6 0.000001 0.000001 -0.000003 0.031516 0.000006 0.068959
#
#
# Mechanical properties :
#
#
# Convention : Reuss Voigt Hill
#
# Bulk Modulus (GPa) = 44.15978 48.29755 46.22866
# Shear Modulus (GPa) = 17.02044 21.85390 19.43717
#
# Velocity S-wave (km/s) = 2.93859 3.32980 3.14029
# Velocity P-wave (km/s) = 5.82393 6.26794 6.05001
#
# Compressibility (1/GPa) = 0.02264504
#
# Stress axis : x y z
#
# Youngs Moduli (GPa) = 65.20025 53.86325 71.13460
#
# Poissons Ratio (x) = 0.25504 0.46615
# Poissons Ratio (y) = 0.30872 0.09744
# Poissons Ratio (z) = 0.42726 0.07378
#
# Static dielectric constant tensor:
#      x y z
#    x 1.704760 0.000000 -0.027330 
#    y 0.000000 1.697580 0.000000 
#    z -0.027330 0.000000 1.771000 
# 
# From -- ./inp_files/340798.got.cif
#   From: 2010.05.17/outbox.ucp.g08.bks.cvg/sg12_171_cif.got.tgz:340798.got - 2010.06.11 11:47:21.
