data_PCOD9224670
_publ_section_title
;
Structure prediction by ZEFSAII (Michael W. Deem and Ramdas Pophale) SiO2 
 PCOD9224670
Probable space group: C 2/M
;
_chemical_formula_sum "Si O2"
_cell_formula_units_Z 28
_cell_length_a 30.000000
_cell_length_b 18.000000
_cell_length_c 9.000000
_cell_angle_alpha 90.000000
_cell_angle_beta 140.000000
_cell_angle_gamma 90.000000
_cell_volume 3123.947783
_symmetry_space_group_name_H-M "C 2/M"
_symmetry_group_IT_number 12
_symmetry_cell_setting 'monoclinic'
loop_
_space_group_symop_operation_xyz
x,y,z
-x,y,-z
-x,-y,-z
x,-y,z
1/2+x,1/2+y,z
1/2-x,1/2+y,-z
1/2-x,1/2-y,-z
1/2+x,1/2-y,z
loop_
_atom_site_type_symbol
_atom_site_label
_atom_site_fract_x
_atom_site_fract_y
_atom_site_fract_z
Si Si1 0.885045 0.911671 0.053304
Si Si2 0.458858 0.197650 0.039764
Si Si3 0.156233 0.837307 0.734382
Si Si4 0.320789 0.269815 0.757686
Si Si5 0.017835 0.144653 0.220840
Si Si6 0.314623 0.816334 0.057223
Si Si7 0.930155 0.416822 0.227061
O O1 0.869103 0.878464 0.177831
O O2 0.963762 0.898429 0.191380
O O3 0.870291 0.000000 0.010526
O O4 0.838633 0.856447 0.831533
O O5 0.501464 0.268395 0.209547
O O6 0.446096 0.134479 0.126719
O O7 0.500000 0.171728 0.000000
O O8 0.383402 0.234499 0.821873
O O9 0.098902 0.864173 0.468341
O O10 0.157140 0.747265 0.758608
O O11 0.238173 0.847450 0.904267
O O12 0.250000 0.250000 0.500000
O O13 0.315282 0.229152 0.903357
O O14 0.000000 0.130424 0.000000
O O15 0.369532 0.881164 0.171266
O O16 0.911172 0.500000 0.132734
O O17 0.000000 0.418456 0.500000
#
# Coordination Sequence:
#
# PCOD9224670 Si02
#       7
#     8   8   8   8   8   8   8
#     4  10  22  39  56  84 120 152 189 235 291 350
#     4   9  19  34  55  82 107 138 188 235 273 334
#     4  10  20  36  59  85 114 150 195 242 284 343
#     4   9  19  36  60  83 114 150 190 238 284 338
#     4  10  21  35  60  87 112 151 196 236 284 349
#     4   9  20  35  58  85 110 148 196 242 285 345
#     4  10  20  36  55  76 109 146 182 232 288 342
#
# _framework density 8.9630179999999999
#
# number of rings (size 3 to 8) (size 9 to 14) (size 15 to 20)
#    0.000    2.429    0.000    2.143    6.000    2.286 
#    2.571    2.857    0.000    0.000    0.000    0.000 
#    0.000    0.000    0.000    0.000    0.000    0.000 
#
# Total GULP energy -155953.304397 kJ/mol
# GULP energy per Si atom -5569.760871 kJ/mol
# Density = 0.894262 g / cm^3
# Si number density = 8.963018 Si / 1000 Ang^3
#
#
#
# Elastic Constant Matrix: (Units=GPa)
#
#
# Indices 1 2 3 4 5 6 
#
# 1 142.1516 46.9613 40.3540 0.0000 20.5569 0.0000
# 2 46.9613 107.3997 31.6413 0.0000 6.2156 0.0000
# 3 40.3540 31.6413 102.8791 0.0000 20.2674 0.0000
# 4 0.0000 0.0000 0.0000 5.1363 0.0000 -4.4202
# 5 20.5569 6.2156 20.2674 0.0000 25.8516 0.0000
# 6 0.0000 0.0000 0.0000 -4.4202 0.0000 4.5272
#
#
#
# Elastic Compliance Matrix: (Units=1/GPa)
#
#
# Indices 1 2 3 4 5 6 
#
# 1 0.009361 -0.003313 -0.001589 0.000000 -0.005402 0.000000
# 2 -0.003313 0.011411 -0.002588 0.000000 0.001920 0.000000
# 3 -0.001589 -0.002588 0.012735 0.000000 -0.008098 0.000000
# 4 0.000000 0.000000 0.000000 1.218612 0.000000 1.189809
# 5 -0.005402 0.001920 -0.008098 0.000000 0.048865 0.000000
# 6 0.000000 0.000000 0.000000 1.189809 0.000000 1.382574
#
#
# Mechanical properties :
#
#
# Convention : Reuss Voigt Hill
#
# Bulk Modulus (GPa) = 53.97448 65.59371 59.78409
# Shear Modulus (GPa) = 1.84862 22.66794 12.25828
#
# Velocity S-wave (km/s) = 1.01661 3.55988 2.61784
# Velocity P-wave (km/s) = 5.61720 7.31900 6.52383
#
# Compressibility (1/GPa) = 0.01852728
#
# Stress axis : x y z
#
# Youngs Moduli (GPa) = 106.82238 87.63540 78.52461
#
# Poissons Ratio (x) = 0.29030 0.12477
# Poissons Ratio (y) = 0.35386 0.20325
# Poissons Ratio (z) = 0.16974 0.22683
#
# Static dielectric constant tensor:
#      x y z
#    x 1.628520 0.000000 0.000710 
#    y 0.000000 1.608200 0.000000 
#    z 0.000710 0.000000 1.655880 
# 
# From -- ./inp_files/112636.got.cif
#   From: 2010.05.17/outbox.ucp.g08.bks.cvg/sg12_57_cif.got.tgz:112636.got - 2010.06.11 11:47:21.
