data_PCOD9224882
_publ_section_title
;
Structure prediction by ZEFSAII (Michael W. Deem and Ramdas Pophale) SiO2 
 PCOD9224882
Probable space group: C 2/M
;
_chemical_formula_sum "Si O2"
_cell_formula_units_Z 32
_cell_length_a 30.000000
_cell_length_b 9.000000
_cell_length_c 24.000000
_cell_angle_alpha 90.000000
_cell_angle_beta 150.000000
_cell_angle_gamma 90.000000
_cell_volume 3240.000000
_symmetry_space_group_name_H-M "C 2/M"
_symmetry_group_IT_number 12
_symmetry_cell_setting 'monoclinic'
loop_
_space_group_symop_operation_xyz
x,y,z
-x,y,-z
-x,-y,-z
x,-y,z
1/2+x,1/2+y,z
1/2-x,1/2+y,-z
1/2-x,1/2-y,-z
1/2+x,1/2-y,z
loop_
_atom_site_type_symbol
_atom_site_label
_atom_site_fract_x
_atom_site_fract_y
_atom_site_fract_z
Si Si1 0.643178 0.674682 0.135042
Si Si2 0.224077 0.678482 0.530798
Si Si3 0.439858 0.821224 0.572675
Si Si4 0.857044 0.325486 0.363740
Si Si5 0.069700 0.322764 0.943596
Si Si6 0.388556 0.676247 0.281714
Si Si7 0.625288 0.176133 0.232078
Si Si8 0.280980 0.177353 0.976183
O O1 0.621966 0.500000 0.117346
O O2 0.750358 0.691166 0.250106
O O3 0.609208 0.762723 0.152450
O O4 0.605756 0.739595 0.037176
O O5 0.227687 0.500000 0.530744
O O6 0.250000 0.750000 0.500000
O O7 0.126475 0.720212 0.449017
O O8 0.294241 0.735504 0.652659
O O9 0.395542 0.778307 0.465197
O O10 0.536113 0.747441 0.675739
O O11 0.448321 0.000000 0.582364
O O12 0.877846 0.500000 0.379072
O O13 0.893627 0.240725 0.349549
O O14 0.085845 0.500000 0.968566
O O15 0.963851 0.300938 0.828039
O O16 0.124408 0.275779 0.947986
O O17 0.399569 0.500000 0.295555
O O18 0.292548 0.710328 0.150932
O O19 0.644312 0.000000 0.250584
O O20 0.283221 0.000000 0.987100
O O21 0.250000 0.250000 0.000000
#
# Coordination Sequence:
#
# PCOD9224882 Si02
#       8
#     8   8   8   8   8   8   8   8
#     4  11  21  36  61  92 124 158 199 246 298 357
#     4  11  24  44  65  88 120 159 205 253 302 355
#     4  10  22  41  62  86 121 160 196 238 295 361
#     4  10  20  37  60  87 120 160 197 235 295 360
#     4  10  22  41  61  87 123 160 198 244 302 364
#     4  11  23  38  60  92 122 152 196 249 298 348
#     4  11  23  39  63  91 122 161 201 245 302 359
#     4  10  23  42  61  83 116 154 199 248 294 349
#
# _framework density 9.8765429999999999
#
# number of rings (size 3 to 8) (size 9 to 14) (size 15 to 20)
#    0.000    1.500    2.500    2.250    0.000    8.500 
#    0.000    3.750    0.000    0.000    0.000    0.000 
#    0.000    0.000    0.000    0.000    0.000    0.000 
#
# Total GULP energy -178874.436847 kJ/mol
# GULP energy per Si atom -5589.826151 kJ/mol
# Density = 0.985406 g / cm^3
# Si number density = 9.876543 Si / 1000 Ang^3
#
#
#
# Elastic Constant Matrix: (Units=GPa)
#
#
# Indices 1 2 3 4 5 6 
#
# 1 157.6974 43.7356 10.6787 0.0000 16.7103 0.0000
# 2 43.7356 39.1351 11.9002 0.0000 13.6551 0.0000
# 3 10.6787 11.9002 10.0432 0.0000 15.7826 0.0000
# 4 0.0000 0.0000 0.0000 29.0391 0.0000 -3.0764
# 5 16.7103 13.6551 15.7826 0.0000 34.1405 0.0000
# 6 0.0000 0.0000 0.0000 -3.0764 0.0000 35.6911
#
#
#
# Elastic Compliance Matrix: (Units=1/GPa)
#
#
# Indices 1 2 3 4 5 6 
#
# 1 0.009695 -0.013492 0.017017 0.000000 -0.007216 0.000000
# 2 -0.013492 0.063601 -0.114855 0.000000 0.034261 0.000000
# 3 0.017017 -0.114855 0.579321 0.000000 -0.230201 0.000000
# 4 0.000000 0.000000 0.000000 0.034754 0.000000 0.002996
# 5 -0.007216 0.034261 -0.230201 0.000000 0.125537 0.000000
# 6 0.000000 0.000000 0.000000 0.002996 0.000000 0.028276
#
#
# Mechanical properties :
#
#
# Convention : Reuss Voigt Hill
#
# Bulk Modulus (GPa) = 2.32581 37.72274 20.02427
# Shear Modulus (GPa) = 4.14194 29.14490 16.64342
#
# Velocity S-wave (km/s) = 1.44962 3.84534 2.90586
# Velocity P-wave (km/s) = 1.99546 6.23331 4.62796
#
# Compressibility (1/GPa) = 0.42995820
#
# Stress axis : x y z
#
# Youngs Moduli (GPa) = 103.14219 15.72301 1.72616
#
# Poissons Ratio (x) = 0.21213 -0.02937
# Poissons Ratio (y) = 1.39158 0.19826
# Poissons Ratio (z) = -1.75519 1.80587
#
# Static dielectric constant tensor:
#      x y z
#    x 1.685600 0.000000 0.026890 
#    y 0.000000 1.661600 0.000000 
#    z 0.026890 0.000000 1.700030 
# 
# From -- ./inp_files/353451.got.cif
#   From: 2010.05.17/outbox.ucp.g08.bks.cvg/sg12_177_cif.got.tgz:353451.got - 2010.06.11 11:47:21.
