data_PCOD9224676
_publ_section_title
;
Structure prediction by ZEFSAII (Michael W. Deem and Ramdas Pophale) SiO2 
 PCOD9224676
Probable space group: C 2/M
;
_chemical_formula_sum "Si O2"
_cell_formula_units_Z 28
_cell_length_a 24.000000
_cell_length_b 9.000000
_cell_length_c 15.000000
_cell_angle_alpha 90.000000
_cell_angle_beta 120.000000
_cell_angle_gamma 90.000000
_cell_volume 2805.922308
_symmetry_space_group_name_H-M "C 2/M"
_symmetry_group_IT_number 12
_symmetry_cell_setting 'monoclinic'
loop_
_space_group_symop_operation_xyz
x,y,z
-x,y,-z
-x,-y,-z
x,-y,z
1/2+x,1/2+y,z
1/2-x,1/2+y,-z
1/2-x,1/2-y,-z
1/2+x,1/2-y,z
loop_
_atom_site_type_symbol
_atom_site_label
_atom_site_fract_x
_atom_site_fract_y
_atom_site_fract_z
Si Si1 0.082216 0.181060 0.491724
Si Si2 0.456224 0.823077 0.877299
Si Si3 0.808067 0.322422 0.792348
Si Si4 0.567834 0.321317 0.865818
Si Si5 0.559820 0.319708 0.667031
Si Si6 0.716161 0.323374 0.553072
Si Si7 0.705307 0.322391 0.038995
O O1 0.092050 0.226929 0.601898
O O2 0.143995 0.236434 0.492300
O O3 0.014041 0.229512 0.400686
O O4 0.079913 0.000000 0.488677
O O5 0.381912 0.774969 0.828806
O O6 0.499023 0.744361 0.836506
O O7 0.455644 0.000000 0.861915
O O8 0.500000 0.793839 0.000000
O O9 0.810739 0.500000 0.812897
O O10 0.759151 0.295229 0.673406
O O11 0.777701 0.237394 0.850988
O O12 0.562278 0.500000 0.865410
O O13 0.586956 0.271653 0.781930
O O14 0.629756 0.276432 0.971856
O O15 0.560825 0.500000 0.668231
O O16 0.712134 0.500000 0.541195
O O17 0.750000 0.250000 0.500000
O O18 0.708479 0.500000 0.033528
O O19 0.750000 0.250000 0.000000
#
# Coordination Sequence:
#
# PCOD9224676 Si02
#       7
#     8   8   8   8   8   8   8
#     4   8  15  30  52  76 104 138 177 221 275 329
#     4  10  20  36  56  77 109 149 184 223 278 337
#     4  10  22  40  59  81 113 156 196 235 284 341
#     4  10  21  34  56  86 110 138 183 237 280 324
#     4   8  15  29  51  80 106 131 172 227 278 325
#     4  10  22  37  57  82 111 150 190 232 283 337
#     4  11  24  39  58  86 118 152 190 235 285 341
#
# _framework density 9.9788940000000004
#
# number of rings (size 3 to 8) (size 9 to 14) (size 15 to 20)
#    0.000    2.429    1.429    1.286    4.000    2.000 
#    0.000    0.000    0.000    0.000    0.000    2.000 
#    0.000    0.000    0.000    0.000    0.000    0.000 
#
# Total GULP energy -155874.019167 kJ/mol
# GULP energy per Si atom -5566.929256 kJ/mol
# Density = 0.995618 g / cm^3
# Si number density = 9.978894 Si / 1000 Ang^3
#
#
#
# Elastic Constant Matrix: (Units=GPa)
#
#
# Indices 1 2 3 4 5 6 
#
# 1 13.1422 -33.1475 -44.8348 0.0000 -24.3916 0.0000
# 2 -33.1475 -42.9476 5.4721 0.0000 -11.8949 0.0000
# 3 -44.8348 5.4721 -13.1057 0.0000 -30.2763 0.0000
# 4 0.0000 0.0000 0.0000 5.3304 0.0000 -3.5249
# 5 -24.3916 -11.8949 -30.2763 0.0000 12.4416 0.0000
# 6 0.0000 0.0000 0.0000 -3.5249 0.0000 29.1124
#
#
#
# Elastic Compliance Matrix: (Units=1/GPa)
#
#
# Indices 1 2 3 4 5 6 
#
# 1 0.009338 -0.005506 -0.009722 0.000000 -0.010615 0.000000
# 2 -0.005506 -0.017600 0.011371 0.000000 0.000050 0.000000
# 3 -0.009722 0.011371 -0.002927 0.000000 -0.015311 0.000000
# 4 0.000000 0.000000 0.000000 0.203931 0.000000 0.024692
# 5 -0.010615 0.000050 -0.015311 0.000000 0.022355 0.000000
# 6 0.000000 0.000000 0.000000 0.024692 0.000000 0.037339
#
#
# Mechanical properties :
#
#
# Convention : Reuss Voigt Hill
#
# Bulk Modulus (GPa) = -52.90378 -20.88127 -36.89252
# Shear Modulus (GPa) = 19.69674 11.35015 15.52344
#
# Velocity S-wave (km/s) = 3.14494 2.38735 2.79196
# Velocity P-wave (km/s) = 3.65758 1.69888 2.85167
#
# Compressibility (1/GPa) = -0.01890224
#
# Stress axis : x y z
#
# Youngs Moduli (GPa) = 107.09233 -56.81869 -341.65148
#
# Poissons Ratio (x) = -0.31283 -3.32143
# Poissons Ratio (y) = 0.58963 3.88487
# Poissons Ratio (z) = 1.04112 0.64608
#
# Static dielectric constant tensor:
#      x y z
#    x 1.713420 0.000000 -0.021090 
#    y 0.000000 1.686430 0.000000 
#    z -0.021090 0.000000 1.735110 
# 
# From -- ./inp_files/238931.got.cif
#   From: 2010.05.17/outbox.ucp.g08.bks.cvg/sg12_120_cif.got.tgz:238931.got - 2010.06.11 11:47:21.
