data_PCOD9224012
_publ_section_title
;
Structure prediction by ZEFSAII (Michael W. Deem and Ramdas Pophale) SiO2 
 PCOD9224012
Probable space group: C 2/M
;
_chemical_formula_sum "Si O2"
_cell_formula_units_Z 32
_cell_length_a 24.000000
_cell_length_b 9.000000
_cell_length_c 30.000000
_cell_angle_alpha 90.000000
_cell_angle_beta 30.000000
_cell_angle_gamma 90.000000
_cell_volume 3240.000000
_symmetry_space_group_name_H-M "C 2/M"
_symmetry_group_IT_number 12
_symmetry_cell_setting 'monoclinic'
loop_
_space_group_symop_operation_xyz
x,y,z
-x,y,-z
-x,-y,-z
x,-y,z
1/2+x,1/2+y,z
1/2-x,1/2+y,-z
1/2-x,1/2-y,-z
1/2+x,1/2-y,z
loop_
_atom_site_type_symbol
_atom_site_label
_atom_site_fract_x
_atom_site_fract_y
_atom_site_fract_z
Si Si1 0.883643 0.173485 0.597966
Si Si2 0.691598 0.835341 0.657370
Si Si3 0.537161 0.325911 0.072630
Si Si4 0.913896 0.822115 0.781617
Si Si5 0.933281 0.668543 0.860911
Si Si6 0.658820 0.673082 0.593321
Si Si7 0.679911 0.171604 0.902028
Si Si8 0.189521 0.325069 0.790090
O O1 0.791319 0.179272 0.623038
O O2 0.811797 0.228978 0.689867
O O3 0.000000 0.240455 0.500000
O O4 0.908735 0.000000 0.591132
O O5 0.568810 0.832721 0.763780
O O6 0.694035 0.706891 0.619507
O O7 0.702633 0.000000 0.628272
O O8 0.542649 0.500000 0.074091
O O9 0.598212 0.247558 0.071654
O O10 0.409804 0.271244 0.160809
O O11 0.594449 0.273157 0.987552
O O12 0.897369 0.752921 0.841556
O O13 0.805838 0.788864 0.827790
O O14 0.031214 0.768617 0.679454
O O15 0.923675 0.000000 0.779346
O O16 0.893430 0.500000 0.888135
O O17 0.657142 0.500000 0.584302
O O18 0.750000 0.750000 0.500000
O O19 0.672857 0.179966 0.854202
O O20 0.658152 0.000000 0.930713
O O21 0.178331 0.500000 0.783945
#
# Coordination Sequence:
#
# PCOD9224012 Si02
#       8
#     8   8   8   8   8   8   8   8
#     4   9  17  31  56  88 115 143 185 234 281 332
#     4   9  17  32  54  80 109 142 183 232 280 328
#     4  12  24  37  58  85 114 151 193 240 292 345
#     4   9  20  38  57  84 117 149 188 237 291 339
#     4  10  19  35  60  85 110 147 190 234 282 341
#     4  10  20  34  55  82 111 146 188 230 277 338
#     4  10  22  39  60  83 114 154 193 238 287 342
#     4  10  20  38  60  84 114 152 196 237 281 339
#
# _framework density 9.8765429999999999
#
# number of rings (size 3 to 8) (size 9 to 14) (size 15 to 20)
#    0.000    2.125    1.250    2.250    0.000    5.000 
#    0.000    3.750    0.000    3.000    0.000    0.000 
#    0.000    0.000    0.000    0.000    0.000    0.000 
#
# Total GULP energy -178451.767869 kJ/mol
# GULP energy per Si atom -5576.617746 kJ/mol
# Density = 0.985406 g / cm^3
# Si number density = 9.876543 Si / 1000 Ang^3
#
#
#
# Elastic Constant Matrix: (Units=GPa)
#
#
# Indices 1 2 3 4 5 6 
#
# 1 32.5490 10.2487 -4.3329 0.0027 1.4487 0.0009
# 2 10.2487 -1.2147 43.4045 0.0034 -2.5814 0.0018
# 3 -4.3329 43.4045 55.0725 0.0045 21.4632 0.0001
# 4 0.0027 0.0034 0.0045 6.2558 -0.0018 -2.5584
# 5 1.4487 -2.5814 21.4632 -0.0018 18.5989 0.0003
# 6 0.0009 0.0018 0.0001 -2.5584 0.0003 16.3892
#
#
#
# Elastic Compliance Matrix: (Units=1/GPa)
#
#
# Indices 1 2 3 4 5 6 
#
# 1 0.027351 0.007403 -0.005911 -0.000012 0.005718 -0.000004
# 2 0.007403 -0.011777 0.019492 -0.000018 -0.024705 -0.000002
# 3 -0.005911 0.019492 0.001993 -0.000011 0.000866 -0.000004
# 4 -0.000012 -0.000018 -0.000011 0.170752 0.000026 0.026655
# 5 0.005718 -0.024705 0.000866 0.000026 0.048893 0.000005
# 6 -0.000004 -0.000002 -0.000004 0.026655 0.000005 0.065177
#
#
# Mechanical properties :
#
#
# Convention : Reuss Voigt Hill
#
# Bulk Modulus (GPa) = 16.79692 20.56082 18.67887
# Shear Modulus (GPa) = 17.84025 10.72122 14.28074
#
# Velocity S-wave (km/s) = 3.00853 2.33225 2.69171
# Velocity P-wave (km/s) = 4.53764 4.20524 4.37460
#
# Compressibility (1/GPa) = 0.05953473
#
# Stress axis : x y z
#
# Youngs Moduli (GPa) = 36.56213 -84.91354 501.83011
#
# Poissons Ratio (x) = 0.62858 2.96623
# Poissons Ratio (y) = -0.27065 -9.78182
# Poissons Ratio (z) = 0.21611 1.65516
#
# Static dielectric constant tensor:
#      x y z
#    x 1.730730 0.000000 0.011020 
#    y 0.000000 1.680630 0.000000 
#    z 0.011020 0.000000 1.715890 
# 
# From -- ./inp_files/382394.got.cif
#   From: 2010.05.17/outbox.ucp.g08.bks.cvg/sg12_192_cif.got.tgz:382394.got - 2010.06.11 11:47:21.
