data_PCOD9224739
_publ_section_title
;
Structure prediction by ZEFSAII (Michael W. Deem and Ramdas Pophale) SiO2 
 PCOD9224739
Probable space group: C 2/M
;
_chemical_formula_sum "Si O2"
_cell_formula_units_Z 24
_cell_length_a 24.000000
_cell_length_b 9.000000
_cell_length_c 24.000000
_cell_angle_alpha 90.000000
_cell_angle_beta 30.000000
_cell_angle_gamma 90.000000
_cell_volume 2592.000000
_symmetry_space_group_name_H-M "C 2/M"
_symmetry_group_IT_number 12
_symmetry_cell_setting 'monoclinic'
loop_
_space_group_symop_operation_xyz
x,y,z
-x,y,-z
-x,-y,-z
x,-y,z
1/2+x,1/2+y,z
1/2-x,1/2+y,-z
1/2-x,1/2-y,-z
1/2+x,1/2-y,z
loop_
_atom_site_type_symbol
_atom_site_label
_atom_site_fract_x
_atom_site_fract_y
_atom_site_fract_z
Si Si1 0.541812 0.322681 0.822954
Si Si2 0.917379 0.178593 0.495244
Si Si3 0.263361 0.677583 0.429002
Si Si4 0.298725 0.178667 0.014658
Si Si5 0.670525 0.678110 0.239443
Si Si6 0.250721 0.678241 0.276460
O O1 0.521580 0.500000 0.846208
O O2 0.614856 0.297968 0.703629
O O3 0.634228 0.280210 0.790583
O O4 0.422780 0.240905 0.922424
O O5 0.829713 0.240821 0.526772
O O6 0.861031 0.249610 0.599236
O O7 0.041944 0.217835 0.366198
O O8 0.913606 0.000000 0.504038
O O9 0.244783 0.500000 0.444926
O O10 0.250000 0.750000 0.500000
O O11 0.213398 0.210358 0.139851
O O12 0.305389 0.000000 0.002579
O O13 0.250000 0.250000 0.000000
O O14 0.680601 0.500000 0.239013
O O15 0.748862 0.763954 0.215210
O O16 0.241499 0.500000 0.288429
#
# Coordination Sequence:
#
# PCOD9224739 Si02
#       6
#     8   8   8   8   8   8
#     4   9  21  41  60  83 119 155 192 245 298 348
#     4  10  20  36  58  86 122 159 193 238 300 357
#     4  10  21  36  57  86 118 154 198 246 297 353
#     4  11  25  43  62  86 117 157 203 248 296 351
#     4  10  23  40  59  86 121 160 197 241 298 355
#     4  10  21  38  62  92 122 153 194 247 298 350
#
# _framework density 9.2592590000000001
#
# number of rings (size 3 to 8) (size 9 to 14) (size 15 to 20)
#    0.000    2.000    0.000    3.500    2.333    9.333 
#    0.000    3.333    0.000    0.000    0.000    0.000 
#    0.000    0.000    0.000    0.000    0.000    0.000 
#
# Total GULP energy -133872.875139 kJ/mol
# GULP energy per Si atom -5578.036464 kJ/mol
# Density = 0.923818 g / cm^3
# Si number density = 9.259259 Si / 1000 Ang^3
#
#
#
# Elastic Constant Matrix: (Units=GPa)
#
#
# Indices 1 2 3 4 5 6 
#
# 1 106.5219 46.7792 76.9916 0.0001 12.0682 -0.0001
# 2 46.7792 69.8636 53.9176 -0.0001 -0.0341 0.0000
# 3 76.9916 53.9176 122.8328 -0.0003 -11.4462 0.0001
# 4 0.0001 -0.0001 -0.0003 35.7451 0.0001 -1.0771
# 5 12.0682 -0.0341 -11.4462 0.0001 36.3353 -0.0001
# 6 -0.0001 0.0000 0.0001 -1.0771 -0.0001 34.8046
#
#
#
# Elastic Compliance Matrix: (Units=1/GPa)
#
#
# Indices 1 2 3 4 5 6 
#
# 1 0.022002 -0.004963 -0.012666 0.000000 -0.011302 0.000000
# 2 -0.004963 0.023102 -0.007082 0.000000 -0.000561 0.000000
# 3 -0.012666 -0.007082 0.020172 0.000000 0.010555 0.000000
# 4 0.000000 0.000000 0.000000 0.028002 0.000000 0.000867
# 5 -0.011302 -0.000561 0.010555 0.000000 0.034600 0.000000
# 6 0.000000 0.000000 0.000000 0.000867 0.000000 0.028759
#
#
# Mechanical properties :
#
#
# Convention : Reuss Voigt Hill
#
# Bulk Modulus (GPa) = 63.07180 72.73278 67.90229
# Shear Modulus (GPa) = 23.65818 29.47899 26.56858
#
# Velocity S-wave (km/s) = 3.57815 3.99415 3.79186
# Velocity P-wave (km/s) = 7.15567 7.78665 7.47782
#
# Compressibility (1/GPa) = 0.01585495
#
# Stress axis : x y z
#
# Youngs Moduli (GPa) = 45.45021 43.28604 49.57301
#
# Poissons Ratio (x) = 0.21482 0.62787
# Poissons Ratio (y) = 0.22556 0.35109
# Poissons Ratio (z) = 0.57566 0.30656
#
# Static dielectric constant tensor:
#      x y z
#    x 1.662090 0.000000 0.031100 
#    y 0.000000 1.616900 0.000000 
#    z 0.031100 0.000000 1.630880 
# 
# From -- ./inp_files/348768.got.cif
#   From: 2010.05.17/outbox.ucp.g08.bks.cvg/sg12_175_cif.got.tgz:348768.got - 2010.06.11 11:47:21.
