data_PCOD9224042
_publ_section_title
;
Structure prediction by ZEFSAII (Michael W. Deem and Ramdas Pophale) SiO2 
 PCOD9224042
Probable space group: C 2/M
;
_chemical_formula_sum "Si O2"
_cell_formula_units_Z 29
_cell_length_a 18.000000
_cell_length_b 9.000000
_cell_length_c 18.000000
_cell_angle_alpha 90.000000
_cell_angle_beta 90.000000
_cell_angle_gamma 90.000000
_cell_volume 2916.000000
_symmetry_space_group_name_H-M "C 2/M"
_symmetry_group_IT_number 12
_symmetry_cell_setting 'monoclinic'
loop_
_space_group_symop_operation_xyz
x,y,z
-x,y,-z
-x,-y,-z
x,-y,z
1/2+x,1/2+y,z
1/2-x,1/2+y,-z
1/2-x,1/2-y,-z
1/2+x,1/2-y,z
loop_
_atom_site_type_symbol
_atom_site_label
_atom_site_fract_x
_atom_site_fract_y
_atom_site_fract_z
Si Si1 0.335334 0.820312 0.890649
Si Si2 0.425557 0.287656 0.030065
Si Si3 0.588531 0.821453 0.266063
Si Si4 0.325303 0.677156 0.596742
Si Si5 0.824668 0.834312 0.167860
Si Si6 0.153948 0.322113 0.557163
Si Si7 0.080275 0.678572 0.708189
Si Si8 0.000000 0.500000 0.000000
O O1 0.368542 0.737577 0.961898
O O2 0.382272 0.789212 0.816628
O O3 0.251291 0.778292 0.869963
O O4 0.341001 0.000000 0.906244
O O5 0.459945 0.127857 0.049753
O O6 0.500000 0.362112 0.000000
O O7 0.383950 0.344359 0.101608
O O8 0.638870 0.748679 0.330064
O O9 0.503071 0.772564 0.272666
O O10 0.591701 0.000000 0.275839
O O11 0.333580 0.500000 0.600085
O O12 0.237401 0.711047 0.586870
O O13 0.360033 0.741546 0.520711
O O14 0.859539 0.741681 0.234437
O O15 0.806818 0.000000 0.196071
O O16 0.149554 0.500000 0.545235
O O17 0.099687 0.278410 0.623833
O O18 0.083351 0.500000 0.712031
#
# Coordination Sequence:
#
# PCOD9224042 Si02
#       8
#     8   8   8   8   8   8   8   2
#     4  10  19  36  56  82 111 143 185 226 272 326
#     4  10  19  36  59  82 108 143 187 228 268 317
#     4  10  21  36  59  82 107 143 186 231 271 321
#     4  10  20  35  57  83 113 147 180 222 280 335
#     4  11  24  36  54  83 117 146 176 225 282 331
#     4   9  19  37  58  82 111 144 187 231 268 320
#     4  10  22  38  59  82 107 145 191 231 269 320
#     4   8  20  32  66  84 100 144 186 244 252 316
#
# _framework density 9.9451300000000007
#
# number of rings (size 3 to 8) (size 9 to 14) (size 15 to 20)
#    0.414    1.655    0.690    2.483    0.966    2.483 
#    0.000    4.138    0.000    0.000    0.000    0.000 
#    0.000    0.000    0.000    0.000    0.000    0.000 
#
# Total GULP energy -161503.782501 kJ/mol
# GULP energy per Si atom -5569.095948 kJ/mol
# Density = 0.992249 g / cm^3
# Si number density = 9.945130 Si / 1000 Ang^3
#
#
#
# Elastic Constant Matrix: (Units=GPa)
#
#
# Indices 1 2 3 4 5 6 
#
# 1 28.9225 -2.0672 -19.0632 0.0000 -17.0462 0.0000
# 2 -2.0672 45.3927 4.9468 0.0000 1.4503 0.0000
# 3 -19.0632 4.9468 61.6466 0.0000 -4.8792 0.0000
# 4 0.0000 0.0000 0.0000 37.4602 0.0000 24.1867
# 5 -17.0462 1.4503 -4.8792 0.0000 35.8241 0.0000
# 6 0.0000 0.0000 0.0000 24.1867 0.0000 80.5277
#
#
#
# Elastic Compliance Matrix: (Units=1/GPa)
#
#
# Indices 1 2 3 4 5 6 
#
# 1 0.075141 -0.000714 0.026410 0.000000 0.039381 0.000000
# 2 -0.000714 0.022278 -0.002130 0.000000 -0.001532 0.000000
# 3 0.026410 -0.002130 0.025839 0.000000 0.016172 0.000000
# 4 0.000000 0.000000 0.000000 0.033117 0.000000 -0.009947
# 5 0.039381 -0.001532 0.016172 0.000000 0.048917 0.000000
# 6 0.000000 0.000000 0.000000 -0.009947 0.000000 0.015406
#
#
# Mechanical properties :
#
#
# Convention : Reuss Voigt Hill
#
# Bulk Modulus (GPa) = 5.86883 11.51052 8.68968
# Shear Modulus (GPa) = 21.70475 40.90543 31.30509
#
# Velocity S-wave (km/s) = 3.30695 4.53985 3.97153
# Velocity P-wave (km/s) = 4.18787 5.76887 5.04074
#
# Compressibility (1/GPa) = 0.17039165
#
# Stress axis : x y z
#
# Youngs Moduli (GPa) = 13.30825 44.88639 38.70064
#
# Poissons Ratio (x) = 0.03206 -1.02210
# Poissons Ratio (y) = 0.00951 0.08243
# Poissons Ratio (z) = -0.35148 0.09560
#
# Static dielectric constant tensor:
#      x y z
#    x 1.745420 0.000000 -0.021010 
#    y 0.000000 1.733870 0.000000 
#    z -0.021010 0.000000 1.665450 
# 
# From -- ./inp_files/275407.got.cif
#   From: 2010.05.17/outbox.ucp.g08.bks.cvg/sg12_138_cif.got.tgz:275407.got - 2010.06.11 11:47:21.
