data_PCOD9224571
_publ_section_title
;
Structure prediction by ZEFSAII (Michael W. Deem and Ramdas Pophale) SiO2 
 PCOD9224571
Probable space group: C 2/M
;
_chemical_formula_sum "Si O2"
_cell_formula_units_Z 24
_cell_length_a 27.000000
_cell_length_b 9.000000
_cell_length_c 15.000000
_cell_angle_alpha 90.000000
_cell_angle_beta 40.000000
_cell_angle_gamma 90.000000
_cell_volume 2342.960837
_symmetry_space_group_name_H-M "C 2/M"
_symmetry_group_IT_number 12
_symmetry_cell_setting 'monoclinic'
loop_
_space_group_symop_operation_xyz
x,y,z
-x,y,-z
-x,-y,-z
x,-y,z
1/2+x,1/2+y,z
1/2-x,1/2+y,-z
1/2-x,1/2-y,-z
1/2+x,1/2-y,z
loop_
_atom_site_type_symbol
_atom_site_label
_atom_site_fract_x
_atom_site_fract_y
_atom_site_fract_z
Si Si1 0.167467 0.844533 0.201751
Si Si2 0.069302 0.179561 0.838566
Si Si3 0.983173 0.330236 0.267365
Si Si4 0.879541 0.322197 0.570067
Si Si5 0.841676 0.749066 0.983711
Si Si6 0.711905 0.329009 0.749796
O O1 0.124784 0.723551 0.320476
O O2 0.154423 0.837182 0.114505
O O3 0.139299 0.000000 0.277556
O O4 0.260063 0.835236 0.086320
O O5 0.051614 0.233671 0.764161
O O6 0.150471 0.237723 0.765926
O O7 0.070922 0.000000 0.838433
O O8 0.000000 0.227291 0.000000
O O9 0.956835 0.500000 0.292206
O O10 0.950105 0.277513 0.408888
O O11 0.075584 0.328721 0.130227
O O12 0.877438 0.500000 0.573342
O O13 0.797769 0.264331 0.641971
O O14 0.829101 0.827414 0.096254
O O15 0.723373 0.500000 0.707643
#
# Coordination Sequence:
#
# PCOD9224571 Si02
#       6
#     8   8   8   8   8   8
#     4  10  21  37  59  85 109 142 189 232 273 324
#     4  10  20  35  57  85 112 143 184 227 273 323
#     4  11  23  38  56  83 114 146 183 226 278 330
#     4   9  21  39  57  78 113 153 184 221 275 332
#     4  10  20  35  57  83 113 143 180 230 279 325
#     4   9  17  35  58  79 109 149 186 220 268 327
#
# _framework density 10.243449
#
# number of rings (size 3 to 8) (size 9 to 14) (size 15 to 20)
#    0.000    2.167    1.667    1.000    0.000    7.667 
#    0.000    3.333    0.000    0.000    0.000    0.000 
#    0.000    0.000    0.000    0.000    0.000    0.000 
#
# Total GULP energy -133607.271697 kJ/mol
# GULP energy per Si atom -5566.969654 kJ/mol
# Density = 1.022013 g / cm^3
# Si number density = 10.243449 Si / 1000 Ang^3
#
#
#
# Elastic Constant Matrix: (Units=GPa)
#
#
# Indices 1 2 3 4 5 6 
#
# 1 67.9618 9.0221 -4.0976 0.0000 10.9616 0.0004
# 2 9.0221 27.3828 7.7680 0.0026 4.3773 -0.0043
# 3 -4.0976 7.7680 88.7320 0.0007 11.3473 -0.0025
# 4 0.0000 0.0026 0.0007 19.9685 -0.0001 4.1072
# 5 10.9616 4.3773 11.3473 -0.0001 21.5611 0.0001
# 6 0.0004 -0.0043 -0.0025 4.1072 0.0001 -132.6476
#
#
#
# Elastic Compliance Matrix: (Units=1/GPa)
#
#
# Indices 1 2 3 4 5 6 
#
# 1 0.016923 -0.004823 0.002336 0.000000 -0.008854 0.000000
# 2 -0.004823 0.039640 -0.003192 -0.000005 -0.003916 -0.000001
# 3 0.002336 -0.003192 0.012572 0.000000 -0.007156 0.000000
# 4 0.000000 -0.000005 0.000000 0.049762 0.000001 0.001541
# 5 -0.008854 -0.003916 -0.007156 0.000001 0.055442 0.000000
# 6 0.000000 -0.000001 0.000000 0.001541 0.000000 -0.007491
#
#
# Mechanical properties :
#
#
# Convention : Reuss Voigt Hill
#
# Bulk Modulus (GPa) = 17.30801 23.27353 20.29077
# Shear Modulus (GPa) = 25.32073 -6.79799 9.26137
#
# Velocity S-wave (km/s) = 3.51942 -1.82357 2.12848
# Velocity P-wave (km/s) = 4.99817 2.63647 3.99579
#
# Compressibility (1/GPa) = 0.05777671
#
# Stress axis : x y z
#
# Youngs Moduli (GPa) = 59.08997 25.22706 79.53941
#
# Poissons Ratio (x) = 0.12168 -0.18581
# Poissons Ratio (y) = 0.28501 0.25391
# Poissons Ratio (z) = -0.13804 0.08053
#
# Static dielectric constant tensor:
#      x y z
#    x 1.751370 0.000000 -0.024200 
#    y 0.000000 1.760500 0.000000 
#    z -0.024200 0.000000 1.695680 
# 
# From -- ./inp_files/244626.got.cif
#   From: 2010.05.17/outbox.ucp.g08.bks.cvg/sg12_123_cif.got.tgz:244626.got - 2010.06.11 11:47:21.
