data_PCOD9224045
_publ_section_title
;
Structure prediction by ZEFSAII (Michael W. Deem and Ramdas Pophale) SiO2 
 PCOD9224045
Probable space group: C 2/M
;
_chemical_formula_sum "Si O2"
_cell_formula_units_Z 32
_cell_length_a 21.000000
_cell_length_b 27.000000
_cell_length_c 18.000000
_cell_angle_alpha 90.000000
_cell_angle_beta 20.000000
_cell_angle_gamma 90.000000
_cell_volume 3490.657583
_symmetry_space_group_name_H-M "C 2/M"
_symmetry_group_IT_number 12
_symmetry_cell_setting 'monoclinic'
loop_
_space_group_symop_operation_xyz
x,y,z
-x,y,-z
-x,-y,-z
x,-y,z
1/2+x,1/2+y,z
1/2-x,1/2+y,-z
1/2-x,1/2-y,-z
1/2+x,1/2-y,z
loop_
_atom_site_type_symbol
_atom_site_label
_atom_site_fract_x
_atom_site_fract_y
_atom_site_fract_z
Si Si1 0.455488 0.839908 0.313075
Si Si2 0.111691 0.836856 0.138438
Si Si3 0.037176 0.743422 0.113300
Si Si4 0.905009 0.058620 0.932892
Si Si5 0.290551 0.108446 0.708364
Si Si6 0.260350 0.707504 0.313938
Si Si7 0.457875 0.706336 0.626596
Si Si8 0.334818 0.056344 0.500661
O O1 0.433944 0.804420 0.264217
O O2 0.318124 0.820536 0.526824
O O3 0.432507 0.899948 0.344622
O O4 0.667207 0.827852 0.101777
O O5 0.038023 0.791447 0.167598
O O6 0.102765 0.893574 0.115774
O O7 0.028499 0.827316 0.312877
O O8 0.934513 0.761337 0.152006
O O9 0.247546 0.727383 0.863395
O O10 0.123673 0.054036 0.705590
O O11 0.842276 0.000000 0.986447
O O12 0.808587 0.079577 0.114827
O O13 0.500000 0.121089 0.500000
O O14 0.206173 0.162190 0.779840
O O15 0.314899 0.074451 0.608204
O O16 0.100113 0.747238 0.470590
O O17 0.500000 0.681254 0.500000
O O18 0.413166 0.000000 0.410595
#
# Coordination Sequence:
#
# PCOD9224045 Si02
#       8
#     8   8   8   8   8   8   8   8
#     4  10  19  36  56  84 115 152 201 248 291 347
#     4  11  21  39  61  84 116 151 200 251 297 353
#     4  11  22  38  61  87 117 160 202 244 296 354
#     4  11  24  40  59  85 115 157 208 251 295 353
#     4  11  23  37  53  81 123 160 205 241 287 352
#     4  11  21  36  57  84 119 162 199 239 291 351
#     4  11  24  40  56  85 123 152 195 245 298 363
#     4  10  22  37  56  84 118 159 203 246 297 354
#
# _framework density 9.1673270000000002
#
# number of rings (size 3 to 8) (size 9 to 14) (size 15 to 20)
#    0.000    1.250    2.500    5.250    3.500    4.000 
#    2.250    0.000    0.000    0.375    0.000    0.000 
#    0.000    4.500    0.000    0.000    0.000    0.000 
#
# Total GULP energy -178421.957874 kJ/mol
# GULP energy per Si atom -5575.686184 kJ/mol
# Density = 0.914646 g / cm^3
# Si number density = 9.167327 Si / 1000 Ang^3
#
#
#
# Elastic Constant Matrix: (Units=GPa)
#
#
# Indices 1 2 3 4 5 6 
#
# 1 79.6926 49.4552 36.3244 -0.0416 13.2568 0.0847
# 2 49.4552 152.9737 30.0962 -0.0504 17.9631 0.0339
# 3 36.3244 30.0962 71.7040 -0.1446 1.3756 0.1422
# 4 -0.0416 -0.0504 -0.1446 33.0271 0.0966 -5.4544
# 5 13.2568 17.9631 1.3756 0.0966 39.1109 0.0443
# 6 0.0847 0.0339 0.1422 -5.4544 0.0443 8.1638
#
#
#
# Elastic Compliance Matrix: (Units=1/GPa)
#
#
# Indices 1 2 3 4 5 6 
#
# 1 0.019578 -0.004226 -0.008060 -0.000009 -0.004412 -0.000027
# 2 -0.004226 0.008453 -0.001361 0.000018 -0.002402 0.000058
# 3 -0.008060 -0.001361 0.018549 0.000023 0.002705 -0.000234
# 4 -0.000009 0.000018 0.000023 0.034034 -0.000116 0.022739
# 5 -0.004412 -0.002402 0.002705 -0.000116 0.028072 -0.000221
# 6 -0.000027 0.000058 -0.000234 0.022739 -0.000221 0.137690
#
#
# Mechanical properties :
#
#
# Convention : Reuss Voigt Hill
#
# Bulk Modulus (GPa) = 51.84852 59.56908 55.70880
# Shear Modulus (GPa) = 17.85084 28.62666 23.23875
#
# Velocity S-wave (km/s) = 3.12366 3.95567 3.56403
# Velocity P-wave (km/s) = 6.43040 7.30914 6.88380
#
# Compressibility (1/GPa) = 0.01928695
#
# Stress axis : x y z
#
# Youngs Moduli (GPa) = 51.07725 118.29943 53.91080
#
# Poissons Ratio (x) = 0.49990 0.43451
# Poissons Ratio (y) = 0.21584 0.07339
# Poissons Ratio (z) = 0.41167 0.16104
#
# Static dielectric constant tensor:
#      x y z
#    x 1.785600 -0.000100 -0.040130 
#    y -0.000100 1.668890 0.000070 
#    z -0.040130 0.000070 1.650460 
# 
# From -- ./inp_files/286685.got.cif
#   From: 2010.05.17/outbox.ucp.g08.bks.cvg/sg12_144_cif.got.tgz:286685.got - 2010.06.11 11:47:21.
