data_PCOD9224879
_publ_section_title
;
Structure prediction by ZEFSAII (Michael W. Deem and Ramdas Pophale) SiO2 
 PCOD9224879
Probable space group: C 2/M
;
_chemical_formula_sum "Si O2"
_cell_formula_units_Z 24
_cell_length_a 27.000000
_cell_length_b 9.000000
_cell_length_c 21.000000
_cell_angle_alpha 90.000000
_cell_angle_beta 150.000000
_cell_angle_gamma 90.000000
_cell_volume 2551.500000
_symmetry_space_group_name_H-M "C 2/M"
_symmetry_group_IT_number 12
_symmetry_cell_setting 'monoclinic'
loop_
_space_group_symop_operation_xyz
x,y,z
-x,y,-z
-x,-y,-z
x,-y,z
1/2+x,1/2+y,z
1/2-x,1/2+y,-z
1/2-x,1/2-y,-z
1/2+x,1/2-y,z
loop_
_atom_site_type_symbol
_atom_site_label
_atom_site_fract_x
_atom_site_fract_y
_atom_site_fract_z
Si Si1 0.843800 0.820528 0.293235
Si Si2 0.282433 0.823104 0.359531
Si Si3 0.268915 0.830776 0.955124
Si Si4 0.317051 0.178742 0.630607
Si Si5 0.513736 0.169535 0.772688
Si Si6 0.984021 0.824172 0.612060
O O1 0.800492 0.744970 0.308626
O O2 0.778728 0.766706 0.161075
O O3 0.952400 0.794453 0.381422
O O4 0.837233 0.000000 0.295217
O O5 0.206169 0.749653 0.325735
O O6 0.387676 0.777717 0.506477
O O7 0.267445 0.000000 0.339773
O O8 0.230537 0.000000 0.917688
O O9 0.250000 0.750000 0.000000
O O10 0.385641 0.833781 0.076201
O O11 0.250000 0.250000 0.500000
O O12 0.425823 0.207664 0.722908
O O13 0.301027 0.000000 0.616497
O O14 0.531334 0.278206 0.732206
O O15 0.496632 0.000000 0.729505
O O16 0.960815 0.000000 0.585909
#
# Coordination Sequence:
#
# PCOD9224879 Si02
#       6
#     8   8   8   8   8   8
#     4  10  22  39  58  85 119 156 193 234 291 350
#     4  12  25  39  57  84 117 157 197 241 293 345
#     4  10  20  37  60  87 118 152 191 235 284 344
#     4  11  22  38  60  86 116 153 194 240 290 343
#     4  10  21  36  59  89 118 148 191 238 285 342
#     4  11  21  35  59  88 119 152 187 237 295 348
#
# _framework density 9.4062319999999993
#
# number of rings (size 3 to 8) (size 9 to 14) (size 15 to 20)
#    0.000    1.333    3.333    3.000    0.000    4.667 
#    0.000    0.833    0.000    5.000    0.000    0.000 
#    0.000    0.000    0.000    0.000    0.000    0.000 
#
# Total GULP energy -133662.504992 kJ/mol
# GULP energy per Si atom -5569.271041 kJ/mol
# Density = 0.938482 g / cm^3
# Si number density = 9.406232 Si / 1000 Ang^3
#
#
#
# Elastic Constant Matrix: (Units=GPa)
#
#
# Indices 1 2 3 4 5 6 
#
# 1 132.2754 46.9492 5.5783 0.0000 16.4385 0.0000
# 2 46.9492 79.3109 -1.6356 0.0000 7.6519 0.0000
# 3 5.5783 -1.6356 34.3057 0.0000 15.9850 0.0000
# 4 0.0000 0.0000 0.0000 17.2568 0.0000 -5.7556
# 5 16.4385 7.6519 15.9850 0.0000 24.9358 0.0000
# 6 0.0000 0.0000 0.0000 -5.7556 0.0000 38.7184
#
#
#
# Elastic Compliance Matrix: (Units=1/GPa)
#
#
# Indices 1 2 3 4 5 6 
#
# 1 0.010148 -0.005474 0.000604 0.000000 -0.005397 0.000000
# 2 -0.005474 0.016254 0.003290 0.000000 -0.003488 0.000000
# 3 0.000604 0.003290 0.042584 0.000000 -0.028706 0.000000
# 4 0.000000 0.000000 0.000000 0.060971 0.000000 0.009063
# 5 -0.005397 -0.003488 -0.028706 0.000000 0.063133 0.000000
# 6 0.000000 0.000000 0.000000 0.009063 0.000000 0.027175
#
#
# Mechanical properties :
#
#
# Convention : Reuss Voigt Hill
#
# Bulk Modulus (GPa) = 15.19162 38.63064 26.91113
# Shear Modulus (GPa) = 20.37761 29.18221 24.77991
#
# Velocity S-wave (km/s) = 3.29477 3.94282 3.63327
# Velocity P-wave (km/s) = 4.75045 6.42705 5.65127
#
# Compressibility (1/GPa) = 0.06582576
#
# Stress axis : x y z
#
# Youngs Moduli (GPa) = 98.53907 61.52498 23.48290
#
# Poissons Ratio (x) = 0.33680 -0.01418
# Poissons Ratio (y) = 0.53943 -0.07727
# Poissons Ratio (z) = -0.05949 -0.20244
#
# Static dielectric constant tensor:
#      x y z
#    x 1.651420 0.000000 0.000120 
#    y 0.000000 1.523520 0.000000 
#    z 0.000120 0.000000 1.733080 
# 
# From -- ./inp_files/327315.got.cif
#   From: 2010.05.17/outbox.ucp.g08.bks.cvg/sg12_164_cif.got.tgz:327315.got - 2010.06.11 11:47:21.
