data_PCOD9224538
_publ_section_title
;
Structure prediction by ZEFSAII (Michael W. Deem and Ramdas Pophale) SiO2 
 PCOD9224538
Probable space group: C 2/M
;
_chemical_formula_sum "Si O2"
_cell_formula_units_Z 32
_cell_length_a 24.000000
_cell_length_b 9.000000
_cell_length_c 30.000000
_cell_angle_alpha 90.000000
_cell_angle_beta 30.000000
_cell_angle_gamma 90.000000
_cell_volume 3240.000000
_symmetry_space_group_name_H-M "C 2/M"
_symmetry_group_IT_number 12
_symmetry_cell_setting 'monoclinic'
loop_
_space_group_symop_operation_xyz
x,y,z
-x,y,-z
-x,-y,-z
x,-y,z
1/2+x,1/2+y,z
1/2-x,1/2+y,-z
1/2-x,1/2-y,-z
1/2+x,1/2-y,z
loop_
_atom_site_type_symbol
_atom_site_label
_atom_site_fract_x
_atom_site_fract_y
_atom_site_fract_z
Si Si1 0.897000 0.829835 0.358524
Si Si2 0.879378 0.821365 0.102379
Si Si3 0.578090 0.829396 0.184650
Si Si4 0.724290 0.175058 0.906819
Si Si5 0.384387 0.818920 0.557164
Si Si6 0.129849 0.672222 0.533601
Si Si7 0.674050 0.321560 0.760763
Si Si8 0.549319 0.827204 0.104110
O O1 0.921833 0.766655 0.390570
O O2 0.763685 0.827609 0.446174
O O3 0.954340 0.724035 0.282648
O O4 0.933514 0.000000 0.327780
O O5 0.793433 0.764713 0.125755
O O6 0.842718 0.768279 0.176645
O O7 0.883698 0.000000 0.100741
O O8 0.000000 0.769032 0.000000
O O9 0.658062 0.718326 0.154702
O O10 0.604831 0.820444 0.113935
O O11 0.593939 0.000000 0.187809
O O12 0.713594 0.000000 0.906828
O O13 0.630584 0.220527 0.008104
O O14 0.500000 0.780748 0.500000
O O15 0.389237 0.768259 0.502754
O O16 0.279836 0.766797 0.659239
O O17 0.375655 0.000000 0.561035
O O18 0.091979 0.500000 0.563231
O O19 0.682070 0.500000 0.756649
O O20 0.559568 0.272613 0.817700
O O21 0.518192 0.000000 0.117873
#
# Coordination Sequence:
#
# PCOD9224538 Si02
#       8
#     8   8   8   8   8   8   8   8
#     4  10  20  35  56  83 112 143 185 232 281 340
#     4  10  20  36  57  84 114 148 193 237 277 332
#     4  11  23  38  56  81 114 149 188 233 288 347
#     4  11  23  38  57  82 113 150 189 234 289 339
#     4   9  18  33  54  82 112 143 185 232 277 328
#     4   9  18  34  57  82 109 144 185 229 281 334
#     4  10  20  35  59  85 112 151 194 236 282 333
#     4  10  22  38  57  82 112 147 188 235 287 342
#
# _framework density 9.8765429999999999
#
# number of rings (size 3 to 8) (size 9 to 14) (size 15 to 20)
#    0.000    2.000    1.250    2.250    0.000    4.750 
#    0.000    3.125    0.000    1.500    0.000    0.000 
#    0.000    0.000    0.000    0.000    0.000    0.000 
#
# Total GULP energy -178495.557624 kJ/mol
# GULP energy per Si atom -5577.986176 kJ/mol
# Density = 0.985406 g / cm^3
# Si number density = 9.876543 Si / 1000 Ang^3
#
#
#
# Elastic Constant Matrix: (Units=GPa)
#
#
# Indices 1 2 3 4 5 6 
#
# 1 74.3103 6.0253 -3.5714 -0.0013 24.5814 0.0083
# 2 6.0253 -18.6379 7.3061 -0.0001 7.0757 0.0102
# 3 -3.5714 7.3061 4.9965 -0.0008 8.0803 0.0089
# 4 -0.0013 -0.0001 -0.0008 21.9439 -0.0007 -5.1574
# 5 24.5814 7.0757 8.0803 -0.0007 22.5494 -0.0005
# 6 0.0083 0.0102 0.0089 -5.1574 -0.0005 17.7089
#
#
#
# Elastic Compliance Matrix: (Units=1/GPa)
#
#
# Indices 1 2 3 4 5 6 
#
# 1 -0.293843 -0.244991 -1.175132 0.000186 0.818295 0.000949
# 2 -0.244991 -0.235817 -0.908117 0.000152 0.666480 0.000772
# 3 -1.175132 -0.908117 -4.386302 0.000701 3.137773 0.003579
# 4 0.000186 0.000152 0.000701 0.048919 -0.000499 0.014246
# 5 0.818295 0.666480 3.137773 -0.000499 -2.181212 -0.002557
# 6 0.000949 0.000772 0.003579 0.014246 -0.002557 0.060615
#
#
# Mechanical properties :
#
#
# Convention : Reuss Voigt Hill
#
# Bulk Modulus (GPa) = -0.10447 8.90990 4.40272
# Shear Modulus (GPa) = -0.90547 15.83437 7.46445
#
# Velocity S-wave (km/s) = -0.67778 2.83435 1.94604
# Velocity P-wave (km/s) = 0.81580 3.90280 2.69873
#
# Compressibility (1/GPa) = -9.57244170
#
# Stress axis : x y z
#
# Youngs Moduli (GPa) = -3.40318 -4.24058 -0.22798
#
# Poissons Ratio (x) = -1.03891 -0.26791
# Poissons Ratio (y) = -0.83375 -0.20703
# Poissons Ratio (z) = -3.99919 -3.85094
#
# Static dielectric constant tensor:
#      x y z
#    x 1.727600 0.000000 -0.004250 
#    y 0.000000 1.670700 0.000000 
#    z -0.004250 0.000000 1.692350 
# 
# From -- ./inp_files/382223.got.cif
#   From: 2010.05.17/outbox.ucp.g08.bks.cvg/sg12_192_cif.got.tgz:382223.got - 2010.06.11 11:47:21.
