data_PCOD9224407
_publ_section_title
;
Structure prediction by ZEFSAII (Michael W. Deem and Ramdas Pophale) SiO2 
 PCOD9224407
Probable space group: C 2/M
;
_chemical_formula_sum "Si O2"
_cell_formula_units_Z 28
_cell_length_a 21.000000
_cell_length_b 18.000000
_cell_length_c 24.000000
_cell_angle_alpha 90.000000
_cell_angle_beta 20.000000
_cell_angle_gamma 90.000000
_cell_volume 3102.806740
_symmetry_space_group_name_H-M "C 2/M"
_symmetry_group_IT_number 12
_symmetry_cell_setting 'monoclinic'
loop_
_space_group_symop_operation_xyz
x,y,z
-x,y,-z
-x,-y,-z
x,-y,z
1/2+x,1/2+y,z
1/2-x,1/2+y,-z
1/2-x,1/2-y,-z
1/2+x,1/2-y,z
loop_
_atom_site_type_symbol
_atom_site_label
_atom_site_fract_x
_atom_site_fract_y
_atom_site_fract_z
Si Si1 0.834722 0.186481 0.679278
Si Si2 0.893980 0.587442 0.748700
Si Si3 0.985191 0.909936 0.881377
Si Si4 0.184852 0.359253 0.309034
Si Si5 0.483296 0.081237 0.081226
Si Si6 0.177659 0.090335 0.606103
Si Si7 0.899733 0.087864 0.734984
O O1 0.795279 0.272498 0.723439
O O2 0.659563 0.147163 0.793576
O O3 0.891743 0.140001 0.687318
O O4 0.000000 0.183636 0.500000
O O5 0.908152 0.500000 0.749831
O O6 0.836780 0.597462 0.731131
O O7 0.107637 0.617538 0.576428
O O8 0.722998 0.616008 0.928401
O O9 0.136262 0.884866 0.803063
O O10 0.069525 0.885688 0.751732
O O11 0.980313 0.000000 0.884821
O O12 0.000000 0.368645 0.500000
O O13 0.414494 0.000000 0.156798
O O14 0.500000 0.077289 0.000000
O O15 0.691334 0.093260 0.932116
O O16 0.054718 0.108527 0.652778
O O17 0.185110 0.000000 0.603086
O O18 0.922658 0.000000 0.700751
#
# Coordination Sequence:
#
# PCOD9224407 Si02
#       7
#     8   8   8   8   8   8   8
#     4  10  21  34  52  79 109 137 181 227 267 314
#     4  10  20  34  55  83 109 140 183 221 266 321
#     4  10  20  34  56  84 109 139 181 222 267 322
#     4  11  21  34  54  75 109 147 180 223 275 312
#     4   8  15  30  52  73  96 130 171 215 264 313
#     4   9  18  35  56  79 113 143 170 221 270 319
#     4   9  18  35  57  79 105 142 177 213 274 327
#
# _framework density 9.0240880000000008
#
# number of rings (size 3 to 8) (size 9 to 14) (size 15 to 20)
#    0.000    2.429    1.429    2.143    0.000    6.286 
#    2.571    0.714    0.000    1.714    0.000    0.000 
#    0.000    0.000    0.000    0.000    0.000    0.000 
#
# Total GULP energy -155980.974685 kJ/mol
# GULP energy per Si atom -5570.749096 kJ/mol
# Density = 0.900355 g / cm^3
# Si number density = 9.024088 Si / 1000 Ang^3
#
#
#
# Elastic Constant Matrix: (Units=GPa)
#
#
# Indices 1 2 3 4 5 6 
#
# 1 87.9120 7.8043 45.2787 0.0022 -18.4435 -0.0021
# 2 7.8043 20.3801 21.2243 0.0328 2.5903 0.0329
# 3 45.2787 21.2243 126.1143 0.0021 -14.3172 -0.0259
# 4 0.0022 0.0328 0.0021 14.2013 -0.0639 2.2564
# 5 -18.4435 2.5903 -14.3172 -0.0639 27.3146 -0.0129
# 6 -0.0021 0.0329 -0.0259 2.2564 -0.0129 1.9717
#
#
#
# Elastic Compliance Matrix: (Units=1/GPa)
#
#
# Indices 1 2 3 4 5 6 
#
# 1 0.015557 -0.002725 -0.004152 0.000040 0.008586 0.000018
# 2 -0.002725 0.063632 -0.011297 0.000000 -0.013796 -0.001305
# 3 -0.004152 -0.011297 0.011829 -0.000016 0.004468 0.000388
# 4 0.000040 0.000000 -0.000016 0.086065 0.000173 -0.098489
# 5 0.008586 -0.013796 0.004468 0.000173 0.046059 0.000403
# 6 0.000018 -0.001305 0.000388 -0.098489 0.000403 0.619904
#
#
# Mechanical properties :
#
#
# Convention : Reuss Voigt Hill
#
# Bulk Modulus (GPa) = 18.29178 42.55790 30.42484
# Shear Modulus (GPa) = 5.57031 19.37080 12.47055
#
# Velocity S-wave (km/s) = 1.75871 3.27965 2.63146
# Velocity P-wave (km/s) = 3.77903 6.16221 5.11145
#
# Compressibility (1/GPa) = 0.05466937
#
# Stress axis : x y z
#
# Youngs Moduli (GPa) = 64.28072 15.71545 84.54125
#
# Poissons Ratio (x) = 0.04282 0.35101
# Poissons Ratio (y) = 0.17515 0.95507
# Poissons Ratio (z) = 0.26689 0.17754
#
# Static dielectric constant tensor:
#      x y z
#    x 1.595450 -0.000010 -0.006790 
#    y -0.000010 1.633120 0.000020 
#    z -0.006790 0.000020 1.659790 
# 
# From -- ./inp_files/347755.got.cif
#   From: 2010.05.17/outbox.ucp.g08.bks.cvg/sg12_174_cif.got.tgz:347755.got - 2010.06.11 11:47:21.
