data_PCOD9224152
_publ_section_title
;
Structure prediction by ZEFSAII (Michael W. Deem and Ramdas Pophale) SiO2 
 PCOD9224152
Probable space group: C 2/M
;
_chemical_formula_sum "Si O2"
_cell_formula_units_Z 24
_cell_length_a 18.000000
_cell_length_b 9.000000
_cell_length_c 30.000000
_cell_angle_alpha 90.000000
_cell_angle_beta 30.000000
_cell_angle_gamma 90.000000
_cell_volume 2430.000000
_symmetry_space_group_name_H-M "C 2/M"
_symmetry_group_IT_number 12
_symmetry_cell_setting 'monoclinic'
loop_
_space_group_symop_operation_xyz
x,y,z
-x,y,-z
-x,-y,-z
x,-y,z
1/2+x,1/2+y,z
1/2-x,1/2+y,-z
1/2-x,1/2-y,-z
1/2+x,1/2-y,z
loop_
_atom_site_type_symbol
_atom_site_label
_atom_site_fract_x
_atom_site_fract_y
_atom_site_fract_z
Si Si1 0.175361 0.671622 0.901601
Si Si2 0.647461 0.832948 0.451437
Si Si3 0.318170 0.679301 0.920189
Si Si4 0.661551 0.320229 0.729717
Si Si5 0.309691 0.821788 0.745893
Si Si6 0.402514 0.674829 0.433357
O O1 0.225326 0.500000 0.869157
O O2 0.242809 0.727712 0.913110
O O3 0.219731 0.763180 0.835005
O O4 0.000000 0.671714 0.000000
O O5 0.500000 0.855235 0.500000
O O6 0.770264 0.772061 0.353048
O O7 0.592669 0.722416 0.517763
O O8 0.691785 0.000000 0.445449
O O9 0.303210 0.500000 0.931229
O O10 0.490673 0.717524 0.825332
O O11 0.250000 0.750000 0.000000
O O12 0.675651 0.500000 0.720856
O O13 0.743802 0.272054 0.732166
O O14 0.472018 0.751671 0.661483
O O15 0.314578 0.000000 0.743747
O O16 0.407669 0.500000 0.425197
O O17 0.250000 0.750000 0.500000
#
# Coordination Sequence:
#
# PCOD9224152 Si02
#       6
#     8   8   8   8   8   8
#     4  10  22  39  59  88 126 163 200 252 311 362
#     4  10  19  38  64  88 120 161 202 248 305 364
#     4  10  21  38  60  86 117 155 199 245 301 361
#     4   9  19  36  60  87 117 156 200 246 301 358
#     4  11  22  40  63  89 119 158 207 254 306 368
#     4  12  26  42  61  89 125 163 206 254 307 366
#
# _framework density 9.8765429999999999
#
# number of rings (size 3 to 8) (size 9 to 14) (size 15 to 20)
#    0.000    1.667    1.667    3.000    2.333    1.333 
#    0.000    1.667    0.000    0.000    0.000    0.000 
#    0.000    0.000    0.000    0.000    0.000    0.000 
#
# Total GULP energy -133854.118548 kJ/mol
# GULP energy per Si atom -5577.254940 kJ/mol
# Density = 0.985406 g / cm^3
# Si number density = 9.876543 Si / 1000 Ang^3
#
#
#
# Elastic Constant Matrix: (Units=GPa)
#
#
# Indices 1 2 3 4 5 6 
#
# 1 44.5524 21.8107 12.3096 0.0000 1.2293 0.0000
# 2 21.8107 59.6166 26.7816 0.0000 15.2764 -0.0001
# 3 12.3096 26.7816 118.4293 -0.0002 20.9938 0.0000
# 4 0.0000 0.0000 -0.0002 33.4311 0.0000 25.2391
# 5 1.2293 15.2764 20.9938 0.0000 33.2029 0.0000
# 6 0.0000 -0.0001 0.0000 25.2391 0.0000 45.1148
#
#
#
# Elastic Compliance Matrix: (Units=1/GPa)
#
#
# Indices 1 2 3 4 5 6 
#
# 1 0.028003 -0.010891 -0.001298 0.000000 0.004794 0.000000
# 2 -0.010891 0.024316 -0.002765 0.000000 -0.009036 0.000000
# 3 -0.001298 -0.002765 0.010102 0.000000 -0.005067 0.000000
# 4 0.000000 0.000000 0.000000 0.051783 0.000000 -0.028970
# 5 0.004794 -0.009036 -0.005067 0.000000 0.037302 0.000000
# 6 0.000000 0.000000 0.000000 -0.028970 0.000000 0.038373
#
#
# Mechanical properties :
#
#
# Convention : Reuss Voigt Hill
#
# Bulk Modulus (GPa) = 30.75535 38.26689 34.51112
# Shear Modulus (GPa) = 21.68034 33.12953 27.40493
#
# Velocity S-wave (km/s) = 3.31655 4.09978 3.72879
# Velocity P-wave (km/s) = 5.50179 6.46728 6.00397
#
# Compressibility (1/GPa) = 0.03251467
#
# Stress axis : x y z
#
# Youngs Moduli (GPa) = 35.71014 41.12574 98.98725
#
# Poissons Ratio (x) = 0.44788 0.12846
# Poissons Ratio (y) = 0.38890 0.27370
# Poissons Ratio (z) = 0.04634 0.11371
#
# Static dielectric constant tensor:
#      x y z
#    x 1.732940 0.000000 -0.010160 
#    y 0.000000 1.464330 0.000000 
#    z -0.010160 0.000000 1.671570 
# 
# From -- ./inp_files/244692.got.cif
#   From: 2010.05.17/outbox.ucp.g08.bks.cvg/sg12_123_cif.got.tgz:244692.got - 2010.06.11 11:47:21.
