data_PCOD9224530
_publ_section_title
;
Structure prediction by ZEFSAII (Michael W. Deem and Ramdas Pophale) SiO2 
 PCOD9224530
Probable space group: C 2/M
;
_chemical_formula_sum "Si O2"
_cell_formula_units_Z 24
_cell_length_a 15.000000
_cell_length_b 9.000000
_cell_length_c 18.000000
_cell_angle_alpha 90.000000
_cell_angle_beta 90.000000
_cell_angle_gamma 90.000000
_cell_volume 2430.000000
_symmetry_space_group_name_H-M "C 2/M"
_symmetry_group_IT_number 12
_symmetry_cell_setting 'monoclinic'
loop_
_space_group_symop_operation_xyz
x,y,z
-x,y,-z
-x,-y,-z
x,-y,z
1/2+x,1/2+y,z
1/2-x,1/2+y,-z
1/2-x,1/2-y,-z
1/2+x,1/2-y,z
loop_
_atom_site_type_symbol
_atom_site_label
_atom_site_fract_x
_atom_site_fract_y
_atom_site_fract_z
Si Si1 0.103758 0.321217 0.663343
Si Si2 0.990271 0.178859 0.083941
Si Si3 0.891430 0.324186 0.496008
Si Si4 0.658974 0.174092 0.825879
Si Si5 0.642470 0.327012 0.193809
Si Si6 0.608538 0.177413 0.344606
O O1 0.117278 0.500000 0.661038
O O2 0.137004 0.260032 0.583700
O O3 0.143233 0.270067 0.741299
O O4 0.997585 0.295248 0.664070
O O5 0.898294 0.230871 0.118317
O O6 0.066216 0.235068 0.140501
O O7 0.996615 0.000000 0.082758
O O8 0.000000 0.233103 0.000000
O O9 0.869693 0.500000 0.495736
O O10 0.860512 0.261498 0.575147
O O11 0.000000 0.317088 0.500000
O O12 0.762375 0.181458 0.844849
O O13 0.631245 0.000000 0.827738
O O14 0.622535 0.500000 0.209042
O O15 0.650605 0.248143 0.272600
O O16 0.620844 0.000000 0.344492
#
# Coordination Sequence:
#
# PCOD9224530 Si02
#       6
#     8   8   8   8   8   8
#     4   8  13  25  47  73 100 131 171 213 248 288
#     4  10  22  40  58  76 103 137 167 203 259 318
#     4   7  11  20  40  71  99 127 170 215 244 278
#     4  10  20  35  56  81 105 133 171 212 253 301
#     4  10  21  35  52  77 109 137 164 209 265 306
#     4   9  15  27  50  75  99 134 180 214 240 291
#
# _framework density 9.8765429999999999
#
# number of rings (size 3 to 8) (size 9 to 14) (size 15 to 20)
#    0.000    3.000    1.667    2.000    0.000    1.667 
#    0.000    0.833    0.000    5.500    0.000    0.000 
#    0.000    0.000    0.000    0.000    0.000    0.000 
#
# Total GULP energy -133631.641088 kJ/mol
# GULP energy per Si atom -5567.985045 kJ/mol
# Density = 0.985406 g / cm^3
# Si number density = 9.876543 Si / 1000 Ang^3
#
#
#
# Elastic Constant Matrix: (Units=GPa)
#
#
# Indices 1 2 3 4 5 6 
#
# 1 10.0520 11.9635 22.0727 0.0000 -28.2118 0.0000
# 2 11.9635 -15.7205 1.9367 0.0000 -2.3148 0.0000
# 3 22.0727 1.9367 87.2920 0.0000 -35.8012 0.0000
# 4 0.0000 0.0000 0.0000 -22.6459 0.0000 10.4974
# 5 -28.2118 -2.3148 -35.8012 0.0000 -14.7442 0.0000
# 6 0.0000 0.0000 0.0000 10.4974 0.0000 9.0443
#
#
#
# Elastic Compliance Matrix: (Units=1/GPa)
#
#
# Indices 1 2 3 4 5 6 
#
# 1 0.037246 0.029597 -0.020647 0.000000 -0.025779 0.000000
# 2 0.029597 -0.040237 -0.013641 0.000000 -0.017190 0.000000
# 3 -0.020647 -0.013641 0.017066 0.000000 0.000211 0.000000
# 4 0.000000 0.000000 0.000000 -0.028711 0.000000 0.033324
# 5 -0.025779 -0.017190 0.000211 0.000000 -0.016310 0.000000
# 6 0.000000 0.000000 0.000000 0.033324 0.000000 0.071889
#
#
# Mechanical properties :
#
#
# Convention : Reuss Voigt Hill
#
# Bulk Modulus (GPa) = 213.18118 17.06325 115.12221
# Shear Modulus (GPa) = 96.35737 -2.62578 46.86580
#
# Velocity S-wave (km/s) = 6.99191 -1.15420 4.87620
# Velocity P-wave (km/s) = 13.16585 2.62312 9.49264
#
# Compressibility (1/GPa) = 0.00469085
#
# Stress axis : x y z
#
# Youngs Moduli (GPa) = 26.84856 -24.85281 58.59706
#
# Poissons Ratio (x) = 0.73557 1.20987
# Poissons Ratio (y) = -0.79463 0.79935
# Poissons Ratio (z) = 0.55435 -0.33903
#
# Static dielectric constant tensor:
#      x y z
#    x 1.735830 0.000000 -0.009980 
#    y 0.000000 1.669350 0.000000 
#    z -0.009980 0.000000 1.733850 
# 
# From -- ./inp_files/267715.got.cif
#   From: 2010.05.17/outbox.ucp.g08.bks.cvg/sg12_134_cif.got.tgz:267715.got - 2010.06.11 11:47:21.
