data_PCOD9224350
_publ_section_title
;
Structure prediction by ZEFSAII (Michael W. Deem and Ramdas Pophale) SiO2 
 PCOD9224350
Probable space group: C 2/M
;
_chemical_formula_sum "Si O2"
_cell_formula_units_Z 24
_cell_length_a 24.000000
_cell_length_b 9.000000
_cell_length_c 12.000000
_cell_angle_alpha 90.000000
_cell_angle_beta 110.000000
_cell_angle_gamma 90.000000
_cell_volume 2435.683273
_symmetry_space_group_name_H-M "C 2/M"
_symmetry_group_IT_number 12
_symmetry_cell_setting 'monoclinic'
loop_
_space_group_symop_operation_xyz
x,y,z
-x,y,-z
-x,-y,-z
x,-y,z
1/2+x,1/2+y,z
1/2-x,1/2+y,-z
1/2-x,1/2-y,-z
1/2+x,1/2-y,z
loop_
_atom_site_type_symbol
_atom_site_label
_atom_site_fract_x
_atom_site_fract_y
_atom_site_fract_z
Si Si1 0.552234 0.172480 0.674639
Si Si2 0.733653 0.179599 0.748778
Si Si3 0.334002 0.826546 0.087520
Si Si4 0.354303 0.179536 0.853178
Si Si5 0.874071 0.823570 0.456845
Si Si6 0.428210 0.821514 0.701040
O O1 0.607310 0.179614 0.796766
O O2 0.570338 0.271411 0.581764
O O3 0.494031 0.214625 0.703619
O O4 0.546752 0.000000 0.634092
O O5 0.716515 0.233863 0.863443
O O6 0.796204 0.248547 0.759184
O O7 0.682457 0.241455 0.634574
O O8 0.733893 0.000000 0.747628
O O9 0.318766 0.000000 0.059856
O O10 0.351248 0.764710 0.978666
O O11 0.411134 0.215982 0.816348
O O12 0.350005 0.000000 0.850685
O O13 0.885263 0.764339 0.587942
O O14 0.867278 0.000000 0.447676
O O15 0.420858 0.000000 0.682823
#
# Coordination Sequence:
#
# PCOD9224350 Si02
#       6
#     8   8   8   8   8   8
#     4   9  18  35  57  80 107 139 175 214 259 310
#     4  10  20  36  57  79 105 138 176 218 265 313
#     4   8  16  32  55  81 106 135 174 217 257 304
#     4  10  20  34  53  80 111 141 175 213 257 310
#     4  11  22  36  56  79 103 135 178 225 266 308
#     4  10  21  35  53  78 110 145 175 210 259 313
#
# _framework density 9.8534980000000001
#
# number of rings (size 3 to 8) (size 9 to 14) (size 15 to 20)
#    0.000    2.333    0.000    4.000    0.000    4.667 
#    0.000    6.667    0.000    0.000    0.000    7.000 
#    0.000    0.000    0.000    0.000    0.000    0.000 
#
# Total GULP energy -133826.178538 kJ/mol
# GULP energy per Si atom -5576.090772 kJ/mol
# Density = 0.983107 g / cm^3
# Si number density = 9.853498 Si / 1000 Ang^3
#
#
#
# Elastic Constant Matrix: (Units=GPa)
#
#
# Indices 1 2 3 4 5 6 
#
# 1 61.7229 3.3095 10.7627 0.0000 -15.8351 0.0000
# 2 3.3095 15.4425 2.0672 0.0000 -8.6683 0.0000
# 3 10.7627 2.0672 35.5867 0.0000 -16.4035 0.0000
# 4 0.0000 0.0000 0.0000 14.2272 0.0000 2.9378
# 5 -15.8351 -8.6683 -16.4035 0.0000 23.2236 0.0000
# 6 0.0000 0.0000 0.0000 2.9378 0.0000 18.8832
#
#
#
# Elastic Compliance Matrix: (Units=1/GPa)
#
#
# Indices 1 2 3 4 5 6 
#
# 1 0.019881 0.004611 0.001129 0.000000 0.016075 0.000000
# 2 0.004611 0.087862 0.014928 0.000000 0.046483 0.000000
# 3 0.001129 0.014928 0.044208 0.000000 0.037567 0.000000
# 4 0.000000 0.000000 0.000000 0.072621 0.000000 -0.011298
# 5 0.016075 0.046483 0.037567 0.000000 0.097905 0.000000
# 6 0.000000 0.000000 0.000000 -0.011298 0.000000 0.054715
#
#
# Mechanical properties :
#
#
# Convention : Reuss Voigt Hill
#
# Bulk Modulus (GPa) = 5.17364 16.11455 10.64410
# Shear Modulus (GPa) = 12.49107 17.70764 15.09936
#
# Velocity S-wave (km/s) = 2.52035 3.00083 2.77102
# Velocity P-wave (km/s) = 3.33174 4.49460 3.95613
#
# Compressibility (1/GPa) = 0.19328733
#
# Stress axis : x y z
#
# Youngs Moduli (GPa) = 50.29840 11.38144 22.62027
#
# Poissons Ratio (x) = -0.05248 -0.02553
# Poissons Ratio (y) = -0.23194 -0.33767
# Poissons Ratio (z) = -0.05678 -0.16990
#
# Static dielectric constant tensor:
#      x y z
#    x 1.716080 0.000000 -0.001740 
#    y 0.000000 1.651020 0.000000 
#    z -0.001740 0.000000 1.729280 
# 
# From -- ./inp_files/172181.got.cif
#   From: 2010.05.17/outbox.ucp.g08.bks.cvg/sg12_87_cif.got.tgz:172181.got - 2010.06.11 11:47:21.
