data_PCOD9224410
_publ_section_title
;
Structure prediction by ZEFSAII (Michael W. Deem and Ramdas Pophale) SiO2 
 PCOD9224410
Probable space group: C 2/M
;
_chemical_formula_sum "Si O2"
_cell_formula_units_Z 24
_cell_length_a 18.000000
_cell_length_b 9.000000
_cell_length_c 30.000000
_cell_angle_alpha 90.000000
_cell_angle_beta 150.000000
_cell_angle_gamma 90.000000
_cell_volume 2430.000000
_symmetry_space_group_name_H-M "C 2/M"
_symmetry_group_IT_number 12
_symmetry_cell_setting 'monoclinic'
loop_
_space_group_symop_operation_xyz
x,y,z
-x,y,-z
-x,-y,-z
x,-y,z
1/2+x,1/2+y,z
1/2-x,1/2+y,-z
1/2-x,1/2-y,-z
1/2+x,1/2-y,z
loop_
_atom_site_type_symbol
_atom_site_label
_atom_site_fract_x
_atom_site_fract_y
_atom_site_fract_z
Si Si1 0.019194 0.820890 0.403888
Si Si2 0.622158 0.673202 0.904240
Si Si3 0.175288 0.324168 0.219987
Si Si4 0.585489 0.168253 0.800403
Si Si5 0.825221 0.678326 0.601505
Si Si6 0.619531 0.668104 0.101114
O O1 0.089275 0.756830 0.394816
O O2 0.149206 0.782230 0.507678
O O3 0.846128 0.773379 0.318739
O O4 0.014610 0.000000 0.398842
O O5 0.622693 0.500000 0.913909
O O6 0.456695 0.740709 0.823250
O O7 0.652290 0.713673 0.868964
O O8 0.750000 0.750000 0.000000
O O9 0.169170 0.500000 0.225118
O O10 0.128279 0.286405 0.144896
O O11 0.424854 0.209625 0.696781
O O12 0.711778 0.159906 0.828529
O O13 0.576071 0.000000 0.814913
O O14 0.834368 0.500000 0.599858
O O15 0.580135 0.500000 0.097092
O O16 0.500000 0.700569 0.000000
#
# Coordination Sequence:
#
# PCOD9224410 Si02
#       6
#     8   8   8   8   8   8
#     4   9  18  32  54  86 119 151 189 234 282 335
#     4  12  26  43  62  82 112 152 194 238 290 348
#     4  11  22  37  58  85 117 151 191 237 285 339
#     4  10  20  36  58  85 117 153 193 237 287 342
#     4   9  17  32  56  85 117 153 190 231 284 339
#     4  10  20  34  55  83 113 146 188 240 290 340
#
# _framework density 9.8765429999999999
#
# number of rings (size 3 to 8) (size 9 to 14) (size 15 to 20)
#    0.000    1.833    1.667    3.000    0.000    3.667 
#    0.000    0.833    0.000    5.000    0.000    0.000 
#    0.000    0.000    0.000    0.000    0.000    0.000 
#
# Total GULP energy -133745.540835 kJ/mol
# GULP energy per Si atom -5572.730868 kJ/mol
# Density = 0.985406 g / cm^3
# Si number density = 9.876543 Si / 1000 Ang^3
#
#
#
# Elastic Constant Matrix: (Units=GPa)
#
#
# Indices 1 2 3 4 5 6 
#
# 1 23.7066 12.7301 -7.5786 0.0000 3.5955 0.0000
# 2 12.7301 56.7800 25.5461 0.0000 3.1069 0.0000
# 3 -7.5786 25.5461 129.8366 0.0001 4.5600 0.0000
# 4 0.0000 0.0000 0.0001 30.3070 0.0000 2.1447
# 5 3.5955 3.1069 4.5600 0.0000 26.2362 0.0000
# 6 0.0000 0.0000 0.0000 2.1447 0.0000 24.8287
#
#
#
# Elastic Compliance Matrix: (Units=1/GPa)
#
#
# Indices 1 2 3 4 5 6 
#
# 1 0.052774 -0.014219 0.006110 0.000000 -0.006610 0.000000
# 2 -0.014219 0.023224 -0.005404 0.000000 0.000138 0.000000
# 3 0.006110 -0.005404 0.009185 0.000000 -0.001794 0.000000
# 4 0.000000 0.000000 0.000000 0.033199 0.000000 -0.002868
# 5 -0.006610 0.000138 -0.001794 0.000000 0.039317 0.000000
# 6 0.000000 0.000000 0.000000 -0.002868 0.000000 0.040524
#
#
# Mechanical properties :
#
#
# Convention : Reuss Voigt Hill
#
# Bulk Modulus (GPa) = 17.19510 30.19093 23.69302
# Shear Modulus (GPa) = 20.43877 28.24942 24.34410
#
# Velocity S-wave (km/s) = 3.22018 3.78580 3.51439
# Velocity P-wave (km/s) = 4.74869 5.86746 5.33747
#
# Compressibility (1/GPa) = 0.05815609
#
# Stress axis : x y z
#
# Youngs Moduli (GPa) = 18.94879 43.05952 108.87369
#
# Poissons Ratio (x) = 0.61228 -0.66525
# Poissons Ratio (y) = 0.26944 0.58838
# Poissons Ratio (z) = -0.11578 0.23270
#
# Static dielectric constant tensor:
#      x y z
#    x 1.783530 0.000000 -0.008020 
#    y 0.000000 1.716820 0.000000 
#    z -0.008020 0.000000 1.703970 
# 
# From -- ./inp_files/280770.got.cif
#   From: 2010.05.17/outbox.ucp.g08.bks.cvg/sg12_141_cif.got.tgz:280770.got - 2010.06.11 11:47:21.
