data_PCOD9224210
_publ_section_title
;
Structure prediction by ZEFSAII (Michael W. Deem and Ramdas Pophale) SiO2 
 PCOD9224210
Probable space group: C 2/M
;
_chemical_formula_sum "Si O2"
_cell_formula_units_Z 28
_cell_length_a 30.000000
_cell_length_b 9.000000
_cell_length_c 12.000000
_cell_angle_alpha 90.000000
_cell_angle_beta 120.000000
_cell_angle_gamma 90.000000
_cell_volume 2805.922308
_symmetry_space_group_name_H-M "C 2/M"
_symmetry_group_IT_number 12
_symmetry_cell_setting 'monoclinic'
loop_
_space_group_symop_operation_xyz
x,y,z
-x,y,-z
-x,-y,-z
x,-y,z
1/2+x,1/2+y,z
1/2-x,1/2+y,-z
1/2-x,1/2-y,-z
1/2+x,1/2-y,z
loop_
_atom_site_type_symbol
_atom_site_label
_atom_site_fract_x
_atom_site_fract_y
_atom_site_fract_z
Si Si1 0.398011 0.678448 0.035986
Si Si2 0.767863 0.327762 0.684552
Si Si3 0.291126 0.828776 0.971789
Si Si4 0.023680 0.674195 0.710276
Si Si5 0.921470 0.672960 0.456068
Si Si6 0.372328 0.676090 0.763470
Si Si7 0.845811 0.177907 0.499969
O O1 0.393068 0.500000 0.031886
O O2 0.449276 0.730327 0.161855
O O3 0.346752 0.748765 0.028257
O O4 0.399842 0.732318 0.909147
O O5 0.778620 0.500000 0.663135
O O6 0.767017 0.329607 0.817619
O O7 0.812798 0.215347 0.709863
O O8 0.713375 0.276175 0.569517
O O9 0.299578 0.000000 0.017040
O O10 0.250000 0.750000 0.000000
O O11 0.020877 0.500000 0.738363
O O12 0.059701 0.684678 0.646218
O O13 0.968331 0.722697 0.594629
O O14 0.911853 0.500000 0.467299
O O15 0.871627 0.766069 0.420504
O O16 0.381079 0.500000 0.771209
O O17 0.379159 0.735066 0.646960
O O18 0.845717 0.000000 0.501758
#
# Coordination Sequence:
#
# PCOD9224210 Si02
#       7
#     8   8   8   8   8   8   8
#     4  10  20  34  54  77 102 138 178 211 257 314
#     4   9  19  33  50  74 104 138 176 216 254 299
#     4  10  20  33  48  73 108 140 174 216 259 305
#     4   9  19  38  58  77 104 134 169 216 266 315
#     4   9  20  37  56  79 104 132 170 215 265 318
#     4   9  19  35  52  75 107 141 175 212 254 306
#     4  10  20  34  53  78 108 137 172 218 261 301
#
# _framework density 9.9788940000000004
#
# number of rings (size 3 to 8) (size 9 to 14) (size 15 to 20)
#    0.000    2.571    0.000    2.143    2.000    3.429 
#    0.000    2.143    0.000    4.286    0.000    0.000 
#    0.000    0.000    0.000    0.000    0.000    0.000 
#
# Total GULP energy -156025.539156 kJ/mol
# GULP energy per Si atom -5572.340684 kJ/mol
# Density = 0.995618 g / cm^3
# Si number density = 9.978894 Si / 1000 Ang^3
#
#
#
# Elastic Constant Matrix: (Units=GPa)
#
#
# Indices 1 2 3 4 5 6 
#
# 1 7.2478 -9.3158 -12.1455 0.0000 -12.5764 0.0000
# 2 -9.3158 -0.2185 11.4143 0.0000 -0.7085 0.0000
# 3 -12.1455 11.4143 64.2192 0.0000 14.2849 0.0000
# 4 0.0000 0.0000 0.0000 17.1855 0.0000 4.2090
# 5 -12.5764 -0.7085 14.2849 0.0000 13.4584 0.0000
# 6 0.0000 0.0000 0.0000 4.2090 0.0000 12.0017
#
#
#
# Elastic Compliance Matrix: (Units=1/GPa)
#
#
# Indices 1 2 3 4 5 6 
#
# 1 0.036063 -0.113223 0.027195 0.000000 -0.001126 0.000000
# 2 -0.113223 0.049955 -0.009612 0.000000 -0.092971 0.000000
# 3 0.027195 -0.009612 0.022101 0.000000 0.001448 0.000000
# 4 0.000000 0.000000 0.000000 0.063656 0.000000 -0.022324
# 5 -0.001126 -0.092971 0.001448 0.000000 0.066819 0.000000
# 6 0.000000 0.000000 0.000000 -0.022324 0.000000 0.091150
#
#
# Mechanical properties :
#
#
# Convention : Reuss Voigt Hill
#
# Bulk Modulus (GPa) = -12.02495 5.68385 -3.17055
# Shear Modulus (GPa) = 10.13574 13.94881 12.04228
#
# Velocity S-wave (km/s) = 2.25602 2.64657 2.45906
# Velocity P-wave (km/s) = 0.86480 3.49188 2.54373
#
# Compressibility (1/GPa) = -0.08316044
#
# Stress axis : x y z
#
# Youngs Moduli (GPa) = 27.72950 20.01800 45.24653
#
# Poissons Ratio (x) = 2.26650 -1.23048
# Poissons Ratio (y) = 3.13962 0.43490
# Poissons Ratio (z) = -0.75411 0.19241
#
# Static dielectric constant tensor:
#      x y z
#    x 1.697390 0.000000 -0.021290 
#    y 0.000000 1.678070 0.000000 
#    z -0.021290 0.000000 1.752120 
# 
# From -- ./inp_files/187692.got.cif
#   From: 2010.05.17/outbox.ucp.g08.bks.cvg/sg12_94_cif.got.tgz:187692.got - 2010.06.11 11:47:21.
