data_PCOD9224310
_publ_section_title
;
Structure prediction by ZEFSAII (Michael W. Deem and Ramdas Pophale) SiO2 
 PCOD9224310
Probable space group: C 2/M
;
_chemical_formula_sum "Si O2"
_cell_formula_units_Z 28
_cell_length_a 15.000000
_cell_length_b 9.000000
_cell_length_c 24.000000
_cell_angle_alpha 90.000000
_cell_angle_beta 120.000000
_cell_angle_gamma 90.000000
_cell_volume 2805.922308
_symmetry_space_group_name_H-M "C 2/M"
_symmetry_group_IT_number 12
_symmetry_cell_setting 'monoclinic'
loop_
_space_group_symop_operation_xyz
x,y,z
-x,y,-z
-x,-y,-z
x,-y,z
1/2+x,1/2+y,z
1/2-x,1/2+y,-z
1/2-x,1/2-y,-z
1/2+x,1/2-y,z
loop_
_atom_site_type_symbol
_atom_site_label
_atom_site_fract_x
_atom_site_fract_y
_atom_site_fract_z
Si Si1 0.015972 0.170596 0.571143
Si Si2 0.432765 0.173510 0.705896
Si Si3 0.139841 0.328329 0.693338
Si Si4 0.671170 0.825360 0.433633
Si Si5 0.260353 0.325081 0.176715
Si Si6 0.024787 0.323679 0.070142
Si Si7 0.045236 0.822808 0.839093
O O1 0.120490 0.226200 0.633073
O O2 0.000000 0.171938 0.500000
O O3 0.935573 0.288979 0.569510
O O4 0.995543 0.000000 0.583145
O O5 0.537325 0.180235 0.700969
O O6 0.345161 0.228382 0.635225
O O7 0.457468 0.262004 0.769452
O O8 0.413988 0.000000 0.713113
O O9 0.155914 0.500000 0.683325
O O10 0.224858 0.265152 0.761687
O O11 0.750000 0.750000 0.500000
O O12 0.692278 0.000000 0.437235
O O13 0.277084 0.500000 0.194349
O O14 0.146407 0.304948 0.118130
O O15 0.346678 0.282958 0.157714
O O16 0.001013 0.500000 0.064956
O O17 0.967370 0.245890 0.103690
O O18 0.000000 0.269722 0.000000
O O19 0.038851 0.000000 0.840430
#
# Coordination Sequence:
#
# PCOD9224310 Si02
#       7
#     8   8   8   8   8   8   8
#     4  10  20  34  52  75 106 145 185 227 281 339
#     4   8  16  32  53  76 103 140 181 223 274 333
#     4   9  17  31  54  80 105 138 182 231 279 330
#     4  10  20  34  53  77 107 143 185 233 283 336
#     4   9  19  37  59  83 113 150 189 232 283 343
#     4  10  22  40  60  84 117 155 191 229 281 347
#     4  10  20  35  58  86 113 144 187 236 286 334
#
# _framework density 9.9788940000000004
#
# number of rings (size 3 to 8) (size 9 to 14) (size 15 to 20)
#    0.000    2.571    0.000    2.571    0.000    7.143 
#    2.571    0.000    0.000    0.000    0.000    0.000 
#    0.000    0.000    0.000    0.000    0.000    0.000 
#
# Total GULP energy -156117.176077 kJ/mol
# GULP energy per Si atom -5575.613431 kJ/mol
# Density = 0.995618 g / cm^3
# Si number density = 9.978894 Si / 1000 Ang^3
#
#
#
# Elastic Constant Matrix: (Units=GPa)
#
#
# Indices 1 2 3 4 5 6 
#
# 1 33.2844 3.4938 -5.5564 0.0000 -5.2161 0.0000
# 2 3.4938 41.4317 36.6652 0.0000 -3.1141 0.0000
# 3 -5.5564 36.6652 88.7687 0.0000 -11.9250 0.0000
# 4 0.0000 0.0000 0.0000 34.7145 0.0000 -6.1858
# 5 -5.2161 -3.1141 -11.9250 0.0000 19.4833 0.0000
# 6 0.0000 0.0000 0.0000 -6.1858 0.0000 20.1156
#
#
#
# Elastic Compliance Matrix: (Units=1/GPa)
#
#
# Indices 1 2 3 4 5 6 
#
# 1 0.034034 -0.008335 0.007211 0.000000 0.012193 0.000000
# 2 -0.008335 0.040350 -0.018110 0.000000 -0.006867 0.000000
# 3 0.007211 -0.018110 0.020776 0.000000 0.011752 0.000000
# 4 0.000000 0.000000 0.000000 0.030476 0.000000 0.009372
# 5 0.012193 -0.006867 0.011752 0.000000 0.060685 0.000000
# 6 0.000000 0.000000 0.000000 0.009372 0.000000 0.052595
#
#
# Mechanical properties :
#
#
# Convention : Reuss Voigt Hill
#
# Bulk Modulus (GPa) = 17.63968 25.85444 21.74706
# Shear Modulus (GPa) = 16.87589 23.45483 20.16536
#
# Velocity S-wave (km/s) = 2.91104 3.43187 3.18213
# Velocity P-wave (km/s) = 4.48960 5.35596 4.94180
#
# Compressibility (1/GPa) = 0.05669037
#
# Stress axis : x y z
#
# Youngs Moduli (GPa) = 29.38273 24.78334 48.13334
#
# Poissons Ratio (x) = 0.20657 -0.34709
# Poissons Ratio (y) = 0.24490 0.87171
# Poissons Ratio (z) = -0.21188 0.44883
#
# Static dielectric constant tensor:
#      x y z
#    x 1.774380 0.000000 0.060060 
#    y 0.000000 1.950180 0.000000 
#    z 0.060060 0.000000 1.744980 
# 
# From -- ./inp_files/339109.got.cif
#   From: 2010.05.17/outbox.ucp.g08.bks.cvg/sg12_170_cif.got.tgz:339109.got - 2010.06.11 11:47:21.
