data_PCOD9224568
_publ_section_title
;
Structure prediction by ZEFSAII (Michael W. Deem and Ramdas Pophale) SiO2 
 PCOD9224568
Probable space group: C 2/M
;
_chemical_formula_sum "Si O2"
_cell_formula_units_Z 32
_cell_length_a 24.000000
_cell_length_b 9.000000
_cell_length_c 30.000000
_cell_angle_alpha 90.000000
_cell_angle_beta 30.000000
_cell_angle_gamma 90.000000
_cell_volume 3240.000000
_symmetry_space_group_name_H-M "C 2/M"
_symmetry_group_IT_number 12
_symmetry_cell_setting 'monoclinic'
loop_
_space_group_symop_operation_xyz
x,y,z
-x,y,-z
-x,-y,-z
x,-y,z
1/2+x,1/2+y,z
1/2-x,1/2+y,-z
1/2-x,1/2-y,-z
1/2+x,1/2-y,z
loop_
_atom_site_type_symbol
_atom_site_label
_atom_site_fract_x
_atom_site_fract_y
_atom_site_fract_z
Si Si1 0.150155 0.832047 0.594057
Si Si2 0.221882 0.173964 0.774118
Si Si3 0.504667 0.825639 0.826080
Si Si4 0.716229 0.325368 0.879286
Si Si5 0.567629 0.822912 0.223848
Si Si6 0.218135 0.165078 0.649776
Si Si7 0.376625 0.325736 0.594509
Si Si8 0.981750 0.673906 0.938735
O O1 0.250000 0.750000 0.500000
O O2 0.186284 0.837636 0.620601
O O3 0.031980 0.749283 0.678813
O O4 0.137414 0.000000 0.585925
O O5 0.258641 0.190426 0.799741
O O6 0.310724 0.243256 0.679145
O O7 0.103602 0.255724 0.854378
O O8 0.206302 0.000000 0.775888
O O9 0.446130 0.799614 0.819489
O O10 0.609696 0.716055 0.752064
O O11 0.438768 0.802763 0.917510
O O12 0.542024 0.000000 0.800567
O O13 0.698260 0.500000 0.900376
O O14 0.813066 0.265621 0.843686
O O15 0.601083 0.245617 0.968920
O O16 0.563116 0.000000 0.234718
O O17 0.308678 0.288626 0.597111
O O18 0.255605 0.000000 0.636875
O O19 0.500000 0.270288 0.500000
O O20 0.378750 0.500000 0.602553
O O21 0.990582 0.500000 0.940947
#
# Coordination Sequence:
#
# PCOD9224568 Si02
#       8
#     8   8   8   8   8   8   8   8
#     4  10  21  36  57  86 115 149 194 237 285 347
#     4  11  23  40  61  84 115 155 199 246 291 343
#     4   9  18  34  58  84 113 149 189 235 286 340
#     4  10  23  40  58  84 119 158 198 242 294 347
#     4   9  19  38  59  81 115 155 193 240 294 343
#     4  10  20  35  57  83 111 146 189 236 283 338
#     4  11  24  40  59  86 117 150 189 237 297 354
#     4  11  22  36  59  89 117 152 199 244 293 352
#
# _framework density 9.8765429999999999
#
# number of rings (size 3 to 8) (size 9 to 14) (size 15 to 20)
#    0.000    1.875    1.250    2.250    0.000    7.500 
#    0.000    3.750    0.000    0.000    0.000    0.000 
#    0.000    0.000    0.000    0.000    0.000    0.000 
#
# Total GULP energy -178440.428520 kJ/mol
# GULP energy per Si atom -5576.263391 kJ/mol
# Density = 0.985406 g / cm^3
# Si number density = 9.876543 Si / 1000 Ang^3
#
#
#
# Elastic Constant Matrix: (Units=GPa)
#
#
# Indices 1 2 3 4 5 6 
#
# 1 32.6338 30.2644 31.0611 -0.0067 -10.4305 0.0033
# 2 30.2644 51.0447 46.5332 0.0031 1.0760 0.0001
# 3 31.0611 46.5332 104.5266 -0.0024 -11.5048 0.0004
# 4 -0.0067 0.0031 -0.0024 -12.5909 0.0004 17.8553
# 5 -10.4305 1.0760 -11.5048 0.0004 17.8293 -0.0013
# 6 0.0033 0.0001 0.0004 17.8553 -0.0013 10.4834
#
#
#
# Elastic Compliance Matrix: (Units=1/GPa)
#
#
# Indices 1 2 3 4 5 6 
#
# 1 0.133957 -0.091155 0.010770 -0.000040 0.090818 0.000037
# 2 -0.091155 0.097732 -0.024693 0.000030 -0.075160 -0.000032
# 3 0.010770 -0.024693 0.019610 -0.000005 0.020444 0.000007
# 4 -0.000040 0.000030 -0.000005 -0.023255 -0.000025 0.039607
# 5 0.090818 -0.075160 0.020444 -0.000025 0.126946 0.000030
# 6 0.000037 -0.000032 0.000007 0.039607 0.000030 0.027930
#
#
# Mechanical properties :
#
#
# Convention : Reuss Voigt Hill
#
# Bulk Modulus (GPa) = 24.30658 44.88028 34.59343
# Shear Modulus (GPa) = 8.24009 8.50081 8.37045
#
# Velocity S-wave (km/s) = 2.04465 2.07675 2.06076
# Velocity P-wave (km/s) = 4.23155 5.34046 4.81801
#
# Compressibility (1/GPa) = 0.04114113
#
# Stress axis : x y z
#
# Youngs Moduli (GPa) = 7.46510 10.23211 50.99548
#
# Poissons Ratio (x) = 0.93271 -0.54922
# Poissons Ratio (y) = 0.68048 1.25923
# Poissons Ratio (z) = -0.08040 0.25266
#
# Static dielectric constant tensor:
#      x y z
#    x 1.774160 0.000000 -0.007010 
#    y 0.000000 1.678790 0.000000 
#    z -0.007010 0.000000 1.661000 
# 
# From -- ./inp_files/382366.got.cif
#   From: 2010.05.17/outbox.ucp.g08.bks.cvg/sg12_192_cif.got.tgz:382366.got - 2010.06.11 11:47:21.
