data_PCOD9224841
_publ_section_title
;
Structure prediction by ZEFSAII (Michael W. Deem and Ramdas Pophale) SiO2 
 PCOD9224841
Probable space group: C 2/M
;
_chemical_formula_sum "Si O2"
_cell_formula_units_Z 32
_cell_length_a 30.000000
_cell_length_b 9.000000
_cell_length_c 15.000000
_cell_angle_alpha 90.000000
_cell_angle_beta 60.000000
_cell_angle_gamma 90.000000
_cell_volume 3507.402885
_symmetry_space_group_name_H-M "C 2/M"
_symmetry_group_IT_number 12
_symmetry_cell_setting 'monoclinic'
loop_
_space_group_symop_operation_xyz
x,y,z
-x,y,-z
-x,-y,-z
x,-y,z
1/2+x,1/2+y,z
1/2-x,1/2+y,-z
1/2-x,1/2-y,-z
1/2+x,1/2-y,z
loop_
_atom_site_type_symbol
_atom_site_label
_atom_site_fract_x
_atom_site_fract_y
_atom_site_fract_z
Si Si1 0.362590 0.679071 0.785035
Si Si2 0.335546 0.677611 0.168067
Si Si3 0.706055 0.821377 0.481850
Si Si4 0.598920 0.319279 0.063305
Si Si5 0.782197 0.323006 0.734313
Si Si6 0.485397 0.320807 0.231855
Si Si7 0.976730 0.819398 0.614810
Si Si8 0.379493 0.823673 0.296470
O O1 0.358871 0.500000 0.787334
O O2 0.368400 0.726719 0.882443
O O3 0.317030 0.746427 0.773283
O O4 0.417382 0.722380 0.686874
O O5 0.341053 0.500000 0.177112
O O6 0.278163 0.703419 0.190420
O O7 0.345906 0.759757 0.249495
O O8 0.375780 0.728869 0.053525
O O9 0.750000 0.750000 0.500000
O O10 0.707207 0.771729 0.378008
O O11 0.651429 0.788178 0.582130
O O12 0.714060 0.000000 0.474555
O O13 0.599370 0.500000 0.063922
O O14 0.539535 0.275342 0.133521
O O15 0.791455 0.500000 0.728057
O O16 0.481735 0.500000 0.230613
O O17 0.491391 0.276250 0.329559
O O18 0.435265 0.249814 0.240203
O O19 0.000000 0.762679 0.500000
O O20 0.977610 0.000000 0.612498
O O21 0.383737 0.000000 0.284705
#
# Coordination Sequence:
#
# PCOD9224841 Si02
#       8
#     8   8   8   8   8   8   8   8
#     4   9  18  33  54  79 107 136 169 215 264 306
#     4  10  20  37  59  76 100 141 185 220 256 309
#     4  10  21  37  54  74 106 141 173 217 263 309
#     4   8  17  36  58  80 104 135 178 225 260 298
#     4  10  21  35  52  78 107 138 175 213 259 316
#     4   9  18  34  56  78 104 137 176 216 260 313
#     4   8  15  29  49  75 102 131 172 215 250 297
#     4  11  23  36  52  79 112 138 171 219 268 314
#
# _framework density 9.1235599999999994
#
# number of rings (size 3 to 8) (size 9 to 14) (size 15 to 20)
#    0.000    2.625    1.250    1.875    1.750    2.500 
#    0.000    6.250    0.000    0.750    0.000    0.000 
#    0.000    0.000    0.000    0.000    0.000    0.000 
#
# Total GULP energy -178408.745495 kJ/mol
# GULP energy per Si atom -5575.273297 kJ/mol
# Density = 0.910279 g / cm^3
# Si number density = 9.123560 Si / 1000 Ang^3
#
#
#
# Elastic Constant Matrix: (Units=GPa)
#
#
# Indices 1 2 3 4 5 6 
#
# 1 65.6058 22.9216 -17.8487 0.0000 -13.4296 0.0000
# 2 22.9216 10.5804 9.3312 0.0000 -7.1838 0.0000
# 3 -17.8487 9.3312 52.4845 0.0000 -14.2819 0.0000
# 4 0.0000 0.0000 0.0000 13.7778 0.0000 1.2816
# 5 -13.4296 -7.1838 -14.2819 0.0000 2.3315 0.0000
# 6 0.0000 0.0000 0.0000 1.2816 0.0000 32.9017
#
#
#
# Elastic Compliance Matrix: (Units=1/GPa)
#
#
# Indices 1 2 3 4 5 6 
#
# 1 -0.089054 0.315340 -0.057676 0.000000 0.105371 0.000000
# 2 0.315340 -1.072751 0.160774 0.000000 -0.504160 0.000000
# 3 -0.057676 0.160774 -0.022873 0.000000 0.023050 0.000000
# 4 0.000000 0.000000 0.000000 0.072844 0.000000 -0.002838
# 5 0.105371 -0.504160 0.023050 0.000000 -0.376378 0.000000
# 6 0.000000 0.000000 0.000000 -0.002838 0.000000 0.030504
#
#
# Mechanical properties :
#
#
# Convention : Reuss Voigt Hill
#
# Bulk Modulus (GPa) = -2.87520 17.49765 7.31123
# Shear Modulus (GPa) = -2.07424 17.41997 7.67286
#
# Velocity S-wave (km/s) = -1.06734 3.09312 2.05283
# Velocity P-wave (km/s) = 1.76014 4.72934 3.10391
#
# Compressibility (1/GPa) = -0.34780217
#
# Stress axis : x y z
#
# Youngs Moduli (GPa) = -11.22917 -0.93218 -43.71992
#
# Poissons Ratio (x) = 0.29395 -2.52160
# Poissons Ratio (y) = 3.54100 7.02904
# Poissons Ratio (z) = -0.64766 0.14987
#
# Static dielectric constant tensor:
#      x y z
#    x 1.592140 0.000000 -0.011670 
#    y 0.000000 1.614690 0.000000 
#    z -0.011670 0.000000 1.649490 
# 
# From -- ./inp_files/249110.got.cif
#   From: 2010.05.17/outbox.ucp.g08.bks.cvg/sg12_125_cif.got.tgz:249110.got - 2010.06.11 11:47:21.
