data_PCOD9224817
_publ_section_title
;
Structure prediction by ZEFSAII (Michael W. Deem and Ramdas Pophale) SiO2 
 PCOD9224817
Probable space group: C 2/M
;
_chemical_formula_sum "Si O2"
_cell_formula_units_Z 28
_cell_length_a 18.000000
_cell_length_b 15.000000
_cell_length_c 18.000000
_cell_angle_alpha 90.000000
_cell_angle_beta 40.000000
_cell_angle_gamma 90.000000
_cell_volume 3123.947783
_symmetry_space_group_name_H-M "C 2/M"
_symmetry_group_IT_number 12
_symmetry_cell_setting 'monoclinic'
loop_
_space_group_symop_operation_xyz
x,y,z
-x,y,-z
-x,-y,-z
x,-y,z
1/2+x,1/2+y,z
1/2-x,1/2+y,-z
1/2-x,1/2-y,-z
1/2+x,1/2-y,z
loop_
_atom_site_type_symbol
_atom_site_label
_atom_site_fract_x
_atom_site_fract_y
_atom_site_fract_z
Si Si1 0.173758 0.249409 0.483232
Si Si2 0.728691 0.203826 0.873326
Si Si3 0.021845 0.767378 0.253357
Si Si4 0.138013 0.897220 0.888109
Si Si5 0.538436 0.106606 0.124491
Si Si6 0.768103 0.606627 0.288747
Si Si7 0.836810 0.104694 0.308370
O O1 0.250000 0.250000 0.500000
O O2 0.208179 0.169175 0.399306
O O3 0.216808 0.343455 0.417038
O O4 0.045464 0.243644 0.615995
O O5 0.848059 0.200978 0.828688
O O6 0.693899 0.308586 0.883736
O O7 0.749153 0.153062 0.778705
O O8 0.627790 0.152469 0.997344
O O9 0.033258 0.673450 0.199855
O O10 0.942065 0.837113 0.265639
O O11 0.157017 0.892656 0.785220
O O12 0.171028 0.000000 0.887939
O O13 0.000000 0.889875 0.000000
O O14 0.406568 0.109055 0.195791
O O15 0.565977 0.000000 0.116087
O O16 0.734189 0.500000 0.316947
O O17 0.840210 0.000000 0.329551
#
# Coordination Sequence:
#
# PCOD9224817 Si02
#       7
#     8   8   8   8   8   8   8
#     4  10  20  40  62  87 119 161 212 251 302 362
#     4  12  23  39  62  92 136 160 198 257 323 379
#     4  11  24  40  60  91 128 167 200 256 314 369
#     4  10  20  36  62  88 117 162 210 257 305 361
#     4  11  23  41  65  91 121 168 216 253 303 368
#     4  11  22  40  66  93 123 163 211 259 305 368
#     4  10  20  38  62  86 113 157 215 256 292 362
#
# _framework density 8.9630179999999999
#
# number of rings (size 3 to 8) (size 9 to 14) (size 15 to 20)
#    0.000    1.286    4.286    3.000    0.000    6.286 
#    0.000    2.143    0.000    1.714    0.000    0.000 
#    0.000    0.000    0.000    0.000    0.000    0.000 
#
# Total GULP energy -156049.910861 kJ/mol
# GULP energy per Si atom -5573.211102 kJ/mol
# Density = 0.894262 g / cm^3
# Si number density = 8.963018 Si / 1000 Ang^3
#
#
#
# Elastic Constant Matrix: (Units=GPa)
#
#
# Indices 1 2 3 4 5 6 
#
# 1 46.0007 33.1391 9.4790 0.0000 -5.3531 0.0000
# 2 33.1391 186.7213 52.1037 0.0000 8.1383 0.0000
# 3 9.4790 52.1037 114.6672 0.0000 13.3418 0.0000
# 4 0.0000 0.0000 0.0000 28.1928 0.0000 7.0535
# 5 -5.3531 8.1383 13.3418 0.0000 26.3306 0.0000
# 6 0.0000 0.0000 0.0000 7.0535 0.0000 25.8686
#
#
#
# Elastic Compliance Matrix: (Units=1/GPa)
#
#
# Indices 1 2 3 4 5 6 
#
# 1 0.026152 -0.004716 -0.000858 0.000000 0.007209 0.000000
# 2 -0.004716 0.006990 -0.002575 0.000000 -0.001815 0.000000
# 3 -0.000858 -0.002575 0.010509 0.000000 -0.004703 0.000000
# 4 0.000000 0.000000 0.000000 0.038067 0.000000 -0.010380
# 5 0.007209 -0.001815 -0.004703 0.000000 0.042388 0.000000
# 6 0.000000 0.000000 0.000000 -0.010380 0.000000 0.041487
#
#
# Mechanical properties :
#
#
# Convention : Reuss Voigt Hill
#
# Bulk Modulus (GPa) = 36.55888 59.64809 48.10348
# Shear Modulus (GPa) = 26.17658 32.92289 29.54973
#
# Velocity S-wave (km/s) = 3.82547 4.29020 4.06449
# Velocity P-wave (km/s) = 6.32067 7.60841 6.99424
#
# Compressibility (1/GPa) = 0.02735314
#
# Stress axis : x y z
#
# Youngs Moduli (GPa) = 38.23774 143.05424 95.15422
#
# Poissons Ratio (x) = 0.67470 0.08160
# Poissons Ratio (y) = 0.18034 0.24506
# Poissons Ratio (z) = 0.03279 0.36841
#
# Static dielectric constant tensor:
#      x y z
#    x 1.611820 0.000000 0.018760 
#    y 0.000000 1.641010 0.000000 
#    z 0.018760 0.000000 1.682670 
# 
# From -- ./inp_files/277808.got.cif
#   From: 2010.05.17/outbox.ucp.g08.bks.cvg/sg12_139_cif.got.tgz:277808.got - 2010.06.11 11:47:21.
