data_PCOD9224065
_publ_section_title
;
Structure prediction by ZEFSAII (Michael W. Deem and Ramdas Pophale) SiO2 
 PCOD9224065
Probable space group: C 2/M
;
_chemical_formula_sum "Si O2"
_cell_formula_units_Z 28
_cell_length_a 21.000000
_cell_length_b 9.000000
_cell_length_c 18.000000
_cell_angle_alpha 90.000000
_cell_angle_beta 120.000000
_cell_angle_gamma 90.000000
_cell_volume 2946.218424
_symmetry_space_group_name_H-M "C 2/M"
_symmetry_group_IT_number 12
_symmetry_cell_setting 'monoclinic'
loop_
_space_group_symop_operation_xyz
x,y,z
-x,y,-z
-x,-y,-z
x,-y,z
1/2+x,1/2+y,z
1/2-x,1/2+y,-z
1/2-x,1/2-y,-z
1/2+x,1/2-y,z
loop_
_atom_site_type_symbol
_atom_site_label
_atom_site_fract_x
_atom_site_fract_y
_atom_site_fract_z
Si Si1 0.478033 0.171757 0.572008
Si Si2 0.956743 0.670135 0.161668
Si Si3 0.109696 0.172568 0.274149
Si Si4 0.170691 0.674584 0.451367
Si Si5 0.288986 0.673772 0.810806
Si Si6 0.876902 0.678667 0.263741
Si Si7 0.919019 0.329033 0.972481
O O1 0.500000 0.169146 0.500000
O O2 0.395407 0.232142 0.533784
O O3 0.548924 0.240666 0.654030
O O4 0.472321 0.000000 0.596122
O O5 0.983299 0.500000 0.189976
O O6 0.896751 0.702517 0.189529
O O7 0.027852 0.776112 0.203562
O O8 0.918075 0.673795 0.060148
O O9 0.135689 0.285664 0.351982
O O10 0.169974 0.182482 0.244307
O O11 0.107851 0.000000 0.298230
O O12 0.182037 0.500000 0.470988
O O13 0.250000 0.750000 0.500000
O O14 0.284358 0.500000 0.828805
O O15 0.204869 0.732750 0.762736
O O16 0.347426 0.751820 0.898481
O O17 0.876070 0.500000 0.279429
O O18 0.919708 0.500000 0.945110
O O19 0.000000 0.264159 0.000000
#
# Coordination Sequence:
#
# PCOD9224065 Si02
#       7
#     8   8   8   8   8   8   8
#     4   9  18  33  59  86 109 144 187 226 270 330
#     4  10  19  36  60  81 107 151 193 229 278 338
#     4  11  22  36  57  85 115 148 187 233 279 331
#     4  11  23  39  61  88 116 149 186 232 279 331
#     4  10  22  36  56  84 114 147 189 239 280 327
#     4   9  18  35  56  80 110 147 190 230 275 335
#     4  10  20  34  55  82 114 148 187 233 284 343
#
# _framework density 9.5037079999999996
#
# number of rings (size 3 to 8) (size 9 to 14) (size 15 to 20)
#    0.000    2.000    2.857    0.857    2.000    2.000 
#    0.000    0.714    0.000    1.714    0.000    0.000 
#    0.000    0.000    0.000    0.000    0.000    0.000 
#
# Total GULP energy -155919.748810 kJ/mol
# GULP energy per Si atom -5568.562457 kJ/mol
# Density = 0.948208 g / cm^3
# Si number density = 9.503708 Si / 1000 Ang^3
#
#
#
# Elastic Constant Matrix: (Units=GPa)
#
#
# Indices 1 2 3 4 5 6 
#
# 1 144.9311 31.7791 27.5874 0.0000 32.7531 0.0000
# 2 31.7791 19.2445 5.6909 0.0000 4.2208 0.0000
# 3 27.5874 5.6909 35.9082 0.0000 5.1207 0.0000
# 4 0.0000 0.0000 0.0000 22.0771 0.0000 10.1413
# 5 32.7531 4.2208 5.1207 0.0000 28.5099 0.0000
# 6 0.0000 0.0000 0.0000 10.1413 0.0000 14.8098
#
#
#
# Elastic Compliance Matrix: (Units=1/GPa)
#
#
# Indices 1 2 3 4 5 6 
#
# 1 0.016116 -0.021462 -0.006971 0.000000 -0.014085 0.000000
# 2 -0.021462 0.084371 0.001419 0.000000 0.011910 0.000000
# 3 -0.006971 0.001419 0.032705 0.000000 0.001925 0.000000
# 4 0.000000 0.000000 0.000000 0.066082 0.000000 -0.045251
# 5 -0.014085 0.011910 0.001925 0.000000 0.049148 0.000000
# 6 0.000000 0.000000 0.000000 -0.045251 0.000000 0.098509
#
#
# Mechanical properties :
#
#
# Convention : Reuss Voigt Hill
#
# Bulk Modulus (GPa) = 12.63208 36.68873 24.66040
# Shear Modulus (GPa) = 11.70004 22.08113 16.89058
#
# Velocity S-wave (km/s) = 2.48372 3.41209 2.98423
# Velocity P-wave (km/s) = 3.85817 5.90486 4.98762
#
# Compressibility (1/GPa) = 0.07916351
#
# Stress axis : x y z
#
# Youngs Moduli (GPa) = 62.05085 11.85234 30.57591
#
# Poissons Ratio (x) = 0.25437 0.21316
# Poissons Ratio (y) = 1.33172 -0.04338
# Poissons Ratio (z) = 0.43259 -0.01681
#
# Static dielectric constant tensor:
#      x y z
#    x 1.694550 0.000000 -0.019260 
#    y 0.000000 1.682810 0.000000 
#    z -0.019260 0.000000 1.699610 
# 
# From -- ./inp_files/275285.got.cif
#   From: 2010.05.17/outbox.ucp.g08.bks.cvg/sg12_138_cif.got.tgz:275285.got - 2010.06.11 11:47:21.
