data_PCOD9224966
_publ_section_title
;
Structure prediction by ZEFSAII (Michael W. Deem and Ramdas Pophale) SiO2 
 PCOD9224966
Probable space group: C 2/M
;
_chemical_formula_sum "Si O2"
_cell_formula_units_Z 24
_cell_length_a 18.000000
_cell_length_b 24.000000
_cell_length_c 6.000000
_cell_angle_alpha 90.000000
_cell_angle_beta 70.000000
_cell_angle_gamma 90.000000
_cell_volume 2435.683273
_symmetry_space_group_name_H-M "C 2/M"
_symmetry_group_IT_number 12
_symmetry_cell_setting 'monoclinic'
loop_
_space_group_symop_operation_xyz
x,y,z
-x,y,-z
-x,-y,-z
x,-y,z
1/2+x,1/2+y,z
1/2-x,1/2+y,-z
1/2-x,1/2-y,-z
1/2+x,1/2-y,z
loop_
_atom_site_type_symbol
_atom_site_label
_atom_site_fract_x
_atom_site_fract_y
_atom_site_fract_z
Si Si1 0.208179 0.884689 0.471514
Si Si2 0.645822 0.000000 0.328158
Si Si3 0.709211 0.799614 0.911437
Si Si4 0.231141 0.500000 0.742005
Si Si5 0.963402 0.843507 0.291131
Si Si6 0.861429 0.625235 0.635167
Si Si7 0.065882 0.716014 0.750871
O O1 0.225510 0.835658 0.279909
O O2 0.219461 0.943465 0.336245
O O3 0.120660 0.874284 0.645786
O O4 0.277767 0.880366 0.585816
O O5 0.680969 0.000000 0.553204
O O6 0.607999 0.937901 0.360186
O O7 0.692922 0.000000 0.034234
O O8 0.648542 0.775625 0.794346
O O9 0.750000 0.750000 0.000000
O O10 0.660412 0.841820 0.118428
O O11 0.955521 0.776343 0.322810
O O12 0.000000 0.861300 0.500000
O O13 0.000000 0.851096 0.000000
O O14 0.918411 0.665711 0.435908
O O15 0.000000 0.700340 0.000000
#
# Coordination Sequence:
#
# PCOD9224966 Si02
#       7
#     8   4   8   4   8   8   8
#     4  10  22  39  60  92 123 158 212 257 310 366
#     4  10  20  38  61  94 123 154 208 256 317 355
#     4  11  21  34  64  91 121 156 210 261 305 365
#     4  10  20  38  64  91 120 165 198 262 313 361
#     4  11  26  41  61  89 128 169 203 253 314 376
#     4  10  21  37  63  90 120 163 205 264 304 371
#     4  10  24  39  57  90 127 169 204 249 319 376
#
# _framework density 9.8534980000000001
#
# number of rings (size 3 to 8) (size 9 to 14) (size 15 to 20)
#    0.000    1.667    1.667    2.000   11.667    2.667 
#    0.000    1.250    0.000    1.000    0.000    0.000 
#    0.000    0.000    0.000    0.000    0.000    0.000 
#
# Total GULP energy -133730.291547 kJ/mol
# GULP energy per Si atom -5572.095481 kJ/mol
# Density = 0.983107 g / cm^3
# Si number density = 9.853498 Si / 1000 Ang^3
#
#
#
# Elastic Constant Matrix: (Units=GPa)
#
#
# Indices 1 2 3 4 5 6 
#
# 1 48.3004 6.2879 24.2681 0.0000 -3.2504 0.0000
# 2 6.2879 27.1038 4.4747 0.0000 3.3523 0.0000
# 3 24.2681 4.4747 91.4291 0.0000 2.0966 0.0000
# 4 0.0000 0.0000 0.0000 30.7103 0.0000 1.3918
# 5 -3.2504 3.3523 2.0966 0.0000 29.2955 0.0000
# 6 0.0000 0.0000 0.0000 1.3918 0.0000 20.7863
#
#
#
# Elastic Compliance Matrix: (Units=1/GPa)
#
#
# Indices 1 2 3 4 5 6 
#
# 1 0.024867 -0.005178 -0.006435 0.000000 0.003812 0.000000
# 2 -0.005178 0.038780 -0.000409 0.000000 -0.004983 0.000000
# 3 -0.006435 -0.000409 0.012702 0.000000 -0.001576 0.000000
# 4 0.000000 0.000000 0.000000 0.032661 0.000000 -0.002187
# 5 0.003812 -0.004983 -0.001576 0.000000 0.035241 0.000000
# 6 0.000000 0.000000 0.000000 -0.002187 0.000000 0.048255
#
#
# Mechanical properties :
#
#
# Convention : Reuss Voigt Hill
#
# Bulk Modulus (GPa) = 19.11856 26.32164 22.72010
# Shear Modulus (GPa) = 21.36880 24.94526 23.15703
#
# Velocity S-wave (km/s) = 3.29648 3.56168 3.43164
# Velocity P-wave (km/s) = 4.92052 5.50450 5.22068
#
# Compressibility (1/GPa) = 0.05230521
#
# Stress axis : x y z
#
# Youngs Moduli (GPa) = 40.21330 25.78621 78.73061
#
# Poissons Ratio (x) = 0.13353 0.50660
# Poissons Ratio (y) = 0.20824 0.03222
# Poissons Ratio (z) = 0.25875 0.01055
#
# Static dielectric constant tensor:
#      x y z
#    x 1.729250 0.000000 0.008360 
#    y 0.000000 1.673220 0.000000 
#    z 0.008360 0.000000 1.723160 
# 
# From -- ./inp_files/16656.got.cif
#   From: 2010.05.17/outbox.ucp.g08.bks.cvg/sg12_9_cif.got.tgz:16656.got - 2010.06.11 11:47:21.
