data_PCOD9224652
_publ_section_title
;
Structure prediction by ZEFSAII (Michael W. Deem and Ramdas Pophale) SiO2 
 PCOD9224652
Probable space group: C 2/M
;
_chemical_formula_sum "Si O2"
_cell_formula_units_Z 28
_cell_length_a 30.000000
_cell_length_b 9.000000
_cell_length_c 12.000000
_cell_angle_alpha 90.000000
_cell_angle_beta 70.000000
_cell_angle_gamma 90.000000
_cell_volume 3044.604091
_symmetry_space_group_name_H-M "C 2/M"
_symmetry_group_IT_number 12
_symmetry_cell_setting 'monoclinic'
loop_
_space_group_symop_operation_xyz
x,y,z
-x,y,-z
-x,-y,-z
x,-y,z
1/2+x,1/2+y,z
1/2-x,1/2+y,-z
1/2-x,1/2-y,-z
1/2+x,1/2-y,z
loop_
_atom_site_type_symbol
_atom_site_label
_atom_site_fract_x
_atom_site_fract_y
_atom_site_fract_z
Si Si1 0.733900 0.320907 0.186722
Si Si2 0.793177 0.821013 0.532299
Si Si3 0.576504 0.680300 0.189705
Si Si4 0.514959 0.820260 0.856049
Si Si5 0.557179 0.175891 0.444878
Si Si6 0.098269 0.819732 0.634884
Si Si7 0.325310 0.821487 0.965101
O O1 0.727556 0.500000 0.179847
O O2 0.716544 0.281587 0.327548
O O3 0.702206 0.236473 0.121808
O O4 0.788933 0.290066 0.100521
O O5 0.750000 0.750000 0.500000
O O6 0.844966 0.782674 0.432312
O O7 0.790164 0.000000 0.530228
O O8 0.576359 0.500000 0.190256
O O9 0.528280 0.745206 0.175842
O O10 0.576297 0.744324 0.316559
O O11 0.623211 0.741764 0.084360
O O12 0.565008 0.752007 0.763143
O O13 0.516282 0.000000 0.837279
O O14 0.500000 0.796048 0.000000
O O15 0.500000 0.184792 0.500000
O O16 0.576075 0.257766 0.538852
O O17 0.570011 0.000000 0.433052
O O18 0.094562 0.000000 0.645839
O O19 0.331943 0.000000 0.955305
#
# Coordination Sequence:
#
# PCOD9224652 Si02
#       7
#     8   8   8   8   8   8   8
#     4   9  19  38  60  86 120 157 198 246 301 358
#     4  10  23  41  61  87 119 157 202 248 295 355
#     4  12  24  38  60  89 123 160 200 247 303 363
#     4  11  25  44  63  84 116 159 205 250 298 358
#     4  11  22  37  62  93 125 158 200 248 299 361
#     4  11  23  40  64  94 126 159 199 251 310 364
#     4  10  20  35  60  90 121 156 197 245 300 361
#
# _framework density 9.1965979999999998
#
# number of rings (size 3 to 8) (size 9 to 14) (size 15 to 20)
#    0.000    1.429    1.429    3.857    0.000    6.286 
#    0.000    4.286    0.000    0.000    0.000    0.000 
#    0.000    0.000    0.000    0.000    0.000    0.000 
#
# Total GULP energy -156248.422922 kJ/mol
# GULP energy per Si atom -5580.300819 kJ/mol
# Density = 0.917567 g / cm^3
# Si number density = 9.196598 Si / 1000 Ang^3
#
#
#
# Elastic Constant Matrix: (Units=GPa)
#
#
# Indices 1 2 3 4 5 6 
#
# 1 113.8667 41.3582 53.2096 0.0000 -30.4656 0.0000
# 2 41.3582 110.6679 48.7586 0.0000 -14.4231 0.0000
# 3 53.2096 48.7586 155.0348 0.0000 -25.8044 0.0000
# 4 0.0000 0.0000 0.0000 39.8377 0.0000 -5.8233
# 5 -30.4656 -14.4231 -25.8044 0.0000 42.1320 0.0000
# 6 0.0000 0.0000 0.0000 -5.8233 0.0000 35.5841
#
#
#
# Elastic Compliance Matrix: (Units=1/GPa)
#
#
# Indices 1 2 3 4 5 6 
#
# 1 0.012726 -0.002838 -0.002344 0.000000 0.006795 0.000000
# 2 -0.002838 0.011239 -0.002519 0.000000 0.000253 0.000000
# 3 -0.002344 -0.002519 0.008486 0.000000 0.002640 0.000000
# 4 0.000000 0.000000 0.000000 0.025717 0.000000 0.004209
# 5 0.006795 0.000253 0.002640 0.000000 0.030352 0.000000
# 6 0.000000 0.000000 0.000000 0.004209 0.000000 0.028791
#
#
# Mechanical properties :
#
#
# Convention : Reuss Voigt Hill
#
# Bulk Modulus (GPa) = 58.64895 74.02469 66.33682
# Shear Modulus (GPa) = 36.12785 39.26029 37.69407
#
# Velocity S-wave (km/s) = 4.43673 4.62508 4.53188
# Velocity P-wave (km/s) = 7.62900 8.29788 7.97046
#
# Compressibility (1/GPa) = 0.01705060
#
# Stress axis : x y z
#
# Youngs Moduli (GPa) = 78.57622 88.97453 117.83600
#
# Poissons Ratio (x) = 0.25247 0.27626
# Poissons Ratio (y) = 0.22296 0.29680
# Poissons Ratio (z) = 0.18422 0.22410
#
# Static dielectric constant tensor:
#      x y z
#    x 1.650060 0.000000 -0.012290 
#    y 0.000000 1.618360 0.000000 
#    z -0.012290 0.000000 1.646980 
# 
# From -- ./inp_files/186361.got.cif
#   From: 2010.05.17/outbox.ucp.g08.bks.cvg/sg12_94_cif.got.tgz:186361.got - 2010.06.11 11:47:21.
