data_PCOD9224789
_publ_section_title
;
Structure prediction by ZEFSAII (Michael W. Deem and Ramdas Pophale) SiO2 
 PCOD9224789
Probable space group: C 2/M
;
_chemical_formula_sum "Si O2"
_cell_formula_units_Z 32
_cell_length_a 15.000000
_cell_length_b 9.000000
_cell_length_c 30.000000
_cell_angle_alpha 90.000000
_cell_angle_beta 130.000000
_cell_angle_gamma 90.000000
_cell_volume 3102.479995
_symmetry_space_group_name_H-M "C 2/M"
_symmetry_group_IT_number 12
_symmetry_cell_setting 'monoclinic'
loop_
_space_group_symop_operation_xyz
x,y,z
-x,y,-z
-x,-y,-z
x,-y,z
1/2+x,1/2+y,z
1/2-x,1/2+y,-z
1/2-x,1/2-y,-z
1/2+x,1/2-y,z
loop_
_atom_site_type_symbol
_atom_site_label
_atom_site_fract_x
_atom_site_fract_y
_atom_site_fract_z
Si Si1 0.559285 0.328762 0.564311
Si Si2 0.738012 0.323629 0.316561
Si Si3 0.657215 0.329518 0.439161
Si Si4 0.644339 0.175805 0.128770
Si Si5 0.692110 0.170674 0.757527
Si Si6 0.917483 0.331095 0.673207
Si Si7 0.679303 0.177354 0.040553
Si Si8 0.078021 0.825498 0.919580
O O1 0.500000 0.269106 0.500000
O O2 0.593461 0.500000 0.565843
O O3 0.666848 0.239454 0.618467
O O4 0.462378 0.329524 0.571612
O O5 0.746936 0.500000 0.318707
O O6 0.761296 0.268346 0.274326
O O7 0.616073 0.267798 0.295621
O O8 0.689898 0.500000 0.440201
O O9 0.750000 0.250000 0.500000
O O10 0.641012 0.238525 0.389054
O O11 0.763378 0.233606 0.187385
O O12 0.632778 0.224151 0.073613
O O13 0.541924 0.241684 0.125995
O O14 0.639016 0.000000 0.127107
O O15 0.554272 0.169456 0.709762
O O16 0.732429 0.000000 0.776363
O O17 0.878561 0.500000 0.667673
O O18 0.818396 0.200144 0.082111
O O19 0.657051 0.000000 0.027111
O O20 0.625673 0.265253 0.982165
O O21 0.056870 0.000000 0.915411
#
# Coordination Sequence:
#
# PCOD9224789 Si02
#       8
#     8   8   8   8   8   8   8   8
#     4  10  21  37  58  87 121 154 191 240 294 355
#     4  11  23  41  64  89 116 153 198 246 303 361
#     4  11  22  36  59  90 124 158 195 242 297 360
#     4  11  23  38  60  87 119 159 204 250 299 357
#     4  10  24  44  62  84 119 159 201 252 303 359
#     4  11  23  42  64  87 119 157 198 247 303 361
#     4   9  20  38  58  86 124 162 200 246 300 356
#     4  10  20  36  60  89 123 161 201 248 301 354
#
# _framework density 10.314329000000001
#
# number of rings (size 3 to 8) (size 9 to 14) (size 15 to 20)
#    0.000    1.625    1.250    3.000    0.000    7.750 
#    0.000    3.750    0.000    0.000    0.000    0.000 
#    0.000    0.000    0.000    0.000    0.000    0.000 
#
# Total GULP energy -178729.416792 kJ/mol
# GULP energy per Si atom -5585.294275 kJ/mol
# Density = 1.029085 g / cm^3
# Si number density = 10.314329 Si / 1000 Ang^3
#
#
#
# Elastic Constant Matrix: (Units=GPa)
#
#
# Indices 1 2 3 4 5 6 
#
# 1 60.4174 5.7244 9.7492 0.0000 -7.5093 0.0000
# 2 5.7244 32.4588 15.7344 0.0000 5.6987 0.0000
# 3 9.7492 15.7344 37.8153 0.0000 5.8645 0.0000
# 4 0.0000 0.0000 0.0000 34.4526 0.0000 7.0585
# 5 -7.5093 5.6987 5.8645 0.0000 14.2729 0.0000
# 6 0.0000 0.0000 0.0000 7.0585 0.0000 26.6166
#
#
#
# Elastic Compliance Matrix: (Units=1/GPa)
#
#
# Indices 1 2 3 4 5 6 
#
# 1 0.019524 -0.003006 -0.005940 0.000000 0.013913 0.000000
# 2 -0.003006 0.040276 -0.014145 0.000000 -0.011850 0.000000
# 3 -0.005940 -0.014145 0.035748 0.000000 -0.012166 0.000000
# 4 0.000000 0.000000 0.000000 0.030693 0.000000 -0.008140
# 5 0.013913 -0.011850 -0.012166 0.000000 0.087113 0.000000
# 6 0.000000 0.000000 0.000000 -0.008140 0.000000 0.039729
#
#
# Mechanical properties :
#
#
# Convention : Reuss Voigt Hill
#
# Bulk Modulus (GPa) = 20.25760 21.45638 20.85699
# Shear Modulus (GPa) = 15.83670 21.70066 18.76868
#
# Velocity S-wave (km/s) = 2.77375 3.24692 3.01962
# Velocity P-wave (km/s) = 4.48327 4.94778 4.72124
#
# Compressibility (1/GPa) = 0.04936419
#
# Stress axis : x y z
#
# Youngs Moduli (GPa) = 51.21845 24.82873 27.97346
#
# Poissons Ratio (x) = 0.07465 0.16617
# Poissons Ratio (y) = 0.15398 0.39569
# Poissons Ratio (z) = 0.30425 0.35121
#
# Static dielectric constant tensor:
#      x y z
#    x 1.774860 0.000000 0.035210 
#    y 0.000000 1.704790 0.000000 
#    z 0.035210 0.000000 1.706960 
# 
# From -- ./inp_files/375632.got.cif
#   From: 2010.05.17/outbox.ucp.g08.bks.cvg/sg12_188_cif.got.tgz:375632.got - 2010.06.11 11:47:21.
