data_PCOD9224683
_publ_section_title
;
Structure prediction by ZEFSAII (Michael W. Deem and Ramdas Pophale) SiO2 
 PCOD9224683
Probable space group: C 2/M
;
_chemical_formula_sum "Si O2"
_cell_formula_units_Z 32
_cell_length_a 24.000000
_cell_length_b 9.000000
_cell_length_c 30.000000
_cell_angle_alpha 90.000000
_cell_angle_beta 150.000000
_cell_angle_gamma 90.000000
_cell_volume 3240.000000
_symmetry_space_group_name_H-M "C 2/M"
_symmetry_group_IT_number 12
_symmetry_cell_setting 'monoclinic'
loop_
_space_group_symop_operation_xyz
x,y,z
-x,y,-z
-x,-y,-z
x,-y,z
1/2+x,1/2+y,z
1/2-x,1/2+y,-z
1/2-x,1/2-y,-z
1/2+x,1/2-y,z
loop_
_atom_site_type_symbol
_atom_site_label
_atom_site_fract_x
_atom_site_fract_y
_atom_site_fract_z
Si Si1 0.545849 0.179978 0.771669
Si Si2 0.871774 0.680227 0.076471
Si Si3 0.235990 0.672130 0.835790
Si Si4 0.629884 0.819766 0.422293
Si Si5 0.327414 0.820884 0.363620
Si Si6 0.551606 0.820291 0.465510
Si Si7 0.459510 0.327226 0.047028
Si Si8 0.186452 0.675554 0.195128
O O1 0.556595 0.224690 0.830274
O O2 0.652332 0.226175 0.816035
O O3 0.441375 0.227002 0.670049
O O4 0.547808 0.000000 0.773580
O O5 0.865450 0.500000 0.069442
O O6 0.921564 0.748781 0.066254
O O7 0.750000 0.750000 0.000000
O O8 0.207778 0.500000 0.805259
O O9 0.235238 0.764627 0.790198
O O10 0.357181 0.675982 0.941948
O O11 0.750000 0.750000 0.500000
O O12 0.574101 0.771318 0.430662
O O13 0.635039 0.000000 0.426585
O O14 0.435169 0.778393 0.408105
O O15 0.354025 0.777047 0.432947
O O16 0.225135 0.742276 0.269088
O O17 0.315751 0.000000 0.353683
O O18 0.550758 0.000000 0.464119
O O19 0.488033 0.500000 0.074669
O O20 0.565025 0.240857 0.101592
O O21 0.186120 0.500000 0.196155
#
# Coordination Sequence:
#
# PCOD9224683 Si02
#       8
#     8   8   8   8   8   8   8   8
#     4   9  19  37  62  87 113 152 195 233 286 347
#     4  11  21  38  61  88 119 153 194 241 289 345
#     4  10  20  39  63  83 107 147 198 241 285 348
#     4  10  20  36  56  81 115 149 185 233 282 336
#     4   9  17  35  61  85 106 140 189 239 287 342
#     4   8  16  33  61  86 105 138 191 243 284 329
#     4  11  23  40  61  84 110 151 199 243 290 342
#     4  12  25  37  52  84 123 154 185 231 295 355
#
# _framework density 9.8765429999999999
#
# number of rings (size 3 to 8) (size 9 to 14) (size 15 to 20)
#    0.000    2.000    1.250    3.750    0.000    5.500 
#    0.000    8.125    0.000    0.000    0.000    0.000 
#    0.000    0.000    0.000    0.000    0.000    0.000 
#
# Total GULP energy -178633.222631 kJ/mol
# GULP energy per Si atom -5582.288207 kJ/mol
# Density = 0.985406 g / cm^3
# Si number density = 9.876543 Si / 1000 Ang^3
#
#
#
# Elastic Constant Matrix: (Units=GPa)
#
#
# Indices 1 2 3 4 5 6 
#
# 1 70.5488 14.9988 12.1031 0.0000 -23.4540 0.0000
# 2 14.9988 62.7532 21.0092 -0.0001 -11.5935 0.0000
# 3 12.1031 21.0092 78.5912 -0.0001 -19.9069 0.0000
# 4 0.0000 -0.0001 -0.0001 18.1230 0.0000 5.1630
# 5 -23.4540 -11.5935 -19.9069 0.0000 31.2300 0.0000
# 6 0.0000 0.0000 0.0000 5.1630 0.0000 22.4408
#
#
#
# Elastic Compliance Matrix: (Units=1/GPa)
#
#
# Indices 1 2 3 4 5 6 
#
# 1 0.019245 -0.002380 0.001323 0.000000 0.014413 0.000000
# 2 -0.002380 0.018269 -0.003878 0.000000 0.002522 0.000000
# 3 0.001323 -0.003878 0.016033 0.000000 0.009774 0.000000
# 4 0.000000 0.000000 0.000000 0.059049 0.000000 -0.013586
# 5 0.014413 0.002522 0.009774 0.000000 0.050011 0.000000
# 6 0.000000 0.000000 0.000000 -0.013586 0.000000 0.047687
#
#
# Mechanical properties :
#
#
# Convention : Reuss Voigt Hill
#
# Bulk Modulus (GPa) = 22.89547 34.23503 28.56525
# Shear Modulus (GPa) = 21.30168 25.27757 23.28962
#
# Velocity S-wave (km/s) = 3.28746 3.58114 3.43744
# Velocity P-wave (km/s) = 5.10155 5.87099 5.49974
#
# Compressibility (1/GPa) = 0.04367675
#
# Stress axis : x y z
#
# Youngs Moduli (GPa) = 51.96078 54.73847 62.37258
#
# Poissons Ratio (x) = 0.13028 -0.08254
# Poissons Ratio (y) = 0.12367 0.24189
# Poissons Ratio (z) = -0.06876 0.21229
#
# Static dielectric constant tensor:
#      x y z
#    x 1.719820 0.000000 0.051400 
#    y 0.000000 1.658200 0.000000 
#    z 0.051400 0.000000 1.806330 
# 
# From -- ./inp_files/382442.got.cif
#   From: 2010.05.17/outbox.ucp.g08.bks.cvg/sg12_192_cif.got.tgz:382442.got - 2010.06.11 11:47:21.
