data_PCOD9224762
_publ_section_title
;
Structure prediction by ZEFSAII (Michael W. Deem and Ramdas Pophale) SiO2 
 PCOD9224762
Probable space group: C 2/M
;
_chemical_formula_sum "Si O2"
_cell_formula_units_Z 32
_cell_length_a 30.000000
_cell_length_b 9.000000
_cell_length_c 15.000000
_cell_angle_alpha 90.000000
_cell_angle_beta 50.000000
_cell_angle_gamma 90.000000
_cell_volume 3102.479995
_symmetry_space_group_name_H-M "C 2/M"
_symmetry_group_IT_number 12
_symmetry_cell_setting 'monoclinic'
loop_
_space_group_symop_operation_xyz
x,y,z
-x,y,-z
-x,-y,-z
x,-y,z
1/2+x,1/2+y,z
1/2-x,1/2+y,-z
1/2-x,1/2-y,-z
1/2+x,1/2-y,z
loop_
_atom_site_type_symbol
_atom_site_label
_atom_site_fract_x
_atom_site_fract_y
_atom_site_fract_z
Si Si1 0.130705 0.826433 0.022052
Si Si2 0.671278 0.329450 0.309436
Si Si3 0.996306 0.830339 0.898903
Si Si4 0.311009 0.174501 0.896203
Si Si5 0.311942 0.820374 0.399912
Si Si6 0.570461 0.173865 0.667179
Si Si7 0.962993 0.827689 0.463020
Si Si8 0.706150 0.175767 0.775440
O O1 0.178254 0.765591 0.891783
O O2 0.140260 0.000000 0.027061
O O3 0.068430 0.808031 0.055580
O O4 0.139588 0.739392 0.102404
O O5 0.679796 0.500000 0.266024
O O6 0.676721 0.218026 0.220761
O O7 0.605948 0.320046 0.428804
O O8 0.723955 0.301373 0.310641
O O9 0.037382 0.711314 0.800317
O O10 0.014280 0.000000 0.851018
O O11 0.000000 0.819021 0.000000
O O12 0.306421 0.000000 0.914579
O O13 0.250000 0.250000 0.000000
O O14 0.250000 0.750000 0.500000
O O15 0.363801 0.769658 0.398340
O O16 0.322031 0.782261 0.282767
O O17 0.308305 0.000000 0.409910
O O18 0.533337 0.246519 0.635799
O O19 0.574421 0.000000 0.644499
O O20 0.000000 0.769615 0.500000
O O21 0.980330 0.000000 0.429375
O O22 0.695862 0.000000 0.802604
#
# Coordination Sequence:
#
# PCOD9224762 Si02
#       8
#     8   8   8   8   8   8   8   8
#     4  11  23  38  60  89 120 157 204 251 303 368
#     4  10  21  38  61  88 120 158 206 259 308 365
#     4  10  23  43  66  92 125 167 213 257 306 369
#     4  12  24  39  60  89 125 163 202 251 310 369
#     4  10  22  39  61  91 123 159 200 246 303 364
#     4  11  24  41  63  94 131 165 206 260 314 371
#     4  10  23  43  66  90 120 166 216 261 312 370
#     4  10  20  36  59  86 119 157 196 247 306 365
#
# _framework density 10.314329000000001
#
# number of rings (size 3 to 8) (size 9 to 14) (size 15 to 20)
#    0.000    1.500    1.250    3.375    1.750    4.500 
#    0.000    0.000    0.000    0.000    0.000    0.000 
#    0.000    0.000    0.000    0.000    0.000    0.000 
#
# Total GULP energy -178757.828568 kJ/mol
# GULP energy per Si atom -5586.182143 kJ/mol
# Density = 1.029085 g / cm^3
# Si number density = 10.314329 Si / 1000 Ang^3
#
#
#
# Elastic Constant Matrix: (Units=GPa)
#
#
# Indices 1 2 3 4 5 6 
#
# 1 126.0206 36.0428 5.4410 0.0000 17.4815 0.0000
# 2 36.0428 41.3341 16.1667 0.0000 9.2881 0.0000
# 3 5.4410 16.1667 27.5702 0.0000 7.1220 0.0000
# 4 0.0000 0.0000 0.0000 27.8204 0.0000 3.8447
# 5 17.4815 9.2881 7.1220 0.0000 30.1752 0.0000
# 6 0.0000 0.0000 0.0000 3.8447 0.0000 24.8859
#
#
#
# Elastic Compliance Matrix: (Units=1/GPa)
#
#
# Indices 1 2 3 4 5 6 
#
# 1 0.011518 -0.011153 0.005435 0.000000 -0.004522 0.000000
# 2 -0.011153 0.043128 -0.022713 0.000000 -0.001453 0.000000
# 3 0.005435 -0.022713 0.050610 0.000000 -0.008102 0.000000
# 4 0.000000 0.000000 0.000000 0.036729 0.000000 -0.005674
# 5 -0.004522 -0.001453 -0.008102 0.000000 0.038119 0.000000
# 6 0.000000 0.000000 0.000000 -0.005674 0.000000 0.041060
#
#
# Mechanical properties :
#
#
# Convention : Reuss Voigt Hill
#
# Bulk Modulus (GPa) = 20.66370 34.46955 27.56662
# Shear Modulus (GPa) = 16.99763 25.72792 21.36277
#
# Velocity S-wave (km/s) = 2.87362 3.53539 3.22155
# Velocity P-wave (km/s) = 4.58792 5.78024 5.21824
#
# Compressibility (1/GPa) = 0.04839405
#
# Stress axis : x y z
#
# Youngs Moduli (GPa) = 86.82293 23.18655 19.75884
#
# Poissons Ratio (x) = 0.25860 -0.10739
# Poissons Ratio (y) = 0.96832 0.44879
# Poissons Ratio (z) = -0.47189 0.52665
#
# Static dielectric constant tensor:
#      x y z
#    x 1.728570 0.000000 0.002450 
#    y 0.000000 1.764650 0.000000 
#    z 0.002450 0.000000 1.760820 
# 
# From -- ./inp_files/249784.got.cif
#   From: 2010.05.17/outbox.ucp.g08.bks.cvg/sg12_125_cif.got.tgz:249784.got - 2010.06.11 11:47:21.
