data_PCOD9224787
_publ_section_title
;
Structure prediction by ZEFSAII (Michael W. Deem and Ramdas Pophale) SiO2 
 PCOD9224787
Probable space group: C 2/M
;
_chemical_formula_sum "Si O2"
_cell_formula_units_Z 28
_cell_length_a 24.000000
_cell_length_b 9.000000
_cell_length_c 15.000000
_cell_angle_alpha 90.000000
_cell_angle_beta 120.000000
_cell_angle_gamma 90.000000
_cell_volume 2805.922308
_symmetry_space_group_name_H-M "C 2/M"
_symmetry_group_IT_number 12
_symmetry_cell_setting 'monoclinic'
loop_
_space_group_symop_operation_xyz
x,y,z
-x,y,-z
-x,-y,-z
x,-y,z
1/2+x,1/2+y,z
1/2-x,1/2+y,-z
1/2-x,1/2-y,-z
1/2+x,1/2-y,z
loop_
_atom_site_type_symbol
_atom_site_label
_atom_site_fract_x
_atom_site_fract_y
_atom_site_fract_z
Si Si1 0.684959 0.325618 0.563531
Si Si2 0.564289 0.825522 0.168474
Si Si3 0.373209 0.321806 0.295564
Si Si4 0.548871 0.678079 0.811789
Si Si5 0.747581 0.822031 0.899440
Si Si6 0.623041 0.178307 0.031111
Si Si7 0.320465 0.327291 0.650847
O O1 0.703706 0.500000 0.591170
O O2 0.634532 0.290862 0.603774
O O3 0.664012 0.314886 0.442988
O O4 0.747382 0.219828 0.614733
O O5 0.516858 0.734637 0.195251
O O6 0.572100 0.788192 0.069376
O O7 0.634293 0.787647 0.262456
O O8 0.547673 0.000000 0.160968
O O9 0.364271 0.500000 0.279583
O O10 0.434548 0.287545 0.279277
O O11 0.314852 0.235771 0.202073
O O12 0.553208 0.500000 0.825289
O O13 0.599832 0.758940 0.917536
O O14 0.809794 0.759571 0.897513
O O15 0.748816 0.000000 0.907038
O O16 0.750000 0.750000 0.000000
O O17 0.631038 0.000000 0.034161
O O18 0.331430 0.500000 0.684972
#
# Coordination Sequence:
#
# PCOD9224787 Si02
#       7
#     8   8   8   8   8   8   8
#     4   9  19  37  61  87 117 148 179 226 288 344
#     4  11  24  40  58  80 112 153 191 233 286 337
#     4  10  21  38  58  83 115 151 187 227 284 342
#     4  11  23  38  58  82 111 149 193 237 278 334
#     4  12  23  35  55  83 115 149 185 230 278 329
#     4  11  23  39  58  81 112 151 191 233 285 339
#     4  10  20  36  60  89 115 143 186 235 280 333
#
# _framework density 9.9788940000000004
#
# number of rings (size 3 to 8) (size 9 to 14) (size 15 to 20)
#    0.000    1.429    1.429    4.286    0.000    9.143 
#    0.000    0.714    0.000    4.286    0.000    0.000 
#    0.000    0.000    0.000    0.000    0.000    0.000 
#
# Total GULP energy -156251.213049 kJ/mol
# GULP energy per Si atom -5580.400466 kJ/mol
# Density = 0.995618 g / cm^3
# Si number density = 9.978894 Si / 1000 Ang^3
#
#
#
# Elastic Constant Matrix: (Units=GPa)
#
#
# Indices 1 2 3 4 5 6 
#
# 1 121.4144 26.3693 17.8801 0.0000 -41.4870 0.0000
# 2 26.3693 59.1991 7.8753 0.0000 -17.5431 0.0000
# 3 17.8801 7.8753 33.0096 0.0000 -29.5608 0.0000
# 4 0.0000 0.0000 0.0000 25.0357 0.0000 0.1393
# 5 -41.4870 -17.5431 -29.5608 0.0000 44.4021 0.0000
# 6 0.0000 0.0000 0.0000 0.1393 0.0000 35.2513
#
#
#
# Elastic Compliance Matrix: (Units=1/GPa)
#
#
# Indices 1 2 3 4 5 6 
#
# 1 0.013419 -0.001887 0.009267 0.000000 0.017961 0.000000
# 2 -0.001887 0.019803 0.004272 0.000000 0.008905 0.000000
# 3 0.009267 0.004272 0.083012 0.000000 0.065612 0.000000
# 4 0.000000 0.000000 0.000000 0.039944 0.000000 -0.000158
# 5 0.017961 0.008905 0.065612 0.000000 0.086503 0.000000
# 6 0.000000 0.000000 0.000000 -0.000158 0.000000 0.028368
#
#
# Mechanical properties :
#
#
# Convention : Reuss Voigt Hill
#
# Bulk Modulus (GPa) = 7.16652 35.31917 21.24285
# Shear Modulus (GPa) = 16.99186 31.70439 24.34813
#
# Velocity S-wave (km/s) = 2.92102 3.99001 3.49661
# Velocity P-wave (km/s) = 3.86977 6.24198 5.19314
#
# Compressibility (1/GPa) = 0.13953779
#
# Stress axis : x y z
#
# Youngs Moduli (GPa) = 74.52191 50.49636 12.04646
#
# Poissons Ratio (x) = 0.09530 -0.11163
# Poissons Ratio (y) = 0.14064 -0.05147
# Poissons Ratio (z) = -0.69056 -0.21574
#
# Static dielectric constant tensor:
#      x y z
#    x 1.769730 0.000000 0.013610 
#    y 0.000000 1.654550 0.000000 
#    z 0.013610 0.000000 1.739180 
# 
# From -- ./inp_files/238926.got.cif
#   From: 2010.05.17/outbox.ucp.g08.bks.cvg/sg12_120_cif.got.tgz:238926.got - 2010.06.11 11:47:21.
