data_PCOD9224566
_publ_section_title
;
Structure prediction by ZEFSAII (Michael W. Deem and Ramdas Pophale) SiO2 
 PCOD9224566
Probable space group: C 2/M
;
_chemical_formula_sum "Si O2"
_cell_formula_units_Z 24
_cell_length_a 18.000000
_cell_length_b 9.000000
_cell_length_c 30.000000
_cell_angle_alpha 90.000000
_cell_angle_beta 150.000000
_cell_angle_gamma 90.000000
_cell_volume 2430.000000
_symmetry_space_group_name_H-M "C 2/M"
_symmetry_group_IT_number 12
_symmetry_cell_setting 'monoclinic'
loop_
_space_group_symop_operation_xyz
x,y,z
-x,y,-z
-x,-y,-z
x,-y,z
1/2+x,1/2+y,z
1/2-x,1/2+y,-z
1/2-x,1/2-y,-z
1/2+x,1/2-y,z
loop_
_atom_site_type_symbol
_atom_site_label
_atom_site_fract_x
_atom_site_fract_y
_atom_site_fract_z
Si Si1 0.976643 0.675122 0.365946
Si Si2 0.619200 0.678022 0.524186
Si Si3 0.132115 0.176511 0.971852
Si Si4 0.248434 0.825518 0.878646
Si Si5 0.174201 0.324419 0.185061
Si Si6 0.451253 0.174666 0.700346
O O1 0.952498 0.500000 0.360210
O O2 0.821428 0.763094 0.284994
O O3 0.080804 0.739776 0.458431
O O4 0.039940 0.693883 0.348761
O O5 0.500000 0.715719 0.500000
O O6 0.614185 0.500000 0.513554
O O7 0.784327 0.713074 0.626881
O O8 0.969848 0.235684 0.874936
O O9 0.140287 0.000000 0.973837
O O10 0.250000 0.250000 0.000000
O O11 0.167351 0.232639 0.040173
O O12 0.306201 0.801191 0.858235
O O13 0.077465 0.773460 0.788301
O O14 0.262932 0.000000 0.896370
O O15 0.157540 0.500000 0.184087
O O16 0.480950 0.000000 0.725108
#
# Coordination Sequence:
#
# PCOD9224566 Si02
#       6
#     8   8   8   8   8   8
#     4  10  20  35  57  83 110 143 187 235 280 332
#     4  10  21  36  54  78 111 149 186 229 284 341
#     4  12  25  40  59  84 117 153 189 231 281 337
#     4  10  21  38  61  87 114 147 189 236 285 337
#     4  10  21  39  62  86 114 148 188 234 284 338
#     4   9  19  36  57  81 109 145 189 234 282 335
#
# _framework density 9.8765429999999999
#
# number of rings (size 3 to 8) (size 9 to 14) (size 15 to 20)
#    0.000    1.833    0.000    4.000    0.000    7.000 
#    0.000    5.000    0.000    0.000    0.000    0.000 
#    0.000    0.000    0.000    0.000    0.000    0.000 
#
# Total GULP energy -134173.826079 kJ/mol
# GULP energy per Si atom -5590.576087 kJ/mol
# Density = 0.985406 g / cm^3
# Si number density = 9.876543 Si / 1000 Ang^3
#
#
#
# Elastic Constant Matrix: (Units=GPa)
#
#
# Indices 1 2 3 4 5 6 
#
# 1 14.8296 22.0706 7.7626 0.0000 30.4665 0.0000
# 2 22.0706 78.0955 23.8847 0.0000 19.6292 0.0000
# 3 7.7626 23.8847 54.4574 0.0001 27.5672 0.0000
# 4 0.0000 0.0000 0.0001 37.6622 0.0000 -2.8835
# 5 30.4665 19.6292 27.5672 0.0000 35.1748 0.0000
# 6 0.0000 0.0000 0.0000 -2.8835 0.0000 24.2982
#
#
#
# Elastic Compliance Matrix: (Units=1/GPa)
#
#
# Indices 1 2 3 4 5 6 
#
# 1 -0.048129 0.006847 -0.025379 0.000000 0.057756 0.000000
# 2 0.006847 0.014424 -0.000374 0.000000 -0.013687 0.000000
# 3 -0.025379 -0.000374 0.018087 0.000000 0.008016 0.000000
# 4 0.000000 0.000000 0.000000 0.026795 0.000000 0.003180
# 5 0.057756 -0.013687 0.008016 0.000000 -0.020240 0.000000
# 6 0.000000 0.000000 0.000000 0.003180 0.000000 0.041533
#
#
# Mechanical properties :
#
#
# Convention : Reuss Voigt Hill
#
# Bulk Modulus (GPa) = -18.71587 28.31316 4.79865
# Shear Modulus (GPa) = 95.28635 25.67135 60.47885
#
# Velocity S-wave (km/s) = 6.95294 3.60892 5.53930
# Velocity P-wave (km/s) = 7.41367 5.63298 6.58380
#
# Compressibility (1/GPa) = -0.05343060
#
# Stress axis : x y z
#
# Youngs Moduli (GPa) = -20.77767 69.32716 55.28869
#
# Poissons Ratio (x) = -0.47467 1.40320
# Poissons Ratio (y) = 0.14226 0.02068
# Poissons Ratio (z) = -0.52733 0.02593
#
# Static dielectric constant tensor:
#      x y z
#    x 1.698420 0.000000 0.019690 
#    y 0.000000 1.654800 0.000000 
#    z 0.019690 0.000000 1.671750 
# 
# From -- ./inp_files/274132.got.cif
#   From: 2010.05.17/outbox.ucp.g08.bks.cvg/sg12_138_cif.got.tgz:274132.got - 2010.06.11 11:47:21.
