data_PCOD9224905
_publ_section_title
;
Structure prediction by ZEFSAII (Michael W. Deem and Ramdas Pophale) SiO2 
 PCOD9224905
Probable space group: C 2/M
;
_chemical_formula_sum "Si O2"
_cell_formula_units_Z 32
_cell_length_a 30.000000
_cell_length_b 18.000000
_cell_length_c 9.000000
_cell_angle_alpha 90.000000
_cell_angle_beta 40.000000
_cell_angle_gamma 90.000000
_cell_volume 3123.947783
_symmetry_space_group_name_H-M "C 2/M"
_symmetry_group_IT_number 12
_symmetry_cell_setting 'monoclinic'
loop_
_space_group_symop_operation_xyz
x,y,z
-x,y,-z
-x,-y,-z
x,-y,z
1/2+x,1/2+y,z
1/2-x,1/2+y,-z
1/2-x,1/2-y,-z
1/2+x,1/2-y,z
loop_
_atom_site_type_symbol
_atom_site_label
_atom_site_fract_x
_atom_site_fract_y
_atom_site_fract_z
Si Si1 0.069027 0.785095 0.908028
Si Si2 0.237774 0.414632 0.541116
Si Si3 0.825588 0.814797 0.778442
Si Si4 0.884742 0.582449 0.913809
Si Si5 0.071350 0.254333 0.242884
Si Si6 0.127152 0.086488 0.599074
Si Si7 0.313032 0.195662 0.564365
Si Si8 0.302470 0.084300 0.815120
O O1 0.077847 0.870504 0.837608
O O2 0.132636 0.738434 0.676788
O O3 0.073489 0.778906 0.072767
O O4 0.000000 0.757244 0.000000
O O5 0.243897 0.500000 0.467747
O O6 0.297432 0.406378 0.513252
O O7 0.238558 0.350082 0.413616
O O8 0.165366 0.409249 0.815554
O O9 0.867779 0.771648 0.799216
O O10 0.873641 0.866838 0.551441
O O11 0.792007 0.757487 0.742696
O O12 0.769178 0.870979 0.988386
O O13 0.918154 0.500000 0.836156
O O14 0.928897 0.656629 0.783432
O O15 0.837342 0.583074 0.886988
O O16 0.000000 0.231468 0.500000
O O17 0.113293 0.000000 0.611781
O O18 0.345640 0.130539 0.583509
O O19 0.291677 0.000000 0.795937
#
# Coordination Sequence:
#
# PCOD9224905 Si02
#       8
#     8   8   8   8   8   8   8   8
#     4  11  26  44  64  90 120 163 215 260 311 363
#     4  10  20  37  61  95 129 162 198 248 316 376
#     4  11  23  38  63  95 127 163 208 254 310 365
#     4  10  21  39  64  92 128 168 203 249 314 372
#     4  12  25  44  66  87 122 164 217 264 303 366
#     4  10  22  42  66  92 129 166 203 254 315 373
#     4  11  22  37  62  91 127 161 207 251 307 365
#     4  11  22  38  61  94 133 162 196 249 313 380
#
# _framework density 10.243449
#
# number of rings (size 3 to 8) (size 9 to 14) (size 15 to 20)
#    0.000    1.250    3.750    2.625    1.750    2.500 
#    0.000    0.625    0.000    4.500    0.000    0.000 
#    0.000    0.000    0.000    0.000    0.000    0.000 
#
# Total GULP energy -178586.957240 kJ/mol
# GULP energy per Si atom -5580.842414 kJ/mol
# Density = 1.022013 g / cm^3
# Si number density = 10.243449 Si / 1000 Ang^3
#
#
#
# Elastic Constant Matrix: (Units=GPa)
#
#
# Indices 1 2 3 4 5 6 
#
# 1 69.1515 23.3002 25.3221 0.0000 24.3471 0.0000
# 2 23.3002 145.2791 32.3737 0.0000 18.0923 0.0000
# 3 25.3221 32.3737 73.4228 0.0000 24.0216 0.0000
# 4 0.0000 0.0000 0.0000 17.6850 0.0000 5.3620
# 5 24.3471 18.0923 24.0216 0.0000 33.6783 0.0000
# 6 0.0000 0.0000 0.0000 5.3620 0.0000 20.2988
#
#
#
# Elastic Compliance Matrix: (Units=1/GPa)
#
#
# Indices 1 2 3 4 5 6 
#
# 1 0.020003 -0.001160 -0.002426 0.000000 -0.012107 0.000000
# 2 -0.001160 0.007830 -0.002544 0.000000 -0.001553 0.000000
# 3 -0.002426 -0.002544 0.018988 0.000000 -0.010423 0.000000
# 4 0.000000 0.000000 0.000000 0.061468 0.000000 -0.016237
# 5 -0.012107 -0.001553 -0.010423 0.000000 0.046714 0.000000
# 6 0.000000 0.000000 0.000000 -0.016237 0.000000 0.053553
#
#
# Mechanical properties :
#
#
# Convention : Reuss Voigt Hill
#
# Bulk Modulus (GPa) = 28.93452 49.98282 39.45867
# Shear Modulus (GPa) = 21.52049 28.12291 24.82170
#
# Velocity S-wave (km/s) = 3.24458 3.70905 3.48456
# Velocity P-wave (km/s) = 5.30947 6.54165 5.95750
#
# Compressibility (1/GPa) = 0.03456080
#
# Stress axis : x y z
#
# Youngs Moduli (GPa) = 49.99265 127.71961 52.66387
#
# Poissons Ratio (x) = 0.14812 0.12777
# Poissons Ratio (y) = 0.05798 0.13399
# Poissons Ratio (z) = 0.12129 0.32494
#
# Static dielectric constant tensor:
#      x y z
#    x 1.724310 0.000000 0.009840 
#    y 0.000000 1.760160 0.000000 
#    z 0.009840 0.000000 1.781740 
# 
# From -- ./inp_files/112817.got.cif
#   From: 2010.05.17/outbox.ucp.g08.bks.cvg/sg12_57_cif.got.tgz:112817.got - 2010.06.11 11:47:21.
