data_PCOD9224912
_publ_section_title
;
Structure prediction by ZEFSAII (Michael W. Deem and Ramdas Pophale) SiO2 
 PCOD9224912
Probable space group: C 2/M
;
_chemical_formula_sum "Si O2"
_cell_formula_units_Z 32
_cell_length_a 15.000000
_cell_length_b 15.000000
_cell_length_c 18.000000
_cell_angle_alpha 90.000000
_cell_angle_beta 50.000000
_cell_angle_gamma 90.000000
_cell_volume 3102.479995
_symmetry_space_group_name_H-M "C 2/M"
_symmetry_group_IT_number 12
_symmetry_cell_setting 'monoclinic'
loop_
_space_group_symop_operation_xyz
x,y,z
-x,y,-z
-x,-y,-z
x,-y,z
1/2+x,1/2+y,z
1/2-x,1/2+y,-z
1/2-x,1/2-y,-z
1/2+x,1/2-y,z
loop_
_atom_site_type_symbol
_atom_site_label
_atom_site_fract_x
_atom_site_fract_y
_atom_site_fract_z
Si Si1 0.738298 0.393943 0.744776
Si Si2 0.880458 0.603968 0.533064
Si Si3 0.610161 0.775446 0.222261
Si Si4 0.743356 0.397629 0.140818
Si Si5 0.094707 0.699067 0.066830
Si Si6 0.658269 0.812263 0.596206
Si Si7 0.857636 0.603554 0.238512
Si Si8 0.526958 0.398620 0.072957
O O1 0.765324 0.500000 0.745769
O O2 0.777042 0.364792 0.641525
O O3 0.809282 0.329287 0.762433
O O4 0.600113 0.386841 0.822956
O O5 0.886720 0.500000 0.545395
O O6 0.863329 0.614190 0.455492
O O7 0.000000 0.646138 0.500000
O O8 0.638442 0.671617 0.195901
O O9 0.641285 0.817339 0.125158
O O10 0.474021 0.779078 0.316844
O O11 0.723877 0.500000 0.128840
O O12 0.775955 0.398898 0.210475
O O13 0.840220 0.353287 0.034122
O O14 0.964909 0.660980 0.148208
O O15 0.094270 0.806063 0.052901
O O16 0.750000 0.750000 0.500000
O O17 0.692557 0.852215 0.658757
O O18 0.892086 0.500000 0.236623
O O19 0.571779 0.500000 0.066837
O O20 0.500000 0.399022 0.000000
#
# Coordination Sequence:
#
# PCOD9224912 Si02
#       8
#     8   8   8   8   8   8   8   8
#     4  10  21  37  62  92 122 159 198 247 312 373
#     4  10  20  37  62  89 118 152 197 256 315 373
#     4  11  24  39  61  91 125 161 205 258 309 367
#     4  11  24  43  64  88 124 172 215 254 303 364
#     4  11  22  38  64  95 125 167 208 254 306 365
#     4  11  25  39  61  92 120 160 206 259 323 370
#     4  10  22  40  64  91 123 162 212 264 303 360
#     4  10  21  37  60  91 126 161 197 246 308 372
#
# _framework density 10.314329000000001
#
# number of rings (size 3 to 8) (size 9 to 14) (size 15 to 20)
#    0.000    1.500    1.250    3.750    5.250    4.000 
#    0.000    2.500    0.000    1.500    0.000    0.000 
#    0.000    0.000    0.000    0.000    0.000    0.000 
#
# Total GULP energy -178329.111807 kJ/mol
# GULP energy per Si atom -5572.784744 kJ/mol
# Density = 1.029085 g / cm^3
# Si number density = 10.314329 Si / 1000 Ang^3
#
#
#
# Elastic Constant Matrix: (Units=GPa)
#
#
# Indices 1 2 3 4 5 6 
#
# 1 42.0173 -2.4037 22.7577 0.0000 24.7434 0.0000
# 2 -2.4037 100.7176 18.2466 0.0000 4.7448 0.0000
# 3 22.7577 18.2466 143.9593 0.0000 23.0911 0.0000
# 4 0.0000 0.0000 0.0000 36.1948 0.0000 13.3203
# 5 24.7434 4.7448 23.0911 0.0000 36.4305 0.0000
# 6 0.0000 0.0000 0.0000 13.3203 0.0000 0.7374
#
#
#
# Elastic Compliance Matrix: (Units=1/GPa)
#
#
# Indices 1 2 3 4 5 6 
#
# 1 0.040983 0.002693 -0.002559 0.000000 -0.026564 0.000000
# 2 0.002693 0.010350 -0.001367 0.000000 -0.002311 0.000000
# 3 -0.002559 -0.001367 0.008034 0.000000 -0.003176 0.000000
# 4 0.000000 0.000000 0.000000 -0.004892 0.000000 0.088366
# 5 -0.026564 -0.002311 -0.003176 0.000000 0.047806 0.000000
# 6 0.000000 0.000000 0.000000 0.088366 0.000000 -0.240113
#
#
# Mechanical properties :
#
#
# Convention : Reuss Voigt Hill
#
# Bulk Modulus (GPa) = 17.57453 40.43284 29.00369
# Shear Modulus (GPa) = -42.95530 31.21211 -5.87159
#
# Velocity S-wave (km/s) = -4.56819 3.89401 -1.68894
# Velocity P-wave (km/s) = 4.39164 6.31353 3.20735
#
# Compressibility (1/GPa) = 0.05690052
#
# Stress axis : x y z
#
# Youngs Moduli (GPa) = 24.40018 96.62288 124.47660
#
# Poissons Ratio (x) = -0.26022 0.31857
# Poissons Ratio (y) = -0.06571 0.17015
# Poissons Ratio (z) = 0.06245 0.13207
#
# Static dielectric constant tensor:
#      x y z
#    x 1.794420 0.000000 0.065430 
#    y 0.000000 1.765920 0.000000 
#    z 0.065430 0.000000 1.418470 
# 
# From -- ./inp_files/270639.got.cif
#   From: 2010.05.17/outbox.ucp.g08.bks.cvg/sg12_136_cif.got.tgz:270639.got - 2010.06.11 11:47:21.
