data_PCOD9224386
_publ_section_title
;
Structure prediction by ZEFSAII (Michael W. Deem and Ramdas Pophale) SiO2 
 PCOD9224386
Probable space group: C 2/M
;
_chemical_formula_sum "Si O2"
_cell_formula_units_Z 28
_cell_length_a 15.000000
_cell_length_b 9.000000
_cell_length_c 30.000000
_cell_angle_alpha 90.000000
_cell_angle_beta 130.000000
_cell_angle_gamma 90.000000
_cell_volume 3102.479995
_symmetry_space_group_name_H-M "C 2/M"
_symmetry_group_IT_number 12
_symmetry_cell_setting 'monoclinic'
loop_
_space_group_symop_operation_xyz
x,y,z
-x,y,-z
-x,-y,-z
x,-y,z
1/2+x,1/2+y,z
1/2-x,1/2+y,-z
1/2-x,1/2-y,-z
1/2+x,1/2-y,z
loop_
_atom_site_type_symbol
_atom_site_label
_atom_site_fract_x
_atom_site_fract_y
_atom_site_fract_z
Si Si1 0.421856 0.822232 0.881450
Si Si2 0.281635 0.179079 0.134525
Si Si3 0.284604 0.319987 0.345233
Si Si4 0.950441 0.678147 0.785468
Si Si5 0.556696 0.677879 0.434091
Si Si6 0.664315 0.820388 0.008677
Si Si7 0.276149 0.822219 0.440164
O O1 0.305511 0.731519 0.854892
O O2 0.449606 0.794167 0.838445
O O3 0.531879 0.784603 0.949389
O O4 0.401959 0.000000 0.880486
O O5 0.417138 0.227486 0.185656
O O6 0.281863 0.000000 0.128997
O O7 0.216099 0.253496 0.070968
O O8 0.281471 0.500000 0.344535
O O9 0.171030 0.271117 0.278263
O O10 0.422096 0.280171 0.378482
O O11 0.269390 0.254893 0.389944
O O12 0.950082 0.500000 0.779060
O O13 0.556102 0.500000 0.442433
O O14 0.615372 0.758368 0.495840
O O15 0.653890 0.706372 0.426983
O O16 0.671116 0.000000 0.012229
O O17 0.750000 0.750000 0.000000
O O18 0.289514 0.000000 0.440156
#
# Coordination Sequence:
#
# PCOD9224386 Si02
#       7
#     8   8   8   8   8   8   8
#     4  10  21  39  59  81 110 147 186 227 276 333
#     4  11  22  38  58  84 113 145 184 230 280 333
#     4  10  20  36  58  78 104 148 190 220 262 327
#     4   9  20  39  57  76 109 149 185 224 273 324
#     4   9  19  35  55  80 108 143 183 218 264 330
#     4  11  21  36  60  86 113 145 182 229 282 332
#     4  10  20  34  54  83 114 139 172 228 280 316
#
# _framework density 9.0250380000000003
#
# number of rings (size 3 to 8) (size 9 to 14) (size 15 to 20)
#    0.000    2.000    1.429    2.143    0.000    6.857 
#    0.000    3.571    0.000    0.000    0.000    0.000 
#    0.000    0.000    0.000    0.000    0.000    0.000 
#
# Total GULP energy -155993.469978 kJ/mol
# GULP energy per Si atom -5571.195356 kJ/mol
# Density = 0.900450 g / cm^3
# Si number density = 9.025038 Si / 1000 Ang^3
#
#
#
# Elastic Constant Matrix: (Units=GPa)
#
#
# Indices 1 2 3 4 5 6 
#
# 1 105.9028 26.0184 50.4294 0.0000 35.8767 0.0000
# 2 26.0184 37.9461 23.4651 0.0000 10.8045 0.0000
# 3 50.4294 23.4651 139.4949 0.0000 40.1463 0.0000
# 4 0.0000 0.0000 0.0000 30.0163 0.0000 0.2876
# 5 35.8767 10.8045 40.1463 0.0000 39.0754 0.0000
# 6 0.0000 0.0000 0.0000 0.2876 0.0000 32.1058
#
#
#
# Elastic Compliance Matrix: (Units=1/GPa)
#
#
# Indices 1 2 3 4 5 6 
#
# 1 0.015411 -0.006639 -0.001293 0.000000 -0.010985 0.000000
# 2 -0.006639 0.032798 -0.003211 0.000000 0.000326 0.000000
# 3 -0.001293 -0.003211 0.010761 0.000000 -0.008981 0.000000
# 4 0.000000 0.000000 0.000000 0.033318 0.000000 -0.000298
# 5 -0.010985 0.000326 -0.008981 0.000000 0.044815 0.000000
# 6 0.000000 0.000000 0.000000 -0.000298 0.000000 0.031150
#
#
# Mechanical properties :
#
#
# Convention : Reuss Voigt Hill
#
# Bulk Modulus (GPa) = 27.25965 53.68550 40.47258
# Shear Modulus (GPa) = 24.65892 32.46823 28.56357
#
# Velocity S-wave (km/s) = 3.70014 4.24581 3.98233
# Velocity P-wave (km/s) = 5.77839 7.33778 6.60427
#
# Compressibility (1/GPa) = 0.03668426
#
# Stress axis : x y z
#
# Youngs Moduli (GPa) = 64.88904 30.48943 92.92894
#
# Poissons Ratio (x) = 0.20243 0.12015
# Poissons Ratio (y) = 0.43082 0.29836
# Poissons Ratio (z) = 0.08390 0.09789
#
# Static dielectric constant tensor:
#      x y z
#    x 1.688470 0.000000 -0.018910 
#    y 0.000000 1.607010 0.000000 
#    z -0.018910 0.000000 1.624870 
# 
# From -- ./inp_files/375136.got.cif
#   From: 2010.05.17/outbox.ucp.g08.bks.cvg/sg12_188_cif.got.tgz:375136.got - 2010.06.11 11:47:21.
