data_PCOD9224140
_publ_section_title
;
Structure prediction by ZEFSAII (Michael W. Deem and Ramdas Pophale) SiO2 
 PCOD9224140
Probable space group: C 2/M
;
_chemical_formula_sum "Si O2"
_cell_formula_units_Z 20
_cell_length_a 18.000000
_cell_length_b 12.000000
_cell_length_c 21.000000
_cell_angle_alpha 90.000000
_cell_angle_beta 150.000000
_cell_angle_gamma 90.000000
_cell_volume 2268.000000
_symmetry_space_group_name_H-M "C 2/M"
_symmetry_group_IT_number 12
_symmetry_cell_setting 'monoclinic'
loop_
_space_group_symop_operation_xyz
x,y,z
-x,y,-z
-x,-y,-z
x,-y,z
1/2+x,1/2+y,z
1/2-x,1/2+y,-z
1/2-x,1/2-y,-z
1/2+x,1/2-y,z
loop_
_atom_site_type_symbol
_atom_site_label
_atom_site_fract_x
_atom_site_fract_y
_atom_site_fract_z
Si Si1 0.086999 0.633362 0.777183
Si Si2 0.389453 0.217979 0.750168
Si Si3 0.372419 0.261303 0.536414
Si Si4 0.256844 0.000000 0.705485
Si Si5 0.934857 0.866076 0.021190
Si Si6 0.983115 0.000000 0.587905
O O1 0.075799 0.500000 0.774257
O O2 0.999119 0.685084 0.772779
O O3 0.000641 0.674729 0.649789
O O4 0.260753 0.664805 0.901234
O O5 0.227399 0.252049 0.601138
O O6 0.467136 0.309576 0.851276
O O7 0.355643 0.108881 0.767573
O O8 0.250000 0.250000 0.500000
O O9 0.443480 0.384596 0.592615
O O10 0.133275 0.000000 0.557396
O O11 0.153128 0.000000 0.690633
O O12 0.943498 0.000000 0.032406
O O13 0.000000 0.834649 0.000000
#
# Coordination Sequence:
#
# PCOD9224140 Si02
#       6
#     8   8   8   4   8   4
#     4  10  20  38  59  82 114 151 189 233 286 336
#     4  10  19  38  60  83 111 147 194 230 285 338
#     4   9  20  33  59  86 115 149 182 232 277 335
#     4   9  18  32  60  81 113 148 176 240 286 331
#     4  10  23  40  57  78 113 154 191 234 284 338
#     4   9  18  34  51  88 121 142 181 226 292 326
#
# _framework density 8.8183419999999995
#
# number of rings (size 3 to 8) (size 9 to 14) (size 15 to 20)
#    0.000    2.400    1.000    0.600    7.000    0.800 
#    5.400    1.500    0.000    3.600    0.000    0.000 
#    0.000    0.000    0.000    0.000    0.000    0.000 
#
# Total GULP energy -111425.800645 kJ/mol
# GULP energy per Si atom -5571.290032 kJ/mol
# Density = 0.879827 g / cm^3
# Si number density = 8.818342 Si / 1000 Ang^3
#
#
#
# Elastic Constant Matrix: (Units=GPa)
#
#
# Indices 1 2 3 4 5 6 
#
# 1 93.9404 43.0356 38.6159 0.0000 16.3893 -0.0001
# 2 43.0356 43.2786 43.9788 -0.0001 -1.8747 -0.0002
# 3 38.6159 43.9788 116.7606 0.0000 2.8519 -0.0002
# 4 0.0000 -0.0001 0.0000 35.3356 -0.0001 -6.8609
# 5 16.3893 -1.8747 2.8519 -0.0001 26.1998 -0.0001
# 6 -0.0001 -0.0002 -0.0002 -6.8609 -0.0001 13.0459
#
#
#
# Elastic Compliance Matrix: (Units=1/GPa)
#
#
# Indices 1 2 3 4 5 6 
#
# 1 0.026746 -0.030652 0.003170 0.000000 -0.019269 -0.000001
# 2 -0.030652 0.073035 -0.018016 0.000000 0.026362 0.000001
# 3 0.003170 -0.018016 0.014420 0.000000 -0.004842 0.000000
# 4 0.000000 0.000000 0.000000 0.031518 0.000000 0.016576
# 5 -0.019269 0.026362 -0.004842 0.000000 0.052635 0.000001
# 6 -0.000001 0.000001 0.000000 0.016576 0.000001 0.085369
#
#
# Mechanical properties :
#
#
# Convention : Reuss Voigt Hill
#
# Bulk Modulus (GPa) = 43.09167 56.13780 49.61473
# Shear Modulus (GPa) = 13.07344 23.47289 18.27317
#
# Velocity S-wave (km/s) = 2.72557 3.65213 3.22232
# Velocity P-wave (km/s) = 5.86438 7.04864 6.48360
#
# Compressibility (1/GPa) = 0.02320634
#
# Stress axis : x y z
#
# Youngs Moduli (GPa) = 37.38903 13.69201 69.34802
#
# Poissons Ratio (x) = 0.41969 -0.21986
# Poissons Ratio (y) = 1.14605 1.24936
# Poissons Ratio (z) = -0.11854 0.24667
#
# Static dielectric constant tensor:
#      x y z
#    x 1.612380 0.000000 -0.008710 
#    y 0.000000 1.594660 0.000000 
#    z -0.008710 0.000000 1.607660 
# 
# From -- ./inp_files/83611.got.cif
#   From: 2010.05.17/outbox.ucp.g08.bks.cvg/sg12_42_cif.got.tgz:83611.got - 2010.06.11 11:47:21.
