data_PCOD9224587
_publ_section_title
;
Structure prediction by ZEFSAII (Michael W. Deem and Ramdas Pophale) SiO2 
 PCOD9224587
Probable space group: C 2/M
;
_chemical_formula_sum "Si O2"
_cell_formula_units_Z 32
_cell_length_a 24.000000
_cell_length_b 9.000000
_cell_length_c 30.000000
_cell_angle_alpha 90.000000
_cell_angle_beta 30.000000
_cell_angle_gamma 90.000000
_cell_volume 3240.000000
_symmetry_space_group_name_H-M "C 2/M"
_symmetry_group_IT_number 12
_symmetry_cell_setting 'monoclinic'
loop_
_space_group_symop_operation_xyz
x,y,z
-x,y,-z
-x,-y,-z
x,-y,z
1/2+x,1/2+y,z
1/2-x,1/2+y,-z
1/2-x,1/2-y,-z
1/2+x,1/2-y,z
loop_
_atom_site_type_symbol
_atom_site_label
_atom_site_fract_x
_atom_site_fract_y
_atom_site_fract_z
Si Si1 0.684180 0.826194 0.763887
Si Si2 0.563724 0.679912 0.410632
Si Si3 0.735548 0.821690 0.132086
Si Si4 0.554923 0.824819 0.326107
Si Si5 0.847881 0.324873 0.404321
Si Si6 0.026564 0.328636 0.033826
Si Si7 0.073021 0.674020 0.746547
Si Si8 0.157725 0.822980 0.095813
O O1 0.808343 0.763447 0.680996
O O2 0.580617 0.767810 0.864924
O O3 0.652070 0.820719 0.734367
O O4 0.692085 0.000000 0.772102
O O5 0.500000 0.727722 0.500000
O O6 0.563822 0.500000 0.411283
O O7 0.516415 0.736875 0.396512
O O8 0.673024 0.779097 0.221628
O O9 0.674052 0.741612 0.133988
O O10 0.726633 0.000000 0.134063
O O11 0.862542 0.768685 0.039551
O O12 0.462929 0.805528 0.351413
O O13 0.561545 0.000000 0.332287
O O14 0.823211 0.500000 0.418940
O O15 0.750000 0.250000 0.500000
O O16 0.868031 0.272759 0.339659
O O17 0.048604 0.500000 0.034192
O O18 0.000000 0.335008 0.000000
O O19 0.039907 0.500000 0.762621
O O20 0.964590 0.769107 0.833186
O O21 0.168225 0.000000 0.087718
O O22 0.250000 0.750000 0.000000
#
# Coordination Sequence:
#
# PCOD9224587 Si02
#       8
#     8   8   8   8   8   8   8   8
#     4   9  19  36  58  85 118 155 193 242 300 352
#     4  10  22  39  63  92 117 151 204 252 292 353
#     4  11  22  39  61  86 119 156 202 251 302 359
#     4  10  22  41  61  86 122 159 194 245 308 361
#     4  10  22  39  61  88 119 157 201 248 306 362
#     4  10  20  35  57  86 121 159 201 247 302 362
#     4  10  20  39  62  84 121 162 198 248 305 358
#     4  12  24  38  59  88 122 159 202 245 298 362
#
# _framework density 9.8765429999999999
#
# number of rings (size 3 to 8) (size 9 to 14) (size 15 to 20)
#    0.000    1.750    1.250    3.000    1.750    4.500 
#    0.000    1.250    0.000    0.000    0.000    0.000 
#    0.000    0.000    0.000    0.000    0.000    0.000 
#
# Total GULP energy -178641.841470 kJ/mol
# GULP energy per Si atom -5582.557546 kJ/mol
# Density = 0.985406 g / cm^3
# Si number density = 9.876543 Si / 1000 Ang^3
#
#
#
# Elastic Constant Matrix: (Units=GPa)
#
#
# Indices 1 2 3 4 5 6 
#
# 1 34.4626 9.0444 11.2653 -0.0004 19.9748 0.0023
# 2 9.0444 51.7069 22.0358 -0.0020 5.4397 0.0009
# 3 11.2653 22.0358 130.6453 0.0001 27.6539 0.0000
# 4 -0.0004 -0.0020 0.0001 24.6299 0.0000 2.6494
# 5 19.9748 5.4397 27.6539 0.0000 37.9796 -0.0006
# 6 0.0023 0.0009 0.0000 2.6494 -0.0006 21.8980
#
#
#
# Elastic Compliance Matrix: (Units=1/GPa)
#
#
# Indices 1 2 3 4 5 6 
#
# 1 0.043633 -0.006112 0.002294 0.000001 -0.023743 -0.000005
# 2 -0.006112 0.021702 -0.003731 0.000002 0.002823 0.000000
# 3 0.002294 -0.003731 0.009727 0.000000 -0.007755 0.000000
# 4 0.000001 0.000002 0.000000 0.041136 0.000000 -0.004977
# 5 -0.023743 0.002823 -0.007755 0.000000 0.044060 0.000004
# 6 -0.000005 0.000000 0.000000 -0.004977 0.000004 0.046268
#
#
# Mechanical properties :
#
#
# Convention : Reuss Voigt Hill
#
# Bulk Modulus (GPa) = 16.67648 33.50066 25.08857
# Shear Modulus (GPa) = 20.69433 28.53279 24.61356
#
# Velocity S-wave (km/s) = 3.24025 3.80474 3.53379
# Velocity P-wave (km/s) = 4.73918 6.02478 5.42023
#
# Compressibility (1/GPa) = 0.05996469
#
# Stress axis : x y z
#
# Youngs Moduli (GPa) = 22.91849 46.07892 102.80381
#
# Poissons Ratio (x) = 0.28164 -0.23586
# Poissons Ratio (y) = 0.14008 0.38355
# Poissons Ratio (z) = -0.05258 0.17192
#
# Static dielectric constant tensor:
#      x y z
#    x 1.746780 0.000000 -0.024130 
#    y 0.000000 1.694380 0.000000 
#    z -0.024130 0.000000 1.674950 
# 
# From -- ./inp_files/382227.got.cif
#   From: 2010.05.17/outbox.ucp.g08.bks.cvg/sg12_192_cif.got.tgz:382227.got - 2010.06.11 11:47:21.
