data_PCOD9224319
_publ_section_title
;
Structure prediction by ZEFSAII (Michael W. Deem and Ramdas Pophale) SiO2 
 PCOD9224319
Probable space group: C 2/M
;
_chemical_formula_sum "Si O2"
_cell_formula_units_Z 28
_cell_length_a 15.000000
_cell_length_b 9.000000
_cell_length_c 30.000000
_cell_angle_alpha 90.000000
_cell_angle_beta 50.000000
_cell_angle_gamma 90.000000
_cell_volume 3102.479995
_symmetry_space_group_name_H-M "C 2/M"
_symmetry_group_IT_number 12
_symmetry_cell_setting 'monoclinic'
loop_
_space_group_symop_operation_xyz
x,y,z
-x,y,-z
-x,-y,-z
x,-y,z
1/2+x,1/2+y,z
1/2-x,1/2+y,-z
1/2-x,1/2-y,-z
1/2+x,1/2-y,z
loop_
_atom_site_type_symbol
_atom_site_label
_atom_site_fract_x
_atom_site_fract_y
_atom_site_fract_z
Si Si1 0.188875 0.669469 0.561535
Si Si2 0.278343 0.820312 0.775106
Si Si3 0.399454 0.668675 0.563889
Si Si4 0.120986 0.679666 0.904436
Si Si5 0.757001 0.177248 0.316149
Si Si6 0.347342 0.820673 0.001761
Si Si7 0.532238 0.321312 0.683420
O O1 0.154072 0.500000 0.561058
O O2 0.250000 0.750000 0.500000
O O3 0.288742 0.661230 0.566977
O O4 0.085199 0.757078 0.619961
O O5 0.197438 0.754567 0.840715
O O6 0.234383 0.781325 0.738817
O O7 0.409065 0.753637 0.734656
O O8 0.281378 0.000000 0.777755
O O9 0.500000 0.737047 0.500000
O O10 0.437089 0.500000 0.563470
O O11 0.352823 0.750033 0.622860
O O12 0.130343 0.500000 0.897709
O O13 0.982274 0.716995 0.945610
O O14 0.162281 0.718999 0.942021
O O15 0.872800 0.212130 0.308000
O O16 0.741630 0.000000 0.323033
O O17 0.336839 0.000000 0.002403
O O18 0.250000 0.750000 0.000000
O O19 0.520626 0.500000 0.683973
#
# Coordination Sequence:
#
# PCOD9224319 Si02
#       7
#     8   8   8   8   8   8   8
#     4  10  20  34  52  77 107 137 176 229 285 344
#     4  11  23  38  58  86 116 149 191 240 285 333
#     4   9  19  34  52  76 102 131 174 226 278 338
#     4   9  20  39  58  84 120 158 194 230 276 340
#     4   9  21  39  55  76 107 143 183 229 283 339
#     4   9  19  37  62  89 121 156 195 235 278 329
#     4  10  21  39  58  77 107 148 188 230 286 348
#
# _framework density 9.0250380000000003
#
# number of rings (size 3 to 8) (size 9 to 14) (size 15 to 20)
#    0.000    2.429    0.000    2.143    2.000    4.857 
#    0.000    5.714    0.000    0.000    0.000    0.000 
#    0.000    0.000    0.000    0.000    0.000    0.000 
#
# Total GULP energy -156168.988570 kJ/mol
# GULP energy per Si atom -5577.463877 kJ/mol
# Density = 0.900450 g / cm^3
# Si number density = 9.025038 Si / 1000 Ang^3
#
#
#
# Elastic Constant Matrix: (Units=GPa)
#
#
# Indices 1 2 3 4 5 6 
#
# 1 114.0589 46.3981 76.6292 0.0000 6.0759 -0.0001
# 2 46.3981 74.4102 71.4463 0.0000 3.2574 -0.0001
# 3 76.6292 71.4463 213.0433 0.0000 7.4171 0.0000
# 4 0.0000 0.0000 0.0000 39.8983 0.0000 1.9428
# 5 6.0759 3.2574 7.4171 0.0000 31.1145 0.0000
# 6 -0.0001 -0.0001 0.0000 1.9428 0.0000 26.6603
#
#
#
# Elastic Compliance Matrix: (Units=1/GPa)
#
#
# Indices 1 2 3 4 5 6 
#
# 1 0.012871 -0.005261 -0.002820 0.000000 -0.001290 0.000000
# 2 -0.005261 0.021980 -0.005480 0.000000 0.000033 0.000000
# 3 -0.002820 -0.005480 0.007570 0.000000 -0.000680 0.000000
# 4 0.000000 0.000000 0.000000 0.025153 0.000000 -0.001833
# 5 -0.001290 0.000033 -0.000680 0.000000 0.032550 0.000000
# 6 0.000000 0.000000 0.000000 -0.001833 0.000000 0.037642
#
#
# Mechanical properties :
#
#
# Convention : Reuss Voigt Hill
#
# Bulk Modulus (GPa) = 65.36885 87.82885 76.59885
# Shear Modulus (GPa) = 29.41377 33.33721 31.37549
#
# Velocity S-wave (km/s) = 4.04117 4.30225 4.17375
# Velocity P-wave (km/s) = 7.62028 8.56990 8.10900
#
# Compressibility (1/GPa) = 0.01529781
#
# Stress axis : x y z
#
# Youngs Moduli (GPa) = 77.69311 45.49610 132.10575
#
# Poissons Ratio (x) = 0.23937 0.37257
# Poissons Ratio (y) = 0.40877 0.72392
# Poissons Ratio (z) = 0.21911 0.24931
#
# Static dielectric constant tensor:
#      x y z
#    x 1.639820 0.000000 0.001860 
#    y 0.000000 1.629900 0.000000 
#    z 0.001860 0.000000 1.601390 
# 
# From -- ./inp_files/374934.got.cif
#   From: 2010.05.17/outbox.ucp.g08.bks.cvg/sg12_188_cif.got.tgz:374934.got - 2010.06.11 11:47:21.
