data_PCOD9224116
_publ_section_title
;
Structure prediction by ZEFSAII (Michael W. Deem and Ramdas Pophale) SiO2 
 PCOD9224116
Probable space group: C 2/M
;
_chemical_formula_sum "Si O2"
_cell_formula_units_Z 32
_cell_length_a 18.000000
_cell_length_b 9.000000
_cell_length_c 30.000000
_cell_angle_alpha 90.000000
_cell_angle_beta 40.000000
_cell_angle_gamma 90.000000
_cell_volume 3123.947783
_symmetry_space_group_name_H-M "C 2/M"
_symmetry_group_IT_number 12
_symmetry_cell_setting 'monoclinic'
loop_
_space_group_symop_operation_xyz
x,y,z
-x,y,-z
-x,-y,-z
x,-y,z
1/2+x,1/2+y,z
1/2-x,1/2+y,-z
1/2-x,1/2-y,-z
1/2+x,1/2-y,z
loop_
_atom_site_type_symbol
_atom_site_label
_atom_site_fract_x
_atom_site_fract_y
_atom_site_fract_z
Si Si1 0.801440 0.321058 0.932304
Si Si2 0.366025 0.674063 0.572236
Si Si3 0.697375 0.329754 0.304932
Si Si4 0.291604 0.177781 0.435631
Si Si5 0.463815 0.673105 0.297726
Si Si6 0.711896 0.323826 0.205255
Si Si7 0.549368 0.169229 0.783757
Si Si8 0.628642 0.678042 0.932281
O O1 0.799693 0.500000 0.937131
O O2 0.934037 0.277500 0.861218
O O3 0.716796 0.278247 0.930799
O O4 0.750000 0.250000 0.000000
O O5 0.500000 0.677214 0.500000
O O6 0.328113 0.500000 0.593552
O O7 0.344076 0.742245 0.630606
O O8 0.294446 0.733185 0.563857
O O9 0.650349 0.500000 0.326022
O O10 0.667288 0.259197 0.272323
O O11 0.836295 0.336962 0.239334
O O12 0.250000 0.250000 0.500000
O O13 0.414081 0.234683 0.361627
O O14 0.287852 0.000000 0.440748
O O15 0.442347 0.500000 0.315568
O O16 0.599755 0.694220 0.226473
O O17 0.412339 0.733622 0.275748
O O18 0.734439 0.500000 0.199023
O O19 0.821042 0.242399 0.136007
O O20 0.526172 0.000000 0.778282
O O21 0.627199 0.500000 0.930954
O O22 0.500000 0.732525 0.000000
#
# Coordination Sequence:
#
# PCOD9224116 Si02
#       8
#     8   8   8   8   8   8   8   8
#     4  10  22  37  57  83 113 150 191 235 284 341
#     4   9  18  33  58  85 111 147 188 229 273 327
#     4   9  18  34  56  83 111 142 189 236 277 328
#     4  11  23  39  61  87 116 154 193 235 288 339
#     4  11  22  37  59  87 116 147 189 240 287 337
#     4  10  22  37  59  87 113 147 192 241 281 330
#     4  10  19  37  61  82 108 149 192 235 285 338
#     4  10  22  40  58  80 116 155 188 229 288 352
#
# _framework density 10.243449
#
# number of rings (size 3 to 8) (size 9 to 14) (size 15 to 20)
#    0.000    2.000    2.500    0.750    3.500    1.750 
#    0.000    0.625    0.000    1.500    0.000    0.000 
#    0.000    0.000    0.000    0.000    0.000    0.000 
#
# Total GULP energy -178222.966606 kJ/mol
# GULP energy per Si atom -5569.467706 kJ/mol
# Density = 1.022013 g / cm^3
# Si number density = 10.243449 Si / 1000 Ang^3
#
#
#
# Elastic Constant Matrix: (Units=GPa)
#
#
# Indices 1 2 3 4 5 6 
#
# 1 49.9818 10.0748 29.4347 0.0002 15.2355 0.0012
# 2 10.0748 9.4798 19.7928 0.0005 -0.0194 0.0006
# 3 29.4347 19.7928 100.5258 0.0000 20.3336 -0.0002
# 4 0.0002 0.0005 0.0000 30.0820 0.0000 6.0616
# 5 15.2355 -0.0194 20.3336 0.0000 25.5233 0.0002
# 6 0.0012 0.0006 -0.0002 6.0616 0.0002 11.7416
#
#
#
# Elastic Compliance Matrix: (Units=1/GPa)
#
#
# Indices 1 2 3 4 5 6 
#
# 1 0.033531 -0.041843 0.002951 0.000001 -0.022398 -0.000001
# 2 -0.041843 0.259391 -0.052348 -0.000002 0.066878 -0.000009
# 3 0.002951 -0.052348 0.023550 0.000000 -0.020563 0.000003
# 4 0.000001 -0.000002 0.000000 0.037102 -0.000001 -0.019154
# 5 -0.022398 0.066878 -0.020563 -0.000001 0.068983 -0.000002
# 6 -0.000001 -0.000009 0.000003 -0.019154 -0.000002 0.095056
#
#
# Mechanical properties :
#
#
# Convention : Reuss Voigt Hill
#
# Bulk Modulus (GPa) = 7.46314 30.95467 19.20890
# Shear Modulus (GPa) = 6.71361 20.18172 13.44766
#
# Velocity S-wave (km/s) = 1.81222 3.14204 2.56482
# Velocity P-wave (km/s) = 2.83366 5.32029 4.26235
#
# Compressibility (1/GPa) = 0.13399189
#
# Stress axis : x y z
#
# Youngs Moduli (GPa) = 29.82295 3.85519 42.46324
#
# Poissons Ratio (x) = 0.16131 -0.12531
# Poissons Ratio (y) = 1.24789 2.22286
# Poissons Ratio (z) = -0.08801 0.20181
#
# Static dielectric constant tensor:
#      x y z
#    x 1.795160 0.000000 -0.006120 
#    y 0.000000 1.751740 0.000000 
#    z -0.006120 0.000000 1.734770 
# 
# From -- ./inp_files/378005.got.cif
#   From: 2010.05.17/outbox.ucp.g08.bks.cvg/sg12_190_cif.got.tgz:378005.got - 2010.06.11 11:47:21.
