data_PCOD9224536
_publ_section_title
;
Structure prediction by ZEFSAII (Michael W. Deem and Ramdas Pophale) SiO2 
 PCOD9224536
Probable space group: C 2/M
;
_chemical_formula_sum "Si O2"
_cell_formula_units_Z 32
_cell_length_a 18.000000
_cell_length_b 9.000000
_cell_length_c 30.000000
_cell_angle_alpha 90.000000
_cell_angle_beta 40.000000
_cell_angle_gamma 90.000000
_cell_volume 3123.947783
_symmetry_space_group_name_H-M "C 2/M"
_symmetry_group_IT_number 12
_symmetry_cell_setting 'monoclinic'
loop_
_space_group_symop_operation_xyz
x,y,z
-x,y,-z
-x,-y,-z
x,-y,z
1/2+x,1/2+y,z
1/2-x,1/2+y,-z
1/2-x,1/2-y,-z
1/2+x,1/2-y,z
loop_
_atom_site_type_symbol
_atom_site_label
_atom_site_fract_x
_atom_site_fract_y
_atom_site_fract_z
Si Si1 0.075932 0.174495 0.045907
Si Si2 0.662164 0.179188 0.858932
Si Si3 0.341753 0.169744 0.903607
Si Si4 0.947192 0.826222 0.416751
Si Si5 0.594475 0.671847 0.209060
Si Si6 0.281116 0.320926 0.711248
Si Si7 0.737597 0.168507 0.441480
Si Si8 0.645957 0.826164 0.686483
O O1 0.106669 0.286793 0.072205
O O2 0.959216 0.237019 0.076409
O O3 0.057022 0.000000 0.066838
O O4 0.202006 0.175405 0.964279
O O5 0.780690 0.224097 0.829939
O O6 0.701933 0.211854 0.790223
O O7 0.646395 0.000000 0.872353
O O8 0.392646 0.296075 0.848897
O O9 0.376510 0.000000 0.876303
O O10 0.852235 0.826793 0.420361
O O11 0.881497 0.714299 0.480007
O O12 0.081837 0.779649 0.346506
O O13 0.951016 0.000000 0.430210
O O14 0.583249 0.500000 0.227095
O O15 0.474457 0.753393 0.274247
O O16 0.285350 0.500000 0.705771
O O17 0.207783 0.264721 0.702650
O O18 0.761405 0.291562 0.393829
O O19 0.730872 0.000000 0.427172
O O20 0.624850 0.000000 0.702106
#
# Coordination Sequence:
#
# PCOD9224536 Si02
#       8
#     8   8   8   8   8   8   8   8
#     4  10  21  37  59  86 114 147 189 234 278 330
#     4  10  21  38  59  82 112 149 187 231 285 340
#     4  10  21  38  59  83 115 152 187 228 281 338
#     4   9  18  36  59  79 105 143 185 225 268 326
#     4  11  23  38  58  84 113 147 189 236 284 335
#     4   9  19  36  57  79 104 141 186 227 272 330
#     4  10  20  35  56  82 112 143 178 225 278 331
#     4  11  22  36  57  82 109 145 187 230 279 336
#
# _framework density 10.243449
#
# number of rings (size 3 to 8) (size 9 to 14) (size 15 to 20)
#    0.000    2.000    0.000    3.375    0.000    7.000 
#    0.000    7.500    0.000    0.000    0.000    0.000 
#    0.000    0.000    0.000    0.000    0.000    0.000 
#
# Total GULP energy -178208.090115 kJ/mol
# GULP energy per Si atom -5569.002816 kJ/mol
# Density = 1.022013 g / cm^3
# Si number density = 10.243449 Si / 1000 Ang^3
#
#
#
# Elastic Constant Matrix: (Units=GPa)
#
#
# Indices 1 2 3 4 5 6 
#
# 1 33.8161 20.6795 7.6419 -0.0001 -11.6516 0.0006
# 2 20.6795 38.9179 16.3415 -0.0001 -15.7514 0.0014
# 3 7.6419 16.3415 54.4594 0.0000 -16.8401 -0.0001
# 4 -0.0001 -0.0001 0.0000 27.1850 0.0000 -11.2770
# 5 -11.6516 -15.7514 -16.8401 0.0000 27.2451 0.0002
# 6 0.0006 0.0014 -0.0001 -11.2770 0.0002 26.0316
#
#
#
# Elastic Compliance Matrix: (Units=1/GPa)
#
#
# Indices 1 2 3 4 5 6 
#
# 1 0.045153 -0.021741 0.002809 0.000000 0.008477 0.000000
# 2 -0.021741 0.045165 -0.006556 -0.000001 0.012762 -0.000002
# 3 0.002809 -0.006556 0.023656 0.000000 0.012033 0.000000
# 4 0.000000 -0.000001 0.000000 0.044844 0.000000 0.019426
# 5 0.008477 0.012762 0.012033 0.000000 0.055145 -0.000002
# 6 0.000000 -0.000002 0.000000 0.019426 -0.000002 0.046830
#
#
# Mechanical properties :
#
#
# Convention : Reuss Voigt Hill
#
# Bulk Modulus (GPa) = 15.87321 24.05768 19.96545
# Shear Modulus (GPa) = 15.02546 21.59438 18.30992
#
# Velocity S-wave (km/s) = 2.71111 3.25015 2.99279
# Velocity P-wave (km/s) = 4.19105 5.08459 4.65929
#
# Compressibility (1/GPa) = 0.06299923
#
# Stress axis : x y z
#
# Youngs Moduli (GPa) = 22.14687 22.14089 42.27232
#
# Poissons Ratio (x) = 0.48137 -0.11875
# Poissons Ratio (y) = 0.48150 0.27712
# Poissons Ratio (z) = -0.06221 0.14515
#
# Static dielectric constant tensor:
#      x y z
#    x 1.766810 0.000000 0.061770 
#    y 0.000000 1.689400 0.000000 
#    z 0.061770 0.000000 1.771070 
# 
# From -- ./inp_files/378082.got.cif
#   From: 2010.05.17/outbox.ucp.g08.bks.cvg/sg12_190_cif.got.tgz:378082.got - 2010.06.11 11:47:21.
