data_PCOD9224643
_publ_section_title
;
Structure prediction by ZEFSAII (Michael W. Deem and Ramdas Pophale) SiO2 
 PCOD9224643
Probable space group: C 2/M
;
_chemical_formula_sum "Si O2"
_cell_formula_units_Z 32
_cell_length_a 21.000000
_cell_length_b 18.000000
_cell_length_c 24.000000
_cell_angle_alpha 90.000000
_cell_angle_beta 20.000000
_cell_angle_gamma 90.000000
_cell_volume 3102.806740
_symmetry_space_group_name_H-M "C 2/M"
_symmetry_group_IT_number 12
_symmetry_cell_setting 'monoclinic'
loop_
_space_group_symop_operation_xyz
x,y,z
-x,y,-z
-x,-y,-z
x,-y,z
1/2+x,1/2+y,z
1/2-x,1/2+y,-z
1/2-x,1/2-y,-z
1/2+x,1/2-y,z
loop_
_atom_site_type_symbol
_atom_site_label
_atom_site_fract_x
_atom_site_fract_y
_atom_site_fract_z
Si Si1 0.793290 0.840148 0.371506
Si Si2 0.594189 0.225297 0.081717
Si Si3 0.288322 0.582034 0.270361
Si Si4 0.947461 0.911312 0.359289
Si Si5 0.192303 0.330038 0.878021
Si Si6 0.619845 0.808494 0.319741
Si Si7 0.471054 0.085859 0.248213
Si Si8 0.764667 0.915705 0.107925
O O1 0.752808 0.910720 0.365467
O O2 0.895872 0.865462 0.344445
O O3 0.588599 0.802747 0.535725
O O4 0.931892 0.784681 0.225736
O O5 0.524392 0.144202 0.157548
O O6 0.750000 0.250000 0.000000
O O7 0.642521 0.215229 0.976489
O O8 0.235349 0.500000 0.292968
O O9 0.177620 0.646800 0.328668
O O10 0.513299 0.588010 0.083260
O O11 0.746455 0.904052 0.556127
O O12 0.134208 0.882929 0.239738
O O13 0.972124 0.000000 0.327059
O O14 0.291807 0.272943 0.753958
O O15 0.000000 0.354470 0.000000
O O16 0.722941 0.859224 0.190303
O O17 0.622121 0.099665 0.173902
O O18 0.495971 0.000000 0.211199
O O19 0.721368 0.000000 0.160465
#
# Coordination Sequence:
#
# PCOD9224643 Si02
#       8
#     8   8   8   8   8   8   8   8
#     4  12  24  39  66  97 137 176 223 279 331 404
#     4  12  24  42  69 103 133 173 223 279 339 400
#     4  11  24  39  59  96 141 183 221 265 327 409
#     4  11  25  45  69  98 131 177 231 288 344 403
#     4  12  27  46  69  97 136 176 223 283 341 408
#     4  12  23  39  64  91 136 178 222 263 336 403
#     4  10  22  42  67  97 131 169 224 284 339 397
#     4  10  20  35  59  89 129 173 216 267 323 395
#
# _framework density 10.313243
#
# number of rings (size 3 to 8) (size 9 to 14) (size 15 to 20)
#    0.000    0.750    2.500    6.000    0.000    4.750 
#    0.000    1.875    0.000    1.500    0.000    0.000 
#    0.000    0.000    0.000    0.000    0.000    0.000 
#
# Total GULP energy -178325.732028 kJ/mol
# GULP energy per Si atom -5572.679126 kJ/mol
# Density = 1.028977 g / cm^3
# Si number density = 10.313243 Si / 1000 Ang^3
#
#
#
# Elastic Constant Matrix: (Units=GPa)
#
#
# Indices 1 2 3 4 5 6 
#
# 1 114.4280 39.4681 25.6789 0.0004 -27.4049 0.0038
# 2 39.4681 73.1204 31.9515 0.0081 -3.8322 -0.0087
# 3 25.6789 31.9515 90.3426 -0.0124 -27.1934 0.0016
# 4 0.0004 0.0081 -0.0124 30.4429 -0.0020 -6.7961
# 5 -27.4049 -3.8322 -27.1934 -0.0020 42.7670 0.0047
# 6 0.0038 -0.0087 0.0016 -6.7961 0.0047 32.9515
#
#
#
# Elastic Compliance Matrix: (Units=1/GPa)
#
#
# Indices 1 2 3 4 5 6 
#
# 1 0.012937 -0.007160 0.001431 0.000002 0.008559 -0.000004
# 2 -0.007160 0.020396 -0.007432 -0.000007 -0.007486 0.000006
# 3 0.001431 -0.007432 0.016530 0.000009 0.010762 -0.000003
# 4 0.000002 -0.000007 0.000009 0.034434 0.000007 0.007102
# 5 0.008559 -0.007486 0.010762 0.000007 0.035039 -0.000007
# 6 -0.000004 0.000006 -0.000003 0.007102 -0.000007 0.031812
#
#
# Mechanical properties :
#
#
# Convention : Reuss Voigt Hill
#
# Bulk Modulus (GPa) = 42.47689 52.45423 47.46556
# Shear Modulus (GPa) = 26.98097 33.28513 30.13305
#
# Velocity S-wave (km/s) = 3.62065 4.02146 3.82631
# Velocity P-wave (km/s) = 6.17389 6.85919 6.52555
#
# Compressibility (1/GPa) = 0.02354221
#
# Stress axis : x y z
#
# Youngs Moduli (GPa) = 77.29605 49.02961 60.49685
#
# Poissons Ratio (x) = 0.35105 -0.08658
# Poissons Ratio (y) = 0.55344 0.44958
# Poissons Ratio (z) = -0.11062 0.36436
#
# Static dielectric constant tensor:
#      x y z
#    x 1.799000 0.000010 0.002320 
#    y 0.000010 1.785520 0.000040 
#    z 0.002320 0.000040 1.817500 
# 
# From -- ./inp_files/347847.got.cif
#   From: 2010.05.17/outbox.ucp.g08.bks.cvg/sg12_174_cif.got.tgz:347847.got - 2010.06.11 11:47:21.
