data_PCOD9224799
_publ_section_title
;
Structure prediction by ZEFSAII (Michael W. Deem and Ramdas Pophale) SiO2 
 PCOD9224799
Probable space group: C 2/M
;
_chemical_formula_sum "Si O2"
_cell_formula_units_Z 28
_cell_length_a 15.000000
_cell_length_b 15.000000
_cell_length_c 24.000000
_cell_angle_alpha 90.000000
_cell_angle_beta 30.000000
_cell_angle_gamma 90.000000
_cell_volume 2700.000000
_symmetry_space_group_name_H-M "C 2/M"
_symmetry_group_IT_number 12
_symmetry_cell_setting 'monoclinic'
loop_
_space_group_symop_operation_xyz
x,y,z
-x,y,-z
-x,-y,-z
x,-y,z
1/2+x,1/2+y,z
1/2-x,1/2+y,-z
1/2-x,1/2-y,-z
1/2+x,1/2-y,z
loop_
_atom_site_type_symbol
_atom_site_label
_atom_site_fract_x
_atom_site_fract_y
_atom_site_fract_z
Si Si1 0.443467 0.397733 0.313584
Si Si2 0.318894 0.103743 0.320246
Si Si3 0.174810 0.811354 0.289235
Si Si4 0.670275 0.754440 0.480974
Si Si5 0.219575 0.596197 0.933116
Si Si6 0.018507 0.229203 0.045904
Si Si7 0.799747 0.400931 0.929293
O O1 0.400331 0.500000 0.349157
O O2 0.565816 0.359090 0.298148
O O3 0.268297 0.338736 0.401468
O O4 0.569842 0.394038 0.190832
O O5 0.238770 0.120548 0.302167
O O6 0.226119 0.168045 0.414962
O O7 0.529579 0.125673 0.199738
O O8 0.300147 0.000000 0.345270
O O9 0.342173 0.760050 0.172501
O O10 0.040093 0.745935 0.395007
O O11 0.750000 0.750000 0.500000
O O12 0.178558 0.500000 0.927760
O O13 0.133044 0.687140 0.960967
O O14 0.148078 0.590933 0.034382
O O15 0.147361 0.171917 0.013979
O O16 0.000000 0.171136 0.000000
O O17 0.741164 0.500000 0.943376
#
# Coordination Sequence:
#
# PCOD9224799 Si02
#       7
#     8   8   8   8   8   8   8
#     4  10  21  39  64  89 123 162 201 249 302 358
#     4  11  23  41  67  92 122 159 202 257 308 355
#     4  11  23  38  61  94 124 157 202 254 302 361
#     4  10  24  41  59  87 123 156 204 248 301 363
#     4  10  20  36  60  92 122 154 198 248 304 365
#     4  12  23  37  63  90 128 163 195 251 312 359
#     4  10  23  40  61  91 123 163 209 247 299 369
#
# _framework density 10.370369999999999
#
# number of rings (size 3 to 8) (size 9 to 14) (size 15 to 20)
#    0.000    1.429    2.857    2.143    4.000    4.571 
#    0.000    0.714    0.000    1.714    0.000    0.000 
#    0.000    0.000    0.000    0.000    0.000    0.000 
#
# Total GULP energy -156029.545532 kJ/mol
# GULP energy per Si atom -5572.483769 kJ/mol
# Density = 1.034677 g / cm^3
# Si number density = 10.370370 Si / 1000 Ang^3
#
#
#
# Elastic Constant Matrix: (Units=GPa)
#
#
# Indices 1 2 3 4 5 6 
#
# 1 33.2619 14.9083 6.7113 0.0005 7.5525 -0.0022
# 2 14.9083 71.6046 62.2707 -0.0015 -21.6658 -0.0024
# 3 6.7113 62.2707 152.7762 -0.0044 -5.1798 -0.0024
# 4 0.0005 -0.0015 -0.0044 6.2045 -0.0003 1.1671
# 5 7.5525 -21.6658 -5.1798 -0.0003 27.6049 0.0002
# 6 -0.0022 -0.0024 -0.0024 1.1671 0.0002 66.0069
#
#
#
# Elastic Compliance Matrix: (Units=1/GPa)
#
#
# Indices 1 2 3 4 5 6 
#
# 1 0.047540 -0.026094 0.007459 -0.000007 -0.032087 0.000001
# 2 -0.026094 0.045298 -0.015971 0.000004 0.039695 0.000000
# 3 0.007459 -0.015971 0.012312 0.000004 -0.012266 0.000000
# 4 -0.000007 0.000004 0.000004 0.161711 0.000007 -0.002859
# 5 -0.032087 0.039695 -0.012266 0.000007 0.073857 0.000000
# 6 0.000001 0.000000 0.000000 -0.002859 0.000000 0.015200
#
#
# Mechanical properties :
#
#
# Convention : Reuss Voigt Hill
#
# Bulk Modulus (GPa) = 27.82468 47.26926 37.54697
# Shear Modulus (GPa) = 11.43879 31.54676 21.49277
#
# Velocity S-wave (km/s) = 2.35098 3.90424 3.22259
# Velocity P-wave (km/s) = 4.56224 6.56994 5.65589
#
# Compressibility (1/GPa) = 0.03593931
#
# Stress axis : x y z
#
# Youngs Moduli (GPa) = 21.03479 22.07585 81.22304
#
# Poissons Ratio (x) = 0.57604 -0.60587
# Poissons Ratio (y) = 0.54887 1.29723
# Poissons Ratio (z) = -0.15691 0.35258
#
# Static dielectric constant tensor:
#      x y z
#    x 1.810740 0.000000 -0.024150 
#    y 0.000000 1.783170 0.000000 
#    z -0.024150 0.000000 1.728130 
# 
# From -- ./inp_files/340320.got.cif
#   From: 2010.05.17/outbox.ucp.g08.bks.cvg/sg12_171_cif.got.tgz:340320.got - 2010.06.11 11:47:21.
