data_PCOD9224692
_publ_section_title
;
Structure prediction by ZEFSAII (Michael W. Deem and Ramdas Pophale) SiO2 
 PCOD9224692
Probable space group: C 2/M
;
_chemical_formula_sum "Si O2"
_cell_formula_units_Z 28
_cell_length_a 15.000000
_cell_length_b 9.000000
_cell_length_c 30.000000
_cell_angle_alpha 90.000000
_cell_angle_beta 130.000000
_cell_angle_gamma 90.000000
_cell_volume 3102.479995
_symmetry_space_group_name_H-M "C 2/M"
_symmetry_group_IT_number 12
_symmetry_cell_setting 'monoclinic'
loop_
_space_group_symop_operation_xyz
x,y,z
-x,y,-z
-x,-y,-z
x,-y,z
1/2+x,1/2+y,z
1/2-x,1/2+y,-z
1/2-x,1/2-y,-z
1/2+x,1/2-y,z
loop_
_atom_site_type_symbol
_atom_site_label
_atom_site_fract_x
_atom_site_fract_y
_atom_site_fract_z
Si Si1 0.799438 0.824679 0.236803
Si Si2 0.093224 0.821724 0.066799
Si Si3 0.946391 0.178840 0.844454
Si Si4 0.840239 0.820889 0.149041
Si Si5 0.444954 0.167980 0.355896
Si Si6 0.280781 0.169256 0.555251
Si Si7 0.604954 0.673045 0.569017
O O1 0.677779 0.745424 0.208576
O O2 0.848621 0.778895 0.204014
O O3 0.888636 0.778112 0.302915
O O4 0.779734 0.000000 0.229092
O O5 0.045497 0.780936 0.100552
O O6 0.215806 0.745471 0.095906
O O7 0.109644 0.000000 0.071765
O O8 0.000000 0.780658 0.000000
O O9 0.053172 0.229924 0.847806
O O10 0.941865 0.000000 0.839976
O O11 0.836126 0.000000 0.144960
O O12 0.582805 0.168202 0.394287
O O13 0.419808 0.225734 0.397057
O O14 0.401241 0.000000 0.335198
O O15 0.250000 0.250000 0.500000
O O16 0.216154 0.230130 0.577618
O O17 0.237287 0.000000 0.536774
O O18 0.500000 0.678806 0.500000
O O19 0.619928 0.500000 0.587668
#
# Coordination Sequence:
#
# PCOD9224692 Si02
#       7
#     8   8   8   8   8   8   8
#     4  10  21  37  55  76 103 135 177 223 269 319
#     4   9  18  32  51  79 114 149 183 220 265 316
#     4   9  18  35  56  77 107 143 180 223 269 315
#     4   9  19  35  55  78 105 141 182 224 270 315
#     4  11  23  37  55  80 108 137 174 217 265 320
#     4  10  21  36  55  79 106 137 171 209 257 313
#     4  10  20  36  57  79 106 138 171 210 258 311
#
# _framework density 9.0250380000000003
#
# number of rings (size 3 to 8) (size 9 to 14) (size 15 to 20)
#    0.000    2.286    1.429    0.857    0.000    4.571 
#    0.000    2.857    0.000    0.000    0.000    0.000 
#    0.000    0.000    0.000    0.000    0.000    0.000 
#
# Total GULP energy -156086.211393 kJ/mol
# GULP energy per Si atom -5574.507550 kJ/mol
# Density = 0.900450 g / cm^3
# Si number density = 9.025038 Si / 1000 Ang^3
#
#
#
# Elastic Constant Matrix: (Units=GPa)
#
#
# Indices 1 2 3 4 5 6 
#
# 1 160.0482 32.6245 35.6404 0.0000 7.9026 0.0000
# 2 32.6245 -1.4163 8.5156 0.0000 2.5940 0.0000
# 3 35.6404 8.5156 64.5422 0.0000 7.0082 0.0000
# 4 0.0000 0.0000 0.0000 34.0143 0.0000 3.6667
# 5 7.9026 2.5940 7.0082 0.0000 -0.7450 0.0000
# 6 0.0000 0.0000 0.0000 3.6667 0.0000 24.4792
#
#
#
# Elastic Compliance Matrix: (Units=1/GPa)
#
#
# Indices 1 2 3 4 5 6 
#
# 1 0.000598 0.028082 -0.007589 0.000000 0.032729 0.000000
# 2 0.028082 -0.131053 0.009392 0.000000 -0.070072 0.000000
# 3 -0.007589 0.009392 0.011692 0.000000 0.062191 0.000000
# 4 0.000000 0.000000 0.000000 0.029882 0.000000 -0.004476
# 5 0.032729 -0.070072 0.062191 0.000000 -0.654057 0.000000
# 6 0.000000 0.000000 0.000000 -0.004476 0.000000 0.041521
#
#
# Mechanical properties :
#
#
# Convention : Reuss Voigt Hill
#
# Bulk Modulus (GPa) = -16.95161 41.85943 12.45391
# Shear Modulus (GPa) = -6.40327 21.30929 7.45301
#
# Velocity S-wave (km/s) = -1.88552 3.43966 2.03422
# Velocity P-wave (km/s) = 3.76193 6.24629 3.52591
#
# Compressibility (1/GPa) = -0.05899143
#
# Stress axis : x y z
#
# Youngs Moduli (GPa) = 1673.14477 -7.63052 85.52604
#
# Poissons Ratio (x) = 0.21428 0.64906
# Poissons Ratio (y) = -46.98582 -0.80329
# Poissons Ratio (z) = 12.69752 0.07167
#
# Static dielectric constant tensor:
#      x y z
#    x 1.617950 0.000000 -0.005850 
#    y 0.000000 1.629730 0.000000 
#    z -0.005850 0.000000 1.609250 
# 
# From -- ./inp_files/308986.got.cif
#   From: 2010.05.17/outbox.ucp.g08.bks.cvg/sg12_155_cif.got.tgz:308986.got - 2010.06.11 11:47:21.
