data_PCOD9224212
_publ_section_title
;
Structure prediction by ZEFSAII (Michael W. Deem and Ramdas Pophale) SiO2 
 PCOD9224212
Probable space group: C 2/M
;
_chemical_formula_sum "Si O2"
_cell_formula_units_Z 32
_cell_length_a 24.000000
_cell_length_b 9.000000
_cell_length_c 30.000000
_cell_angle_alpha 90.000000
_cell_angle_beta 150.000000
_cell_angle_gamma 90.000000
_cell_volume 3240.000000
_symmetry_space_group_name_H-M "C 2/M"
_symmetry_group_IT_number 12
_symmetry_cell_setting 'monoclinic'
loop_
_space_group_symop_operation_xyz
x,y,z
-x,y,-z
-x,-y,-z
x,-y,z
1/2+x,1/2+y,z
1/2-x,1/2+y,-z
1/2-x,1/2-y,-z
1/2+x,1/2-y,z
loop_
_atom_site_type_symbol
_atom_site_label
_atom_site_fract_x
_atom_site_fract_y
_atom_site_fract_z
Si Si1 0.101608 0.825350 0.875847
Si Si2 0.750203 0.179774 0.834767
Si Si3 0.492128 0.674020 0.328926
Si Si4 0.376297 0.673858 0.664107
Si Si5 0.006662 0.826891 0.568326
Si Si6 0.809412 0.178397 0.971185
Si Si7 0.243372 0.675864 0.731044
Si Si8 0.228379 0.175355 0.631173
O O1 0.192558 0.734172 0.910868
O O2 0.983825 0.812326 0.770640
O O3 0.133964 0.000000 0.896497
O O4 0.104374 0.778558 0.929845
O O5 0.624334 0.238739 0.754585
O O6 0.818511 0.229608 0.926066
O O7 0.786869 0.226836 0.810085
O O8 0.748339 0.000000 0.832549
O O9 0.468403 0.500000 0.301805
O O10 0.582251 0.726134 0.355496
O O11 0.533662 0.680605 0.408281
O O12 0.344682 0.500000 0.639616
O O13 0.282439 0.765461 0.623570
O O14 0.903624 0.791586 0.465058
O O15 0.112589 0.719955 0.640724
O O16 0.041848 0.000000 0.585104
O O17 0.809968 0.000000 0.969370
O O18 0.259417 0.500000 0.738725
O O19 0.282530 0.750912 0.712418
O O20 0.240580 0.000000 0.642722
#
# Coordination Sequence:
#
# PCOD9224212 Si02
#       8
#     8   8   8   8   8   8   8   8
#     4   9  17  29  46  72 102 131 159 190 231 283
#     4   9  17  29  48  75 102 126 155 197 242 284
#     4   9  17  31  50  71  98 130 159 192 240 290
#     4  10  20  33  49  70 100 133 164 196 233 286
#     4   9  19  35  53  73  97 124 158 203 248 290
#     4   9  16  27  47  74 103 128 155 192 235 282
#     4  10  20  34  53  75  97 123 161 205 246 286
#     4  11  23  36  50  69  94 129 169 204 244 289
#
# _framework density 9.8765429999999999
#
# number of rings (size 3 to 8) (size 9 to 14) (size 15 to 20)
#    0.000    2.500    1.250    1.125    0.000    4.500 
#    0.000    0.000    0.000    0.750    0.000    5.250 
#    0.000    0.000    0.000    0.000    0.000    0.000 
#
# Total GULP energy -178336.970537 kJ/mol
# GULP energy per Si atom -5573.030329 kJ/mol
# Density = 0.985406 g / cm^3
# Si number density = 9.876543 Si / 1000 Ang^3
#
#
#
# Elastic Constant Matrix: (Units=GPa)
#
#
# Indices 1 2 3 4 5 6 
#
# 1 73.3089 11.7031 1.5204 0.0001 -18.7329 0.0002
# 2 11.7031 5.1829 4.7897 0.0001 -7.1313 0.0000
# 3 1.5204 4.7897 19.0264 -0.0002 -22.8909 -0.0001
# 4 0.0001 0.0001 -0.0002 14.4843 0.0000 -2.6490
# 5 -18.7329 -7.1313 -22.8909 0.0000 31.9399 0.0001
# 6 0.0002 0.0000 -0.0001 -2.6490 0.0001 27.2599
#
#
#
# Elastic Compliance Matrix: (Units=1/GPa)
#
#
# Indices 1 2 3 4 5 6 
#
# 1 -0.475222 0.811115 -2.059325 -0.000027 -1.573511 -0.000001
# 2 0.811115 -1.102834 3.549394 0.000044 2.773294 0.000000
# 3 -2.059325 3.549394 -8.538076 -0.000112 -6.534447 -0.000002
# 4 -0.000027 0.000044 -0.000112 0.070290 -0.000087 0.006831
# 5 -1.573511 2.773294 -6.534447 -0.000087 -4.955513 -0.000002
# 6 -0.000001 0.000000 -0.000002 0.006831 -0.000002 0.037348
#
#
# Mechanical properties :
#
#
# Convention : Reuss Voigt Hill
#
# Bulk Modulus (GPa) = -0.18136 14.83828 7.32846
# Shear Modulus (GPa) = -0.23360 20.03713 9.90177
#
# Velocity S-wave (km/s) = -0.34426 3.18839 2.24135
# Velocity P-wave (km/s) = 0.50004 4.59158 3.22743
#
# Compressibility (1/GPa) = -5.51376294
#
# Stress axis : x y z
#
# Youngs Moduli (GPa) = -2.10428 -0.90675 -0.11712
#
# Poissons Ratio (x) = 0.73548 -0.24119
# Poissons Ratio (y) = 1.70681 0.41571
# Poissons Ratio (z) = -4.33340 3.21843
#
# Static dielectric constant tensor:
#      x y z
#    x 1.760210 0.000000 -0.034650 
#    y 0.000000 1.667780 0.000000 
#    z -0.034650 0.000000 1.700390 
# 
# From -- ./inp_files/287642.got.cif
#   From: 2010.05.17/outbox.ucp.g08.bks.cvg/sg12_144_cif.got.tgz:287642.got - 2010.06.11 11:47:21.
