data_PCOD9224685
_publ_section_title
;
Structure prediction by ZEFSAII (Michael W. Deem and Ramdas Pophale) SiO2 
 PCOD9224685
Probable space group: C 2/M
;
_chemical_formula_sum "Si O2"
_cell_formula_units_Z 32
_cell_length_a 24.000000
_cell_length_b 9.000000
_cell_length_c 30.000000
_cell_angle_alpha 90.000000
_cell_angle_beta 150.000000
_cell_angle_gamma 90.000000
_cell_volume 3240.000000
_symmetry_space_group_name_H-M "C 2/M"
_symmetry_group_IT_number 12
_symmetry_cell_setting 'monoclinic'
loop_
_space_group_symop_operation_xyz
x,y,z
-x,y,-z
-x,-y,-z
x,-y,z
1/2+x,1/2+y,z
1/2-x,1/2+y,-z
1/2-x,1/2-y,-z
1/2+x,1/2-y,z
loop_
_atom_site_type_symbol
_atom_site_label
_atom_site_fract_x
_atom_site_fract_y
_atom_site_fract_z
Si Si1 0.176689 0.324262 0.748558
Si Si2 0.550038 0.823171 0.830935
Si Si3 0.596027 0.829141 0.103797
Si Si4 0.460373 0.676855 0.080739
Si Si5 0.019422 0.823138 0.565435
Si Si6 0.639186 0.827986 0.478367
Si Si7 0.869011 0.672957 0.627357
Si Si8 0.282507 0.178424 0.126019
O O1 0.151882 0.500000 0.730103
O O2 0.307396 0.290271 0.835469
O O3 0.163172 0.264623 0.790319
O O4 0.114819 0.249906 0.663407
O O5 0.544414 0.726304 0.871333
O O6 0.451200 0.809352 0.725944
O O7 0.655135 0.770775 0.874924
O O8 0.559199 0.000000 0.848353
O O9 0.546543 0.786914 0.117118
O O10 0.636885 0.000000 0.130239
O O11 0.500000 0.814003 0.000000
O O12 0.485457 0.500000 0.094582
O O13 0.346704 0.703755 0.973907
O O14 0.911622 0.776896 0.519301
O O15 0.000000 0.775678 0.500000
O O16 0.036908 0.000000 0.576885
O O17 0.767733 0.786033 0.562188
O O18 0.585992 0.806020 0.392127
O O19 0.623698 0.000000 0.479940
O O20 0.830028 0.500000 0.600729
O O21 0.298093 0.000000 0.139164
#
# Coordination Sequence:
#
# PCOD9224685 Si02
#       8
#     8   8   8   8   8   8   8   8
#     4  11  22  40  67  93 118 154 201 248 299 355
#     4  10  20  36  56  82 119 158 194 234 293 357
#     4  11  23  40  62  88 119 155 200 248 296 353
#     4  11  22  37  57  84 118 156 198 244 295 345
#     4  11  25  43  61  86 123 161 197 243 302 360
#     4  10  20  37  63  89 114 149 198 246 295 352
#     4   9  19  36  59  86 118 154 191 241 301 356
#     4   9  19  36  59  85 117 154 192 240 297 351
#
# _framework density 9.8765429999999999
#
# number of rings (size 3 to 8) (size 9 to 14) (size 15 to 20)
#    0.000    1.750    1.250    3.000    0.000    5.500 
#    0.000    4.375    0.000    0.000    0.000    0.000 
#    0.000    0.000    0.000    0.000    0.000    0.000 
#
# Total GULP energy -178324.982545 kJ/mol
# GULP energy per Si atom -5572.655705 kJ/mol
# Density = 0.985406 g / cm^3
# Si number density = 9.876543 Si / 1000 Ang^3
#
#
#
# Elastic Constant Matrix: (Units=GPa)
#
#
# Indices 1 2 3 4 5 6 
#
# 1 86.7444 4.0563 -5.4173 0.0000 -28.4941 0.0000
# 2 4.0563 33.7857 -9.0823 0.0002 -14.2333 0.0001
# 3 -5.4173 -9.0823 -35.8688 0.0002 -27.4683 0.0001
# 4 0.0000 0.0002 0.0002 15.6371 0.0000 -1.8619
# 5 -28.4941 -14.2333 -27.4683 0.0000 35.9010 0.0000
# 6 0.0000 0.0001 0.0001 -1.8619 0.0000 27.1430
#
#
#
# Elastic Compliance Matrix: (Units=1/GPa)
#
#
# Indices 1 2 3 4 5 6 
#
# 1 0.012987 -0.000856 -0.005914 0.000000 0.005444 0.000000
# 2 -0.000856 0.028502 -0.009598 0.000000 0.003278 0.000000
# 3 -0.005914 -0.009598 -0.011380 0.000000 -0.017206 0.000000
# 4 0.000000 0.000000 0.000000 0.064477 0.000000 0.004423
# 5 0.005444 0.003278 -0.017206 0.000000 0.020310 0.000000
# 6 0.000000 0.000000 0.000000 0.004423 0.000000 0.037145
#
#
# Mechanical properties :
#
#
# Convention : Reuss Voigt Hill
#
# Bulk Modulus (GPa) = -380.97141 7.08608 -186.94267
# Shear Modulus (GPa) = 27.18871 22.07655 24.63263
#
# Velocity S-wave (km/s) = 3.71405 3.34672 3.53516
# Velocity P-wave (km/s) = 13.22472 4.30455 8.84206
#
# Compressibility (1/GPa) = -0.00262487
#
# Stress axis : x y z
#
# Youngs Moduli (GPa) = 77.00008 35.08558 -87.87350
#
# Poissons Ratio (x) = 0.03002 -0.51965
# Poissons Ratio (y) = 0.06588 -0.84337
# Poissons Ratio (z) = 0.45535 0.33674
#
# Static dielectric constant tensor:
#      x y z
#    x 1.763650 0.000000 0.050860 
#    y 0.000000 1.657320 0.000000 
#    z 0.050860 0.000000 1.707270 
# 
# From -- ./inp_files/382526.got.cif
#   From: 2010.05.17/outbox.ucp.g08.bks.cvg/sg12_192_cif.got.tgz:382526.got - 2010.06.11 11:47:21.
