data_PCOD9224252
_publ_section_title
;
Structure prediction by ZEFSAII (Michael W. Deem and Ramdas Pophale) SiO2 
 PCOD9224252
Probable space group: C 2/M
;
_chemical_formula_sum "Si O2"
_cell_formula_units_Z 32
_cell_length_a 15.000000
_cell_length_b 9.000000
_cell_length_c 30.000000
_cell_angle_alpha 90.000000
_cell_angle_beta 130.000000
_cell_angle_gamma 90.000000
_cell_volume 3102.479995
_symmetry_space_group_name_H-M "C 2/M"
_symmetry_group_IT_number 12
_symmetry_cell_setting 'monoclinic'
loop_
_space_group_symop_operation_xyz
x,y,z
-x,y,-z
-x,-y,-z
x,-y,z
1/2+x,1/2+y,z
1/2-x,1/2+y,-z
1/2-x,1/2-y,-z
1/2+x,1/2-y,z
loop_
_atom_site_type_symbol
_atom_site_label
_atom_site_fract_x
_atom_site_fract_y
_atom_site_fract_z
Si Si1 0.260493 0.824761 0.313508
Si Si2 0.622546 0.167492 0.563178
Si Si3 0.879463 0.326751 0.889966
Si Si4 0.293966 0.828853 0.558360
Si Si5 0.694870 0.176141 0.772534
Si Si6 0.424196 0.175172 0.681406
Si Si7 0.799848 0.169183 0.947668
Si Si8 0.588254 0.668242 0.917522
O O1 0.372259 0.807373 0.382188
O O2 0.275893 0.771432 0.268300
O O3 0.156351 0.754537 0.308406
O O4 0.239969 0.000000 0.303007
O O5 0.500000 0.164177 0.500000
O O6 0.693242 0.297065 0.562022
O O7 0.674807 0.000000 0.572840
O O8 0.887783 0.500000 0.901228
O O9 0.761116 0.275427 0.829103
O O10 0.883186 0.238141 0.937486
O O11 0.978720 0.273922 0.887884
O O12 0.250000 0.750000 0.500000
O O13 0.401512 0.772124 0.623005
O O14 0.312942 0.000000 0.553283
O O15 0.558115 0.189667 0.735424
O O16 0.726128 0.000000 0.787270
O O17 0.394546 0.000000 0.671801
O O18 0.684447 0.268125 0.915238
O O19 0.771506 0.000000 0.926393
O O20 0.855570 0.167396 0.014781
O O21 0.554878 0.500000 0.895460
#
# Coordination Sequence:
#
# PCOD9224252 Si02
#       8
#     8   8   8   8   8   8   8   8
#     4   9  19  36  58  81 107 142 185 232 285 343
#     4   9  18  32  54  80 107 138 175 220 277 344
#     4  12  25  39  58  88 123 160 204 248 294 350
#     4  10  20  33  52  79 109 139 176 222 279 341
#     4  10  22  40  60  80 108 153 200 242 292 347
#     4   9  20  38  59  79 107 144 185 233 287 345
#     4  10  21  39  64  93 125 161 200 245 297 349
#     4  10  21  39  64  93 125 161 200 244 296 350
#
# _framework density 10.314329000000001
#
# number of rings (size 3 to 8) (size 9 to 14) (size 15 to 20)
#    0.000    2.125    0.000    2.625    1.750    5.750 
#    0.000    2.500    0.000    0.000    0.000    0.000 
#    0.000    0.000    0.000    0.000    0.000    0.000 
#
# Total GULP energy -178426.637814 kJ/mol
# GULP energy per Si atom -5575.832432 kJ/mol
# Density = 1.029085 g / cm^3
# Si number density = 10.314329 Si / 1000 Ang^3
#
#
#
# Elastic Constant Matrix: (Units=GPa)
#
#
# Indices 1 2 3 4 5 6 
#
# 1 52.1445 10.2188 15.4797 0.0000 -4.7628 0.0000
# 2 10.2188 37.8384 20.6585 0.0000 -2.6191 0.0000
# 3 15.4797 20.6585 51.6747 0.0000 -4.3161 0.0000
# 4 0.0000 0.0000 0.0000 21.9970 0.0000 -4.0169
# 5 -4.7628 -2.6191 -4.3161 0.0000 18.8063 0.0000
# 6 0.0000 0.0000 0.0000 -4.0169 0.0000 28.4929
#
#
#
# Elastic Compliance Matrix: (Units=1/GPa)
#
#
# Indices 1 2 3 4 5 6 
#
# 1 0.021575 -0.002821 -0.005008 0.000000 0.003922 0.000000
# 2 -0.002821 0.034226 -0.012743 0.000000 0.001127 0.000000
# 3 -0.005008 -0.012743 0.026194 0.000000 0.002969 0.000000
# 4 0.000000 0.000000 0.000000 0.046662 0.000000 0.006578
# 5 0.003922 0.001127 0.002969 0.000000 0.055005 0.000000
# 6 0.000000 0.000000 0.000000 0.006578 0.000000 0.036024
#
#
# Mechanical properties :
#
#
# Convention : Reuss Voigt Hill
#
# Bulk Modulus (GPa) = 24.47942 26.04130 25.26036
# Shear Modulus (GPa) = 18.21839 20.21261 19.21550
#
# Velocity S-wave (km/s) = 2.97502 3.13362 3.05535
# Velocity P-wave (km/s) = 4.86760 5.07386 4.97180
#
# Compressibility (1/GPa) = 0.04085064
#
# Stress axis : x y z
#
# Youngs Moduli (GPa) = 46.34965 29.21786 38.17599
#
# Poissons Ratio (x) = 0.08243 0.19117
# Poissons Ratio (y) = 0.13076 0.48649
# Poissons Ratio (z) = 0.23210 0.37234
#
# Static dielectric constant tensor:
#      x y z
#    x 1.726980 0.000000 0.015340 
#    y 0.000000 1.698380 0.000000 
#    z 0.015340 0.000000 1.810530 
# 
# From -- ./inp_files/375547.got.cif
#   From: 2010.05.17/outbox.ucp.g08.bks.cvg/sg12_188_cif.got.tgz:375547.got - 2010.06.11 11:47:21.
