data_PCOD9224837
_publ_section_title
;
Structure prediction by ZEFSAII (Michael W. Deem and Ramdas Pophale) SiO2 
 PCOD9224837
Probable space group: C 2/M
;
_chemical_formula_sum "Si O2"
_cell_formula_units_Z 28
_cell_length_a 21.000000
_cell_length_b 9.000000
_cell_length_c 21.000000
_cell_angle_alpha 90.000000
_cell_angle_beta 130.000000
_cell_angle_gamma 90.000000
_cell_volume 3040.430395
_symmetry_space_group_name_H-M "C 2/M"
_symmetry_group_IT_number 12
_symmetry_cell_setting 'monoclinic'
loop_
_space_group_symop_operation_xyz
x,y,z
-x,y,-z
-x,-y,-z
x,-y,z
1/2+x,1/2+y,z
1/2-x,1/2+y,-z
1/2-x,1/2-y,-z
1/2+x,1/2-y,z
loop_
_atom_site_type_symbol
_atom_site_label
_atom_site_fract_x
_atom_site_fract_y
_atom_site_fract_z
Si Si1 0.459269 0.822250 0.903931
Si Si2 0.284414 0.322393 0.085928
Si Si3 0.135549 0.667056 0.664677
Si Si4 0.801398 0.832061 0.852780
Si Si5 0.973668 0.677638 0.641157
Si Si6 0.463509 0.179809 0.184402
Si Si7 0.413422 0.324746 0.482250
O O1 0.372905 0.737140 0.855436
O O2 0.507426 0.780240 0.869085
O O3 0.447334 0.000000 0.892336
O O4 0.500000 0.792838 0.000000
O O5 0.285452 0.500000 0.084192
O O6 0.223634 0.268385 0.103195
O O7 0.377655 0.257844 0.149214
O O8 0.250000 0.250000 0.000000
O O9 0.111888 0.500000 0.628392
O O10 0.218392 0.660757 0.758199
O O11 0.149380 0.764468 0.610872
O O12 0.063079 0.718706 0.666639
O O13 0.823547 0.000000 0.887855
O O14 0.965363 0.500000 0.632577
O O15 0.911544 0.750684 0.550317
O O16 0.974433 0.717276 0.716586
O O17 0.451459 0.000000 0.177640
O O18 0.500000 0.288476 0.500000
O O19 0.408953 0.500000 0.486715
#
# Coordination Sequence:
#
# PCOD9224837 Si02
#       7
#     8   8   8   8   8   8   8
#     4  10  22  39  58  81 111 149 189 230 280 336
#     4  12  24  37  57  83 112 143 182 231 284 333
#     4   9  17  31  51  76 107 144 181 219 270 330
#     4  11  22  38  59  83 113 146 187 232 277 333
#     4   9  16  30  51  75 107 146 182 219 270 330
#     4  10  20  37  58  81 113 148 187 230 278 337
#     4   9  17  27  44  75 111 141 174 222 272 321
#
# _framework density 9.2092229999999997
#
# number of rings (size 3 to 8) (size 9 to 14) (size 15 to 20)
#    0.000    2.000    1.429    3.000    0.000    5.429 
#    0.000    0.000    0.000    0.857    0.000    0.000 
#    0.000    0.000    0.000    0.000    0.000    0.000 
#
# Total GULP energy -155976.094534 kJ/mol
# GULP energy per Si atom -5570.574805 kJ/mol
# Density = 0.918826 g / cm^3
# Si number density = 9.209223 Si / 1000 Ang^3
#
#
#
# Elastic Constant Matrix: (Units=GPa)
#
#
# Indices 1 2 3 4 5 6 
#
# 1 62.3320 20.7322 8.0548 0.0000 -21.8947 0.0000
# 2 20.7322 21.5315 28.0474 0.0000 -16.8022 0.0000
# 3 8.0548 28.0474 71.2195 0.0000 -35.7857 0.0000
# 4 0.0000 0.0000 0.0000 16.6901 0.0000 -0.1124
# 5 -21.8947 -16.8022 -35.7857 0.0000 31.2666 0.0000
# 6 0.0000 0.0000 0.0000 -0.1124 0.0000 22.0824
#
#
#
# Elastic Compliance Matrix: (Units=1/GPa)
#
#
# Indices 1 2 3 4 5 6 
#
# 1 0.055751 -0.078129 0.054091 0.000000 0.058964 0.000000
# 2 -0.078129 0.210158 -0.105132 0.000000 -0.062102 0.000000
# 3 0.054091 -0.105132 0.094070 0.000000 0.089048 0.000000
# 4 0.000000 0.000000 0.000000 0.059918 0.000000 0.000305
# 5 0.058964 -0.062102 0.089048 0.000000 0.141819 0.000000
# 6 0.000000 0.000000 0.000000 0.000305 0.000000 0.045287
#
#
# Mechanical properties :
#
#
# Convention : Reuss Voigt Hill
#
# Bulk Modulus (GPa) = 9.83873 29.86132 19.85002
# Shear Modulus (GPa) = 5.56036 20.55771 13.05904
#
# Velocity S-wave (km/s) = 1.73939 3.34450 2.66563
# Velocity P-wave (km/s) = 3.06387 5.58231 4.50275
#
# Compressibility (1/GPa) = 0.10163918
#
# Stress axis : x y z
#
# Youngs Moduli (GPa) = 17.93677 4.75833 10.63038
#
# Poissons Ratio (x) = 0.37176 -0.57500
# Poissons Ratio (y) = 1.40138 1.11759
# Poissons Ratio (z) = -0.97021 0.50025
#
# Static dielectric constant tensor:
#      x y z
#    x 1.621060 0.000000 0.030090 
#    y 0.000000 1.650250 0.000000 
#    z 0.030090 0.000000 1.730240 
# 
# From -- ./inp_files/281027.got.cif
#   From: 2010.05.17/outbox.ucp.g08.bks.cvg/sg12_141_cif.got.tgz:281027.got - 2010.06.11 11:47:21.
