data_PCOD9224753
_publ_section_title
;
Structure prediction by ZEFSAII (Michael W. Deem and Ramdas Pophale) SiO2 
 PCOD9224753
Probable space group: C 2/M
;
_chemical_formula_sum "Si O2"
_cell_formula_units_Z 28
_cell_length_a 15.000000
_cell_length_b 15.000000
_cell_length_c 24.000000
_cell_angle_alpha 90.000000
_cell_angle_beta 30.000000
_cell_angle_gamma 90.000000
_cell_volume 2700.000000
_symmetry_space_group_name_H-M "C 2/M"
_symmetry_group_IT_number 12
_symmetry_cell_setting 'monoclinic'
loop_
_space_group_symop_operation_xyz
x,y,z
-x,y,-z
-x,-y,-z
x,-y,z
1/2+x,1/2+y,z
1/2-x,1/2+y,-z
1/2-x,1/2-y,-z
1/2+x,1/2-y,z
loop_
_atom_site_type_symbol
_atom_site_label
_atom_site_fract_x
_atom_site_fract_y
_atom_site_fract_z
Si Si1 0.569468 0.143234 0.898974
Si Si2 0.214108 0.649645 0.039774
Si Si3 0.105256 0.849389 0.843282
Si Si4 0.391744 0.599341 0.651015
Si Si5 0.627107 0.099657 0.208607
Si Si6 0.808955 0.277562 0.627612
Si Si7 0.224718 0.682576 0.563369
O O1 0.428666 0.111043 0.927251
O O2 0.579868 0.249675 0.882735
O O3 0.767930 0.108584 0.773815
O O4 0.500000 0.125270 0.000000
O O5 0.149052 0.653010 0.138994
O O6 0.250000 0.750000 0.000000
O O7 0.412504 0.609071 0.934669
O O8 0.209685 0.896485 0.836696
O O9 0.214785 0.837625 0.725746
O O10 0.358575 0.500000 0.646679
O O11 0.331435 0.681666 0.645657
O O12 0.604731 0.617163 0.535113
O O13 0.458748 0.130348 0.335763
O O14 0.598493 0.000000 0.203806
O O15 0.711513 0.247132 0.624463
O O16 0.000000 0.310494 0.500000
O O17 0.250000 0.750000 0.500000
#
# Coordination Sequence:
#
# PCOD9224753 Si02
#       7
#     8   8   8   8   8   8   8
#     4  10  20  36  59  85 114 154 200 245 293 354
#     4  10  21  37  59  86 120 160 203 246 294 357
#     4  10  20  37  58  83 118 158 202 243 288 351
#     4  10  21  36  55  83 116 147 185 239 302 356
#     4  12  24  38  60  92 125 156 198 254 306 353
#     4   9  19  35  58  84 110 149 197 246 294 349
#     4  11  22  37  61  87 115 154 198 245 298 359
#
# _framework density 10.370369999999999
#
# number of rings (size 3 to 8) (size 9 to 14) (size 15 to 20)
#    0.000    1.714    0.000    7.714    0.000    7.429 
#    0.000    0.000    0.000    6.429    0.000    0.000 
#    0.000    0.000    0.000    0.000    0.000    0.000 
#
# Total GULP energy -156048.771296 kJ/mol
# GULP energy per Si atom -5573.170403 kJ/mol
# Density = 1.034677 g / cm^3
# Si number density = 10.370370 Si / 1000 Ang^3
#
#
#
# Elastic Constant Matrix: (Units=GPa)
#
#
# Indices 1 2 3 4 5 6 
#
# 1 87.7987 -1.0781 69.9946 0.0014 -0.4903 0.0000
# 2 -1.0781 52.7040 22.2517 -0.0016 -2.1221 0.0015
# 3 69.9946 22.2517 151.8361 -0.0031 33.3256 0.0076
# 4 0.0014 -0.0016 -0.0031 -0.3036 0.0016 3.7625
# 5 -0.4903 -2.1221 33.3256 0.0016 29.3199 -0.0031
# 6 0.0000 0.0015 0.0076 3.7625 -0.0031 1.4571
#
#
#
# Elastic Compliance Matrix: (Units=1/GPa)
#
#
# Indices 1 2 3 4 5 6 
#
# 1 0.026024 0.009030 -0.018066 0.000060 0.021623 -0.000025
# 2 0.009030 0.024315 -0.010853 0.000026 0.014247 -0.000006
# 3 -0.018066 -0.010853 0.022309 -0.000073 -0.026444 0.000026
# 4 0.000060 0.000026 -0.000073 -0.099811 0.000119 0.257729
# 5 0.021623 0.014247 -0.026444 0.000119 0.065556 -0.000043
# 6 -0.000025 -0.000006 0.000026 0.257729 -0.000043 0.020797
#
#
# Mechanical properties :
#
#
# Convention : Reuss Voigt Hill
#
# Bulk Modulus (GPa) = 30.42301 52.74168 41.58234
# Shear Modulus (GPa) = 45.48604 19.50606 32.49605
#
# Velocity S-wave (km/s) = 4.68811 3.07004 3.96254
# Velocity P-wave (km/s) = 6.63360 6.16855 6.40530
#
# Compressibility (1/GPa) = 0.03286986
#
# Stress axis : x y z
#
# Youngs Moduli (GPa) = 38.42633 41.12768 44.82513
#
# Poissons Ratio (x) = -0.37140 0.80981
# Poissons Ratio (y) = -0.34701 0.48650
# Poissons Ratio (z) = 0.69421 0.44637
#
# Static dielectric constant tensor:
#      x y z
#    x 1.803470 0.000000 -0.057320 
#    y 0.000000 1.761210 0.000000 
#    z -0.057320 0.000000 1.797020 
# 
# From -- ./inp_files/340287.got.cif
#   From: 2010.05.17/outbox.ucp.g08.bks.cvg/sg12_171_cif.got.tgz:340287.got - 2010.06.11 11:47:21.
