data_PCOD9224681
_publ_section_title
;
Structure prediction by ZEFSAII (Michael W. Deem and Ramdas Pophale) SiO2 
 PCOD9224681
Probable space group: C 2/M
;
_chemical_formula_sum "Si O2"
_cell_formula_units_Z 22
_cell_length_a 9.000000
_cell_length_b 18.000000
_cell_length_c 18.000000
_cell_angle_alpha 90.000000
_cell_angle_beta 130.000000
_cell_angle_gamma 90.000000
_cell_volume 2233.785596
_symmetry_space_group_name_H-M "C 2/M"
_symmetry_group_IT_number 12
_symmetry_cell_setting 'monoclinic'
loop_
_space_group_symop_operation_xyz
x,y,z
-x,y,-z
-x,-y,-z
x,-y,z
1/2+x,1/2+y,z
1/2-x,1/2+y,-z
1/2-x,1/2-y,-z
1/2+x,1/2-y,z
loop_
_atom_site_type_symbol
_atom_site_label
_atom_site_fract_x
_atom_site_fract_y
_atom_site_fract_z
Si Si1 0.828604 0.912211 0.386212
Si Si2 0.138796 0.582864 0.902862
Si Si3 0.451432 0.839219 0.266040
Si Si4 0.196827 0.911540 0.797101
Si Si5 0.048521 0.204452 0.186122
Si Si6 0.000000 0.188297 0.000000
O O1 0.655901 0.862565 0.363862
O O2 0.859758 0.892194 0.307852
O O3 0.000000 0.903459 0.500000
O O4 0.780537 0.000000 0.368557
O O5 0.197015 0.500000 0.943407
O O6 0.316724 0.638687 0.966040
O O7 0.101764 0.590044 0.802566
O O8 0.931488 0.598976 0.874753
O O9 0.274841 0.818704 0.262620
O O10 0.492033 0.773536 0.219534
O O11 0.085121 0.861987 0.822657
O O12 0.160330 0.000000 0.795973
O O13 0.035308 0.224852 0.092793
#
# Coordination Sequence:
#
# PCOD9224681 Si02
#       6
#     8   8   8   8   8   4
#     4   9  18  37  65  91 113 142 181 222 271 335
#     4   9  18  34  55  79 108 143 185 231 279 327
#     4  10  20  36  56  79 113 148 181 228 282 331
#     4   9  19  36  57  82 116 151 181 227 285 333
#     4  11  23  38  56  80 112 152 192 232 280 329
#     4  10  23  36  56  80 107 148 196 242 271 322
#
# _framework density 9.8487519999999993
#
# number of rings (size 3 to 8) (size 9 to 14) (size 15 to 20)
#    0.000    2.364    0.000    4.091    0.000    8.000 
#    0.000    6.364    0.000    3.273    0.000    0.636 
#    0.000    0.000    0.000    0.000    0.000    0.000 
#
# Total GULP energy -122502.417120 kJ/mol
# GULP energy per Si atom -5568.291687 kJ/mol
# Density = 0.982634 g / cm^3
# Si number density = 9.848752 Si / 1000 Ang^3
#
#
#
# Elastic Constant Matrix: (Units=GPa)
#
#
# Indices 1 2 3 4 5 6 
#
# 1 143.1084 41.3360 23.6976 0.0000 10.5734 0.0000
# 2 41.3360 70.8528 16.9175 0.0000 15.1810 0.0000
# 3 23.6976 16.9175 62.8495 0.0000 12.3985 0.0000
# 4 0.0000 0.0000 0.0000 15.0694 0.0000 -3.0326
# 5 10.5734 15.1810 12.3985 0.0000 24.9656 0.0000
# 6 0.0000 0.0000 0.0000 -3.0326 0.0000 29.9940
#
#
#
# Elastic Compliance Matrix: (Units=1/GPa)
#
#
# Indices 1 2 3 4 5 6 
#
# 1 0.008640 -0.004582 -0.002053 0.000000 0.000147 0.000000
# 2 -0.004582 0.019077 -0.001665 0.000000 -0.008833 0.000000
# 3 -0.002053 -0.001665 0.018583 0.000000 -0.007347 0.000000
# 4 0.000000 0.000000 0.000000 0.067738 0.000000 0.006849
# 5 0.000147 -0.008833 -0.007347 0.000000 0.049013 0.000000
# 6 0.000000 0.000000 0.000000 0.006849 0.000000 0.034033
#
#
# Mechanical properties :
#
#
# Convention : Reuss Voigt Hill
#
# Bulk Modulus (GPa) = 33.67073 48.96813 41.31943
# Shear Modulus (GPa) = 22.36301 26.99643 24.67972
#
# Velocity S-wave (km/s) = 3.37311 3.70611 3.54352
# Velocity P-wave (km/s) = 5.68344 6.57478 6.14529
#
# Compressibility (1/GPa) = 0.02969939
#
# Stress axis : x y z
#
# Youngs Moduli (GPa) = 115.73554 52.41917 53.81350
#
# Poissons Ratio (x) = 0.24018 0.11050
# Poissons Ratio (y) = 0.53030 0.08959
# Poissons Ratio (z) = 0.23766 0.08727
#
# Static dielectric constant tensor:
#      x y z
#    x 1.675210 0.000000 0.053930 
#    y 0.000000 1.758760 0.000000 
#    z 0.053930 0.000000 1.807730 
# 
# From -- ./inp_files/195363.got.cif
#   From: 2010.05.17/outbox.ucp.g08.bks.cvg/sg12_98_cif.got.tgz:195363.got - 2010.06.11 11:47:21.
