data_PCOD9224951
_publ_section_title
;
Structure prediction by ZEFSAII (Michael W. Deem and Ramdas Pophale) SiO2 
 PCOD9224951
Probable space group: C 2/M
;
_chemical_formula_sum "Si O2"
_cell_formula_units_Z 32
_cell_length_a 30.000000
_cell_length_b 9.000000
_cell_length_c 18.000000
_cell_angle_alpha 90.000000
_cell_angle_beta 40.000000
_cell_angle_gamma 90.000000
_cell_volume 3123.947783
_symmetry_space_group_name_H-M "C 2/M"
_symmetry_group_IT_number 12
_symmetry_cell_setting 'monoclinic'
loop_
_space_group_symop_operation_xyz
x,y,z
-x,y,-z
-x,-y,-z
x,-y,z
1/2+x,1/2+y,z
1/2-x,1/2+y,-z
1/2-x,1/2-y,-z
1/2+x,1/2-y,z
loop_
_atom_site_type_symbol
_atom_site_label
_atom_site_fract_x
_atom_site_fract_y
_atom_site_fract_z
Si Si1 0.034749 0.831572 0.376006
Si Si2 0.932965 0.173054 0.376886
Si Si3 0.170513 0.324377 0.175093
Si Si4 0.677822 0.675453 0.005420
Si Si5 0.340097 0.335430 0.225432
Si Si6 0.031288 0.834126 0.837181
Si Si7 0.792045 0.331173 0.511934
Si Si8 0.402730 0.168093 0.017596
O O1 0.103204 0.737005 0.299685
O O2 0.000000 0.839388 0.500000
O O3 0.982747 0.770963 0.379037
O O4 0.053544 0.000000 0.327872
O O5 0.970073 0.179017 0.249643
O O6 0.861584 0.256539 0.452594
O O7 0.917783 0.000000 0.412950
O O8 0.167857 0.500000 0.171502
O O9 0.243652 0.285487 0.119461
O O10 0.168580 0.253603 0.095883
O O11 0.672934 0.500000 0.021559
O O12 0.623549 0.729998 0.015318
O O13 0.354748 0.500000 0.173885
O O14 0.391101 0.320167 0.230984
O O15 0.262179 0.333132 0.351632
O O16 0.357326 0.208119 0.146313
O O17 0.007462 0.000000 0.888539
O O18 0.981064 0.713470 0.935417
O O19 0.806672 0.500000 0.469145
O O20 0.750000 0.250000 0.500000
O O21 0.396839 0.000000 0.002164
#
# Coordination Sequence:
#
# PCOD9224951 Si02
#       8
#     8   8   8   8   8   8   8   8
#     4  10  22  39  60  88 125 166 203 242 298 364
#     4  10  21  39  62  89 119 158 204 245 295 356
#     4  10  21  38  63  91 116 148 198 252 298 348
#     4  10  21  39  62  87 118 157 192 236 299 364
#     4  10  22  40  59  82 115 159 200 237 297 365
#     4  10  20  38  61  82 114 160 201 241 297 365
#     4  11  22  39  63  89 117 151 198 249 297 353
#     4  12  25  37  55  88 122 153 197 248 294 346
#
# _framework density 10.243449
#
# number of rings (size 3 to 8) (size 9 to 14) (size 15 to 20)
#    0.000    1.625    1.250    3.375    0.000    7.750 
#    0.000    2.500    0.000    0.000    0.000    0.000 
#    0.000    0.000    0.000    0.000    0.000    0.000 
#
# Total GULP energy -178571.065000 kJ/mol
# GULP energy per Si atom -5580.345781 kJ/mol
# Density = 1.022013 g / cm^3
# Si number density = 10.243449 Si / 1000 Ang^3
#
#
#
# Elastic Constant Matrix: (Units=GPa)
#
#
# Indices 1 2 3 4 5 6 
#
# 1 20.2571 7.5887 15.3666 0.0098 -24.7686 -0.0064
# 2 7.5887 41.4307 39.6588 0.0006 -23.0961 -0.0028
# 3 15.3666 39.6588 72.1862 -0.0037 -23.2212 -0.0010
# 4 0.0098 0.0006 -0.0037 19.4770 0.0030 -3.8183
# 5 -24.7686 -23.0961 -23.2212 0.0030 12.9636 0.0016
# 6 -0.0064 -0.0028 -0.0010 -3.8183 0.0016 27.2071
#
#
#
# Elastic Compliance Matrix: (Units=1/GPa)
#
#
# Indices 1 2 3 4 5 6 
#
# 1 -0.000127 -0.026022 -0.001577 0.000008 -0.049429 0.000001
# 2 -0.026022 0.037202 -0.022586 0.000011 -0.023897 0.000000
# 3 -0.001577 -0.022586 0.029930 0.000005 0.010359 -0.000001
# 4 0.000008 0.000011 0.000005 0.052795 0.000033 0.007409
# 5 -0.049429 -0.023897 0.010359 0.000033 -0.041321 -0.000007
# 6 0.000001 0.000000 -0.000001 0.007409 -0.000007 0.037795
#
#
# Mechanical properties :
#
#
# Convention : Reuss Voigt Hill
#
# Bulk Modulus (GPa) = -29.97034 28.78916 -0.59059
# Shear Modulus (GPa) = 24.32825 16.68021 20.50423
#
# Velocity S-wave (km/s) = 3.44976 2.85650 3.16705
# Velocity P-wave (km/s) = 1.09862 4.99624 3.61728
#
# Compressibility (1/GPa) = -0.03336633
#
# Stress axis : x y z
#
# Youngs Moduli (GPa) = -7857.28229 26.88039 33.41140
#
# Poissons Ratio (x) = 0.69948 0.05270
# Poissons Ratio (y) = -204.46080 0.75464
# Poissons Ratio (z) = -12.39263 0.60713
#
# Static dielectric constant tensor:
#      x y z
#    x 1.688740 0.000000 -0.001300 
#    y 0.000000 1.735230 0.000010 
#    z -0.001300 0.000010 1.794110 
# 
# From -- ./inp_files/295667.got.cif
#   From: 2010.05.17/outbox.ucp.g08.bks.cvg/sg12_148_cif.got.tgz:295667.got - 2010.06.11 11:47:21.
