data_PCOD9224223
_publ_section_title
;
Structure prediction by ZEFSAII (Michael W. Deem and Ramdas Pophale) SiO2 
 PCOD9224223
Probable space group: C 2/M
;
_chemical_formula_sum "Si O2"
_cell_formula_units_Z 32
_cell_length_a 30.000000
_cell_length_b 9.000000
_cell_length_c 15.000000
_cell_angle_alpha 90.000000
_cell_angle_beta 60.000000
_cell_angle_gamma 90.000000
_cell_volume 3507.402885
_symmetry_space_group_name_H-M "C 2/M"
_symmetry_group_IT_number 12
_symmetry_cell_setting 'monoclinic'
loop_
_space_group_symop_operation_xyz
x,y,z
-x,y,-z
-x,-y,-z
x,-y,z
1/2+x,1/2+y,z
1/2-x,1/2+y,-z
1/2-x,1/2-y,-z
1/2+x,1/2-y,z
loop_
_atom_site_type_symbol
_atom_site_label
_atom_site_fract_x
_atom_site_fract_y
_atom_site_fract_z
Si Si1 0.036027 0.176133 0.755825
Si Si2 0.940117 0.666692 0.088539
Si Si3 0.297071 0.174091 0.654682
Si Si4 0.709933 0.325755 0.607151
Si Si5 0.671884 0.830160 0.041258
Si Si6 0.775205 0.828313 0.852698
Si Si7 0.077016 0.174247 0.072690
Si Si8 0.373933 0.823791 0.414521
O O1 0.059825 0.228734 0.826124
O O2 0.069429 0.254897 0.646434
O O3 0.976047 0.219077 0.825380
O O4 0.039740 0.000000 0.742474
O O5 0.921644 0.500000 0.126957
O O6 0.914575 0.737914 0.027741
O O7 0.000000 0.656928 0.000000
O O8 0.239660 0.186880 0.670354
O O9 0.298632 0.284397 0.735116
O O10 0.339616 0.209706 0.536425
O O11 0.304181 0.000000 0.672166
O O12 0.703908 0.500000 0.593315
O O13 0.750000 0.250000 0.500000
O O14 0.657519 0.243021 0.637750
O O15 0.702964 0.789042 0.098699
O O16 0.625614 0.715921 0.082230
O O17 0.653367 0.000000 0.060750
O O18 0.713298 0.813522 0.920351
O O19 0.786356 0.000000 0.865838
O O20 0.072716 0.000000 0.057407
O O21 0.376457 0.000000 0.404101
#
# Coordination Sequence:
#
# PCOD9224223 Si02
#       8
#     8   8   8   8   8   8   8   8
#     4  10  20  33  50  74 105 141 177 214 256 299
#     4   9  17  30  48  70  98 133 172 211 250 294
#     4   9  19  34  52  75 103 136 171 209 255 305
#     4   9  17  30  47  69  99 134 172 211 251 295
#     4  10  21  37  56  78 104 132 164 205 256 311
#     4  10  21  36  56  80 102 128 164 207 256 309
#     4  10  20  34  53  77 105 136 173 214 256 305
#     4  10  20  33  50  74 105 141 179 215 253 302
#
# _framework density 9.1235599999999994
#
# number of rings (size 3 to 8) (size 9 to 14) (size 15 to 20)
#    0.000    2.375    0.000    3.375    0.000    8.500 
#    0.000    2.500    0.000    0.750    0.000    5.250 
#    0.000    0.000    0.000    0.000    0.000    0.000 
#
# Total GULP energy -178225.652926 kJ/mol
# GULP energy per Si atom -5569.551654 kJ/mol
# Density = 0.910279 g / cm^3
# Si number density = 9.123560 Si / 1000 Ang^3
#
#
#
# Elastic Constant Matrix: (Units=GPa)
#
#
# Indices 1 2 3 4 5 6 
#
# 1 37.9596 8.6819 18.6411 0.0000 -14.7367 0.0000
# 2 8.6819 31.4355 27.2645 0.0000 -1.4305 0.0000
# 3 18.6411 27.2645 72.3222 0.0000 -13.0939 0.0000
# 4 0.0000 0.0000 0.0000 26.2506 0.0000 -0.9306
# 5 -14.7367 -1.4305 -13.0939 0.0000 12.8638 0.0000
# 6 0.0000 0.0000 0.0000 -0.9306 0.0000 26.6334
#
#
#
# Elastic Compliance Matrix: (Units=1/GPa)
#
#
# Indices 1 2 3 4 5 6 
#
# 1 0.051636 -0.014082 0.002974 0.000000 0.060616 0.000000
# 2 -0.014082 0.053876 -0.022700 0.000000 -0.033247 0.000000
# 3 0.002974 -0.022700 0.026698 0.000000 0.028058 0.000000
# 4 0.000000 0.000000 0.000000 0.038142 0.000000 0.001333
# 5 0.060616 -0.033247 0.028058 0.000000 0.172042 0.000000
# 6 0.000000 0.000000 0.000000 0.001333 0.000000 0.037593
#
#
# Mechanical properties :
#
#
# Convention : Reuss Voigt Hill
#
# Bulk Modulus (GPa) = 15.48138 27.87692 21.67915
# Shear Modulus (GPa) = 10.65791 18.95821 14.80806
#
# Velocity S-wave (km/s) = 2.41941 3.22680 2.85182
# Velocity P-wave (km/s) = 4.03825 5.40311 4.76975
#
# Compressibility (1/GPa) = 0.06459371
#
# Stress axis : x y z
#
# Youngs Moduli (GPa) = 19.36618 18.56127 37.45577
#
# Poissons Ratio (x) = 0.26138 -0.11139
# Poissons Ratio (y) = 0.27271 0.85025
# Poissons Ratio (z) = -0.05759 0.42134
#
# Static dielectric constant tensor:
#      x y z
#    x 1.656270 0.000000 -0.003520 
#    y 0.000000 1.609970 0.000000 
#    z -0.003520 0.000000 1.640740 
# 
# From -- ./inp_files/249050.got.cif
#   From: 2010.05.17/outbox.ucp.g08.bks.cvg/sg12_125_cif.got.tgz:249050.got - 2010.06.11 11:47:21.
