data_PCOD9224457
_publ_section_title
;
Structure prediction by ZEFSAII (Michael W. Deem and Ramdas Pophale) SiO2 
 PCOD9224457
Probable space group: C 2/M
;
_chemical_formula_sum "Si O2"
_cell_formula_units_Z 32
_cell_length_a 24.000000
_cell_length_b 9.000000
_cell_length_c 15.000000
_cell_angle_alpha 90.000000
_cell_angle_beta 90.000000
_cell_angle_gamma 90.000000
_cell_volume 3240.000000
_symmetry_space_group_name_H-M "C 2/M"
_symmetry_group_IT_number 12
_symmetry_cell_setting 'monoclinic'
loop_
_space_group_symop_operation_xyz
x,y,z
-x,y,-z
-x,-y,-z
x,-y,z
1/2+x,1/2+y,z
1/2-x,1/2+y,-z
1/2-x,1/2-y,-z
1/2+x,1/2-y,z
loop_
_atom_site_type_symbol
_atom_site_label
_atom_site_fract_x
_atom_site_fract_y
_atom_site_fract_z
Si Si1 0.948668 0.826365 0.767935
Si Si2 0.214417 0.325192 0.576266
Si Si3 0.923559 0.831058 0.172083
Si Si4 0.838067 0.676818 0.065528
Si Si5 0.747004 0.179169 0.778895
Si Si6 0.516301 0.168273 0.405036
Si Si7 0.608847 0.834202 0.661090
Si Si8 0.150725 0.678042 0.134011
O O1 0.948519 0.756883 0.668164
O O2 0.908345 0.739896 0.834263
O O3 0.011541 0.814924 0.805704
O O4 0.933794 0.000000 0.763676
O O5 0.223862 0.500000 0.566771
O O6 0.250000 0.250000 0.500000
O O7 0.228974 0.282929 0.678230
O O8 0.147743 0.298321 0.577096
O O9 0.899366 0.723882 0.097482
O O10 0.890402 0.786194 0.261584
O O11 0.912161 0.000000 0.146795
O O12 0.833733 0.500000 0.063761
O O13 0.794579 0.728567 0.141191
O O14 0.831045 0.731583 0.964739
O O15 0.804987 0.257272 0.797535
O O16 0.752117 0.000000 0.783868
O O17 0.500000 0.239193 0.500000
O O18 0.455161 0.153320 0.363031
O O19 0.538892 0.000000 0.419857
O O20 0.626995 0.000000 0.694652
O O21 0.150159 0.500000 0.134584
#
# Coordination Sequence:
#
# PCOD9224457 Si02
#       8
#     8   8   8   8   8   8   8   8
#     4  10  22  39  56  81 120 157 189 236 294 346
#     4  10  21  36  56  83 114 152 192 234 288 341
#     4  10  20  34  58  87 112 145 191 237 281 336
#     4  10  21  39  62  86 115 151 193 237 291 353
#     4  10  21  40  61  82 116 156 192 238 295 349
#     4   9  18  33  57  86 112 145 193 241 285 341
#     4   9  17  34  55  75 109 150 184 230 287 338
#     4  11  24  39  59  87 116 153 197 242 289 346
#
# _framework density 9.8765429999999999
#
# number of rings (size 3 to 8) (size 9 to 14) (size 15 to 20)
#    0.000    2.125    1.250    1.500    0.000    5.750 
#    0.000    3.750    0.000    0.000    0.000    0.000 
#    0.000    0.000    0.000    0.000    0.000    0.000 
#
# Total GULP energy -178271.476825 kJ/mol
# GULP energy per Si atom -5570.983651 kJ/mol
# Density = 0.985406 g / cm^3
# Si number density = 9.876543 Si / 1000 Ang^3
#
#
#
# Elastic Constant Matrix: (Units=GPa)
#
#
# Indices 1 2 3 4 5 6 
#
# 1 51.4539 31.9765 25.5889 0.0000 -27.9276 0.0000
# 2 31.9765 14.2037 23.7505 0.0000 -10.3202 0.0000
# 3 25.5889 23.7505 77.3070 0.0000 -23.3660 0.0000
# 4 0.0000 0.0000 0.0000 22.7802 0.0000 -1.5930
# 5 -27.9276 -10.3202 -23.3660 0.0000 25.4066 0.0000
# 6 0.0000 0.0000 0.0000 -1.5930 0.0000 23.6653
#
#
#
# Elastic Compliance Matrix: (Units=1/GPa)
#
#
# Indices 1 2 3 4 5 6 
#
# 1 -0.021626 0.070139 -0.017955 0.000000 -0.011793 0.000000
# 2 0.070139 -0.070473 0.018123 0.000000 0.065140 0.000000
# 3 -0.017955 0.018123 0.013255 0.000000 -0.000184 0.000000
# 4 0.000000 0.000000 0.000000 0.044105 0.000000 0.002969
# 5 -0.011793 0.065140 -0.000184 0.000000 0.052687 0.000000
# 6 0.000000 0.000000 0.000000 0.002969 0.000000 0.042456
#
#
# Mechanical properties :
#
#
# Convention : Reuss Voigt Hill
#
# Bulk Modulus (GPa) = 16.18875 33.95515 25.07195
# Shear Modulus (GPa) = -83.86366 18.48034 -32.69166
#
# Velocity S-wave (km/s) = -6.52289 3.06202 -4.07260
# Velocity P-wave (km/s) = 6.96545 5.45238 3.06505
#
# Compressibility (1/GPa) = 0.06177131
#
# Stress axis : x y z
#
# Youngs Moduli (GPa) = -46.24137 -14.18981 75.44331
#
# Poissons Ratio (x) = 0.99526 1.35456
# Poissons Ratio (y) = 3.24333 -1.36727
# Poissons Ratio (z) = -0.83025 0.25716
#
# Static dielectric constant tensor:
#      x y z
#    x 1.737830 0.000000 0.032380 
#    y 0.000000 1.683250 0.000000 
#    z 0.032380 0.000000 1.723830 
# 
# From -- ./inp_files/238813.got.cif
#   From: 2010.05.17/outbox.ucp.g08.bks.cvg/sg12_120_cif.got.tgz:238813.got - 2010.06.11 11:47:21.
