data_PCOD9224138
_publ_section_title
;
Structure prediction by ZEFSAII (Michael W. Deem and Ramdas Pophale) SiO2 
 PCOD9224138
Probable space group: C 2/M
;
_chemical_formula_sum "Si O2"
_cell_formula_units_Z 32
_cell_length_a 18.000000
_cell_length_b 21.000000
_cell_length_c 24.000000
_cell_angle_alpha 90.000000
_cell_angle_beta 20.000000
_cell_angle_gamma 90.000000
_cell_volume 3102.806740
_symmetry_space_group_name_H-M "C 2/M"
_symmetry_group_IT_number 12
_symmetry_cell_setting 'monoclinic'
loop_
_space_group_symop_operation_xyz
x,y,z
-x,y,-z
-x,-y,-z
x,-y,z
1/2+x,1/2+y,z
1/2-x,1/2+y,-z
1/2-x,1/2-y,-z
1/2+x,1/2-y,z
loop_
_atom_site_type_symbol
_atom_site_label
_atom_site_fract_x
_atom_site_fract_y
_atom_site_fract_z
Si Si1 0.447822 0.742509 0.630738
Si Si2 0.406228 0.614800 0.502981
Si Si3 0.674895 0.140041 0.421303
Si Si4 0.928063 0.370308 0.833570
Si Si5 0.245155 0.576639 0.836775
Si Si6 0.798708 0.199737 0.100733
Si Si7 0.908268 0.074847 0.841096
Si Si8 0.070193 0.744196 0.812033
O O1 0.621938 0.688082 0.498994
O O2 0.535238 0.813457 0.558781
O O3 0.336175 0.749480 0.768363
O O4 0.276193 0.722515 0.703889
O O5 0.500000 0.607406 0.500000
O O6 0.585898 0.590180 0.332362
O O7 0.156955 0.590826 0.674463
O O8 0.500000 0.114761 0.500000
O O9 0.841082 0.191026 0.277238
O O10 0.836159 0.089720 0.333534
O O11 0.845869 0.353752 0.828848
O O12 0.979026 0.306351 0.833416
O O13 0.735358 0.401661 0.005516
O O14 0.231220 0.500000 0.849835
O O15 0.326584 0.601492 0.839262
O O16 0.000000 0.601433 0.000000
O O17 0.000000 0.178328 0.000000
O O18 0.897115 0.237058 0.979703
O O19 0.877839 0.000000 0.860630
#
# Coordination Sequence:
#
# PCOD9224138 Si02
#       8
#     8   8   8   8   8   8   8   8
#     4  10  21  36  58  96 136 157 197 260 318 386
#     4  12  23  39  64  97 131 162 210 261 319 388
#     4  10  20  40  67  91 131 161 202 264 321 383
#     4  12  23  38  65  91 129 171 212 257 322 381
#     4  10  25  46  65  89 124 170 222 271 316 365
#     4  10  23  36  57  92 131 170 208 248 317 385
#     4  11  26  45  66  92 122 168 227 271 310 374
#     4  10  19  38  59  94 125 167 202 248 316 386
#
# _framework density 10.313243
#
# number of rings (size 3 to 8) (size 9 to 14) (size 15 to 20)
#    0.000    1.375    3.750    1.500    3.500    2.000 
#    0.000    0.000    0.000    0.375    0.000    0.000 
#    0.000    0.000    0.000    0.000    0.000    0.000 
#
# Total GULP energy -178407.747706 kJ/mol
# GULP energy per Si atom -5575.242116 kJ/mol
# Density = 1.028977 g / cm^3
# Si number density = 10.313243 Si / 1000 Ang^3
#
#
#
# Elastic Constant Matrix: (Units=GPa)
#
#
# Indices 1 2 3 4 5 6 
#
# 1 92.6063 25.5499 16.5928 0.0609 -11.8832 0.0087
# 2 25.5499 26.8619 6.2929 -0.0251 -13.2634 -0.0319
# 3 16.5928 6.2929 57.8016 -0.1108 -25.8917 -0.1365
# 4 0.0609 -0.0251 -0.1108 12.2972 0.0507 -9.6168
# 5 -11.8832 -13.2634 -25.8917 0.0507 28.6959 0.0623
# 6 0.0087 -0.0319 -0.1365 -9.6168 0.0623 9.2233
#
#
#
# Elastic Compliance Matrix: (Units=1/GPa)
#
#
# Indices 1 2 3 4 5 6 
#
# 1 0.015542 -0.016508 -0.005375 -0.001196 -0.006039 -0.001358
# 2 -0.016508 0.068049 0.014035 0.001927 0.037272 0.002216
# 3 -0.005375 0.014035 0.032276 0.002425 0.033372 0.002835
# 4 -0.001196 0.001927 0.002425 0.440838 0.000806 0.459686
# 5 -0.006039 0.037272 0.033372 0.000806 0.079682 0.000932
# 6 -0.001358 0.002216 0.002835 0.459686 0.000932 0.587767
#
#
# Mechanical properties :
#
#
# Convention : Reuss Voigt Hill
#
# Bulk Modulus (GPa) = 9.98296 30.46013 20.22154
# Shear Modulus (GPa) = 3.92699 18.63221 11.27960
#
# Velocity S-wave (km/s) = 1.38130 3.00878 2.34102
# Velocity P-wave (km/s) = 2.71926 5.18362 4.13910
#
# Compressibility (1/GPa) = 0.10017065
#
# Stress axis : x y z
#
# Youngs Moduli (GPa) = 64.34157 14.69524 30.98303
#
# Poissons Ratio (x) = 0.24259 0.16652
# Poissons Ratio (y) = 1.06216 -0.43484
# Poissons Ratio (z) = 0.34582 -0.20624
#
# Static dielectric constant tensor:
#      x y z
#    x 1.757430 -0.000030 -0.043270 
#    y -0.000030 1.783380 0.000110 
#    z -0.043270 0.000110 1.860980 
# 
# From -- ./inp_files/344851.got.cif
#   From: 2010.05.17/outbox.ucp.g08.bks.cvg/sg12_173_cif.got.tgz:344851.got - 2010.06.11 11:47:21.
