data_PCOD9224924
_publ_section_title
;
Structure prediction by ZEFSAII (Michael W. Deem and Ramdas Pophale) SiO2 
 PCOD9224924
Probable space group: C 2/M
;
_chemical_formula_sum "Si O2"
_cell_formula_units_Z 28
_cell_length_a 24.000000
_cell_length_b 9.000000
_cell_length_c 15.000000
_cell_angle_alpha 90.000000
_cell_angle_beta 70.000000
_cell_angle_gamma 90.000000
_cell_volume 3044.604091
_symmetry_space_group_name_H-M "C 2/M"
_symmetry_group_IT_number 12
_symmetry_cell_setting 'monoclinic'
loop_
_space_group_symop_operation_xyz
x,y,z
-x,y,-z
-x,-y,-z
x,-y,z
1/2+x,1/2+y,z
1/2-x,1/2+y,-z
1/2-x,1/2-y,-z
1/2+x,1/2-y,z
loop_
_atom_site_type_symbol
_atom_site_label
_atom_site_fract_x
_atom_site_fract_y
_atom_site_fract_z
Si Si1 0.195239 0.320097 0.583380
Si Si2 0.947707 0.320655 0.954985
Si Si3 0.922203 0.178979 0.434949
Si Si4 0.303133 0.181300 0.035544
Si Si5 0.745050 0.820784 0.743799
Si Si6 0.382252 0.320678 0.655433
Si Si7 0.971311 0.678432 0.736744
O O1 0.194731 0.500000 0.575262
O O2 0.250000 0.250000 0.500000
O O3 0.136187 0.248243 0.577204
O O4 0.204813 0.279382 0.681727
O O5 0.945679 0.500000 0.965323
O O6 0.971029 0.283251 0.842275
O O7 0.875412 0.277496 0.993726
O O8 0.000000 0.272712 0.000000
O O9 0.916602 0.213695 0.543998
O O10 0.976914 0.247320 0.350629
O O11 0.923205 0.000000 0.427216
O O12 0.280919 0.224676 0.146946
O O13 0.301224 0.000000 0.025580
O O14 0.250000 0.250000 0.000000
O O15 0.813139 0.775471 0.688341
O O16 0.746294 0.000000 0.744645
O O17 0.385292 0.500000 0.665608
O O18 0.411947 0.238470 0.722138
O O19 0.975156 0.500000 0.727974
#
# Coordination Sequence:
#
# PCOD9224924 Si02
#       7
#     8   8   8   8   8   8   8
#     4  11  21  37  59  87 119 155 195 239 286 343
#     4   9  20  38  60  86 117 155 199 247 300 357
#     4  11  23  39  58  83 117 158 197 235 289 351
#     4  10  20  37  63  89 116 152 197 247 297 354
#     4   9  19  35  59  86 113 153 194 228 287 357
#     4  10  20  38  58  81 117 156 189 230 290 358
#     4  11  23  37  58  87 114 148 197 247 291 342
#
# _framework density 9.1965979999999998
#
# number of rings (size 3 to 8) (size 9 to 14) (size 15 to 20)
#    0.000    1.857    1.429    2.571    2.000    2.857 
#    0.000    2.143    0.000    2.143    0.000    0.000 
#    0.000    0.000    0.000    0.000    0.000    0.000 
#
# Total GULP energy -156023.473290 kJ/mol
# GULP energy per Si atom -5572.266903 kJ/mol
# Density = 0.917567 g / cm^3
# Si number density = 9.196598 Si / 1000 Ang^3
#
#
#
# Elastic Constant Matrix: (Units=GPa)
#
#
# Indices 1 2 3 4 5 6 
#
# 1 114.7094 20.9734 46.1827 0.0000 16.2657 0.0000
# 2 20.9734 43.5835 27.8760 0.0000 8.0462 0.0000
# 3 46.1827 27.8760 138.5937 0.0000 17.4550 0.0000
# 4 0.0000 0.0000 0.0000 23.7393 0.0000 1.3554
# 5 16.2657 8.0462 17.4550 0.0000 45.1913 0.0000
# 6 0.0000 0.0000 0.0000 1.3554 0.0000 38.7678
#
#
#
# Elastic Compliance Matrix: (Units=1/GPa)
#
#
# Indices 1 2 3 4 5 6 
#
# 1 0.010662 -0.003009 -0.002661 0.000000 -0.002274 0.000000
# 2 -0.003009 0.027517 -0.004259 0.000000 -0.002172 0.000000
# 3 -0.002661 -0.004259 0.009190 0.000000 -0.001833 0.000000
# 4 0.000000 0.000000 0.000000 0.042209 0.000000 -0.001476
# 5 -0.002274 -0.002172 -0.001833 0.000000 0.024041 0.000000
# 6 0.000000 0.000000 0.000000 -0.001476 0.000000 0.025846
#
#
# Mechanical properties :
#
#
# Convention : Reuss Voigt Hill
#
# Bulk Modulus (GPa) = 36.34874 54.10564 45.22719
# Shear Modulus (GPa) = 29.67506 34.99664 32.33585
#
# Velocity S-wave (km/s) = 4.02104 4.36672 4.19744
# Velocity P-wave (km/s) = 6.43143 7.40974 6.93785
#
# Compressibility (1/GPa) = 0.02751127
#
# Stress axis : x y z
#
# Youngs Moduli (GPa) = 93.79425 36.34117 108.81941
#
# Poissons Ratio (x) = 0.10934 0.28959
# Poissons Ratio (y) = 0.28220 0.46341
# Poissons Ratio (z) = 0.24960 0.15476
#
# Static dielectric constant tensor:
#      x y z
#    x 1.681900 0.000000 -0.010150 
#    y 0.000000 1.615840 0.000000 
#    z -0.010150 0.000000 1.646220 
# 
# From -- ./inp_files/237497.got.cif
#   From: 2010.05.17/outbox.ucp.g08.bks.cvg/sg12_119_cif.got.tgz:237497.got - 2010.06.11 11:47:21.
