data_PCOD9224504
_publ_section_title
;
Structure prediction by ZEFSAII (Michael W. Deem and Ramdas Pophale) SiO2 
 PCOD9224504
Probable space group: C 2/M
;
_chemical_formula_sum "Si O2"
_cell_formula_units_Z 28
_cell_length_a 18.000000
_cell_length_b 9.000000
_cell_length_c 27.000000
_cell_angle_alpha 90.000000
_cell_angle_beta 40.000000
_cell_angle_gamma 90.000000
_cell_volume 2811.553005
_symmetry_space_group_name_H-M "C 2/M"
_symmetry_group_IT_number 12
_symmetry_cell_setting 'monoclinic'
loop_
_space_group_symop_operation_xyz
x,y,z
-x,y,-z
-x,-y,-z
x,-y,z
1/2+x,1/2+y,z
1/2-x,1/2+y,-z
1/2-x,1/2-y,-z
1/2+x,1/2-y,z
loop_
_atom_site_type_symbol
_atom_site_label
_atom_site_fract_x
_atom_site_fract_y
_atom_site_fract_z
Si Si1 0.230049 0.821853 0.325503
Si Si2 0.395399 0.828799 0.402315
Si Si3 0.512752 0.179904 0.829997
Si Si4 0.208857 0.319509 0.121660
Si Si5 0.835888 0.327719 0.744479
Si Si6 0.445521 0.820192 0.974432
Si Si7 0.306327 0.176409 0.553181
O O1 0.365793 0.778232 0.256492
O O2 0.188521 0.762182 0.293236
O O3 0.173899 0.754508 0.404074
O O4 0.219401 0.000000 0.332271
O O5 0.526338 0.826618 0.318381
O O6 0.389438 0.786646 0.463781
O O7 0.315495 0.728314 0.408553
O O8 0.352038 0.000000 0.421084
O O9 0.405563 0.227230 0.850334
O O10 0.505972 0.226384 0.891571
O O11 0.509784 0.000000 0.832359
O O12 0.212792 0.500000 0.119414
O O13 0.212692 0.272844 0.177828
O O14 0.318694 0.249842 0.038789
O O15 0.799640 0.500000 0.755446
O O16 0.440574 0.000000 0.976865
O O17 0.500000 0.775510 0.000000
O O18 0.310302 0.000000 0.558966
#
# Coordination Sequence:
#
# PCOD9224504 Si02
#       7
#     8   8   8   8   8   8   8
#     4  11  22  37  57  79 108 145 183 223 273 328
#     4   9  19  37  59  80 108 148 184 218 268 326
#     4   9  19  36  56  77 104 142 182 218 264 324
#     4  10  20  35  56  79 104 137 178 222 267 317
#     4  10  21  37  55  77 108 144 183 226 273 324
#     4  10  20  35  55  79 109 141 174 215 264 319
#     4  10  20  35  57  84 111 140 181 228 270 319
#
# _framework density 9.9589090000000002
#
# number of rings (size 3 to 8) (size 9 to 14) (size 15 to 20)
#    0.000    2.143    0.000    3.000    0.000    6.000 
#    0.000    7.143    0.000    0.000    0.000    0.000 
#    0.000    0.000    0.000    0.000    0.000    0.000 
#
# Total GULP energy -156234.801688 kJ/mol
# GULP energy per Si atom -5579.814346 kJ/mol
# Density = 0.993624 g / cm^3
# Si number density = 9.958909 Si / 1000 Ang^3
#
#
#
# Elastic Constant Matrix: (Units=GPa)
#
#
# Indices 1 2 3 4 5 6 
#
# 1 52.1933 6.3270 -11.7748 0.0000 21.5181 0.0001
# 2 6.3270 28.4475 4.5813 0.0000 11.7937 0.0002
# 3 -11.7748 4.5813 57.6074 0.0000 22.7389 0.0000
# 4 0.0000 0.0000 0.0000 23.3527 0.0000 2.0459
# 5 21.5181 11.7937 22.7389 0.0000 43.2735 0.0000
# 6 0.0001 0.0002 0.0000 2.0459 0.0000 29.8272
#
#
#
# Elastic Compliance Matrix: (Units=1/GPa)
#
#
# Indices 1 2 3 4 5 6 
#
# 1 0.033535 0.000472 0.016970 0.000000 -0.025721 0.000000
# 2 0.000472 0.039727 0.001645 0.000000 -0.011926 0.000000
# 3 0.016970 0.001645 0.030538 0.000000 -0.024933 0.000000
# 4 0.000000 0.000000 0.000000 0.043081 0.000000 -0.002955
# 5 -0.025721 -0.011926 -0.024933 0.000000 0.052251 0.000000
# 6 0.000000 0.000000 0.000000 -0.002955 0.000000 0.033729
#
#
# Mechanical properties :
#
#
# Convention : Reuss Voigt Hill
#
# Bulk Modulus (GPa) = 7.04362 15.16836 11.10599
# Shear Modulus (GPa) = 20.66009 28.56499 24.61254
#
# Velocity S-wave (km/s) = 3.22416 3.79112 3.51907
# Velocity P-wave (km/s) = 4.17184 5.17643 4.70105
#
# Compressibility (1/GPa) = 0.14197241
#
# Stress axis : x y z
#
# Youngs Moduli (GPa) = 29.81969 25.17192 32.74562
#
# Poissons Ratio (x) = -0.01188 -0.55568
# Poissons Ratio (y) = -0.01407 -0.05385
# Poissons Ratio (z) = -0.50603 -0.04140
#
# Static dielectric constant tensor:
#      x y z
#    x 1.699470 0.000000 -0.007780 
#    y 0.000000 1.678200 0.000000 
#    z -0.007780 0.000000 1.705450 
# 
# From -- ./inp_files/342534.got.cif
#   From: 2010.05.17/outbox.ucp.g08.bks.cvg/sg12_172_cif.got.tgz:342534.got - 2010.06.11 11:47:21.
