data_PCOD9224694
_publ_section_title
;
Structure prediction by ZEFSAII (Michael W. Deem and Ramdas Pophale) SiO2 
 PCOD9224694
Probable space group: C 2/M
;
_chemical_formula_sum "Si O2"
_cell_formula_units_Z 32
_cell_length_a 30.000000
_cell_length_b 9.000000
_cell_length_c 24.000000
_cell_angle_alpha 90.000000
_cell_angle_beta 30.000000
_cell_angle_gamma 90.000000
_cell_volume 3240.000000
_symmetry_space_group_name_H-M "C 2/M"
_symmetry_group_IT_number 12
_symmetry_cell_setting 'monoclinic'
loop_
_space_group_symop_operation_xyz
x,y,z
-x,y,-z
-x,-y,-z
x,-y,z
1/2+x,1/2+y,z
1/2-x,1/2+y,-z
1/2-x,1/2-y,-z
1/2+x,1/2-y,z
loop_
_atom_site_type_symbol
_atom_site_label
_atom_site_fract_x
_atom_site_fract_y
_atom_site_fract_z
Si Si1 0.186565 0.827108 0.151715
Si Si2 0.355860 0.323430 0.503488
Si Si3 0.041667 0.676375 0.704476
Si Si4 0.917797 0.178315 0.629258
Si Si5 0.787690 0.322018 0.688139
Si Si6 0.913557 0.821630 0.128587
Si Si7 0.637598 0.671683 0.073441
Si Si8 0.847040 0.675040 0.310233
O O1 0.105833 0.778819 0.280696
O O2 0.159853 0.822355 0.115587
O O3 0.206260 0.000000 0.143841
O O4 0.278462 0.733208 0.052649
O O5 0.368205 0.500000 0.499994
O O6 0.431849 0.262001 0.380535
O O7 0.344563 0.236543 0.573632
O O8 0.258315 0.297491 0.581776
O O9 0.037630 0.500000 0.698253
O O10 0.119014 0.710373 0.665228
O O11 0.951371 0.730562 0.832015
O O12 0.829437 0.236062 0.694425
O O13 0.000000 0.232657 0.500000
O O14 0.926084 0.000000 0.620361
O O15 0.796130 0.500000 0.683860
O O16 0.683017 0.284929 0.793862
O O17 0.903027 0.759633 0.202372
O O18 0.080913 0.000000 0.874505
O O19 0.000000 0.769083 0.000000
O O20 0.620537 0.500000 0.077033
O O21 0.860825 0.500000 0.285679
#
# Coordination Sequence:
#
# PCOD9224694 Si02
#       8
#     8   8   8   8   8   8   8   8
#     4   9  20  40  60  81 113 148 188 238 288 336
#     4  10  20  36  57  79 110 151 191 229 277 339
#     4  11  22  35  54  84 116 145 184 233 282 333
#     4  10  22  39  61  86 114 153 194 239 292 347
#     4  10  21  37  56  84 116 148 188 237 290 342
#     4   9  19  36  57  80 111 149 187 230 281 337
#     4  10  21  37  59  85 111 150 193 232 285 343
#     4   9  20  36  53  78 111 146 185 230 277 330
#
# _framework density 9.8765429999999999
#
# number of rings (size 3 to 8) (size 9 to 14) (size 15 to 20)
#    0.000    2.250    0.000    1.875    1.750    4.500 
#    0.000    2.500    0.000    0.000    0.000    0.000 
#    0.000    0.000    0.000    0.000    0.000    0.000 
#
# Total GULP energy -178453.215596 kJ/mol
# GULP energy per Si atom -5576.662987 kJ/mol
# Density = 0.985406 g / cm^3
# Si number density = 9.876543 Si / 1000 Ang^3
#
#
#
# Elastic Constant Matrix: (Units=GPa)
#
#
# Indices 1 2 3 4 5 6 
#
# 1 39.4504 3.3778 14.4835 -0.0030 4.8886 -0.0001
# 2 3.3778 -6.8518 21.2878 0.0024 7.9787 -0.0018
# 3 14.4835 21.2878 127.3061 -0.0010 22.9845 0.0019
# 4 -0.0030 0.0024 -0.0010 36.1975 0.0001 2.3560
# 5 4.8886 7.9787 22.9845 0.0001 19.8875 -0.0009
# 6 -0.0001 -0.0018 0.0019 2.3560 -0.0009 19.8000
#
#
#
# Elastic Compliance Matrix: (Units=1/GPa)
#
#
# Indices 1 2 3 4 5 6 
#
# 1 0.026677 0.000832 -0.002439 0.000002 -0.004073 0.000000
# 2 0.000832 -0.086945 0.010341 0.000007 0.022725 -0.000009
# 3 -0.002439 0.010341 0.008902 -0.000001 -0.013837 0.000000
# 4 0.000002 0.000007 -0.000001 0.027842 -0.000003 -0.003313
# 5 -0.004073 0.022725 -0.013837 -0.000003 0.058159 0.000006
# 6 0.000000 -0.000009 0.000000 -0.003313 0.000006 0.050899
#
#
# Mechanical properties :
#
#
# Convention : Reuss Voigt Hill
#
# Bulk Modulus (GPa) = -29.50033 26.46700 -1.51667
# Shear Modulus (GPa) = 88.08056 23.22736 55.65396
#
# Velocity S-wave (km/s) = 6.68488 3.43284 5.31375
# Velocity P-wave (km/s) = 6.67956 5.39819 6.07277
#
# Compressibility (1/GPa) = -0.03389792
#
# Stress axis : x y z
#
# Youngs Moduli (GPa) = 37.48534 -11.50157 112.34040
#
# Poissons Ratio (x) = 0.00957 0.27398
# Poissons Ratio (y) = -0.03118 -1.16172
# Poissons Ratio (z) = 0.09142 0.11894
#
# Static dielectric constant tensor:
#      x y z
#    x 1.790070 0.000000 -0.017090 
#    y 0.000000 1.661740 0.000000 
#    z -0.017090 0.000000 1.689430 
# 
# From -- ./inp_files/353338.got.cif
#   From: 2010.05.17/outbox.ucp.g08.bks.cvg/sg12_177_cif.got.tgz:353338.got - 2010.06.11 11:47:21.
