data_PCOD9224255
_publ_section_title
;
Structure prediction by ZEFSAII (Michael W. Deem and Ramdas Pophale) SiO2 
 PCOD9224255
Probable space group: C 2/M
;
_chemical_formula_sum "Si O2"
_cell_formula_units_Z 32
_cell_length_a 15.000000
_cell_length_b 9.000000
_cell_length_c 30.000000
_cell_angle_alpha 90.000000
_cell_angle_beta 50.000000
_cell_angle_gamma 90.000000
_cell_volume 3102.479995
_symmetry_space_group_name_H-M "C 2/M"
_symmetry_group_IT_number 12
_symmetry_cell_setting 'monoclinic'
loop_
_space_group_symop_operation_xyz
x,y,z
-x,y,-z
-x,-y,-z
x,-y,z
1/2+x,1/2+y,z
1/2-x,1/2+y,-z
1/2-x,1/2-y,-z
1/2+x,1/2-y,z
loop_
_atom_site_type_symbol
_atom_site_label
_atom_site_fract_x
_atom_site_fract_y
_atom_site_fract_z
Si Si1 0.726263 0.323650 0.181414
Si Si2 0.162752 0.671739 0.389507
Si Si3 0.761095 0.173799 0.260522
Si Si4 0.472571 0.322032 0.823843
Si Si5 0.699021 0.829481 0.584193
Si Si6 0.187392 0.665716 0.059540
Si Si7 0.567717 0.670937 0.550969
Si Si8 0.895451 0.831983 0.063804
O O1 0.734407 0.500000 0.176748
O O2 0.712208 0.267832 0.235810
O O3 0.614558 0.276636 0.187889
O O4 0.843904 0.256002 0.122071
O O5 0.144465 0.500000 0.406898
O O6 0.190639 0.686740 0.328545
O O7 0.271164 0.733881 0.382343
O O8 0.045767 0.762914 0.435545
O O9 0.894478 0.220346 0.226349
O O10 0.762166 0.000000 0.246973
O O11 0.466432 0.500000 0.829204
O O12 0.421136 0.251866 0.885163
O O13 0.599828 0.763392 0.584657
O O14 0.818675 0.822303 0.516878
O O15 0.675257 0.000000 0.602841
O O16 0.154126 0.500000 0.056698
O O17 0.285068 0.658199 0.066520
O O18 0.250000 0.750000 0.000000
O O19 0.547250 0.500000 0.569022
O O20 0.930897 0.000000 0.065801
O O21 0.000000 0.767779 0.000000
#
# Coordination Sequence:
#
# PCOD9224255 Si02
#       8
#     8   8   8   8   8   8   8   8
#     4  10  21  37  58  84 110 140 184 239 288 332
#     4  11  23  38  58  88 121 157 204 251 297 351
#     4  10  23  41  60  81 111 155 197 233 285 349
#     4   9  20  40  59  76 107 147 184 226 280 339
#     4  10  21  38  61  90 123 160 201 246 298 353
#     4  10  20  33  52  80 109 137 173 219 274 335
#     4  10  21  38  61  89 123 162 200 244 300 355
#     4   9  19  35  54  76 104 142 178 213 273 346
#
# _framework density 10.314329000000001
#
# number of rings (size 3 to 8) (size 9 to 14) (size 15 to 20)
#    0.000    2.125    0.000    2.250    1.750    6.750 
#    0.000    1.250    0.000    0.000    0.000    0.000 
#    0.000    0.000    0.000    0.000    0.000    0.000 
#
# Total GULP energy -178682.777807 kJ/mol
# GULP energy per Si atom -5583.836806 kJ/mol
# Density = 1.029085 g / cm^3
# Si number density = 10.314329 Si / 1000 Ang^3
#
#
#
# Elastic Constant Matrix: (Units=GPa)
#
#
# Indices 1 2 3 4 5 6 
#
# 1 62.4323 19.3698 6.3362 0.0000 1.7745 0.0000
# 2 19.3698 17.4932 13.6572 0.0000 -4.2421 0.0000
# 3 6.3362 13.6572 12.9197 0.0000 -8.5880 0.0000
# 4 0.0000 0.0000 0.0000 21.7485 0.0000 6.5634
# 5 1.7745 -4.2421 -8.5880 0.0000 21.7571 0.0000
# 6 0.0000 0.0000 0.0000 6.5634 0.0000 23.4911
#
#
#
# Elastic Compliance Matrix: (Units=1/GPa)
#
#
# Indices 1 2 3 4 5 6 
#
# 1 -0.059605 0.405134 -0.465403 0.000000 -0.099852 0.000001
# 2 0.405134 -2.128268 2.376936 0.000001 0.490226 -0.000004
# 3 -0.465403 2.376936 -2.540177 -0.000001 -0.501260 0.000004
# 4 0.000000 0.000001 -0.000001 0.050214 0.000000 -0.014030
# 5 -0.099852 0.490226 -0.501260 0.000000 -0.048171 0.000001
# 6 0.000001 -0.000004 0.000004 -0.014030 0.000001 0.046489
#
#
# Mechanical properties :
#
#
# Convention : Reuss Voigt Hill
#
# Bulk Modulus (GPa) = -10.55797 19.06352 4.25277
# Shear Modulus (GPa) = -0.53508 16.96482 8.21487
#
# Velocity S-wave (km/s) = -0.50985 2.87085 1.99773
# Velocity P-wave (km/s) = 2.34005 4.50004 2.71795
#
# Compressibility (1/GPa) = -0.09471519
#
# Stress axis : x y z
#
# Youngs Moduli (GPa) = -16.77714 -0.46987 -0.39367
#
# Poissons Ratio (x) = 0.19036 -0.18322
# Poissons Ratio (y) = 6.79698 0.93574
# Poissons Ratio (z) = -7.80813 1.11684
#
# Static dielectric constant tensor:
#      x y z
#    x 1.755350 0.000000 0.016550 
#    y 0.000000 1.722400 0.000000 
#    z 0.016550 0.000000 1.728600 
# 
# From -- ./inp_files/375464.got.cif
#   From: 2010.05.17/outbox.ucp.g08.bks.cvg/sg12_188_cif.got.tgz:375464.got - 2010.06.11 11:47:21.
