data_PCOD9224519
_publ_section_title
;
Structure prediction by ZEFSAII (Michael W. Deem and Ramdas Pophale) SiO2 
 PCOD9224519
Probable space group: C 2/M
;
_chemical_formula_sum "Si O2"
_cell_formula_units_Z 28
_cell_length_a 30.000000
_cell_length_b 9.000000
_cell_length_c 12.000000
_cell_angle_alpha 90.000000
_cell_angle_beta 120.000000
_cell_angle_gamma 90.000000
_cell_volume 2805.922308
_symmetry_space_group_name_H-M "C 2/M"
_symmetry_group_IT_number 12
_symmetry_cell_setting 'monoclinic'
loop_
_space_group_symop_operation_xyz
x,y,z
-x,y,-z
-x,-y,-z
x,-y,z
1/2+x,1/2+y,z
1/2-x,1/2+y,-z
1/2-x,1/2-y,-z
1/2+x,1/2-y,z
loop_
_atom_site_type_symbol
_atom_site_label
_atom_site_fract_x
_atom_site_fract_y
_atom_site_fract_z
Si Si1 0.194231 0.323673 0.177591
Si Si2 0.300673 0.172955 0.364868
Si Si3 0.641440 0.827154 0.343444
Si Si4 0.551570 0.677975 0.365821
Si Si5 0.977231 0.820799 0.087859
Si Si6 0.605476 0.320709 0.646552
Si Si7 0.374042 0.677554 0.075810
O O1 0.202472 0.500000 0.186897
O O2 0.245940 0.236787 0.267292
O O3 0.157394 0.291573 0.238030
O O4 0.173028 0.268252 0.032839
O O5 0.311496 0.184639 0.510680
O O6 0.343056 0.265075 0.349668
O O7 0.305791 0.000000 0.341636
O O8 0.599361 0.720849 0.346328
O O9 0.623679 0.000000 0.325379
O O10 0.546582 0.500000 0.367665
O O11 0.504811 0.736882 0.233989
O O12 0.561448 0.732023 0.504233
O O13 0.917976 0.796464 0.038326
O O14 0.985084 0.000000 0.095437
O O15 0.000000 0.762039 0.000000
O O16 0.603449 0.500000 0.644790
O O17 0.606971 0.275662 0.777561
O O18 0.363583 0.500000 0.066776
#
# Coordination Sequence:
#
# PCOD9224519 Si02
#       7
#     8   8   8   8   8   8   8
#     4  11  22  35  52  76 106 137 172 215 260 306
#     4  10  20  35  56  78 102 135 172 211 259 312
#     4   9  19  34  52  78 108 135 167 210 259 311
#     4   9  17  31  54  79 104 137 173 212 256 301
#     4   9  17  30  51  80 108 134 169 211 254 303
#     4   9  19  35  53  76 104 135 175 217 255 299
#     4  10  21  36  53  74 104 140 176 214 255 303
#
# _framework density 9.9788940000000004
#
# number of rings (size 3 to 8) (size 9 to 14) (size 15 to 20)
#    0.000    2.429    0.000    2.143    0.000    4.571 
#    0.000    3.571    0.000    2.571    0.000    5.000 
#    0.000    0.000    0.000    0.000    0.000    0.000 
#
# Total GULP energy -155977.080762 kJ/mol
# GULP energy per Si atom -5570.610027 kJ/mol
# Density = 0.995618 g / cm^3
# Si number density = 9.978894 Si / 1000 Ang^3
#
#
#
# Elastic Constant Matrix: (Units=GPa)
#
#
# Indices 1 2 3 4 5 6 
#
# 1 -42.2612 -16.2163 -8.4554 0.0000 -32.7174 0.0000
# 2 -16.2163 -29.3814 5.2558 0.0000 -1.4809 0.0000
# 3 -8.4554 5.2558 110.4161 0.0000 -18.1560 0.0000
# 4 0.0000 0.0000 0.0000 17.1151 0.0000 -10.1697
# 5 -32.7174 -1.4809 -18.1560 0.0000 22.4255 0.0000
# 6 0.0000 0.0000 0.0000 -10.1697 0.0000 7.7793
#
#
#
# Elastic Compliance Matrix: (Units=1/GPa)
#
#
# Indices 1 2 3 4 5 6 
#
# 1 -0.010738 0.006119 -0.004180 0.000000 -0.018647 0.000000
# 2 0.006119 -0.037212 0.003811 0.000000 0.009555 0.000000
# 3 -0.004180 0.003811 0.008760 0.000000 0.001246 0.000000
# 4 0.000000 0.000000 0.000000 0.261750 0.000000 0.342181
# 5 -0.018647 0.009555 0.001246 0.000000 0.019028 0.000000
# 6 0.000000 0.000000 0.000000 0.342181 0.000000 0.575873
#
#
# Mechanical properties :
#
#
# Convention : Reuss Voigt Hill
#
# Bulk Modulus (GPa) = -36.11434 -0.00646 -18.06040
# Shear Modulus (GPa) = 6.27565 13.34326 9.80946
#
# Velocity S-wave (km/s) = 1.77519 2.58849 2.21941
# Velocity P-wave (km/s) = 3.73268 2.98838 1.58153
#
# Compressibility (1/GPa) = -0.02768983
#
# Stress axis : x y z
#
# Youngs Moduli (GPa) = -93.12349 -26.87293 114.15440
#
# Poissons Ratio (x) = 0.16443 0.47713
# Poissons Ratio (y) = 0.56982 -0.43505
# Poissons Ratio (z) = -0.38923 0.10241
#
# Static dielectric constant tensor:
#      x y z
#    x 1.763500 0.000000 0.089590 
#    y 0.000000 1.665240 0.000000 
#    z 0.089590 0.000000 1.794060 
# 
# From -- ./inp_files/180621.got.cif
#   From: 2010.05.17/outbox.ucp.g08.bks.cvg/sg12_91_cif.got.tgz:180621.got - 2010.06.11 11:47:21.
