data_PCOD9224756
_publ_section_title
;
Structure prediction by ZEFSAII (Michael W. Deem and Ramdas Pophale) SiO2 
 PCOD9224756
Probable space group: C 2/M
;
_chemical_formula_sum "Si O2"
_cell_formula_units_Z 32
_cell_length_a 30.000000
_cell_length_b 9.000000
_cell_length_c 18.000000
_cell_angle_alpha 90.000000
_cell_angle_beta 40.000000
_cell_angle_gamma 90.000000
_cell_volume 3123.947783
_symmetry_space_group_name_H-M "C 2/M"
_symmetry_group_IT_number 12
_symmetry_cell_setting 'monoclinic'
loop_
_space_group_symop_operation_xyz
x,y,z
-x,y,-z
-x,-y,-z
x,-y,z
1/2+x,1/2+y,z
1/2-x,1/2+y,-z
1/2-x,1/2-y,-z
1/2+x,1/2-y,z
loop_
_atom_site_type_symbol
_atom_site_label
_atom_site_fract_x
_atom_site_fract_y
_atom_site_fract_z
Si Si1 0.544124 0.323612 0.294554
Si Si2 0.951644 0.180537 0.878942
Si Si3 0.415530 0.176742 0.521140
Si Si4 0.909385 0.821373 0.230840
Si Si5 0.800619 0.324774 0.272312
Si Si6 0.839582 0.322942 0.773370
Si Si7 0.341137 0.676823 0.475500
Si Si8 0.299769 0.678803 0.117724
O O1 0.536939 0.500000 0.309268
O O2 0.528158 0.276460 0.230518
O O3 0.491800 0.245524 0.417867
O O4 0.620965 0.271292 0.215905
O O5 0.011256 0.225133 0.859612
O O6 0.950174 0.000000 0.880477
O O7 0.875485 0.232039 0.997384
O O8 0.375103 0.213115 0.648324
O O9 0.376953 0.240144 0.498078
O O10 0.419976 0.000000 0.511085
O O11 0.870896 0.745529 0.212468
O O12 0.870752 0.781657 0.357507
O O13 0.905825 0.000000 0.227105
O O14 0.806552 0.500000 0.254569
O O15 0.740440 0.296491 0.409670
O O16 0.780424 0.249450 0.220937
O O17 0.848196 0.500000 0.775086
O O18 0.758986 0.287302 0.867224
O O19 0.354426 0.500000 0.467633
O O20 0.300653 0.500000 0.125516
#
# Coordination Sequence:
#
# PCOD9224756 Si02
#       8
#     8   8   8   8   8   8   8   8
#     4  11  22  38  60  87 117 151 191 236 287 339
#     4   9  20  39  62  84 109 149 201 241 276 337
#     4  11  21  35  58  87 118 151 188 231 284 345
#     4  10  20  38  61  84 114 152 193 234 281 345
#     4  11  23  37  57  89 121 148 187 239 290 340
#     4  10  22  38  57  86 118 149 190 236 284 343
#     4  10  20  36  59  85 117 151 188 233 284 344
#     4  10  21  41  63  81 110 155 198 237 282 338
#
# _framework density 10.243449
#
# number of rings (size 3 to 8) (size 9 to 14) (size 15 to 20)
#    0.000    1.750    2.500    1.875    0.000    5.000 
#    0.000    4.375    0.000    0.000    0.000    0.000 
#    0.000    0.000    0.000    0.000    0.000    0.000 
#
# Total GULP energy -178743.121498 kJ/mol
# GULP energy per Si atom -5585.722547 kJ/mol
# Density = 1.022013 g / cm^3
# Si number density = 10.243449 Si / 1000 Ang^3
#
#
#
# Elastic Constant Matrix: (Units=GPa)
#
#
# Indices 1 2 3 4 5 6 
#
# 1 86.6766 11.7363 -3.6872 0.0022 -27.0720 0.0002
# 2 11.7363 -15.3968 9.0731 0.0253 -9.2768 -0.0016
# 3 -3.6872 9.0731 42.6580 0.0103 -27.6516 0.0007
# 4 0.0022 0.0253 0.0103 13.9214 -0.0032 -0.5958
# 5 -27.0720 -9.2768 -27.6516 -0.0032 27.4418 -0.0019
# 6 0.0002 -0.0016 0.0007 -0.5958 -0.0019 28.2247
#
#
#
# Elastic Compliance Matrix: (Units=1/GPa)
#
#
# Indices 1 2 3 4 5 6 
#
# 1 -0.216143 -0.023432 -0.452831 0.000253 -0.677446 -0.000029
# 2 -0.023432 -0.056484 -0.050094 0.000122 -0.092688 -0.000005
# 3 -0.452831 -0.050094 -0.881134 0.000498 -1.351537 -0.000058
# 4 0.000253 0.000122 0.000498 0.071896 0.000801 0.001518
# 5 -0.677446 -0.092688 -1.351537 0.000801 -2.025084 -0.000086
# 6 -0.000029 -0.000005 -0.000058 0.001518 -0.000086 0.035462
#
#
# Mechanical properties :
#
#
# Convention : Reuss Voigt Hill
#
# Bulk Modulus (GPa) = -0.45321 16.46470 8.00574
# Shear Modulus (GPa) = -1.81537 20.37194 9.27829
#
# Velocity S-wave (km/s) = -0.94236 3.15681 2.13043
# Velocity P-wave (km/s) = 1.18564 4.61968 3.15719
#
# Compressibility (1/GPa) = -2.20647477
#
# Stress axis : x y z
#
# Youngs Moduli (GPa) = -4.62658 -17.70419 -1.13490
#
# Poissons Ratio (x) = -0.41485 -0.51392
# Poissons Ratio (y) = -0.10841 -0.05685
# Poissons Ratio (z) = -2.09506 -0.88687
#
# Static dielectric constant tensor:
#      x y z
#    x 1.744690 0.000000 -0.049970 
#    y 0.000000 1.678880 0.000000 
#    z -0.049970 0.000000 1.750740 
# 
# From -- ./inp_files/295476.got.cif
#   From: 2010.05.17/outbox.ucp.g08.bks.cvg/sg12_148_cif.got.tgz:295476.got - 2010.06.11 11:47:21.
