data_PCOD9224134
_publ_section_title
;
Structure prediction by ZEFSAII (Michael W. Deem and Ramdas Pophale) SiO2 
 PCOD9224134
Probable space group: C 2/M
;
_chemical_formula_sum "Si O2"
_cell_formula_units_Z 32
_cell_length_a 24.000000
_cell_length_b 18.000000
_cell_length_c 15.000000
_cell_angle_alpha 90.000000
_cell_angle_beta 150.000000
_cell_angle_gamma 90.000000
_cell_volume 3240.000000
_symmetry_space_group_name_H-M "C 2/M"
_symmetry_group_IT_number 12
_symmetry_cell_setting 'monoclinic'
loop_
_space_group_symop_operation_xyz
x,y,z
-x,y,-z
-x,-y,-z
x,-y,z
1/2+x,1/2+y,z
1/2-x,1/2+y,-z
1/2-x,1/2-y,-z
1/2+x,1/2-y,z
loop_
_atom_site_type_symbol
_atom_site_label
_atom_site_fract_x
_atom_site_fract_y
_atom_site_fract_z
Si Si1 0.358752 0.588569 0.645046
Si Si2 0.239197 0.410453 0.001143
Si Si3 0.731438 0.674608 0.642944
Si Si4 0.749205 0.149759 0.671478
Si Si5 0.877600 0.085137 0.370035
Si Si6 0.120793 0.090005 0.977788
Si Si7 0.992261 0.410714 0.702597
Si Si8 0.932250 0.415204 0.997612
O O1 0.343916 0.500000 0.612731
O O2 0.282500 0.633663 0.470328
O O3 0.318722 0.611787 0.687734
O O4 0.488972 0.606655 0.805975
O O5 0.234647 0.500000 0.988178
O O6 0.110087 0.384791 0.822853
O O7 0.294707 0.395717 0.173910
O O8 0.320143 0.386004 0.033048
O O9 0.744848 0.761817 0.652627
O O10 0.629423 0.644770 0.561283
O O11 0.833759 0.640638 0.839973
O O12 0.621427 0.122056 0.492914
O O13 0.810580 0.127151 0.847318
O O14 0.000000 0.084374 0.500000
O O15 0.855864 0.000000 0.372364
O O16 0.130037 0.000000 0.997102
O O17 0.986339 0.500000 0.684786
O O18 0.001076 0.394160 0.820966
O O19 0.892561 0.500000 0.958983
O O20 0.000000 0.416580 0.000000
#
# Coordination Sequence:
#
# PCOD9224134 Si02
#       8
#     8   8   8   8   8   8   8   8
#     4  11  23  43  69  90 118 160 217 272 308 364
#     4   9  18  36  64  94 119 154 209 264 309 353
#     4  12  24  39  60  96 130 161 198 252 325 390
#     4  12  26  40  58  91 130 173 204 251 317 380
#     4  10  19  37  65  94 125 160 209 265 311 368
#     4  10  22  42  67  92 117 162 223 269 305 357
#     4  10  20  38  62  87 123 166 212 260 302 365
#     4  10  20  36  62  92 120 157 206 256 312 375
#
# _framework density 9.8765429999999999
#
# number of rings (size 3 to 8) (size 9 to 14) (size 15 to 20)
#    0.000    1.500    1.250    4.500    0.000    6.500 
#    2.250    2.500    0.000    0.000    0.000    0.000 
#    0.000    0.000    0.000    0.000    0.000    0.000 
#
# Total GULP energy -178710.393030 kJ/mol
# GULP energy per Si atom -5584.699782 kJ/mol
# Density = 0.985406 g / cm^3
# Si number density = 9.876543 Si / 1000 Ang^3
#
#
#
# Elastic Constant Matrix: (Units=GPa)
#
#
# Indices 1 2 3 4 5 6 
#
# 1 90.3270 14.3712 7.8746 0.0000 5.6912 0.0000
# 2 14.3712 65.2537 35.4981 0.0000 0.6945 0.0000
# 3 7.8746 35.4981 86.9522 0.0000 5.5136 0.0000
# 4 0.0000 0.0000 0.0000 -60.5441 0.0000 -1.9995
# 5 5.6912 0.6945 5.5136 0.0000 35.5661 0.0000
# 6 0.0000 0.0000 0.0000 -1.9995 0.0000 10.2852
#
#
#
# Elastic Compliance Matrix: (Units=1/GPa)
#
#
# Indices 1 2 3 4 5 6 
#
# 1 0.011589 -0.002603 0.000129 0.000000 -0.001824 0.000000
# 2 -0.002603 0.020311 -0.008138 0.000000 0.001281 0.000000
# 3 0.000129 -0.008138 0.014949 0.000000 -0.002179 0.000000
# 4 0.000000 0.000000 0.000000 -0.016412 0.000000 -0.003191
# 5 -0.001824 0.001281 -0.002179 0.000000 0.028721 0.000000
# 6 0.000000 0.000000 0.000000 -0.003191 0.000000 0.096607
#
#
# Mechanical properties :
#
#
# Convention : Reuss Voigt Hill
#
# Bulk Modulus (GPa) = 39.02318 39.78008 39.40163
# Shear Modulus (GPa) = 26.94960 9.38068 18.16514
#
# Velocity S-wave (km/s) = 3.69768 2.18158 3.03580
# Velocity P-wave (km/s) = 6.16675 5.15054 5.68141
#
# Compressibility (1/GPa) = 0.02562579
#
# Stress axis : x y z
#
# Youngs Moduli (GPa) = 86.29114 49.23372 66.89297
#
# Poissons Ratio (x) = 0.12815 -0.00861
# Poissons Ratio (y) = 0.22460 0.54435
# Poissons Ratio (z) = -0.01111 0.40064
#
# Static dielectric constant tensor:
#      x y z
#    x 1.755060 0.000000 0.033120 
#    y 0.000000 1.657090 0.000000 
#    z 0.033120 0.000000 1.698820 
# 
# From -- ./inp_files/241541.got.cif
#   From: 2010.05.17/outbox.ucp.g08.bks.cvg/sg12_121_cif.got.tgz:241541.got - 2010.06.11 11:47:21.
