data_PCOD9224968
_publ_section_title
;
Structure prediction by ZEFSAII (Michael W. Deem and Ramdas Pophale) SiO2 
 PCOD9224968
Probable space group: C 2/M
;
_chemical_formula_sum "Si O2"
_cell_formula_units_Z 32
_cell_length_a 30.000000
_cell_length_b 9.000000
_cell_length_c 15.000000
_cell_angle_alpha 90.000000
_cell_angle_beta 60.000000
_cell_angle_gamma 90.000000
_cell_volume 3507.402885
_symmetry_space_group_name_H-M "C 2/M"
_symmetry_group_IT_number 12
_symmetry_cell_setting 'monoclinic'
loop_
_space_group_symop_operation_xyz
x,y,z
-x,y,-z
-x,-y,-z
x,-y,z
1/2+x,1/2+y,z
1/2-x,1/2+y,-z
1/2-x,1/2-y,-z
1/2+x,1/2-y,z
loop_
_atom_site_type_symbol
_atom_site_label
_atom_site_fract_x
_atom_site_fract_y
_atom_site_fract_z
Si Si1 0.662766 0.822274 0.838379
Si Si2 0.026697 0.175057 0.568386
Si Si3 0.295119 0.322107 0.896250
Si Si4 0.899172 0.679781 0.270469
Si Si5 0.116286 0.176692 0.057970
Si Si6 0.512101 0.178390 0.217434
Si Si7 0.365983 0.821658 0.497472
Si Si8 0.282747 0.323158 0.704541
O O1 0.626826 0.768630 0.793911
O O2 0.722013 0.800357 0.752928
O O3 0.655583 0.000000 0.859896
O O4 0.648099 0.737547 0.942504
O O5 0.082318 0.252227 0.512665
O O6 0.000000 0.190543 0.500000
O O7 0.993360 0.252978 0.678659
O O8 0.032159 0.000000 0.583187
O O9 0.286717 0.500000 0.905270
O O10 0.349302 0.291048 0.889268
O O11 0.294654 0.273829 0.794027
O O12 0.250000 0.250000 0.000000
O O13 0.897776 0.500000 0.269515
O O14 0.868760 0.723601 0.390427
O O15 0.958702 0.722092 0.222432
O O16 0.061881 0.257670 0.119655
O O17 0.109320 0.000000 0.058533
O O18 0.514238 0.000000 0.220003
O O19 0.317135 0.761319 0.598813
O O20 0.368450 0.000000 0.499507
O O21 0.293445 0.500000 0.687527
#
# Coordination Sequence:
#
# PCOD9224968 Si02
#       8
#     8   8   8   8   8   8   8   8
#     4  10  20  38  62  82 107 148 194 234 278 335
#     4  10  21  37  57  81 112 147 185 232 282 329
#     4  10  21  37  56  79 112 148 184 229 280 331
#     4   8  18  38  60  82 110 144 185 237 284 322
#     4  11  23  37  55  84 119 149 184 232 282 333
#     4  10  21  38  59  83 113 147 188 230 276 336
#     4  10  21  37  57  83 115 149 186 229 277 333
#     4  10  21  36  56  84 113 147 188 228 278 338
#
# _framework density 9.1235599999999994
#
# number of rings (size 3 to 8) (size 9 to 14) (size 15 to 20)
#    0.000    2.125    1.250    2.250    1.750    3.500 
#    0.000    6.250    0.000    0.000    0.000    0.000 
#    0.000    0.000    0.000    0.000    0.000    0.000 
#
# Total GULP energy -178611.668657 kJ/mol
# GULP energy per Si atom -5581.614646 kJ/mol
# Density = 0.910279 g / cm^3
# Si number density = 9.123560 Si / 1000 Ang^3
#
#
#
# Elastic Constant Matrix: (Units=GPa)
#
#
# Indices 1 2 3 4 5 6 
#
# 1 47.8023 25.0933 10.3600 0.0000 6.4613 0.0000
# 2 25.0933 44.7797 12.8991 0.0000 -7.7414 0.0000
# 3 10.3600 12.8991 4.6831 0.0000 -23.9111 0.0000
# 4 0.0000 0.0000 0.0000 27.8218 0.0000 -9.1335
# 5 6.4613 -7.7414 -23.9111 0.0000 24.8019 0.0000
# 6 0.0000 0.0000 0.0000 -9.1335 0.0000 22.4248
#
#
#
# Elastic Compliance Matrix: (Units=1/GPa)
#
#
# Indices 1 2 3 4 5 6 
#
# 1 0.026465 -0.019271 0.018198 0.000000 0.004635 0.000000
# 2 -0.019271 0.036775 -0.006522 0.000000 0.010211 0.000000
# 3 0.018198 -0.006522 -0.039934 0.000000 -0.045276 0.000000
# 4 0.000000 0.000000 0.000000 0.041491 0.000000 0.016899
# 5 0.004635 0.010211 -0.045276 0.000000 -0.001351 0.000000
# 6 0.000000 0.000000 0.000000 0.016899 0.000000 0.051476
#
#
# Mechanical properties :
#
#
# Convention : Reuss Voigt Hill
#
# Bulk Modulus (GPa) = 123.21341 21.55222 72.38282
# Shear Modulus (GPa) = 37.64583 18.27056 27.95819
#
# Velocity S-wave (km/s) = 4.54708 3.16774 3.91858
# Velocity P-wave (km/s) = 9.75906 5.02159 7.76066
#
# Compressibility (1/GPa) = 0.00811600
#
# Stress axis : x y z
#
# Youngs Moduli (GPa) = 37.78532 27.19273 -25.04119
#
# Poissons Ratio (x) = 0.52404 0.45570
# Poissons Ratio (y) = 0.72817 -0.16331
# Poissons Ratio (z) = -0.68762 0.17734
#
# Static dielectric constant tensor:
#      x y z
#    x 1.640000 0.000000 0.015220 
#    y 0.000000 1.612270 0.000000 
#    z 0.015220 0.000000 1.598070 
# 
# From -- ./inp_files/249097.got.cif
#   From: 2010.05.17/outbox.ucp.g08.bks.cvg/sg12_125_cif.got.tgz:249097.got - 2010.06.11 11:47:21.
