data_PCOD9224876
_publ_section_title
;
Structure prediction by ZEFSAII (Michael W. Deem and Ramdas Pophale) SiO2 
 PCOD9224876
Probable space group: C 2/M
;
_chemical_formula_sum "Si O2"
_cell_formula_units_Z 32
_cell_length_a 24.000000
_cell_length_b 9.000000
_cell_length_c 30.000000
_cell_angle_alpha 90.000000
_cell_angle_beta 30.000000
_cell_angle_gamma 90.000000
_cell_volume 3240.000000
_symmetry_space_group_name_H-M "C 2/M"
_symmetry_group_IT_number 12
_symmetry_cell_setting 'monoclinic'
loop_
_space_group_symop_operation_xyz
x,y,z
-x,y,-z
-x,-y,-z
x,-y,z
1/2+x,1/2+y,z
1/2-x,1/2+y,-z
1/2-x,1/2-y,-z
1/2+x,1/2-y,z
loop_
_atom_site_type_symbol
_atom_site_label
_atom_site_fract_x
_atom_site_fract_y
_atom_site_fract_z
Si Si1 0.635954 0.325064 0.595152
Si Si2 0.959602 0.672170 0.099503
Si Si3 0.938622 0.670758 0.218283
Si Si4 0.482796 0.821112 0.400398
Si Si5 0.249383 0.826562 0.608724
Si Si6 0.716240 0.326222 0.243511
Si Si7 0.704863 0.174028 0.911578
Si Si8 0.172977 0.678973 0.091422
O O1 0.631140 0.500000 0.587716
O O2 0.750000 0.250000 0.500000
O O3 0.541124 0.242009 0.632896
O O4 0.656667 0.311873 0.633429
O O5 0.949244 0.500000 0.091098
O O6 0.977414 0.674949 0.140156
O O7 0.835801 0.736523 0.177518
O O8 0.075567 0.728363 0.997995
O O9 0.922365 0.500000 0.243312
O O10 0.817197 0.745058 0.306345
O O11 0.045142 0.729567 0.172064
O O12 0.371767 0.775705 0.506368
O O13 0.601358 0.757946 0.334596
O O14 0.484163 0.000000 0.398267
O O15 0.262273 0.000000 0.609900
O O16 0.705587 0.500000 0.264865
O O17 0.734267 0.321826 0.177828
O O18 0.774874 0.266606 0.898519
O O19 0.698919 0.000000 0.930100
O O20 0.175025 0.500000 0.086657
O O21 0.250000 0.750000 0.000000
#
# Coordination Sequence:
#
# PCOD9224876 Si02
#       8
#     8   8   8   8   8   8   8   8
#     4   9  17  31  51  76 106 142 182 225 276 332
#     4   9  18  38  60  82 112 145 189 236 280 335
#     4  10  21  36  57  83 113 150 188 230 280 330
#     4  10  21  37  54  77 114 151 186 237 287 332
#     4   9  20  36  54  78 109 148 189 228 277 336
#     4  10  21  36  61  87 108 146 194 238 283 333
#     4  10  20  37  60  86 116 149 185 231 285 343
#     4  11  22  37  57  86 119 153 186 228 283 337
#
# _framework density 9.8765429999999999
#
# number of rings (size 3 to 8) (size 9 to 14) (size 15 to 20)
#    0.000    2.250    1.250    2.250    1.750    6.000 
#    0.000    1.875    0.000    5.250    0.000    0.000 
#    0.000    0.000    0.000    0.000    0.000    0.000 
#
# Total GULP energy -178284.091662 kJ/mol
# GULP energy per Si atom -5571.377864 kJ/mol
# Density = 0.985406 g / cm^3
# Si number density = 9.876543 Si / 1000 Ang^3
#
#
#
# Elastic Constant Matrix: (Units=GPa)
#
#
# Indices 1 2 3 4 5 6 
#
# 1 50.3922 8.1737 17.2439 -0.0006 -27.5256 0.0033
# 2 8.1737 27.9544 31.1347 0.0016 -3.1641 0.0040
# 3 17.2439 31.1347 134.2483 0.0002 -30.3163 -0.0005
# 4 -0.0006 0.0016 0.0002 26.9071 -0.0006 -6.4422
# 5 -27.5256 -3.1641 -30.3163 -0.0006 35.7400 0.0005
# 6 0.0033 0.0040 -0.0005 -6.4422 0.0005 21.9882
#
#
#
# Elastic Compliance Matrix: (Units=1/GPa)
#
#
# Indices 1 2 3 4 5 6 
#
# 1 0.038187 -0.013859 0.005781 0.000002 0.033087 -0.000003
# 2 -0.013859 0.054495 -0.015065 -0.000006 -0.018628 -0.000010
# 3 0.005781 -0.015065 0.013488 0.000002 0.014560 0.000002
# 4 0.000002 -0.000006 0.000002 0.039969 0.000003 0.011710
# 5 0.033087 -0.018628 0.014560 0.000003 0.064163 -0.000002
# 6 -0.000003 -0.000010 0.000002 0.011710 -0.000002 0.048910
#
#
# Mechanical properties :
#
#
# Convention : Reuss Voigt Hill
#
# Bulk Modulus (GPa) = 16.69893 36.18882 26.44387
# Shear Modulus (GPa) = 15.36289 27.32989 21.34639
#
# Velocity S-wave (km/s) = 2.79184 3.72368 3.29091
# Velocity P-wave (km/s) = 4.34334 6.07026 5.27791
#
# Compressibility (1/GPa) = 0.05988408
#
# Stress axis : x y z
#
# Youngs Moduli (GPa) = 26.18692 18.35023 74.13946
#
# Poissons Ratio (x) = 0.25432 -0.42859
# Poissons Ratio (y) = 0.36293 1.11690
# Poissons Ratio (z) = -0.15138 0.27644
#
# Static dielectric constant tensor:
#      x y z
#    x 1.747850 0.000000 0.016270 
#    y 0.000000 1.682580 0.000000 
#    z 0.016270 0.000000 1.717300 
# 
# From -- ./inp_files/382215.got.cif
#   From: 2010.05.17/outbox.ucp.g08.bks.cvg/sg12_192_cif.got.tgz:382215.got - 2010.06.11 11:47:21.
