data_PCOD9224418
_publ_section_title
;
Structure prediction by ZEFSAII (Michael W. Deem and Ramdas Pophale) SiO2 
 PCOD9224418
Probable space group: C 2/M
;
_chemical_formula_sum "Si O2"
_cell_formula_units_Z 28
_cell_length_a 24.000000
_cell_length_b 9.000000
_cell_length_c 18.000000
_cell_angle_alpha 90.000000
_cell_angle_beta 130.000000
_cell_angle_gamma 90.000000
_cell_volume 2978.380795
_symmetry_space_group_name_H-M "C 2/M"
_symmetry_group_IT_number 12
_symmetry_cell_setting 'monoclinic'
loop_
_space_group_symop_operation_xyz
x,y,z
-x,y,-z
-x,-y,-z
x,-y,z
1/2+x,1/2+y,z
1/2-x,1/2+y,-z
1/2-x,1/2-y,-z
1/2+x,1/2-y,z
loop_
_atom_site_type_symbol
_atom_site_label
_atom_site_fract_x
_atom_site_fract_y
_atom_site_fract_z
Si Si1 0.825185 0.168799 0.573324
Si Si2 0.604036 0.330086 0.529052
Si Si3 0.473083 0.170507 0.345390
Si Si4 0.172923 0.176248 0.741395
Si Si5 0.785488 0.819922 0.951802
Si Si6 0.952784 0.178296 0.035665
Si Si7 0.955532 0.328211 0.756778
O O1 0.750000 0.250000 0.500000
O O2 0.858695 0.166755 0.519392
O O3 0.877630 0.257090 0.673306
O O4 0.816904 0.000000 0.591933
O O5 0.580378 0.500000 0.526040
O O6 0.535417 0.224226 0.455678
O O7 0.659331 0.285880 0.642361
O O8 0.405307 0.280334 0.292081
O O9 0.503895 0.176886 0.288128
O O10 0.451710 0.000000 0.342756
O O11 0.232417 0.265608 0.839727
O O12 0.187501 0.000000 0.759843
O O13 0.868447 0.779292 0.991523
O O14 0.784006 0.000000 0.959550
O O15 0.750000 0.750000 0.000000
O O16 0.950158 0.000000 0.029183
O O17 0.000000 0.224778 0.000000
O O18 0.001721 0.236644 0.145150
O O19 0.949697 0.500000 0.774233
#
# Coordination Sequence:
#
# PCOD9224418 Si02
#       7
#     8   8   8   8   8   8   8
#     4  10  20  36  57  81 112 148 187 231 280 338
#     4   9  20  36  53  78 113 151 188 229 283 346
#     4  10  20  34  55  84 116 150 191 236 283 344
#     4  11  22  36  56  82 115 152 189 234 289 346
#     4  11  24  42  64  89 119 155 198 248 299 354
#     4  10  23  43  64  88 118 154 198 248 302 355
#     4  10  21  37  58  84 113 149 192 236 287 347
#
# _framework density 9.4010809999999996
#
# number of rings (size 3 to 8) (size 9 to 14) (size 15 to 20)
#    0.000    1.857    0.000    3.429    0.000   10.000 
#    0.000    2.857    0.000    0.000    0.000    0.000 
#    0.000    0.000    0.000    0.000    0.000    0.000 
#
# Total GULP energy -155976.781196 kJ/mol
# GULP energy per Si atom -5570.599328 kJ/mol
# Density = 0.937968 g / cm^3
# Si number density = 9.401081 Si / 1000 Ang^3
#
#
#
# Elastic Constant Matrix: (Units=GPa)
#
#
# Indices 1 2 3 4 5 6 
#
# 1 80.6993 26.4050 42.2516 0.0000 10.6122 0.0000
# 2 26.4050 21.4958 15.5162 0.0000 2.2239 0.0000
# 3 42.2516 15.5162 140.8532 0.0000 8.0014 0.0000
# 4 0.0000 0.0000 0.0000 36.2107 0.0000 0.2900
# 5 10.6122 2.2239 8.0014 0.0000 34.9203 0.0000
# 6 0.0000 0.0000 0.0000 0.2900 0.0000 25.2313
#
#
#
# Elastic Compliance Matrix: (Units=1/GPa)
#
#
# Indices 1 2 3 4 5 6 
#
# 1 0.023367 -0.025376 -0.003954 0.000000 -0.004579 0.000000
# 2 -0.025376 0.078231 -0.001176 0.000000 0.002999 0.000000
# 3 -0.003954 -0.001176 0.008453 0.000000 -0.000660 0.000000
# 4 0.000000 0.000000 0.000000 0.027619 0.000000 -0.000317
# 5 -0.004579 0.002999 -0.000660 0.000000 0.029989 0.000000
# 6 0.000000 0.000000 0.000000 -0.000317 0.000000 0.039637
#
#
# Mechanical properties :
#
#
# Convention : Reuss Voigt Hill
#
# Bulk Modulus (GPa) = 20.39212 45.71042 33.05127
# Shear Modulus (GPa) = 17.56529 29.86416 23.71472
#
# Velocity S-wave (km/s) = 3.05981 3.98972 3.55530
# Velocity P-wave (km/s) = 4.83243 6.75188 5.87113
#
# Compressibility (1/GPa) = 0.04903855
#
# Stress axis : x y z
#
# Youngs Moduli (GPa) = 42.79538 12.78273 118.30524
#
# Poissons Ratio (x) = 0.32437 0.46777
# Poissons Ratio (y) = 1.08597 0.13915
# Poissons Ratio (z) = 0.16921 0.01503
#
# Static dielectric constant tensor:
#      x y z
#    x 1.695700 0.000000 -0.004980 
#    y 0.000000 1.650750 0.000000 
#    z -0.004980 0.000000 1.627290 
# 
# From -- ./inp_files/288480.got.cif
#   From: 2010.05.17/outbox.ucp.g08.bks.cvg/sg12_145_cif.got.tgz:288480.got - 2010.06.11 11:47:21.
