data_PCOD9224144
_publ_section_title
;
Structure prediction by ZEFSAII (Michael W. Deem and Ramdas Pophale) SiO2 
 PCOD9224144
Probable space group: C 2/M
;
_chemical_formula_sum "Si O2"
_cell_formula_units_Z 32
_cell_length_a 15.000000
_cell_length_b 9.000000
_cell_length_c 24.000000
_cell_angle_alpha 90.000000
_cell_angle_beta 90.000000
_cell_angle_gamma 90.000000
_cell_volume 3240.000000
_symmetry_space_group_name_H-M "C 2/M"
_symmetry_group_IT_number 12
_symmetry_cell_setting 'monoclinic'
loop_
_space_group_symop_operation_xyz
x,y,z
-x,y,-z
-x,-y,-z
x,-y,z
1/2+x,1/2+y,z
1/2-x,1/2+y,-z
1/2-x,1/2-y,-z
1/2+x,1/2-y,z
loop_
_atom_site_type_symbol
_atom_site_label
_atom_site_fract_x
_atom_site_fract_y
_atom_site_fract_z
Si Si1 0.574355 0.322338 0.301807
Si Si2 0.495867 0.821671 0.586902
Si Si3 0.173619 0.171730 0.130392
Si Si4 0.484756 0.677620 0.087904
Si Si5 0.271490 0.177105 0.758418
Si Si6 0.320816 0.829846 0.039295
Si Si7 0.652967 0.822450 0.507892
Si Si8 0.926701 0.179830 0.212908
O O1 0.581222 0.500000 0.301750
O O2 0.529990 0.264162 0.357891
O O3 0.670807 0.252216 0.289896
O O4 0.507431 0.274433 0.252402
O O5 0.591799 0.776696 0.560943
O O6 0.415599 0.793867 0.543021
O O7 0.498708 0.000000 0.595814
O O8 0.182220 0.275552 0.183576
O O9 0.266576 0.174380 0.097702
O O10 0.089939 0.213995 0.091021
O O11 0.155929 0.000000 0.148386
O O12 0.477375 0.500000 0.080011
O O13 0.416685 0.753831 0.045597
O O14 0.448265 0.719889 0.149413
O O15 0.169243 0.230633 0.764526
O O16 0.272352 0.000000 0.751882
O O17 0.331705 0.000000 0.022175
O O18 0.250000 0.750000 0.000000
O O19 0.750000 0.750000 0.500000
O O20 0.665547 0.000000 0.511299
O O21 0.923565 0.000000 0.213532
#
# Coordination Sequence:
#
# PCOD9224144 Si02
#       8
#     8   8   8   8   8   8   8   8
#     4  11  22  38  57  83 118 154 193 237 281 336
#     4   9  20  39  57  82 118 156 190 236 292 339
#     4  10  21  38  60  83 111 146 186 229 279 338
#     4  10  19  38  62  81 109 147 184 228 279 337
#     4  11  21  35  57  84 112 148 188 230 281 338
#     4  11  24  40  59  86 115 146 186 235 285 337
#     4   9  19  37  62  85 115 153 195 239 288 343
#     4   9  19  35  56  80 110 149 186 223 279 338
#
# _framework density 9.8765429999999999
#
# number of rings (size 3 to 8) (size 9 to 14) (size 15 to 20)
#    0.000    2.000    2.500    1.875    0.000    3.500 
#    0.000   10.000    0.000    0.000    0.000    0.000 
#    0.000    0.000    0.000    0.000    0.000    0.000 
#
# Total GULP energy -178607.732269 kJ/mol
# GULP energy per Si atom -5581.491633 kJ/mol
# Density = 0.985406 g / cm^3
# Si number density = 9.876543 Si / 1000 Ang^3
#
#
#
# Elastic Constant Matrix: (Units=GPa)
#
#
# Indices 1 2 3 4 5 6 
#
# 1 125.4034 22.2160 -2.4715 0.0000 -11.4610 0.0000
# 2 22.2160 39.5438 10.3415 0.0000 -2.4922 0.0000
# 3 -2.4715 10.3415 38.6243 0.0000 -13.0599 0.0000
# 4 0.0000 0.0000 0.0000 28.1044 0.0000 3.0282
# 5 -11.4610 -2.4922 -13.0599 0.0000 20.1002 0.0000
# 6 0.0000 0.0000 0.0000 3.0282 0.0000 31.3761
#
#
#
# Elastic Compliance Matrix: (Units=1/GPa)
#
#
# Indices 1 2 3 4 5 6 
#
# 1 0.009965 -0.006424 0.005139 0.000000 0.008224 0.000000
# 2 -0.006424 0.031381 -0.011196 0.000000 -0.007046 0.000000
# 3 0.005139 -0.011196 0.038111 0.000000 0.026304 0.000000
# 4 0.000000 0.000000 0.000000 0.035956 0.000000 -0.003470
# 5 0.008224 -0.007046 0.026304 0.000000 0.070658 0.000000
# 6 0.000000 0.000000 0.000000 -0.003470 0.000000 0.032206
#
#
# Mechanical properties :
#
#
# Convention : Reuss Voigt Hill
#
# Bulk Modulus (GPa) = 18.35035 29.30482 23.82758
# Shear Modulus (GPa) = 19.12742 27.48184 23.30463
#
# Velocity S-wave (km/s) = 3.11517 3.73402 3.43854
# Velocity P-wave (km/s) = 4.71689 5.78431 5.27766
#
# Compressibility (1/GPa) = 0.05449488
#
# Stress axis : x y z
#
# Youngs Moduli (GPa) = 100.34874 31.86608 26.23911
#
# Poissons Ratio (x) = 0.20471 -0.13483
# Poissons Ratio (y) = 0.64465 0.29377
# Poissons Ratio (z) = -0.51565 0.35677
#
# Static dielectric constant tensor:
#      x y z
#    x 1.693480 0.000000 -0.008690 
#    y 0.000000 1.671740 0.000000 
#    z -0.008690 0.000000 1.737930 
# 
# From -- ./inp_files/338921.got.cif
#   From: 2010.05.17/outbox.ucp.g08.bks.cvg/sg12_170_cif.got.tgz:338921.got - 2010.06.11 11:47:21.
