data_PCOD9224355
_publ_section_title
;
Structure prediction by ZEFSAII (Michael W. Deem and Ramdas Pophale) SiO2 
 PCOD9224355
Probable space group: C 2/M
;
_chemical_formula_sum "Si O2"
_cell_formula_units_Z 32
_cell_length_a 27.000000
_cell_length_b 9.000000
_cell_length_c 15.000000
_cell_angle_alpha 90.000000
_cell_angle_beta 80.000000
_cell_angle_gamma 90.000000
_cell_volume 3589.624260
_symmetry_space_group_name_H-M "C 2/M"
_symmetry_group_IT_number 12
_symmetry_cell_setting 'monoclinic'
loop_
_space_group_symop_operation_xyz
x,y,z
-x,y,-z
-x,-y,-z
x,-y,z
1/2+x,1/2+y,z
1/2-x,1/2+y,-z
1/2-x,1/2-y,-z
1/2+x,1/2-y,z
loop_
_atom_site_type_symbol
_atom_site_label
_atom_site_fract_x
_atom_site_fract_y
_atom_site_fract_z
Si Si1 0.436445 0.671245 0.213666
Si Si2 0.414792 0.828307 0.040932
Si Si3 0.631819 0.825552 0.235928
Si Si4 0.729282 0.332793 0.142098
Si Si5 0.053003 0.831384 0.132835
Si Si6 0.545696 0.678855 0.605786
Si Si7 0.568741 0.678964 0.400625
Si Si8 0.316225 0.665366 0.042189
O O1 0.419232 0.500000 0.208253
O O2 0.417460 0.772552 0.140584
O O3 0.497200 0.668823 0.188749
O O4 0.426545 0.733501 0.315104
O O5 0.359143 0.788337 0.024893
O O6 0.427086 0.000000 0.028197
O O7 0.449186 0.728896 0.966395
O O8 0.682851 0.735510 0.208212
O O9 0.590855 0.770076 0.176446
O O10 0.607959 0.776007 0.335905
O O11 0.639843 0.000000 0.224199
O O12 0.742471 0.500000 0.166060
O O13 0.775841 0.221132 0.125975
O O14 0.710014 0.341760 0.045730
O O15 0.072626 0.000000 0.128898
O O16 0.543867 0.500000 0.616045
O O17 0.571521 0.708659 0.504353
O O18 0.487384 0.722833 0.613909
O O19 0.574329 0.500000 0.382830
O O20 0.336027 0.500000 0.056014
#
# Coordination Sequence:
#
# PCOD9224355 Si02
#       8
#     8   8   8   8   8   8   8   8
#     4  10  20  35  53  72  97 135 180 216 251 296
#     4  12  24  35  49  72 104 138 173 211 252 298
#     4  12  22  31  48  76 108 138 167 204 253 306
#     4  10  20  34  54  75 100 131 166 207 254 301
#     4  11  21  35  52  70  97 137 180 216 248 292
#     4   8  15  30  53  75  95 128 173 216 252 296
#     4   9  16  31  53  74  98 130 170 211 254 302
#     4  10  20  35  54  74  99 131 168 209 252 297
#
# _framework density 8.9145819999999993
#
# number of rings (size 3 to 8) (size 9 to 14) (size 15 to 20)
#    0.000    1.750    2.500    4.500    0.000    3.500 
#    0.000    1.875    0.000    0.000    0.000    0.875 
#    0.000    0.000    0.000    0.000    0.000    0.000 
#
# Total GULP energy -178409.595972 kJ/mol
# GULP energy per Si atom -5575.299874 kJ/mol
# Density = 0.889429 g / cm^3
# Si number density = 8.914582 Si / 1000 Ang^3
#
#
#
# Elastic Constant Matrix: (Units=GPa)
#
#
# Indices 1 2 3 4 5 6 
#
# 1 12.0199 -2.3509 -1.2680 0.0000 -10.3339 0.0000
# 2 -2.3509 50.8558 32.8853 0.0000 -6.0347 0.0000
# 3 -1.2680 32.8853 15.3511 0.0000 7.0791 0.0000
# 4 0.0000 0.0000 0.0000 8.4751 0.0000 -4.2283
# 5 -10.3339 -6.0347 7.0791 0.0000 18.9898 0.0000
# 6 0.0000 0.0000 0.0000 -4.2283 0.0000 14.9467
#
#
#
# Elastic Compliance Matrix: (Units=1/GPa)
#
#
# Indices 1 2 3 4 5 6 
#
# 1 0.107987 -0.028644 0.057216 0.000000 0.028333 0.000000
# 2 -0.028644 -0.013161 0.042200 0.000000 -0.035501 0.000000
# 3 0.057216 0.042200 -0.049603 0.000000 0.063037 0.000000
# 4 0.000000 0.000000 0.000000 0.137384 0.000000 0.038865
# 5 0.028333 -0.035501 0.063037 0.000000 0.033297 0.000000
# 6 0.000000 0.000000 0.000000 0.038865 0.000000 0.077899
#
#
# Mechanical properties :
#
#
# Convention : Reuss Voigt Hill
#
# Bulk Modulus (GPa) = 5.35426 15.19550 10.27488
# Shear Modulus (GPa) = 23.30845 11.74634 17.52739
#
# Velocity S-wave (km/s) = 3.61961 2.56955 3.13880
# Velocity P-wave (km/s) = 4.52531 4.16471 4.34875
#
# Compressibility (1/GPa) = 0.18676710
#
# Stress axis : x y z
#
# Youngs Moduli (GPa) = 9.26034 -75.97952 -20.16020
#
# Poissons Ratio (x) = -2.17636 1.15349
# Poissons Ratio (y) = 0.26525 0.85076
# Poissons Ratio (z) = -0.52984 3.20633
#
# Static dielectric constant tensor:
#      x y z
#    x 1.634490 0.000000 -0.018590 
#    y 0.000000 1.614330 0.000000 
#    z -0.018590 0.000000 1.704780 
# 
# From -- ./inp_files/244003.got.cif
#   From: 2010.05.17/outbox.ucp.g08.bks.cvg/sg12_123_cif.got.tgz:244003.got - 2010.06.11 11:47:21.
