data_PCOD9224123
_publ_section_title
;
Structure prediction by ZEFSAII (Michael W. Deem and Ramdas Pophale) SiO2 
 PCOD9224123
Probable space group: C 2/M
;
_chemical_formula_sum "Si O2"
_cell_formula_units_Z 28
_cell_length_a 21.000000
_cell_length_b 9.000000
_cell_length_c 30.000000
_cell_angle_alpha 90.000000
_cell_angle_beta 150.000000
_cell_angle_gamma 90.000000
_cell_volume 2835.000000
_symmetry_space_group_name_H-M "C 2/M"
_symmetry_group_IT_number 12
_symmetry_cell_setting 'monoclinic'
loop_
_space_group_symop_operation_xyz
x,y,z
-x,y,-z
-x,-y,-z
x,-y,z
1/2+x,1/2+y,z
1/2-x,1/2+y,-z
1/2-x,1/2-y,-z
1/2+x,1/2-y,z
loop_
_atom_site_type_symbol
_atom_site_label
_atom_site_fract_x
_atom_site_fract_y
_atom_site_fract_z
Si Si1 0.913787 0.825993 0.223378
Si Si2 0.348118 0.327594 0.696421
Si Si3 0.752753 0.831304 0.953575
Si Si4 0.670464 0.827172 0.225114
Si Si5 0.068632 0.819855 0.663200
Si Si6 0.479890 0.334143 0.935333
Si Si7 0.589379 0.321162 0.513083
O O1 0.825452 0.744512 0.133854
O O2 0.917361 0.767824 0.276876
O O3 0.049286 0.817345 0.280727
O O4 0.875708 0.000000 0.202252
O O5 0.315444 0.500000 0.682445
O O6 0.387458 0.264933 0.768913
O O7 0.228164 0.232544 0.609335
O O8 0.706878 0.000000 0.932938
O O9 0.750000 0.750000 0.000000
O O10 0.892709 0.837281 0.016846
O O11 0.813913 0.784092 0.298607
O O12 0.600267 0.793430 0.136398
O O13 0.667140 0.000000 0.234841
O O14 0.950908 0.769860 0.561032
O O15 0.064255 0.000000 0.664097
O O16 0.420043 0.500000 0.894979
O O17 0.500000 0.308812 0.000000
O O18 0.500000 0.270364 0.500000
O O19 0.583010 0.500000 0.508912
#
# Coordination Sequence:
#
# PCOD9224123 Si02
#       7
#     8   8   8   8   8   8   8
#     4  10  22  40  59  82 116 153 189 233 286 338
#     4  11  23  37  56  85 118 149 185 232 286 340
#     4  11  23  39  60  84 114 152 193 235 282 339
#     4  11  21  36  60  86 110 146 196 239 278 333
#     4   9  19  37  60  84 113 150 190 236 283 330
#     4  10  22  39  57  82 117 150 183 234 294 341
#     4  10  19  37  62  86 114 149 191 234 280 333
#
# _framework density 9.8765429999999999
#
# number of rings (size 3 to 8) (size 9 to 14) (size 15 to 20)
#    0.000    1.714    1.429    3.000    0.000    6.857 
#    0.000    1.429    0.000    0.000    0.000    0.000 
#    0.000    0.000    0.000    0.000    0.000    0.000 
#
# Total GULP energy -156081.170558 kJ/mol
# GULP energy per Si atom -5574.327520 kJ/mol
# Density = 0.985406 g / cm^3
# Si number density = 9.876543 Si / 1000 Ang^3
#
#
#
# Elastic Constant Matrix: (Units=GPa)
#
#
# Indices 1 2 3 4 5 6 
#
# 1 93.3083 26.5567 15.0759 0.0000 -42.2072 0.0001
# 2 26.5567 28.4005 21.4142 -0.0001 -16.1489 0.0002
# 3 15.0759 21.4142 65.9987 -0.0002 -23.0083 -0.0001
# 4 0.0000 -0.0001 -0.0002 25.2083 0.0000 -8.5890
# 5 -42.2072 -16.1489 -23.0083 0.0000 26.3563 0.0001
# 6 0.0001 0.0002 -0.0001 -8.5890 0.0001 23.6349
#
#
#
# Elastic Compliance Matrix: (Units=1/GPa)
#
#
# Indices 1 2 3 4 5 6 
#
# 1 0.069470 -0.016686 0.035598 0.000000 0.132102 0.000000
# 2 -0.016686 0.061679 -0.017741 0.000000 -0.004418 -0.000001
# 3 0.035598 -0.017741 0.041486 0.000000 0.082354 0.000000
# 4 0.000000 0.000000 0.000000 0.045275 0.000000 0.016453
# 5 0.132102 -0.004418 0.082354 0.000000 0.318677 -0.000001
# 6 0.000000 -0.000001 0.000000 0.016453 -0.000001 0.048290
#
#
# Mechanical properties :
#
#
# Convention : Reuss Voigt Hill
#
# Bulk Modulus (GPa) = 5.71504 34.86679 20.29092
# Shear Modulus (GPa) = 7.80200 23.35061 15.57631
#
# Velocity S-wave (km/s) = 1.98956 3.44193 2.81116
# Velocity P-wave (km/s) = 2.85960 5.78667 4.56414
#
# Compressibility (1/GPa) = 0.17497699
#
# Stress axis : x y z
#
# Youngs Moduli (GPa) = 14.39471 16.21310 24.10425
#
# Poissons Ratio (x) = 0.27054 -0.85807
# Poissons Ratio (y) = 0.24020 0.42763
# Poissons Ratio (z) = -0.51243 0.28764
#
# Static dielectric constant tensor:
#      x y z
#    x 1.689220 0.000000 0.044310 
#    y 0.000000 1.699700 0.000000 
#    z 0.044310 0.000000 1.770620 
# 
# From -- ./inp_files/230983.got.cif
#   From: 2010.05.17/outbox.ucp.g08.bks.cvg/sg12_116_cif.got.tgz:230983.got - 2010.06.11 11:47:21.
