data_PCOD9224827
_publ_section_title
;
Structure prediction by ZEFSAII (Michael W. Deem and Ramdas Pophale) SiO2 
 PCOD9224827
Probable space group: C 2/M
;
_chemical_formula_sum "Si O2"
_cell_formula_units_Z 26
_cell_length_a 9.000000
_cell_length_b 15.000000
_cell_length_c 30.000000
_cell_angle_alpha 90.000000
_cell_angle_beta 140.000000
_cell_angle_gamma 90.000000
_cell_volume 2603.289819
_symmetry_space_group_name_H-M "C 2/M"
_symmetry_group_IT_number 12
_symmetry_cell_setting 'monoclinic'
loop_
_space_group_symop_operation_xyz
x,y,z
-x,y,-z
-x,-y,-z
x,-y,z
1/2+x,1/2+y,z
1/2-x,1/2+y,-z
1/2-x,1/2-y,-z
1/2+x,1/2-y,z
loop_
_atom_site_type_symbol
_atom_site_label
_atom_site_fract_x
_atom_site_fract_y
_atom_site_fract_z
Si Si1 0.288671 0.895779 0.383693
Si Si2 0.361440 0.104030 0.613939
Si Si3 0.084952 0.746879 0.818655
Si Si4 0.084716 0.748473 0.720145
Si Si5 0.500000 0.752678 0.500000
Si Si6 0.887883 0.395587 0.926736
Si Si7 0.741506 0.894809 0.926064
O O1 0.415693 0.904837 0.365893
O O2 0.444898 0.825693 0.448539
O O3 0.054638 0.839195 0.322647
O O4 0.264784 0.000000 0.395419
O O5 0.435091 0.159959 0.674681
O O6 0.204085 0.178457 0.551960
O O7 0.273310 0.000000 0.599894
O O8 0.191988 0.745671 0.794122
O O9 0.174321 0.833375 0.865256
O O10 0.154346 0.662867 0.864520
O O11 0.815610 0.751144 0.744055
O O12 0.824067 0.500000 0.913714
O O13 0.075335 0.383291 0.930521
O O14 0.000000 0.371713 0.000000
O O15 0.744715 0.000000 0.915523
O O16 0.000000 0.868216 0.000000
#
# Coordination Sequence:
#
# PCOD9224827 Si02
#       7
#     8   8   8   8   4   8   8
#     4  10  21  39  62  87 122 162 199 242 295 353
#     4  10  21  39  61  88 124 160 196 244 299 349
#     4  12  23  40  63  88 118 161 198 252 298 359
#     4  11  24  39  60  89 121 154 208 244 294 356
#     4  10  20  36  64  94 120 152 206 248 286 346
#     4  10  23  41  62  88 118 157 203 248 302 365
#     4  10  23  41  61  88 121 155 199 254 304 354
#
# _framework density 9.9873630000000002
#
# number of rings (size 3 to 8) (size 9 to 14) (size 15 to 20)
#    0.000    1.538    3.077    1.385    2.154    3.692 
#    0.000    0.000    0.000    0.000    0.000    0.000 
#    0.000    0.000    0.000    0.000    0.000    0.000 
#
# Total GULP energy -144753.792395 kJ/mol
# GULP energy per Si atom -5567.453554 kJ/mol
# Density = 0.996463 g / cm^3
# Si number density = 9.987363 Si / 1000 Ang^3
#
#
#
# Elastic Constant Matrix: (Units=GPa)
#
#
# Indices 1 2 3 4 5 6 
#
# 1 10.5298 26.4244 19.7821 -0.0001 -13.1845 0.0000
# 2 26.4244 172.6152 64.8192 0.0000 -2.9204 0.0000
# 3 19.7821 64.8192 98.8089 -0.0003 -2.4114 -0.0001
# 4 -0.0001 0.0000 -0.0003 -14.3364 -0.0001 -13.4770
# 5 -13.1845 -2.9204 -2.4114 -0.0001 13.4978 0.0000
# 6 0.0000 0.0000 -0.0001 -13.4770 0.0000 25.5899
#
#
#
# Elastic Compliance Matrix: (Units=1/GPa)
#
#
# Indices 1 2 3 4 5 6 
#
# 1 -0.152033 0.014251 0.017617 0.000001 -0.142274 0.000000
# 2 0.014251 0.006359 -0.006680 0.000000 0.014103 0.000000
# 3 0.017617 -0.006680 0.011410 0.000000 0.017801 0.000000
# 4 0.000001 0.000000 0.000000 -0.046655 0.000000 -0.024571
# 5 -0.142274 0.014103 0.017801 0.000000 -0.058653 0.000000
# 6 0.000000 0.000000 0.000000 -0.024571 0.000000 0.026138
#
#
# Mechanical properties :
#
#
# Convention : Reuss Voigt Hill
#
# Bulk Modulus (GPa) = -11.92053 56.00059 22.04003
# Shear Modulus (GPa) = -17.13662 16.34547 -0.39557
#
# Velocity S-wave (km/s) = -2.93220 2.86371 -0.44550
# Velocity P-wave (km/s) = 4.17666 6.24748 3.28531
#
# Compressibility (1/GPa) = -0.08388886
#
# Stress axis : x y z
#
# Youngs Moduli (GPa) = -6.57750 157.26228 87.63965
#
# Poissons Ratio (x) = -2.24118 -1.54394
# Poissons Ratio (y) = 0.09374 0.58547
# Poissons Ratio (z) = 0.11588 1.05058
#
# Static dielectric constant tensor:
#      x y z
#    x 1.705190 0.000000 0.014360 
#    y 0.000000 1.691800 0.000000 
#    z 0.014360 0.000000 1.710770 
# 
# From -- ./inp_files/372648.got.cif
#   From: 2010.05.17/outbox.ucp.g08.bks.cvg/sg12_187_cif.got.tgz:372648.got - 2010.06.11 11:47:21.
