data_PCOD9224217
_publ_section_title
;
Structure prediction by ZEFSAII (Michael W. Deem and Ramdas Pophale) SiO2 
 PCOD9224217
Probable space group: C 2/M
;
_chemical_formula_sum "Si O2"
_cell_formula_units_Z 32
_cell_length_a 27.000000
_cell_length_b 9.000000
_cell_length_c 21.000000
_cell_angle_alpha 90.000000
_cell_angle_beta 50.000000
_cell_angle_gamma 90.000000
_cell_volume 3909.124793
_symmetry_space_group_name_H-M "C 2/M"
_symmetry_group_IT_number 12
_symmetry_cell_setting 'monoclinic'
loop_
_space_group_symop_operation_xyz
x,y,z
-x,y,-z
-x,-y,-z
x,-y,z
1/2+x,1/2+y,z
1/2-x,1/2+y,-z
1/2-x,1/2-y,-z
1/2+x,1/2-y,z
loop_
_atom_site_type_symbol
_atom_site_label
_atom_site_fract_x
_atom_site_fract_y
_atom_site_fract_z
Si Si1 0.007217 0.820854 0.591266
Si Si2 0.482153 0.169304 0.162498
Si Si3 0.142777 0.330175 0.825989
Si Si4 0.232632 0.675939 0.332343
Si Si5 0.308425 0.822740 0.488839
Si Si6 0.936964 0.170699 0.005466
Si Si7 0.607509 0.320511 0.402970
Si Si8 0.937544 0.177299 0.326659
O O1 0.942663 0.773926 0.609756
O O2 0.069987 0.773134 0.498845
O O3 0.011456 0.781081 0.660769
O O4 0.008361 0.000000 0.585655
O O5 0.420385 0.168587 0.166601
O O6 0.460992 0.263959 0.240271
O O7 0.495927 0.000000 0.169375
O O8 0.541009 0.239695 0.074671
O O9 0.160409 0.500000 0.825509
O O10 0.200184 0.250885 0.741082
O O11 0.120889 0.245020 0.907556
O O12 0.238357 0.500000 0.320850
O O13 0.208117 0.709282 0.423992
O O14 0.175542 0.743923 0.337609
O O15 0.250000 0.750000 0.500000
O O16 0.372095 0.750805 0.406335
O O17 0.311354 0.000000 0.478540
O O18 0.922994 0.000000 0.002047
O O19 0.000000 0.172757 0.000000
O O20 0.614698 0.500000 0.398292
O O21 0.928912 0.000000 0.331971
#
# Coordination Sequence:
#
# PCOD9224217 Si02
#       8
#     8   8   8   8   8   8   8   8
#     4   8  16  30  51  73  92 121 162 205 245 290
#     4  10  20  33  49  72 101 132 167 201 238 288
#     4  10  20  33  50  70  96 132 168 201 239 287
#     4  11  22  33  46  70  99 127 162 204 247 289
#     4  11  23  35  46  64  95 133 169 202 238 283
#     4   9  17  31  51  73  97 125 159 203 249 285
#     4   9  16  32  53  70  91 123 163 203 245 292
#     4  11  20  32  50  72  97 128 165 203 244 287
#
# _framework density 8.1859760000000001
#
# number of rings (size 3 to 8) (size 9 to 14) (size 15 to 20)
#    0.000    2.125    1.250    3.750    0.000    6.500 
#    0.000    2.500    0.000    0.000    0.000    0.875 
#    0.000    0.000    0.000    0.000    0.000    0.000 
#
# Total GULP energy -178309.723225 kJ/mol
# GULP energy per Si atom -5572.178851 kJ/mol
# Density = 0.816734 g / cm^3
# Si number density = 8.185976 Si / 1000 Ang^3
#
#
#
# Elastic Constant Matrix: (Units=GPa)
#
#
# Indices 1 2 3 4 5 6 
#
# 1 40.7276 28.9475 23.0898 -0.0017 4.9641 0.0003
# 2 28.9475 58.3388 57.2809 -0.0010 2.2379 0.0016
# 3 23.0898 57.2809 73.6511 -0.0041 28.2541 0.0014
# 4 -0.0017 -0.0010 -0.0041 28.6405 0.0027 -5.9371
# 5 4.9641 2.2379 28.2541 0.0027 -8.4921 -0.0009
# 6 0.0003 0.0016 0.0014 -5.9371 -0.0009 9.8346
#
#
#
# Elastic Compliance Matrix: (Units=1/GPa)
#
#
# Indices 1 2 3 4 5 6 
#
# 1 0.036134 -0.015933 -0.002385 0.000001 0.008989 0.000003
# 2 -0.015933 0.036489 -0.010323 0.000001 -0.034045 -0.000006
# 3 -0.002385 -0.010323 0.010514 -0.000002 0.030865 0.000002
# 4 0.000001 0.000001 -0.000002 0.039910 0.000006 0.024094
# 5 0.008989 -0.034045 0.030865 0.000006 -0.018782 0.000003
# 6 0.000003 -0.000006 0.000002 0.024094 0.000003 0.116228
#
#
# Mechanical properties :
#
#
# Convention : Reuss Voigt Hill
#
# Bulk Modulus (GPa) = 38.67777 43.48378 41.08077
# Shear Modulus (GPa) = 17.45848 10.22323 13.84085
#
# Velocity S-wave (km/s) = 3.26907 2.50158 2.91073
# Velocity P-wave (km/s) = 6.15831 5.91282 6.03681
#
# Compressibility (1/GPa) = 0.02585465
#
# Stress axis : x y z
#
# Youngs Moduli (GPa) = 27.67452 27.40531 95.11531
#
# Poissons Ratio (x) = 0.43664 0.22685
# Poissons Ratio (y) = 0.44093 0.98192
# Poissons Ratio (z) = 0.06600 0.28292
#
# Static dielectric constant tensor:
#      x y z
#    x 1.578160 0.000000 0.011020 
#    y 0.000000 1.563900 0.000000 
#    z 0.011020 0.000000 1.529870 
# 
# From -- ./inp_files/326809.got.cif
#   From: 2010.05.17/outbox.ucp.g08.bks.cvg/sg12_164_cif.got.tgz:326809.got - 2010.06.11 11:47:21.
