data_PCOD9224347
_publ_section_title
;
Structure prediction by ZEFSAII (Michael W. Deem and Ramdas Pophale) SiO2 
 PCOD9224347
Probable space group: C 2/M
;
_chemical_formula_sum "Si O2"
_cell_formula_units_Z 28
_cell_length_a 24.000000
_cell_length_b 9.000000
_cell_length_c 15.000000
_cell_angle_alpha 90.000000
_cell_angle_beta 120.000000
_cell_angle_gamma 90.000000
_cell_volume 2805.922308
_symmetry_space_group_name_H-M "C 2/M"
_symmetry_group_IT_number 12
_symmetry_cell_setting 'monoclinic'
loop_
_space_group_symop_operation_xyz
x,y,z
-x,y,-z
-x,-y,-z
x,-y,z
1/2+x,1/2+y,z
1/2-x,1/2+y,-z
1/2-x,1/2-y,-z
1/2+x,1/2-y,z
loop_
_atom_site_type_symbol
_atom_site_label
_atom_site_fract_x
_atom_site_fract_y
_atom_site_fract_z
Si Si1 0.222148 0.673694 0.857935
Si Si2 0.984502 0.827373 0.585409
Si Si3 0.983935 0.677428 0.201910
Si Si4 0.746658 0.673233 0.313905
Si Si5 0.338412 0.328865 0.524499
Si Si6 0.126103 0.675650 0.265161
Si Si7 0.144428 0.174799 0.943597
O O1 0.211911 0.500000 0.875519
O O2 0.215396 0.688201 0.747739
O O3 0.173713 0.777561 0.871766
O O4 0.295695 0.711323 0.943855
O O5 0.907361 0.826275 0.531637
O O6 0.000000 0.764954 0.500000
O O7 0.011931 0.744779 0.694573
O O8 0.006372 0.000000 0.606593
O O9 0.981092 0.500000 0.206749
O O10 0.922089 0.738452 0.100856
O O11 0.050921 0.717019 0.206101
O O12 0.745123 0.500000 0.336172
O O13 0.783136 0.767740 0.417179
O O14 0.674374 0.733064 0.241992
O O15 0.325980 0.500000 0.540872
O O16 0.348557 0.222813 0.616901
O O17 0.132258 0.500000 0.255615
O O18 0.132229 0.000000 0.939072
#
# Coordination Sequence:
#
# PCOD9224347 Si02
#       7
#     8   8   8   8   8   8   8
#     4   9  21  39  57  83 112 141 179 225 274 326
#     4   9  19  34  51  77 110 142 181 224 263 317
#     4  10  21  36  56  80 108 144 181 221 273 326
#     4  11  22  36  56  80 110 143 182 228 272 320
#     4  10  20  34  53  78 111 147 183 222 268 319
#     4  10  21  38  56  78 109 146 187 225 267 321
#     4  10  20  37  61  83 109 143 180 222 273 329
#
# _framework density 9.9788940000000004
#
# number of rings (size 3 to 8) (size 9 to 14) (size 15 to 20)
#    0.000    2.143    0.000    2.571    2.000    4.286 
#    0.000    0.714    0.000    4.286    0.000    0.000 
#    0.000    0.000    0.000    0.000    0.000    0.000 
#
# Total GULP energy -156250.110925 kJ/mol
# GULP energy per Si atom -5580.361104 kJ/mol
# Density = 0.995618 g / cm^3
# Si number density = 9.978894 Si / 1000 Ang^3
#
#
#
# Elastic Constant Matrix: (Units=GPa)
#
#
# Indices 1 2 3 4 5 6 
#
# 1 34.1770 1.2344 19.0244 0.0000 6.5054 0.0000
# 2 1.2344 9.7902 -0.5161 0.0000 14.2581 0.0000
# 3 19.0244 -0.5161 5.8744 0.0000 17.0262 0.0000
# 4 0.0000 0.0000 0.0000 19.1679 0.0000 7.6991
# 5 6.5054 14.2581 17.0262 0.0000 34.9537 0.0000
# 6 0.0000 0.0000 0.0000 7.6991 0.0000 30.1696
#
#
#
# Elastic Compliance Matrix: (Units=1/GPa)
#
#
# Indices 1 2 3 4 5 6 
#
# 1 0.023228 0.043313 0.018651 0.000000 -0.031077 0.000000
# 2 0.043313 0.117822 -0.079508 0.000000 -0.017393 0.000000
# 3 0.018651 -0.079508 -0.045896 0.000000 0.051318 0.000000
# 4 0.000000 0.000000 0.000000 0.058129 0.000000 -0.014834
# 5 -0.031077 -0.017393 0.051318 0.000000 0.016491 0.000000
# 6 0.000000 0.000000 0.000000 -0.014834 0.000000 0.036932
#
#
# Mechanical properties :
#
#
# Convention : Reuss Voigt Hill
#
# Bulk Modulus (GPa) = 16.64813 9.92522 13.28667
# Shear Modulus (GPa) = 19.09746 18.86481 18.98114
#
# Velocity S-wave (km/s) = 3.09672 3.07780 3.08728
# Velocity P-wave (km/s) = 4.59848 4.19695 4.40230
#
# Compressibility (1/GPa) = 0.06006681
#
# Stress axis : x y z
#
# Youngs Moduli (GPa) = 43.05123 8.48736 -21.78823
#
# Poissons Ratio (x) = -0.36762 0.40638
# Poissons Ratio (y) = -1.86469 -1.73235
# Poissons Ratio (z) = -0.80297 0.67482
#
# Static dielectric constant tensor:
#      x y z
#    x 1.749860 0.000000 -0.013290 
#    y 0.000000 1.671720 0.000000 
#    z -0.013290 0.000000 1.693970 
# 
# From -- ./inp_files/238334.got.cif
#   From: 2010.05.17/outbox.ucp.g08.bks.cvg/sg12_120_cif.got.tgz:238334.got - 2010.06.11 11:47:21.
