data_PCOD9224698
_publ_section_title
;
Structure prediction by ZEFSAII (Michael W. Deem and Ramdas Pophale) SiO2 
 PCOD9224698
Probable space group: C 2/M
;
_chemical_formula_sum "Si O2"
_cell_formula_units_Z 28
_cell_length_a 30.000000
_cell_length_b 9.000000
_cell_length_c 12.000000
_cell_angle_alpha 90.000000
_cell_angle_beta 60.000000
_cell_angle_gamma 90.000000
_cell_volume 2805.922308
_symmetry_space_group_name_H-M "C 2/M"
_symmetry_group_IT_number 12
_symmetry_cell_setting 'monoclinic'
loop_
_space_group_symop_operation_xyz
x,y,z
-x,y,-z
-x,-y,-z
x,-y,z
1/2+x,1/2+y,z
1/2-x,1/2+y,-z
1/2-x,1/2-y,-z
1/2+x,1/2-y,z
loop_
_atom_site_type_symbol
_atom_site_label
_atom_site_fract_x
_atom_site_fract_y
_atom_site_fract_z
Si Si1 0.942848 0.667680 0.622906
Si Si2 0.094105 0.827538 0.715700
Si Si3 0.914391 0.324211 0.042504
Si Si4 0.289649 0.674655 0.825078
Si Si5 0.020588 0.828831 0.205197
Si Si6 0.365198 0.324387 0.552304
Si Si7 0.325447 0.821580 0.986929
O O1 0.925746 0.500000 0.668447
O O2 0.950483 0.753767 0.728594
O O3 0.906061 0.741893 0.578691
O O4 0.000000 0.663414 0.500000
O O5 0.093587 0.727701 0.823445
O O6 0.135318 0.777361 0.574212
O O7 0.040791 0.817817 0.713230
O O8 0.100389 0.000000 0.740854
O O9 0.918242 0.500000 0.030328
O O10 0.867890 0.271884 0.020918
O O11 0.964290 0.250751 0.927353
O O12 0.290847 0.500000 0.852267
O O13 0.310250 0.694072 0.676489
O O14 0.231650 0.729136 0.906978
O O15 0.328413 0.757379 0.859651
O O16 0.035120 0.000000 0.182333
O O17 0.378344 0.500000 0.538231
O O18 0.326403 0.000000 0.982923
#
# Coordination Sequence:
#
# PCOD9224698 Si02
#       7
#     8   8   8   8   8   8   8
#     4  11  22  34  52  80 113 143 173 215 266 319
#     4  10  22  38  54  75 106 143 183 225 265 313
#     4  11  23  37  55  78 108 143 180 223 271 320
#     4   9  18  34  59  84 105 135 174 217 266 318
#     4  11  22  37  57  78 106 143 184 226 266 313
#     4  10  20  36  57  80 107 143 183 221 265 317
#     4   9  19  36  55  80 111 137 169 218 271 319
#
# _framework density 9.9788940000000004
#
# number of rings (size 3 to 8) (size 9 to 14) (size 15 to 20)
#    0.000    1.857    1.429    2.571    0.000    8.000 
#    0.000    0.714    0.000    0.000    0.000    0.000 
#    0.000    0.000    0.000    0.000    0.000    0.000 
#
# Total GULP energy -156153.963133 kJ/mol
# GULP energy per Si atom -5576.927255 kJ/mol
# Density = 0.995618 g / cm^3
# Si number density = 9.978894 Si / 1000 Ang^3
#
#
#
# Elastic Constant Matrix: (Units=GPa)
#
#
# Indices 1 2 3 4 5 6 
#
# 1 14.5227 10.7852 30.7389 0.0000 -1.7267 0.0000
# 2 10.7852 38.6613 56.3863 0.0000 10.3272 0.0000
# 3 30.7389 56.3863 107.2659 0.0000 12.9449 0.0000
# 4 0.0000 0.0000 0.0000 41.0521 0.0000 11.1032
# 5 -1.7267 10.3272 12.9449 0.0000 18.4152 0.0000
# 6 0.0000 0.0000 0.0000 11.1032 0.0000 21.7717
#
#
#
# Elastic Compliance Matrix: (Units=1/GPa)
#
#
# Indices 1 2 3 4 5 6 
#
# 1 0.557623 0.285189 -0.324226 0.000000 0.120268 0.000000
# 2 0.285189 0.266562 -0.226227 0.000000 0.036281 0.000000
# 3 -0.324226 -0.226227 0.228936 0.000000 -0.064464 0.000000
# 4 0.000000 0.000000 0.000000 0.028257 0.000000 -0.014411
# 5 0.120268 0.036281 -0.064464 0.000000 0.090549 0.000000
# 6 0.000000 0.000000 0.000000 -0.014411 0.000000 0.053280
#
#
# Mechanical properties :
#
#
# Convention : Reuss Voigt Hill
#
# Bulk Modulus (GPa) = 1.91354 39.58565 20.74960
# Shear Modulus (GPa) = 2.59076 20.41711 11.50394
#
# Velocity S-wave (km/s) = 1.14059 3.20193 2.40347
# Velocity P-wave (km/s) = 1.64179 5.79203 4.25694
#
# Compressibility (1/GPa) = 0.52259158
#
# Stress axis : x y z
#
# Youngs Moduli (GPa) = 1.79333 3.75148 4.36804
#
# Poissons Ratio (x) = -1.06988 1.41623
# Poissons Ratio (y) = -0.51144 0.98817
# Poissons Ratio (z) = 0.58144 0.84869
#
# Static dielectric constant tensor:
#      x y z
#    x 1.675450 0.000000 -0.061180 
#    y 0.000000 1.704720 0.000000 
#    z -0.061180 0.000000 1.822840 
# 
# From -- ./inp_files/186431.got.cif
#   From: 2010.05.17/outbox.ucp.g08.bks.cvg/sg12_94_cif.got.tgz:186431.got - 2010.06.11 11:47:21.
