data_PCOD9224517
_publ_section_title
;
Structure prediction by ZEFSAII (Michael W. Deem and Ramdas Pophale) SiO2 
 PCOD9224517
Probable space group: C 2/M
;
_chemical_formula_sum "Si O2"
_cell_formula_units_Z 28
_cell_length_a 15.000000
_cell_length_b 21.000000
_cell_length_c 15.000000
_cell_angle_alpha 90.000000
_cell_angle_beta 40.000000
_cell_angle_gamma 90.000000
_cell_volume 3037.171456
_symmetry_space_group_name_H-M "C 2/M"
_symmetry_group_IT_number 12
_symmetry_cell_setting 'monoclinic'
loop_
_space_group_symop_operation_xyz
x,y,z
-x,y,-z
-x,-y,-z
x,-y,z
1/2+x,1/2+y,z
1/2-x,1/2+y,-z
1/2-x,1/2-y,-z
1/2+x,1/2-y,z
loop_
_atom_site_type_symbol
_atom_site_label
_atom_site_fract_x
_atom_site_fract_y
_atom_site_fract_z
Si Si1 0.838502 0.297900 0.636217
Si Si2 0.537770 0.764696 0.160209
Si Si3 0.265018 0.836584 0.333858
Si Si4 0.380725 0.424500 0.663432
Si Si5 0.350816 0.657348 0.378066
Si Si6 0.212817 0.173620 0.922344
Si Si7 0.084471 0.074968 0.157512
O O1 0.814482 0.221511 0.654809
O O2 0.765812 0.321262 0.601491
O O3 0.763996 0.328026 0.780799
O O4 0.000000 0.311875 0.500000
O O5 0.420781 0.813782 0.224114
O O6 0.466783 0.712603 0.279544
O O7 0.658856 0.799559 0.119280
O O8 0.593404 0.726055 0.032128
O O9 0.253480 0.898827 0.283205
O O10 0.202965 0.846632 0.480381
O O11 0.500000 0.402740 0.500000
O O12 0.392968 0.500000 0.657786
O O13 0.377683 0.403465 0.769346
O O14 0.422267 0.593923 0.285180
O O15 0.157625 0.112091 0.019731
O O16 0.107350 0.000000 0.131903
#
# Coordination Sequence:
#
# PCOD9224517 Si02
#       7
#     8   8   8   8   8   8   8
#     4  11  22  35  59  86 115 145 190 239 294 351
#     4   9  20  34  52  81 119 148 185 227 288 341
#     4  11  20  32  57  86 118 152 184 232 288 338
#     4  10  20  35  57  85 115 151 194 234 278 340
#     4  10  20  35  55  86 117 146 191 236 283 338
#     4  10  21  38  57  80 115 154 191 238 287 340
#     4  10  22  40  60  82 114 154 198 241 282 334
#
# _framework density 9.2191039999999997
#
# number of rings (size 3 to 8) (size 9 to 14) (size 15 to 20)
#    0.000    1.857    1.429    3.857    6.000    5.143 
#    0.000    2.143    0.000    5.143    0.000    0.000 
#    0.000    0.000    0.000    0.000    0.000    0.000 
#
# Total GULP energy -155999.741479 kJ/mol
# GULP energy per Si atom -5571.419339 kJ/mol
# Density = 0.919812 g / cm^3
# Si number density = 9.219104 Si / 1000 Ang^3
#
#
#
# Elastic Constant Matrix: (Units=GPa)
#
#
# Indices 1 2 3 4 5 6 
#
# 1 28.9834 52.1184 37.9892 0.0008 1.6866 -0.0009
# 2 52.1184 -8.4319 15.0929 -0.0003 10.1079 0.0002
# 3 37.9892 15.0929 97.5739 0.0009 10.7772 -0.0010
# 4 0.0008 -0.0003 0.0009 10.3107 0.0003 1.7102
# 5 1.6866 10.1079 10.7772 0.0003 30.9603 0.0002
# 6 -0.0009 0.0002 -0.0010 1.7102 0.0002 21.7208
#
#
#
# Elastic Compliance Matrix: (Units=1/GPa)
#
#
# Indices 1 2 3 4 5 6 
#
# 1 0.005509 0.019657 -0.004621 0.000001 -0.005109 0.000000
# 2 0.019657 -0.005853 -0.007114 -0.000001 0.003317 0.000001
# 3 -0.004621 -0.007114 0.013378 -0.000001 -0.002083 0.000001
# 4 0.000001 -0.000001 -0.000001 0.098270 0.000000 -0.007737
# 5 -0.005109 0.003317 -0.002083 0.000000 0.032220 -0.000001
# 6 0.000000 0.000001 0.000001 -0.007737 -0.000001 0.046648
#
#
# Mechanical properties :
#
#
# Convention : Reuss Voigt Hill
#
# Bulk Modulus (GPa) = 34.62874 36.50291 35.56582
# Shear Modulus (GPa) = 27.18055 13.46001 20.32028
#
# Velocity S-wave (km/s) = 3.84362 2.70479 3.32335
# Velocity P-wave (km/s) = 6.20642 5.44012 5.83586
#
# Compressibility (1/GPa) = 0.02887775
#
# Stress axis : x y z
#
# Youngs Moduli (GPa) = 181.50970 -170.84546 74.74776
#
# Poissons Ratio (x) = 3.35833 0.34543
# Poissons Ratio (y) = -3.56795 0.53177
# Poissons Ratio (z) = 0.83881 -1.21542
#
# Static dielectric constant tensor:
#      x y z
#    x 1.698860 0.000000 -0.032840 
#    y 0.000000 1.679760 0.000000 
#    z -0.032840 0.000000 1.661300 
# 
# From -- ./inp_files/217680.got.cif
#   From: 2010.05.17/outbox.ucp.g08.bks.cvg/sg12_109_cif.got.tgz:217680.got - 2010.06.11 11:47:21.
