data_PCOD9224527
_publ_section_title
;
Structure prediction by ZEFSAII (Michael W. Deem and Ramdas Pophale) SiO2 
 PCOD9224527
Probable space group: C 2/M
;
_chemical_formula_sum "Si O2"
_cell_formula_units_Z 24
_cell_length_a 24.000000
_cell_length_b 9.000000
_cell_length_c 12.000000
_cell_angle_alpha 90.000000
_cell_angle_beta 90.000000
_cell_angle_gamma 90.000000
_cell_volume 2592.000000
_symmetry_space_group_name_H-M "C 2/M"
_symmetry_group_IT_number 12
_symmetry_cell_setting 'monoclinic'
loop_
_space_group_symop_operation_xyz
x,y,z
-x,y,-z
-x,-y,-z
x,-y,z
1/2+x,1/2+y,z
1/2-x,1/2+y,-z
1/2-x,1/2-y,-z
1/2+x,1/2-y,z
loop_
_atom_site_type_symbol
_atom_site_label
_atom_site_fract_x
_atom_site_fract_y
_atom_site_fract_z
Si Si1 0.989288 0.825677 0.374179
Si Si2 0.795030 0.675537 0.355046
Si Si3 0.066622 0.673738 0.987405
Si Si4 0.582768 0.821015 0.234332
Si Si5 0.178876 0.321674 0.397915
Si Si6 0.884205 0.171705 0.225554
O O1 0.025834 0.738113 0.285232
O O2 0.000000 0.770816 0.500000
O O3 0.926920 0.813484 0.328899
O O4 0.004900 0.000000 0.371816
O O5 0.786632 0.500000 0.356635
O O6 0.824738 0.718891 0.472026
O O7 0.736645 0.757911 0.355135
O O8 0.832130 0.726411 0.253174
O O9 0.080843 0.500000 0.967042
O O10 0.086454 0.773440 0.886162
O O11 0.091125 0.723373 0.106480
O O12 0.000000 0.681349 0.000000
O O13 0.629642 0.767046 0.319620
O O14 0.581223 0.000000 0.234458
O O15 0.179532 0.500000 0.391986
O O16 0.868074 0.000000 0.217005
#
# Coordination Sequence:
#
# PCOD9224527 Si02
#       6
#     8   8   8   8   8   8
#     4  10  21  34  50  77 111 142 173 216 268 319
#     4  10  20  35  57  82 109 142 178 220 270 321
#     4  10  20  36  56  78 107 143 182 223 266 315
#     4  10  20  35  56  80 106 140 179 220 266 316
#     4   9  19  36  57  82 110 140 177 220 269 323
#     4  11  22  35  54  79 109 144 182 222 265 317
#
# _framework density 9.2592590000000001
#
# number of rings (size 3 to 8) (size 9 to 14) (size 15 to 20)
#    0.000    2.000    1.667    2.000    0.000    3.333 
#    0.000    0.833    0.000    0.000    0.000    0.000 
#    0.000    0.000    0.000    0.000    0.000    0.000 
#
# Total GULP energy -133847.874970 kJ/mol
# GULP energy per Si atom -5576.994790 kJ/mol
# Density = 0.923818 g / cm^3
# Si number density = 9.259259 Si / 1000 Ang^3
#
#
#
# Elastic Constant Matrix: (Units=GPa)
#
#
# Indices 1 2 3 4 5 6 
#
# 1 37.0014 7.5064 13.7173 0.0000 1.3801 0.0000
# 2 7.5064 -40.2233 -23.5434 0.0000 0.6936 0.0000
# 3 13.7173 -23.5434 -24.0935 0.0000 -26.1588 0.0000
# 4 0.0000 0.0000 0.0000 13.4265 0.0000 0.2135
# 5 1.3801 0.6936 -26.1588 0.0000 14.1814 0.0000
# 6 0.0000 0.0000 0.0000 0.2135 0.0000 21.8272
#
#
#
# Elastic Compliance Matrix: (Units=1/GPa)
#
#
# Indices 1 2 3 4 5 6 
#
# 1 0.024570 0.001790 0.004972 0.000000 0.006693 0.000000
# 2 0.001790 -0.029805 0.009575 0.000000 0.018945 0.000000
# 3 0.004972 0.009575 -0.015651 0.000000 -0.029822 0.000000
# 4 0.000000 0.000000 0.000000 0.074491 0.000000 -0.000728
# 5 0.006693 0.018945 -0.029822 0.000000 0.013927 0.000000
# 6 0.000000 0.000000 0.000000 -0.000728 0.000000 0.045822
#
#
# Mechanical properties :
#
#
# Convention : Reuss Voigt Hill
#
# Bulk Modulus (GPa) = 84.83023 -3.55053 40.63985
# Shear Modulus (GPa) = 59.09537 8.22062 33.65800
#
# Velocity S-wave (km/s) = 5.65516 2.10921 4.26788
# Velocity P-wave (km/s) = 9.41004 2.00256 6.80291
#
# Compressibility (1/GPa) = 0.01178825
#
# Stress axis : x y z
#
# Youngs Moduli (GPa) = 40.70030 -33.55190 -63.89250
#
# Poissons Ratio (x) = 0.06007 0.31769
# Poissons Ratio (y) = -0.07286 0.61175
# Poissons Ratio (z) = -0.20237 0.32125
#
# Static dielectric constant tensor:
#      x y z
#    x 1.717760 0.000000 0.010200 
#    y 0.000000 1.614180 0.000000 
#    z 0.010200 0.000000 1.640620 
# 
# From -- ./inp_files/172069.got.cif
#   From: 2010.05.17/outbox.ucp.g08.bks.cvg/sg12_87_cif.got.tgz:172069.got - 2010.06.11 11:47:21.
