data_PCOD9224782
_publ_section_title
;
Structure prediction by ZEFSAII (Michael W. Deem and Ramdas Pophale) SiO2 
 PCOD9224782
Probable space group: C 2/M
;
_chemical_formula_sum "Si O2"
_cell_formula_units_Z 32
_cell_length_a 30.000000
_cell_length_b 9.000000
_cell_length_c 24.000000
_cell_angle_alpha 90.000000
_cell_angle_beta 30.000000
_cell_angle_gamma 90.000000
_cell_volume 3240.000000
_symmetry_space_group_name_H-M "C 2/M"
_symmetry_group_IT_number 12
_symmetry_cell_setting 'monoclinic'
loop_
_space_group_symop_operation_xyz
x,y,z
-x,y,-z
-x,-y,-z
x,-y,z
1/2+x,1/2+y,z
1/2-x,1/2+y,-z
1/2-x,1/2-y,-z
1/2+x,1/2-y,z
loop_
_atom_site_type_symbol
_atom_site_label
_atom_site_fract_x
_atom_site_fract_y
_atom_site_fract_z
Si Si1 0.103577 0.321325 0.896813
Si Si2 0.819052 0.321898 0.382188
Si Si3 0.981993 0.177685 0.262560
Si Si4 0.572095 0.674842 0.552354
Si Si5 0.426375 0.679066 0.623603
Si Si6 0.228766 0.321171 0.859074
Si Si7 0.823891 0.320207 0.959551
Si Si8 0.745899 0.677223 0.661121
O O1 0.111926 0.500000 0.877037
O O2 0.141785 0.288998 0.916671
O O3 0.173610 0.231619 0.783812
O O4 0.000000 0.282418 0.000000
O O5 0.818093 0.500000 0.386711
O O6 0.750000 0.250000 0.500000
O O7 0.916711 0.257732 0.289762
O O8 0.785089 0.264157 0.360152
O O9 0.937544 0.201055 0.371524
O O10 0.079286 0.250269 0.156280
O O11 0.986644 0.000000 0.248140
O O12 0.592166 0.500000 0.521201
O O13 0.476023 0.704006 0.628562
O O14 0.652598 0.768217 0.438763
O O15 0.500000 0.736033 0.500000
O O16 0.420808 0.500000 0.620675
O O17 0.324900 0.736854 0.733128
O O18 0.237928 0.500000 0.848445
O O19 0.208519 0.277913 0.943613
O O20 0.827462 0.500000 0.950954
O O21 0.750000 0.250000 0.000000
O O22 0.744265 0.500000 0.655975
#
# Coordination Sequence:
#
# PCOD9224782 Si02
#       8
#     8   8   8   8   8   8   8   8
#     4  10  22  41  66  92 120 162 216 266 316 379
#     4  12  24  41  64  93 127 165 210 260 317 379
#     4  11  23  39  61  91 125 164 211 259 316 382
#     4  10  20  36  60  87 118 159 203 253 308 374
#     4   9  16  29  56  88 115 146 196 254 308 364
#     4   9  19  37  60  90 123 161 209 263 320 380
#     4  11  23  40  63  91 128 173 218 268 323 384
#     4  12  25  40  61  90 127 166 204 256 319 379
#
# _framework density 9.8765429999999999
#
# number of rings (size 3 to 8) (size 9 to 14) (size 15 to 20)
#    0.000    1.500    1.250    4.500    1.750    4.750 
#    0.000    1.250    0.000    3.375    0.000    0.000 
#    0.000    0.000    0.000    0.000    0.000    0.000 
#
# Total GULP energy -178673.072959 kJ/mol
# GULP energy per Si atom -5583.533530 kJ/mol
# Density = 0.985406 g / cm^3
# Si number density = 9.876543 Si / 1000 Ang^3
#
#
#
# Elastic Constant Matrix: (Units=GPa)
#
#
# Indices 1 2 3 4 5 6 
#
# 1 95.6114 26.6941 55.5587 -0.0018 -13.0498 0.0006
# 2 26.6941 82.8629 46.8604 0.0082 -9.0948 -0.0013
# 3 55.5587 46.8604 136.4783 0.0052 -29.2323 -0.0020
# 4 -0.0018 0.0082 0.0052 32.7250 0.0003 -5.6990
# 5 -13.0498 -9.0948 -29.2323 0.0003 41.5227 -0.0006
# 6 0.0006 -0.0013 -0.0020 -5.6990 -0.0006 21.2064
#
#
#
# Elastic Compliance Matrix: (Units=1/GPa)
#
#
# Indices 1 2 3 4 5 6 
#
# 1 0.013873 -0.001590 -0.004996 0.000002 0.000495 0.000000
# 2 -0.001590 0.015164 -0.004657 -0.000003 -0.000457 0.000000
# 3 -0.004996 -0.004657 0.012253 -0.000001 0.006036 0.000001
# 4 0.000002 -0.000003 -0.000001 0.032058 -0.000001 0.008615
# 5 0.000495 -0.000457 0.006036 -0.000001 0.028388 0.000001
# 6 0.000000 0.000000 0.000001 0.008615 0.000001 0.049471
#
#
# Mechanical properties :
#
#
# Convention : Reuss Voigt Hill
#
# Bulk Modulus (GPa) = 53.17922 63.68655 58.43289
# Shear Modulus (GPa) = 27.78382 31.48013 29.63198
#
# Velocity S-wave (km/s) = 3.75448 3.99643 3.87734
# Velocity P-wave (km/s) = 6.76574 7.32165 7.04918
#
# Compressibility (1/GPa) = 0.01880434
#
# Stress axis : x y z
#
# Youngs Moduli (GPa) = 72.08021 65.94617 81.61347
#
# Poissons Ratio (x) = 0.10484 0.40773
# Poissons Ratio (y) = 0.11459 0.38010
# Poissons Ratio (z) = 0.36010 0.30713
#
# Static dielectric constant tensor:
#      x y z
#    x 1.806420 -0.000040 0.073830 
#    y -0.000040 2.212730 -0.000210 
#    z 0.073830 -0.000210 1.712940 
# 
# From -- ./inp_files/353357.got.cif
#   From: 2010.05.17/outbox.ucp.g08.bks.cvg/sg12_177_cif.got.tgz:353357.got - 2010.06.11 11:47:21.
