data_PCOD9224937
_publ_section_title
;
Structure prediction by ZEFSAII (Michael W. Deem and Ramdas Pophale) SiO2 
 PCOD9224937
Probable space group: C 2/M
;
_chemical_formula_sum "Si O2"
_cell_formula_units_Z 28
_cell_length_a 21.000000
_cell_length_b 18.000000
_cell_length_c 21.000000
_cell_angle_alpha 90.000000
_cell_angle_beta 20.000000
_cell_angle_gamma 90.000000
_cell_volume 2714.955898
_symmetry_space_group_name_H-M "C 2/M"
_symmetry_group_IT_number 12
_symmetry_cell_setting 'monoclinic'
loop_
_space_group_symop_operation_xyz
x,y,z
-x,y,-z
-x,-y,-z
x,-y,z
1/2+x,1/2+y,z
1/2-x,1/2+y,-z
1/2-x,1/2-y,-z
1/2+x,1/2-y,z
loop_
_atom_site_type_symbol
_atom_site_label
_atom_site_fract_x
_atom_site_fract_y
_atom_site_fract_z
Si Si1 0.965923 0.914904 0.304486
Si Si2 0.317808 0.915335 0.069938
Si Si3 0.881272 0.819704 0.268159
Si Si4 0.018664 0.647265 0.405365
Si Si5 0.307248 0.855660 0.342773
Si Si6 0.934473 0.811566 0.631285
Si Si7 0.097574 0.919358 0.976766
O O1 0.977543 0.855387 0.238423
O O2 0.767248 0.895130 0.523877
O O3 0.150043 0.907391 0.175822
O O4 0.961242 0.000000 0.287973
O O5 0.251860 0.858369 0.186052
O O6 0.318212 0.000000 0.092125
O O7 0.515987 0.894782 0.854208
O O8 0.683138 0.858283 0.437499
O O9 0.852787 0.732075 0.304301
O O10 0.012817 0.845985 0.087878
O O11 0.083280 0.730081 0.322211
O O12 0.180964 0.591012 0.234653
O O13 0.000000 0.641692 0.500000
O O14 0.113120 0.857846 0.486859
O O15 0.000000 0.793515 0.500000
O O16 0.055203 0.000000 0.047575
O O17 0.000000 0.921875 0.000000
#
# Coordination Sequence:
#
# PCOD9224937 Si02
#       7
#     8   8   8   8   8   8   8
#     4  10  22  39  58  83 117 150 192 245 290 339
#     4  10  21  38  58  82 116 153 187 236 297 344
#     4  11  22  38  61  87 114 152 198 239 282 340
#     4  10  20  38  58  81 115 155 192 232 283 336
#     4  10  21  38  61  86 112 152 191 238 287 338
#     4   9  20  37  58  86 116 148 191 237 283 342
#     4  11  23  36  54  83 119 155 191 233 281 334
#
# _framework density 10.313243
#
# number of rings (size 3 to 8) (size 9 to 14) (size 15 to 20)
#    0.000    1.857    1.429    2.143    0.000    4.571 
#    0.000    0.714    0.000    0.000    0.000    0.000 
#    0.000    0.000    0.000    0.000    0.000    0.000 
#
# Total GULP energy -155895.027625 kJ/mol
# GULP energy per Si atom -5567.679558 kJ/mol
# Density = 1.028977 g / cm^3
# Si number density = 10.313243 Si / 1000 Ang^3
#
#
#
# Elastic Constant Matrix: (Units=GPa)
#
#
# Indices 1 2 3 4 5 6 
#
# 1 -18.8927 -8.3181 -3.8093 -0.0360 2.0351 -0.0187
# 2 -8.3181 32.0554 22.7138 0.0738 -5.6320 0.0109
# 3 -3.8093 22.7138 89.5845 0.0732 -5.5603 0.0437
# 4 -0.0360 0.0738 0.0732 71.2982 0.0115 -40.2332
# 5 2.0351 -5.6320 -5.5603 0.0115 17.5369 0.0392
# 6 -0.0187 0.0109 0.0437 -40.2332 0.0392 0.5787
#
#
#
# Elastic Compliance Matrix: (Units=1/GPa)
#
#
# Indices 1 2 3 4 5 6 
#
# 1 -0.047319 -0.012946 0.001380 0.000023 0.001771 0.000062
# 2 -0.012946 0.036047 -0.009057 0.000017 0.010207 0.000095
# 3 0.001380 -0.009057 0.013595 0.000013 0.001242 0.000031
# 4 0.000023 0.000017 0.000013 -0.000367 0.000064 -0.025505
# 5 0.001771 0.010207 0.001242 0.000064 0.060488 0.000151
# 6 0.000062 0.000095 0.000031 -0.025505 0.000151 -0.045198
#
#
# Mechanical properties :
#
#
# Convention : Reuss Voigt Hill
#
# Bulk Modulus (GPa) = -25.69326 13.76890 -5.96218
# Shear Modulus (GPa) = 109.84618 24.02680 66.93649
#
# Velocity S-wave (km/s) = 7.30551 3.41670 5.70282
# Velocity P-wave (km/s) = 7.66011 4.71751 6.36129
#
# Compressibility (1/GPa) = -0.03892072
#
# Stress axis : x y z
#
# Youngs Moduli (GPa) = -21.13337 27.74123 73.55830
#
# Poissons Ratio (x) = 0.35912 -0.10152
# Poissons Ratio (y) = -0.27358 0.66620
# Poissons Ratio (z) = 0.02917 0.25124
#
# Static dielectric constant tensor:
#      x y z
#    x 1.915210 -0.000010 0.158730 
#    y -0.000010 1.797160 0.000090 
#    z 0.158730 0.000090 1.730080 
# 
# From -- ./inp_files/322638.got.cif
#   From: 2010.05.17/outbox.ucp.g08.bks.cvg/sg12_162_cif.got.tgz:322638.got - 2010.06.11 11:47:21.
