data_PCOD9224102
_publ_section_title
;
Structure prediction by ZEFSAII (Michael W. Deem and Ramdas Pophale) SiO2 
 PCOD9224102
Probable space group: C 2/M
;
_chemical_formula_sum "Si O2"
_cell_formula_units_Z 30
_cell_length_a 12.000000
_cell_length_b 24.000000
_cell_length_c 21.000000
_cell_angle_alpha 90.000000
_cell_angle_beta 150.000000
_cell_angle_gamma 90.000000
_cell_volume 3024.000000
_symmetry_space_group_name_H-M "C 2/M"
_symmetry_group_IT_number 12
_symmetry_cell_setting 'monoclinic'
loop_
_space_group_symop_operation_xyz
x,y,z
-x,y,-z
-x,-y,-z
x,-y,z
1/2+x,1/2+y,z
1/2-x,1/2+y,-z
1/2-x,1/2-y,-z
1/2+x,1/2-y,z
loop_
_atom_site_type_symbol
_atom_site_label
_atom_site_fract_x
_atom_site_fract_y
_atom_site_fract_z
Si Si1 0.725282 0.274400 0.574241
Si Si2 0.935208 0.139400 0.598730
Si Si3 0.563036 0.064566 0.363239
Si Si4 0.122145 0.194577 0.804197
Si Si5 0.657680 0.879246 0.286692
Si Si6 0.566239 0.565675 0.106207
Si Si7 0.000000 0.224900 0.000000
Si Si8 0.268524 0.344790 0.000189
O O1 0.500000 0.261499 0.500000
O O2 0.646983 0.299142 0.466632
O O3 0.834028 0.329483 0.658515
O O4 0.894236 0.227698 0.681511
O O5 0.724777 0.099247 0.488940
O O6 0.072284 0.143407 0.732151
O O7 0.105830 0.117556 0.629956
O O8 0.612449 0.069654 0.311536
O O9 0.311957 0.087125 0.242796
O O10 0.570669 0.000000 0.384584
O O11 0.317158 0.235356 0.876599
O O12 0.191579 0.182881 0.911467
O O13 0.477543 0.860707 0.145232
O O14 0.563158 0.500000 0.113059
O O15 0.394926 0.596761 0.065500
O O16 0.500000 0.576628 0.000000
O O17 0.881949 0.189860 0.998010
#
# Coordination Sequence:
#
# PCOD9224102 Si02
#       8
#     8   8   8   8   8   8   4   8
#     4   9  20  36  55  76 112 157 197 240 284 337
#     4  10  23  38  55  82 123 158 196 242 293 351
#     4  10  20  38  66  92 112 148 199 249 300 352
#     4  12  25  37  57  85 120 163 199 237 297 356
#     4  10  19  37  56  85 118 149 194 249 290 336
#     4  10  20  38  64  92 117 145 190 252 306 344
#     4  12  24  38  61  86 119 164 206 250 286 342
#     4  12  23  38  62  90 121 154 204 248 295 356
#
# _framework density 9.9206350000000008
#
# number of rings (size 3 to 8) (size 9 to 14) (size 15 to 20)
#    0.000    1.467    3.333    2.800    5.600    2.133 
#    0.000    0.667    0.000    1.600    0.000    3.733 
#    0.000    0.000    0.000    0.000    0.000    0.000 
#
# Total GULP energy -167038.286171 kJ/mol
# GULP energy per Si atom -5567.942872 kJ/mol
# Density = 0.989806 g / cm^3
# Si number density = 9.920635 Si / 1000 Ang^3
#
#
#
# Elastic Constant Matrix: (Units=GPa)
#
#
# Indices 1 2 3 4 5 6 
#
# 1 15.6966 5.6202 25.3065 0.0065 -4.4789 0.0013
# 2 5.6202 15.7459 19.9781 0.0022 9.9762 0.0008
# 3 25.3065 19.9781 103.5608 0.0216 -10.1493 0.0055
# 4 0.0065 0.0022 0.0216 25.3107 0.0064 -2.4511
# 5 -4.4789 9.9762 -10.1493 0.0064 22.6802 0.0012
# 6 0.0013 0.0008 0.0055 -2.4511 0.0012 17.2314
#
#
#
# Elastic Compliance Matrix: (Units=1/GPa)
#
#
# Indices 1 2 3 4 5 6 
#
# 1 0.115026 -0.039714 -0.017266 -0.000020 0.032458 -0.000007
# 2 -0.039714 0.201534 -0.040402 0.000058 -0.114570 0.000023
# 3 -0.017266 -0.040402 0.024135 -0.000020 0.025162 -0.000009
# 4 -0.000020 0.000058 -0.000020 0.040061 -0.000050 0.005699
# 5 0.032458 -0.114570 0.025162 -0.000050 0.112157 -0.000020
# 6 -0.000007 0.000023 -0.000009 0.005699 -0.000020 0.058844
#
#
# Mechanical properties :
#
#
# Convention : Reuss Voigt Hill
#
# Bulk Modulus (GPa) = 6.85253 26.31254 16.58253
# Shear Modulus (GPa) = 6.28800 18.65102 12.46951
#
# Velocity S-wave (km/s) = 1.78214 3.06929 2.50964
# Velocity P-wave (km/s) = 2.77415 5.08439 4.09554
#
# Compressibility (1/GPa) = 0.14593156
#
# Stress axis : x y z
#
# Youngs Moduli (GPa) = 8.69365 4.96195 41.43306
#
# Poissons Ratio (x) = 0.19706 0.71538
# Poissons Ratio (y) = 0.34526 1.67397
# Poissons Ratio (z) = 0.15010 0.20047
#
# Static dielectric constant tensor:
#      x y z
#    x 1.788460 -0.000020 -0.005950 
#    y -0.000020 1.826060 -0.000010 
#    z -0.005950 -0.000010 1.719860 
# 
# From -- ./inp_files/307289.got.cif
#   From: 2010.05.17/outbox.ucp.g08.bks.cvg/sg12_154_cif.got.tgz:307289.got - 2010.06.11 11:47:21.
