data_PCOD9224735
_publ_section_title
;
Structure prediction by ZEFSAII (Michael W. Deem and Ramdas Pophale) SiO2 
 PCOD9224735
Probable space group: C 2/M
;
_chemical_formula_sum "Si O2"
_cell_formula_units_Z 30
_cell_length_a 9.000000
_cell_length_b 21.000000
_cell_length_c 27.000000
_cell_angle_alpha 90.000000
_cell_angle_beta 40.000000
_cell_angle_gamma 90.000000
_cell_volume 3280.145172
_symmetry_space_group_name_H-M "C 2/M"
_symmetry_group_IT_number 12
_symmetry_cell_setting 'monoclinic'
loop_
_space_group_symop_operation_xyz
x,y,z
-x,y,-z
-x,-y,-z
x,-y,z
1/2+x,1/2+y,z
1/2-x,1/2+y,-z
1/2-x,1/2-y,-z
1/2+x,1/2-y,z
loop_
_atom_site_type_symbol
_atom_site_label
_atom_site_fract_x
_atom_site_fract_y
_atom_site_fract_z
Si Si1 0.583139 0.669064 0.716193
Si Si2 0.305361 0.660297 0.585204
Si Si3 0.533249 0.268830 0.358410
Si Si4 0.589916 0.807481 0.876467
Si Si5 0.500000 0.876980 0.000000
Si Si6 0.639031 0.924712 0.298625
Si Si7 0.987725 0.073608 0.118612
Si Si8 0.171128 0.181950 0.911135
O O1 0.520852 0.689573 0.676295
O O2 0.336760 0.660564 0.804706
O O3 0.742276 0.607552 0.683675
O O4 0.732805 0.725909 0.703496
O O5 0.500000 0.631921 0.500000
O O6 0.426095 0.689202 0.603230
O O7 0.176961 0.717987 0.588329
O O8 0.101794 0.611113 0.650022
O O9 0.421874 0.816470 0.872752
O O10 0.640473 0.733917 0.875798
O O11 0.484149 0.835906 0.953799
O O12 0.256453 0.913956 0.063312
O O13 0.818518 0.911984 0.207980
O O14 0.608839 0.000000 0.311431
O O15 0.904792 0.116197 0.093975
O O16 0.960593 0.000000 0.113165
O O17 0.000000 0.197746 0.000000
#
# Coordination Sequence:
#
# PCOD9224735 Si02
#       8
#     8   8   8   8   4   8   8   8
#     4  10  20  36  58  85 118 152 188 238 289 349
#     4  10  20  37  63  92 123 153 188 237 294 353
#     4   9  20  35  60  94 120 148 187 237 295 354
#     4  12  23  35  60  86 116 149 190 246 298 350
#     4  12  21  42  62  84 111 154 204 244 302 342
#     4  10  23  41  59  82 116 159 200 240 287 345
#     4  11  25  43  59  80 115 158 203 246 290 347
#     4  12  24  38  55  85 118 148 192 248 298 349
#
# _framework density 9.145937
#
# number of rings (size 3 to 8) (size 9 to 14) (size 15 to 20)
#    0.000    1.333    3.333    2.600    7.467    0.533 
#    0.000    1.333    0.000    0.800    0.000    0.000 
#    0.000    0.000    0.000    0.000    0.000    0.000 
#
# Total GULP energy -167437.670289 kJ/mol
# GULP energy per Si atom -5581.255676 kJ/mol
# Density = 0.912512 g / cm^3
# Si number density = 9.145937 Si / 1000 Ang^3
#
#
#
# Elastic Constant Matrix: (Units=GPa)
#
#
# Indices 1 2 3 4 5 6 
#
# 1 142.3582 49.4503 26.6296 -0.0007 -3.1072 -0.0038
# 2 49.4503 78.1711 30.1607 -0.0032 4.4928 -0.0123
# 3 26.6296 30.1607 75.7120 -0.0248 -10.5408 0.0042
# 4 -0.0007 -0.0032 -0.0248 14.4511 0.0023 4.0621
# 5 -3.1072 4.4928 -10.5408 0.0023 14.6436 0.0001
# 6 -0.0038 -0.0123 0.0042 4.0621 0.0001 13.8321
#
#
#
# Elastic Compliance Matrix: (Units=1/GPa)
#
#
# Indices 1 2 3 4 5 6 
#
# 1 0.009216 -0.005864 -0.000425 -0.000002 0.003449 -0.000002
# 2 -0.005864 0.020281 -0.007842 -0.000014 -0.013112 0.000023
# 3 -0.000425 -0.007842 0.018676 0.000034 0.015759 -0.000023
# 4 -0.000002 -0.000014 0.000034 0.075425 0.000017 -0.022150
# 5 0.003449 -0.013112 0.015759 0.000017 0.084387 -0.000021
# 6 -0.000002 0.000023 -0.000023 -0.022150 -0.000021 0.078800
#
#
# Mechanical properties :
#
#
# Convention : Reuss Voigt Hill
#
# Bulk Modulus (GPa) = 50.22672 56.52471 53.37572
# Shear Modulus (GPa) = 15.54307 21.25209 18.39758
#
# Velocity S-wave (km/s) = 2.91817 3.41226 3.17484
# Velocity P-wave (km/s) = 6.23477 6.81860 6.53321
#
# Compressibility (1/GPa) = 0.01990972
#
# Stress axis : x y z
#
# Youngs Moduli (GPa) = 108.50181 49.30604 53.54572
#
# Poissons Ratio (x) = 0.28915 0.02278
# Poissons Ratio (y) = 0.63629 0.41992
# Poissons Ratio (z) = 0.04615 0.38667
#
# Static dielectric constant tensor:
#      x y z
#    x 1.606940 0.000000 -0.000770 
#    y 0.000000 1.625720 0.000010 
#    z -0.000770 0.000010 1.656380 
# 
# From -- ./inp_files/258157.got.cif
#   From: 2010.05.17/outbox.ucp.g08.bks.cvg/sg12_130_cif.got.tgz:258157.got - 2010.06.11 11:47:21.
