data_PCOD9224482
_publ_section_title
;
Structure prediction by ZEFSAII (Michael W. Deem and Ramdas Pophale) SiO2 
 PCOD9224482
Probable space group: C 2/M
;
_chemical_formula_sum "Si O2"
_cell_formula_units_Z 28
_cell_length_a 15.000000
_cell_length_b 9.000000
_cell_length_c 30.000000
_cell_angle_alpha 90.000000
_cell_angle_beta 50.000000
_cell_angle_gamma 90.000000
_cell_volume 3102.479995
_symmetry_space_group_name_H-M "C 2/M"
_symmetry_group_IT_number 12
_symmetry_cell_setting 'monoclinic'
loop_
_space_group_symop_operation_xyz
x,y,z
-x,y,-z
-x,-y,-z
x,-y,z
1/2+x,1/2+y,z
1/2-x,1/2+y,-z
1/2-x,1/2-y,-z
1/2+x,1/2-y,z
loop_
_atom_site_type_symbol
_atom_site_label
_atom_site_fract_x
_atom_site_fract_y
_atom_site_fract_z
Si Si1 0.190338 0.178824 0.062998
Si Si2 0.437777 0.179917 0.151166
Si Si3 0.286336 0.179276 0.379035
Si Si4 0.392058 0.179560 0.065074
Si Si5 0.747905 0.819665 0.712131
Si Si6 0.641614 0.319973 0.507668
Si Si7 0.504257 0.179312 0.371910
O O1 0.274639 0.215855 0.077058
O O2 0.064061 0.245636 0.113303
O O3 0.185455 0.000000 0.059232
O O4 0.250000 0.250000 0.000000
O O5 0.393236 0.225823 0.116157
O O6 0.349687 0.219272 0.219600
O O7 0.450169 0.000000 0.147804
O O8 0.283911 0.227976 0.328459
O O9 0.174516 0.219205 0.445921
O O10 0.402895 0.222452 0.368920
O O11 0.287075 0.000000 0.377792
O O12 0.402289 0.000000 0.062408
O O13 0.500000 0.235062 0.000000
O O14 0.871723 0.744110 0.682333
O O15 0.760138 0.000000 0.708682
O O16 0.638608 0.500000 0.512218
O O17 0.750000 0.250000 0.500000
O O18 0.532220 0.250513 0.568638
O O19 0.506003 0.000000 0.374669
#
# Coordination Sequence:
#
# PCOD9224482 Si02
#       7
#     8   8   8   8   8   8   8
#     4  11  21  35  58  83 109 139 173 214 263 315
#     4  10  21  38  57  79 108 143 181 218 261 319
#     4   8  17  34  54  76 106 143 176 219 276 321
#     4   9  17  33  56  79 109 142 167 205 267 320
#     4  10  21  37  56  77 104 143 187 220 258 322
#     4   9  16  30  53  79 107 140 180 223 273 322
#     4  10  20  35  54  77 109 143 179 224 276 319
#
# _framework density 9.0250380000000003
#
# number of rings (size 3 to 8) (size 9 to 14) (size 15 to 20)
#    0.000    2.429    1.429    2.143    0.000    2.286 
#    0.000    9.286    0.000    0.000    0.000    0.000 
#    0.000    0.000    0.000    0.000    0.000    0.000 
#
# Total GULP energy -156098.037294 kJ/mol
# GULP energy per Si atom -5574.929903 kJ/mol
# Density = 0.900450 g / cm^3
# Si number density = 9.025038 Si / 1000 Ang^3
#
#
#
# Elastic Constant Matrix: (Units=GPa)
#
#
# Indices 1 2 3 4 5 6 
#
# 1 101.2949 24.0628 67.1595 0.0000 3.3151 -0.0001
# 2 24.0628 46.2641 40.1567 0.0000 -6.2076 -0.0001
# 3 67.1595 40.1567 177.1604 0.0000 -2.6550 0.0000
# 4 0.0000 0.0000 0.0000 28.8378 0.0000 -9.8474
# 5 3.3151 -6.2076 -2.6550 0.0000 35.6503 0.0000
# 6 -0.0001 -0.0001 0.0000 -9.8474 0.0000 22.6552
#
#
#
# Elastic Compliance Matrix: (Units=1/GPa)
#
#
# Indices 1 2 3 4 5 6 
#
# 1 0.013734 -0.003604 -0.004423 0.000000 -0.002234 0.000000
# 2 -0.003604 0.028510 -0.005022 0.000000 0.004925 0.000000
# 3 -0.004423 -0.005022 0.008462 0.000000 0.000167 0.000000
# 4 0.000000 0.000000 0.000000 0.040721 0.000000 0.017700
# 5 -0.002234 0.004925 0.000167 0.000000 0.029128 0.000000
# 6 0.000000 0.000000 0.000000 0.017700 0.000000 0.051834
#
#
# Mechanical properties :
#
#
# Convention : Reuss Voigt Hill
#
# Bulk Modulus (GPa) = 40.63806 65.27525 52.95665
# Shear Modulus (GPa) = 24.19098 30.31801 27.25449
#
# Velocity S-wave (km/s) = 3.66487 4.10281 3.89001
# Velocity P-wave (km/s) = 6.36170 7.66068 7.04121
#
# Compressibility (1/GPa) = 0.02460748
#
# Stress axis : x y z
#
# Youngs Moduli (GPa) = 72.81288 35.07589 118.17314
#
# Poissons Ratio (x) = 0.12641 0.52267
# Poissons Ratio (y) = 0.26241 0.59349
# Poissons Ratio (z) = 0.32205 0.17616
#
# Static dielectric constant tensor:
#      x y z
#    x 1.654580 0.000000 0.007450 
#    y 0.000000 1.602110 0.000000 
#    z 0.007450 0.000000 1.617310 
# 
# From -- ./inp_files/374938.got.cif
#   From: 2010.05.17/outbox.ucp.g08.bks.cvg/sg12_188_cif.got.tgz:374938.got - 2010.06.11 11:47:21.
