data_PCOD9224177
_publ_section_title
;
Structure prediction by ZEFSAII (Michael W. Deem and Ramdas Pophale) SiO2 
 PCOD9224177
Probable space group: C 2/M
;
_chemical_formula_sum "Si O2"
_cell_formula_units_Z 32
_cell_length_a 27.000000
_cell_length_b 9.000000
_cell_length_c 15.000000
_cell_angle_alpha 90.000000
_cell_angle_beta 70.000000
_cell_angle_gamma 90.000000
_cell_volume 3425.179603
_symmetry_space_group_name_H-M "C 2/M"
_symmetry_group_IT_number 12
_symmetry_cell_setting 'monoclinic'
loop_
_space_group_symop_operation_xyz
x,y,z
-x,y,-z
-x,-y,-z
x,-y,z
1/2+x,1/2+y,z
1/2-x,1/2+y,-z
1/2-x,1/2-y,-z
1/2+x,1/2-y,z
loop_
_atom_site_type_symbol
_atom_site_label
_atom_site_fract_x
_atom_site_fract_y
_atom_site_fract_z
Si Si1 0.676027 0.321278 0.709043
Si Si2 0.523912 0.166944 0.885587
Si Si3 0.873316 0.320520 0.716534
Si Si4 0.061327 0.167235 0.477696
Si Si5 0.122854 0.677219 0.580099
Si Si6 0.618427 0.674245 0.912539
Si Si7 0.413028 0.179188 0.884969
Si Si8 0.707188 0.820263 0.376820
O O1 0.671668 0.500000 0.700301
O O2 0.635475 0.242331 0.668273
O O3 0.667750 0.291181 0.818965
O O4 0.733913 0.266554 0.647013
O O5 0.570716 0.279696 0.875729
O O6 0.475433 0.217803 0.853734
O O7 0.541522 0.000000 0.847779
O O8 0.500000 0.152466 0.000000
O O9 0.876337 0.500000 0.714548
O O10 0.914469 0.256649 0.620019
O O11 0.886236 0.271198 0.809121
O O12 0.818321 0.277347 0.702605
O O13 0.072876 0.251689 0.562585
O O14 0.000000 0.157771 0.500000
O O15 0.083906 0.000000 0.467234
O O16 0.119229 0.500000 0.584785
O O17 0.169420 0.721895 0.481760
O O18 0.615993 0.500000 0.932542
O O19 0.613597 0.758535 0.008888
O O20 0.411115 0.000000 0.890442
O O21 0.708952 0.000000 0.375822
#
# Coordination Sequence:
#
# PCOD9224177 Si02
#       8
#     8   8   8   8   8   8   8   8
#     4  10  20  34  51  73 104 136 164 205 260 305
#     4   8  15  29  47  66  91 124 159 197 244 290
#     4   9  18  34  56  78  98 130 176 213 246 292
#     4  10  21  36  53  77 110 140 163 197 249 302
#     4  10  20  34  55  79  99 129 173 211 246 295
#     4  10  20  31  46  71 101 132 166 204 247 298
#     4   9  18  33  52  72  97 130 166 207 251 293
#     4   8  16  33  54  74  98 129 166 208 252 300
#
# _framework density 9.3425759999999993
#
# number of rings (size 3 to 8) (size 9 to 14) (size 15 to 20)
#    0.000    2.750    0.000    3.000    0.000    5.750 
#    0.000    5.625    0.000    0.000    0.000    0.000 
#    0.000    0.000    0.000    0.000    0.000    0.000 
#
# Total GULP energy -178187.592292 kJ/mol
# GULP energy per Si atom -5568.362259 kJ/mol
# Density = 0.932131 g / cm^3
# Si number density = 9.342576 Si / 1000 Ang^3
#
#
#
# Elastic Constant Matrix: (Units=GPa)
#
#
# Indices 1 2 3 4 5 6 
#
# 1 53.2024 14.3100 30.4117 0.0000 21.0578 0.0000
# 2 14.3100 17.0637 17.7569 0.0000 7.7732 0.0000
# 3 30.4117 17.7569 68.8367 0.0000 32.2912 0.0000
# 4 0.0000 0.0000 0.0000 26.1841 0.0000 4.6727
# 5 21.0578 7.7732 32.2912 0.0000 30.5309 0.0000
# 6 0.0000 0.0000 0.0000 4.6727 0.0000 14.0325
#
#
#
# Elastic Compliance Matrix: (Units=1/GPa)
#
#
# Indices 1 2 3 4 5 6 
#
# 1 0.030162 -0.016241 -0.002613 0.000000 -0.013904 0.000000
# 2 -0.016241 0.088982 -0.020652 0.000000 0.010390 0.000000
# 3 -0.002613 -0.020652 0.035123 0.000000 -0.030088 0.000000
# 4 0.000000 0.000000 0.000000 0.040604 0.000000 -0.013521
# 5 -0.013904 0.010390 -0.030088 0.000000 0.071521 0.000000
# 6 0.000000 0.000000 0.000000 -0.013521 0.000000 0.075766
#
#
# Mechanical properties :
#
#
# Convention : Reuss Voigt Hill
#
# Bulk Modulus (GPa) = 13.28833 29.34001 21.31417
# Shear Modulus (GPa) = 11.20436 19.25777 15.23107
#
# Velocity S-wave (km/s) = 2.45141 3.21385 2.85817
# Velocity P-wave (km/s) = 3.89098 5.43214 4.72482
#
# Compressibility (1/GPa) = 0.07525403
#
# Stress axis : x y z
#
# Youngs Moduli (GPa) = 33.15458 11.23824 28.47127
#
# Poissons Ratio (x) = 0.18252 0.07441
# Poissons Ratio (y) = 0.53846 0.58799
# Poissons Ratio (z) = 0.08665 0.23209
#
# Static dielectric constant tensor:
#      x y z
#    x 1.697590 0.000000 -0.038470 
#    y 0.000000 1.643960 0.000000 
#    z -0.038470 0.000000 1.647880 
# 
# From -- ./inp_files/243863.got.cif
#   From: 2010.05.17/outbox.ucp.g08.bks.cvg/sg12_122_cif.got.tgz:243863.got - 2010.06.11 11:47:21.
