data_PCOD9224180
_publ_section_title
;
Structure prediction by ZEFSAII (Michael W. Deem and Ramdas Pophale) SiO2 
 PCOD9224180
Probable space group: C 2/M
;
_chemical_formula_sum "Si O2"
_cell_formula_units_Z 28
_cell_length_a 21.000000
_cell_length_b 9.000000
_cell_length_c 21.000000
_cell_angle_alpha 90.000000
_cell_angle_beta 130.000000
_cell_angle_gamma 90.000000
_cell_volume 3040.430395
_symmetry_space_group_name_H-M "C 2/M"
_symmetry_group_IT_number 12
_symmetry_cell_setting 'monoclinic'
loop_
_space_group_symop_operation_xyz
x,y,z
-x,y,-z
-x,-y,-z
x,-y,z
1/2+x,1/2+y,z
1/2-x,1/2+y,-z
1/2-x,1/2-y,-z
1/2+x,1/2-y,z
loop_
_atom_site_type_symbol
_atom_site_label
_atom_site_fract_x
_atom_site_fract_y
_atom_site_fract_z
Si Si1 0.263147 0.822034 0.778534
Si Si2 0.554951 0.679767 0.097355
Si Si3 0.098751 0.820629 0.743635
Si Si4 0.808003 0.678996 0.395090
Si Si5 0.347077 0.329015 0.618195
Si Si6 0.993158 0.171680 0.190994
Si Si7 0.449839 0.176549 0.575435
O O1 0.353122 0.749077 0.846558
O O2 0.193625 0.785613 0.787359
O O3 0.223023 0.761658 0.687357
O O4 0.271809 0.000000 0.781072
O O5 0.564107 0.500000 0.108933
O O6 0.506255 0.736000 0.129250
O O7 0.500000 0.711447 0.000000
O O8 0.067286 0.765382 0.792870
O O9 0.035370 0.755489 0.650142
O O10 0.088543 0.000000 0.736223
O O11 0.805092 0.500000 0.383295
O O12 0.740625 0.712291 0.407369
O O13 0.900178 0.718451 0.479238
O O14 0.343025 0.500000 0.591477
O O15 0.415405 0.328289 0.718464
O O16 0.385165 0.222035 0.589754
O O17 0.966799 0.000000 0.165375
O O18 0.462759 0.000000 0.582794
#
# Coordination Sequence:
#
# PCOD9224180 Si02
#       7
#     8   8   8   8   8   8   8
#     4  11  23  37  56  81 109 144 184 232 275 317
#     4  10  20  37  63  89 110 136 174 221 276 339
#     4   9  20  38  55  73 108 155 190 217 269 329
#     4  10  20  34  51  74 110 149 184 225 278 328
#     4   9  16  30  51  72 105 149 182 218 271 328
#     4   8  14  31  57  78 101 141 182 212 257 326
#     4  10  20  31  49  79 109 142 187 237 271 306
#
# _framework density 9.2092229999999997
#
# number of rings (size 3 to 8) (size 9 to 14) (size 15 to 20)
#    0.000    2.429    1.429    2.143    0.000    3.714 
#    0.000    3.571    0.000    0.000    0.000    0.000 
#    0.000    0.000    0.000    0.000    0.000    0.000 
#
# Total GULP energy -156132.657865 kJ/mol
# GULP energy per Si atom -5576.166352 kJ/mol
# Density = 0.918826 g / cm^3
# Si number density = 9.209223 Si / 1000 Ang^3
#
#
#
# Elastic Constant Matrix: (Units=GPa)
#
#
# Indices 1 2 3 4 5 6 
#
# 1 98.3748 22.5216 63.6795 0.0000 12.2833 0.0000
# 2 22.5216 22.6004 31.1196 0.0000 4.3832 0.0000
# 3 63.6795 31.1196 116.8356 0.0000 -3.8259 0.0000
# 4 0.0000 0.0000 0.0000 20.1712 0.0000 4.2463
# 5 12.2833 4.3832 -3.8259 0.0000 12.7084 0.0000
# 6 0.0000 0.0000 0.0000 4.2463 0.0000 24.9015
#
#
#
# Elastic Compliance Matrix: (Units=1/GPa)
#
#
# Indices 1 2 3 4 5 6 
#
# 1 0.021173 0.001074 -0.012633 0.000000 -0.024639 0.000000
# 2 0.001074 0.083442 -0.024024 0.000000 -0.037050 0.000000
# 3 -0.012633 -0.024024 0.022739 0.000000 0.027342 0.000000
# 4 0.000000 0.000000 0.000000 0.051421 0.000000 -0.008769
# 5 -0.024639 -0.037050 0.027342 0.000000 0.123513 0.000000
# 6 0.000000 0.000000 0.000000 -0.008769 0.000000 0.041653
#
#
# Mechanical properties :
#
#
# Convention : Reuss Voigt Hill
#
# Bulk Modulus (GPa) = 17.79722 52.49470 35.14596
# Shear Modulus (GPa) = 11.52506 19.58888 15.55697
#
# Velocity S-wave (km/s) = 2.50418 3.26474 2.90942
# Velocity P-wave (km/s) = 4.24793 6.54022 5.51450
#
# Compressibility (1/GPa) = 0.05618856
#
# Stress axis : x y z
#
# Youngs Moduli (GPa) = 47.22917 11.98437 43.97784
#
# Poissons Ratio (x) = -0.01287 0.55558
# Poissons Ratio (y) = -0.05073 1.05652
# Poissons Ratio (z) = 0.59665 0.28791
#
# Static dielectric constant tensor:
#      x y z
#    x 1.665900 0.000000 -0.026550 
#    y 0.000000 1.624930 0.000000 
#    z -0.026550 0.000000 1.628050 
# 
# From -- ./inp_files/320278.got.cif
#   From: 2010.05.17/outbox.ucp.g08.bks.cvg/sg12_161_cif.got.tgz:320278.got - 2010.06.11 11:47:21.
