data_PCOD9224316
_publ_section_title
;
Structure prediction by ZEFSAII (Michael W. Deem and Ramdas Pophale) SiO2 
 PCOD9224316
Probable space group: C 2/M
;
_chemical_formula_sum "Si O2"
_cell_formula_units_Z 24
_cell_length_a 18.000000
_cell_length_b 9.000000
_cell_length_c 15.000000
_cell_angle_alpha 90.000000
_cell_angle_beta 90.000000
_cell_angle_gamma 90.000000
_cell_volume 2430.000000
_symmetry_space_group_name_H-M "C 2/M"
_symmetry_group_IT_number 12
_symmetry_cell_setting 'monoclinic'
loop_
_space_group_symop_operation_xyz
x,y,z
-x,y,-z
-x,-y,-z
x,-y,z
1/2+x,1/2+y,z
1/2-x,1/2+y,-z
1/2-x,1/2-y,-z
1/2+x,1/2-y,z
loop_
_atom_site_type_symbol
_atom_site_label
_atom_site_fract_x
_atom_site_fract_y
_atom_site_fract_z
Si Si1 0.558008 0.825451 0.622514
Si Si2 0.905958 0.326537 0.177947
Si Si3 0.326653 0.825559 0.519928
Si Si4 0.562451 0.677102 0.127850
Si Si5 0.097621 0.675975 0.299796
Si Si6 0.673933 0.676216 0.971480
O O1 0.601587 0.813975 0.715695
O O2 0.605545 0.764216 0.540862
O O3 0.477241 0.766997 0.650344
O O4 0.543964 0.000000 0.602262
O O5 0.901570 0.500000 0.154669
O O6 0.985658 0.262866 0.145882
O O7 0.845918 0.232406 0.126073
O O8 0.250000 0.750000 0.500000
O O9 0.341741 0.813205 0.624428
O O10 0.322300 0.000000 0.497626
O O11 0.548902 0.500000 0.127087
O O12 0.611268 0.728064 0.212430
O O13 0.606298 0.718115 0.038287
O O14 0.086662 0.500000 0.276153
O O15 0.680363 0.500000 0.975196
O O16 0.750000 0.750000 0.000000
#
# Coordination Sequence:
#
# PCOD9224316 Si02
#       6
#     8   8   8   8   8   8
#     4   8  16  33  56  78 101 134 176 217 257 307
#     4  10  20  36  60  85 107 138 180 222 267 319
#     4  10  20  34  52  76 108 141 173 213 263 318
#     4  10  21  37  57  81 109 141 177 221 271 319
#     4   9  18  34  57  80 100 134 183 224 259 306
#     4  11  24  39  55  78 110 146 181 219 268 321
#
# _framework density 9.8765429999999999
#
# number of rings (size 3 to 8) (size 9 to 14) (size 15 to 20)
#    0.000    2.333    0.000    3.500    0.000    8.667 
#    0.000    9.167    0.000    5.000    0.000    0.000 
#    0.000    0.000    0.000    0.000    0.000    0.000 
#
# Total GULP energy -133818.593517 kJ/mol
# GULP energy per Si atom -5575.774730 kJ/mol
# Density = 0.985406 g / cm^3
# Si number density = 9.876543 Si / 1000 Ang^3
#
#
#
# Elastic Constant Matrix: (Units=GPa)
#
#
# Indices 1 2 3 4 5 6 
#
# 1 4.1437 -0.7986 2.2366 0.0000 23.1312 0.0000
# 2 -0.7986 13.2662 18.3139 0.0000 10.6909 0.0000
# 3 2.2366 18.3139 54.1551 0.0000 4.5702 0.0000
# 4 0.0000 0.0000 0.0000 24.5319 0.0000 1.8894
# 5 23.1312 10.6909 4.5702 0.0000 10.8148 0.0000
# 6 0.0000 0.0000 0.0000 1.8894 0.0000 29.6400
#
#
#
# Elastic Compliance Matrix: (Units=1/GPa)
#
#
# Indices 1 2 3 4 5 6 
#
# 1 0.002224 -0.050902 0.013768 0.000000 0.039745 0.000000
# 2 -0.050902 0.109018 -0.036147 0.000000 0.016377 0.000000
# 3 0.013768 -0.036147 0.030685 0.000000 -0.006681 0.000000
# 4 0.000000 0.000000 0.000000 0.040964 0.000000 -0.002611
# 5 0.039745 0.016377 -0.006681 0.000000 -0.005908 0.000000
# 6 0.000000 0.000000 0.000000 -0.002611 0.000000 0.033905
#
#
# Mechanical properties :
#
#
# Convention : Reuss Voigt Hill
#
# Bulk Modulus (GPa) = -215.70473 12.34099 -101.68187
# Shear Modulus (GPa) = 14.04876 16.45155 15.25015
#
# Velocity S-wave (km/s) = 2.66976 2.88906 2.78157
# Velocity P-wave (km/s) = 9.99670 4.17014 6.42433
#
# Compressibility (1/GPa) = -0.00463597
#
# Stress axis : x y z
#
# Youngs Moduli (GPa) = 449.72885 9.17282 32.58945
#
# Poissons Ratio (x) = 0.46691 -0.44869
# Poissons Ratio (y) = 22.89200 1.17801
# Poissons Ratio (z) = -6.19178 0.33157
#
# Static dielectric constant tensor:
#      x y z
#    x 1.792630 0.000000 0.075770 
#    y 0.000000 1.673840 0.000000 
#    z 0.075770 0.000000 1.749250 
# 
# From -- ./inp_files/221644.got.cif
#   From: 2010.05.17/outbox.ucp.g08.bks.cvg/sg12_111_cif.got.tgz:221644.got - 2010.06.11 11:47:21.
