data_PCOD9224844
_publ_section_title
;
Structure prediction by ZEFSAII (Michael W. Deem and Ramdas Pophale) SiO2 
 PCOD9224844
Probable space group: C 2/M
;
_chemical_formula_sum "Si O2"
_cell_formula_units_Z 28
_cell_length_a 30.000000
_cell_length_b 9.000000
_cell_length_c 21.000000
_cell_angle_alpha 90.000000
_cell_angle_beta 150.000000
_cell_angle_gamma 90.000000
_cell_volume 2835.000000
_symmetry_space_group_name_H-M "C 2/M"
_symmetry_group_IT_number 12
_symmetry_cell_setting 'monoclinic'
loop_
_space_group_symop_operation_xyz
x,y,z
-x,y,-z
-x,-y,-z
x,-y,z
1/2+x,1/2+y,z
1/2-x,1/2+y,-z
1/2-x,1/2-y,-z
1/2+x,1/2-y,z
loop_
_atom_site_type_symbol
_atom_site_label
_atom_site_fract_x
_atom_site_fract_y
_atom_site_fract_z
Si Si1 0.034013 0.830686 0.330214
Si Si2 0.168646 0.826387 0.152547
Si Si3 0.517219 0.335585 0.878221
Si Si4 0.718007 0.175919 0.526498
Si Si5 0.379190 0.173212 0.790782
Si Si6 0.957052 0.678273 0.348831
Si Si7 0.140439 0.320242 0.649462
O O1 0.124247 0.735582 0.435964
O O2 0.995708 0.830932 0.212176
O O3 0.963015 0.760423 0.289926
O O4 0.055958 0.000000 0.375897
O O5 0.105205 0.728502 0.118658
O O6 0.268091 0.765404 0.267456
O O7 0.170246 0.000000 0.175066
O O8 0.119366 0.822416 0.023981
O O9 0.486304 0.500000 0.863183
O O10 0.455026 0.216160 0.835034
O O11 0.750000 0.250000 0.500000
O O12 0.793374 0.228136 0.667908
O O13 0.715005 0.000000 0.515038
O O14 0.359697 0.000000 0.763493
O O15 0.951733 0.500000 0.334639
O O16 0.882241 0.726917 0.306666
O O17 0.053071 0.712175 0.500082
O O18 0.148132 0.500000 0.660538
#
# Coordination Sequence:
#
# PCOD9224844 Si02
#       7
#     8   8   8   8   8   8   8
#     4  11  22  36  54  81 115 150 187 228 278 334
#     4  10  20  37  59  80 106 149 197 237 279 332
#     4  10  22  38  55  75 109 154 195 233 276 333
#     4  12  23  37  57  82 111 145 182 226 275 329
#     4  12  24  37  56  83 113 147 185 233 286 334
#     4   9  17  33  58  85 110 140 180 231 287 341
#     4   8  16  33  58  84 107 136 183 235 283 339
#
# _framework density 9.8765429999999999
#
# number of rings (size 3 to 8) (size 9 to 14) (size 15 to 20)
#    0.000    1.714    1.429    5.143    0.000    4.000 
#    0.000    2.857    0.000    0.000    0.000    0.000 
#    0.000    0.000    0.000    0.000    0.000    0.000 
#
# Total GULP energy -156174.925282 kJ/mol
# GULP energy per Si atom -5577.675903 kJ/mol
# Density = 0.985406 g / cm^3
# Si number density = 9.876543 Si / 1000 Ang^3
#
#
#
# Elastic Constant Matrix: (Units=GPa)
#
#
# Indices 1 2 3 4 5 6 
#
# 1 104.8439 32.6990 11.9646 0.0000 10.2908 0.0000
# 2 32.6990 85.9516 8.7323 0.0000 -1.7398 0.0000
# 3 11.9646 8.7323 26.8877 0.0000 -7.9777 0.0000
# 4 0.0000 0.0000 0.0000 8.6430 0.0000 -2.9498
# 5 10.2908 -1.7398 -7.9777 0.0000 10.6622 0.0000
# 6 0.0000 0.0000 0.0000 -2.9498 0.0000 25.9565
#
#
#
# Elastic Compliance Matrix: (Units=1/GPa)
#
#
# Indices 1 2 3 4 5 6 
#
# 1 0.014839 -0.004896 -0.012211 0.000000 -0.024258 0.000000
# 2 -0.004896 0.013659 -0.000250 0.000000 0.006768 0.000000
# 3 -0.012211 -0.000250 0.059371 0.000000 0.056168 0.000000
# 4 0.000000 0.000000 0.000000 0.120369 0.000000 0.013679
# 5 -0.024258 0.006768 0.056168 0.000000 0.160332 0.000000
# 6 0.000000 0.000000 0.000000 0.013679 0.000000 0.040081
#
#
# Mechanical properties :
#
#
# Convention : Reuss Voigt Hill
#
# Bulk Modulus (GPa) = 18.81182 36.05277 27.43230
# Shear Modulus (GPa) = 10.84402 20.00484 15.42443
#
# Velocity S-wave (km/s) = 2.34557 3.18582 2.79742
# Velocity P-wave (km/s) = 4.10850 5.64127 4.93476
#
# Compressibility (1/GPa) = 0.05315808
#
# Stress axis : x y z
#
# Youngs Moduli (GPa) = 67.38829 73.20981 16.84310
#
# Poissons Ratio (x) = 0.35843 0.20566
# Poissons Ratio (y) = 0.32993 0.00420
# Poissons Ratio (z) = 0.82285 0.01827
#
# Static dielectric constant tensor:
#      x y z
#    x 1.739790 0.000000 -0.095430 
#    y 0.000000 1.708950 0.000000 
#    z -0.095430 0.000000 1.797330 
# 
# From -- ./inp_files/329692.got.cif
#   From: 2010.05.17/outbox.ucp.g08.bks.cvg/sg12_165_cif.got.tgz:329692.got - 2010.06.11 11:47:21.
