data_PCOD9224113
_publ_section_title
;
Structure prediction by ZEFSAII (Michael W. Deem and Ramdas Pophale) SiO2 
 PCOD9224113
Probable space group: C 2/M
;
_chemical_formula_sum "Si O2"
_cell_formula_units_Z 32
_cell_length_a 18.000000
_cell_length_b 15.000000
_cell_length_c 18.000000
_cell_angle_alpha 90.000000
_cell_angle_beta 140.000000
_cell_angle_gamma 90.000000
_cell_volume 3123.947783
_symmetry_space_group_name_H-M "C 2/M"
_symmetry_group_IT_number 12
_symmetry_cell_setting 'monoclinic'
loop_
_space_group_symop_operation_xyz
x,y,z
-x,y,-z
-x,-y,-z
x,-y,z
1/2+x,1/2+y,z
1/2-x,1/2+y,-z
1/2-x,1/2-y,-z
1/2+x,1/2-y,z
loop_
_atom_site_type_symbol
_atom_site_label
_atom_site_fract_x
_atom_site_fract_y
_atom_site_fract_z
Si Si1 0.941860 0.602911 0.678120
Si Si2 0.134993 0.340149 0.722802
Si Si3 0.464961 0.686823 0.552439
Si Si4 0.003917 0.231151 0.085757
Si Si5 0.811426 0.106977 0.988932
Si Si6 0.106151 0.606029 0.938982
Si Si7 0.307080 0.393574 0.554218
Si Si8 0.251469 0.691294 0.666005
O O1 0.923233 0.500000 0.681045
O O2 0.815448 0.644005 0.572663
O O3 0.021164 0.608626 0.665455
O O4 0.020542 0.635710 0.805827
O O5 0.231219 0.355091 0.860077
O O6 0.193531 0.364811 0.689244
O O7 0.077280 0.242490 0.666095
O O8 0.500000 0.641815 0.500000
O O9 0.412438 0.633597 0.581652
O O10 0.356699 0.750366 0.446222
O O11 0.933387 0.324566 0.029494
O O12 0.136963 0.240849 0.213063
O O13 0.929063 0.163051 0.078764
O O14 0.000000 0.192015 0.000000
O O15 0.734554 0.118977 0.004521
O O16 0.826808 0.000000 0.990398
O O17 0.091846 0.500000 0.943515
O O18 0.301431 0.500000 0.550800
O O19 0.304198 0.360852 0.636555
#
# Coordination Sequence:
#
# PCOD9224113 Si02
#       8
#     8   8   8   8   8   8   8   8
#     4   9  18  34  60  90 120 154 195 249 307 365
#     4  10  19  37  60  85 117 156 199 250 299 359
#     4  10  22  39  63  89 119 157 198 250 305 362
#     4  12  24  40  61  88 124 166 205 250 312 363
#     4  10  22  41  62  86 118 163 207 247 304 367
#     4   9  20  39  65  91 115 155 210 260 303 356
#     4  11  23  37  58  91 125 159 198 245 307 368
#     4  11  23  38  58  90 123 158 203 249 302 368
#
# _framework density 10.243449
#
# number of rings (size 3 to 8) (size 9 to 14) (size 15 to 20)
#    0.000    1.750    2.500    2.625    3.500    2.250 
#    0.000    1.250    0.000    0.750    0.000    0.000 
#    0.000    0.000    0.000    0.000    0.000    0.000 
#
# Total GULP energy -178375.831988 kJ/mol
# GULP energy per Si atom -5574.244750 kJ/mol
# Density = 1.022013 g / cm^3
# Si number density = 10.243449 Si / 1000 Ang^3
#
#
#
# Elastic Constant Matrix: (Units=GPa)
#
#
# Indices 1 2 3 4 5 6 
#
# 1 122.6024 20.6110 0.9739 0.0000 4.4395 0.0000
# 2 20.6110 40.9124 1.6994 0.0000 8.0471 0.0000
# 3 0.9739 1.6994 35.7721 0.0000 15.5724 0.0000
# 4 0.0000 0.0000 0.0000 17.8813 0.0000 3.6521
# 5 4.4395 8.0471 15.5724 0.0000 25.5572 0.0000
# 6 0.0000 0.0000 0.0000 3.6521 0.0000 14.9899
#
#
#
# Elastic Compliance Matrix: (Units=1/GPa)
#
#
# Indices 1 2 3 4 5 6 
#
# 1 0.008912 -0.004458 0.000044 0.000000 -0.000171 0.000000
# 2 -0.004458 0.028554 0.003187 0.000000 -0.010158 0.000000
# 3 0.000044 0.003187 0.038438 0.000000 -0.024432 0.000000
# 4 0.000000 0.000000 0.000000 0.058853 0.000000 -0.014339
# 5 -0.000171 -0.010158 -0.024432 0.000000 0.057243 0.000000
# 6 0.000000 0.000000 0.000000 -0.014339 0.000000 0.070205
#
#
# Mechanical properties :
#
#
# Convention : Reuss Voigt Hill
#
# Bulk Modulus (GPa) = 13.61490 27.31728 20.46609
# Shear Modulus (GPa) = 17.29257 23.41920 20.35588
#
# Velocity S-wave (km/s) = 2.90846 3.38469 3.15557
# Velocity P-wave (km/s) = 4.23544 5.35143 4.82580
#
# Compressibility (1/GPa) = 0.07344895
#
# Stress axis : x y z
#
# Youngs Moduli (GPa) = 112.21216 35.02160 26.01599
#
# Poissons Ratio (x) = 0.15612 -0.00113
# Poissons Ratio (y) = 0.50021 -0.08291
# Poissons Ratio (z) = -0.00489 -0.11161
#
# Static dielectric constant tensor:
#      x y z
#    x 1.743600 0.000000 -0.014730 
#    y 0.000000 1.743630 0.000000 
#    z -0.014730 0.000000 1.761150 
# 
# From -- ./inp_files/278210.got.cif
#   From: 2010.05.17/outbox.ucp.g08.bks.cvg/sg12_140_cif.got.tgz:278210.got - 2010.06.11 11:47:21.
