data_PCOD9224745
_publ_section_title
;
Structure prediction by ZEFSAII (Michael W. Deem and Ramdas Pophale) SiO2 
 PCOD9224745
Probable space group: C 2/M
;
_chemical_formula_sum "Si O2"
_cell_formula_units_Z 24
_cell_length_a 15.000000
_cell_length_b 9.000000
_cell_length_c 27.000000
_cell_angle_alpha 90.000000
_cell_angle_beta 140.000000
_cell_angle_gamma 90.000000
_cell_volume 2342.960837
_symmetry_space_group_name_H-M "C 2/M"
_symmetry_group_IT_number 12
_symmetry_cell_setting 'monoclinic'
loop_
_space_group_symop_operation_xyz
x,y,z
-x,y,-z
-x,-y,-z
x,-y,z
1/2+x,1/2+y,z
1/2-x,1/2+y,-z
1/2-x,1/2-y,-z
1/2+x,1/2-y,z
loop_
_atom_site_type_symbol
_atom_site_label
_atom_site_fract_x
_atom_site_fract_y
_atom_site_fract_z
Si Si1 0.080773 0.173954 0.668913
Si Si2 0.566454 0.833947 0.475409
Si Si3 0.598280 0.822143 0.930166
Si Si4 0.157381 0.324849 0.371139
Si Si5 0.445646 0.822647 0.203532
Si Si6 0.805379 0.676363 0.841886
O O1 0.232696 0.193541 0.756789
O O2 0.042048 0.225030 0.597883
O O3 0.977356 0.282141 0.654314
O O4 0.045089 0.000000 0.660995
O O5 0.500000 0.853804 0.500000
O O6 0.715801 0.760239 0.549142
O O7 0.581772 0.000000 0.459068
O O8 0.555856 0.795349 0.855276
O O9 0.465709 0.770949 0.907145
O O10 0.611300 0.000000 0.943375
O O11 0.750000 0.750000 0.000000
O O12 0.188417 0.500000 0.383148
O O13 0.093843 0.276295 0.290777
O O14 0.308079 0.749429 0.169696
O O15 0.435140 0.000000 0.207749
O O16 0.808819 0.500000 0.854256
#
# Coordination Sequence:
#
# PCOD9224745 Si02
#       6
#     8   8   8   8   8   8
#     4  10  20  36  59  81 107 146 189 233 280 334
#     4  11  24  37  50  77 115 149 186 235 280 327
#     4  10  22  40  60  87 118 151 187 232 285 344
#     4  10  20  36  59  81 107 146 189 233 280 334
#     4   9  20  38  61  86 116 150 191 237 284 338
#     4   9  20  38  61  86 116 150 191 237 284 338
#
# _framework density 10.243449
#
# number of rings (size 3 to 8) (size 9 to 14) (size 15 to 20)
#    0.000    2.167    0.000    2.000    2.333    4.667 
#    0.000    3.333    0.000    0.000    0.000    0.000 
#    0.000    0.000    0.000    0.000    0.000    0.000 
#
# Total GULP energy -133698.262192 kJ/mol
# GULP energy per Si atom -5570.760925 kJ/mol
# Density = 1.022013 g / cm^3
# Si number density = 10.243449 Si / 1000 Ang^3
#
#
#
# Elastic Constant Matrix: (Units=GPa)
#
#
# Indices 1 2 3 4 5 6 
#
# 1 43.8222 4.9663 2.3625 0.0000 17.9236 0.0000
# 2 4.9663 41.3461 19.8803 0.0000 6.1459 0.0000
# 3 2.3625 19.8803 27.8294 0.0000 14.4247 0.0000
# 4 0.0000 0.0000 0.0000 32.1324 0.0000 0.8851
# 5 17.9236 6.1459 14.4247 0.0000 32.8723 0.0000
# 6 0.0000 0.0000 0.0000 0.8851 0.0000 23.3135
#
#
#
# Elastic Compliance Matrix: (Units=1/GPa)
#
#
# Indices 1 2 3 4 5 6 
#
# 1 0.031975 -0.007265 0.013990 0.000000 -0.022215 0.000000
# 2 -0.007265 0.039439 -0.033381 0.000000 0.011236 0.000000
# 3 0.013990 -0.033381 0.076772 0.000000 -0.035076 0.000000
# 4 0.000000 0.000000 0.000000 0.031154 0.000000 -0.001183
# 5 -0.022215 0.011236 -0.035076 0.000000 0.055824 0.000000
# 6 0.000000 0.000000 0.000000 -0.001183 0.000000 0.042939
#
#
# Mechanical properties :
#
#
# Convention : Reuss Voigt Hill
#
# Bulk Modulus (GPa) = 10.54029 18.60179 14.57104
# Shear Modulus (GPa) = 13.77261 23.38287 18.57774
#
# Velocity S-wave (km/s) = 2.59562 3.38206 3.01460
# Velocity P-wave (km/s) = 3.76019 4.93464 4.38690
#
# Compressibility (1/GPa) = 0.09487406
#
# Stress axis : x y z
#
# Youngs Moduli (GPa) = 31.27481 25.35559 13.02552
#
# Poissons Ratio (x) = 0.18422 -0.18223
# Poissons Ratio (y) = 0.22722 0.43480
# Poissons Ratio (z) = -0.43754 0.84639
#
# Static dielectric constant tensor:
#      x y z
#    x 1.777210 0.000000 -0.222140 
#    y 0.000000 1.712790 0.000000 
#    z -0.222140 0.000000 -1.577890 
# 
# From -- ./inp_files/360317.got.cif
#   From: 2010.05.17/outbox.ucp.g08.bks.cvg/sg12_181_cif.got.tgz:360317.got - 2010.06.11 11:47:21.
