data_PCOD9224732
_publ_section_title
;
Structure prediction by ZEFSAII (Michael W. Deem and Ramdas Pophale) SiO2 
 PCOD9224732
Probable space group: C 2/M
;
_chemical_formula_sum "Si O2"
_cell_formula_units_Z 32
_cell_length_a 18.000000
_cell_length_b 9.000000
_cell_length_c 30.000000
_cell_angle_alpha 90.000000
_cell_angle_beta 40.000000
_cell_angle_gamma 90.000000
_cell_volume 3123.947783
_symmetry_space_group_name_H-M "C 2/M"
_symmetry_group_IT_number 12
_symmetry_cell_setting 'monoclinic'
loop_
_space_group_symop_operation_xyz
x,y,z
-x,y,-z
-x,-y,-z
x,-y,z
1/2+x,1/2+y,z
1/2-x,1/2+y,-z
1/2-x,1/2-y,-z
1/2+x,1/2-y,z
loop_
_atom_site_type_symbol
_atom_site_label
_atom_site_fract_x
_atom_site_fract_y
_atom_site_fract_z
Si Si1 0.730966 0.828402 0.693226
Si Si2 0.342642 0.328192 0.790618
Si Si3 0.013967 0.679659 0.851824
Si Si4 0.363539 0.334657 0.435151
Si Si5 0.454684 0.179218 0.973093
Si Si6 0.385639 0.658689 0.320762
Si Si7 0.898628 0.326763 0.673296
Si Si8 0.218361 0.321956 0.092249
O O1 0.623774 0.778466 0.772954
O O2 0.682022 0.797590 0.667271
O O3 0.832748 0.720958 0.659400
O O4 0.759360 0.000000 0.688308
O O5 0.302142 0.500000 0.808811
O O6 0.476487 0.325176 0.744743
O O7 0.343422 0.261793 0.740718
O O8 0.281242 0.232927 0.856705
O O9 0.009214 0.500000 0.853514
O O10 0.896720 0.728438 0.881131
O O11 0.028612 0.724776 0.896280
O O12 0.375835 0.500000 0.449374
O O13 0.250000 0.250000 0.500000
O O14 0.359162 0.351876 0.384354
O O15 0.473440 0.232736 0.392637
O O16 0.329393 0.244547 0.020535
O O17 0.448486 0.000000 0.977723
O O18 0.500000 0.232010 0.000000
O O19 0.354331 0.500000 0.313261
O O20 0.895022 0.500000 0.684453
O O21 0.224980 0.500000 0.087320
#
# Coordination Sequence:
#
# PCOD9224732 Si02
#       8
#     8   8   8   8   8   8   8   8
#     4  11  21  36  59  86 121 158 195 243 297 352
#     4  10  20  36  58  84 113 150 195 241 293 355
#     4   9  20  37  56  81 112 150 194 239 294 356
#     4  10  21  40  65  93 124 161 200 240 286 344
#     4  10  22  39  57  78 108 151 197 244 301 362
#     4   9  19  36  58  87 120 151 192 239 285 341
#     4  11  23  38  58  88 124 158 195 242 293 343
#     4  11  21  36  57  82 112 146 192 246 298 356
#
# _framework density 10.243449
#
# number of rings (size 3 to 8) (size 9 to 14) (size 15 to 20)
#    0.000    1.875    1.250    3.750    1.750    2.750 
#    0.000    2.500    0.000    3.750    0.000    0.000 
#    0.000    0.000    0.000    0.000    0.000    0.000 
#
# Total GULP energy -178410.329190 kJ/mol
# GULP energy per Si atom -5575.322787 kJ/mol
# Density = 1.022013 g / cm^3
# Si number density = 10.243449 Si / 1000 Ang^3
#
#
#
# Elastic Constant Matrix: (Units=GPa)
#
#
# Indices 1 2 3 4 5 6 
#
# 1 36.6259 31.4219 20.6614 -0.0001 -15.2844 -0.0002
# 2 31.4219 44.1475 -12.9648 0.0001 -13.4335 0.0000
# 3 20.6614 -12.9648 9.7698 0.0000 -47.7155 0.0000
# 4 -0.0001 0.0001 0.0000 21.5174 -0.0001 -5.2113
# 5 -15.2844 -13.4335 -47.7155 -0.0001 -42.9492 0.0000
# 6 -0.0002 0.0000 0.0000 -5.2113 0.0000 24.7912
#
#
#
# Elastic Compliance Matrix: (Units=1/GPa)
#
#
# Indices 1 2 3 4 5 6 
#
# 1 -0.169126 0.122682 0.097575 -0.000002 -0.086589 -0.000002
# 2 0.122682 -0.068283 -0.071426 0.000001 0.057051 0.000001
# 3 0.097575 -0.071426 -0.040346 0.000001 0.032440 0.000001
# 4 -0.000002 0.000001 0.000001 0.048967 -0.000001 0.010293
# 5 -0.086589 0.057051 0.032440 -0.000001 -0.046353 -0.000001
# 6 -0.000002 0.000001 0.000001 0.010293 -0.000001 0.042501
#
#
# Mechanical properties :
#
#
# Convention : Reuss Voigt Hill
#
# Bulk Modulus (GPa) = 50.23458 18.75334 34.49396
# Shear Modulus (GPa) = -9.54807 4.10019 -2.72394
#
# Velocity S-wave (km/s) = -2.16118 1.41623 -1.15433
# Velocity P-wave (km/s) = 4.28322 3.44209 3.88548
#
# Compressibility (1/GPa) = 0.01990661
#
# Stress axis : x y z
#
# Youngs Moduli (GPa) = -5.91276 -14.64492 -24.78554
#
# Poissons Ratio (x) = 1.79667 2.41845
# Poissons Ratio (y) = 0.72539 -1.77034
# Poissons Ratio (z) = 0.57694 -1.04603
#
# Static dielectric constant tensor:
#      x y z
#    x 1.755130 0.000000 0.039260 
#    y 0.000000 1.755030 0.000000 
#    z 0.039260 0.000000 1.721800 
# 
# From -- ./inp_files/378070.got.cif
#   From: 2010.05.17/outbox.ucp.g08.bks.cvg/sg12_190_cif.got.tgz:378070.got - 2010.06.11 11:47:21.
