data_PCOD9224888
_publ_section_title
;
Structure prediction by ZEFSAII (Michael W. Deem and Ramdas Pophale) SiO2 
 PCOD9224888
Probable space group: C 2/M
;
_chemical_formula_sum "Si O2"
_cell_formula_units_Z 28
_cell_length_a 15.000000
_cell_length_b 9.000000
_cell_length_c 24.000000
_cell_angle_alpha 90.000000
_cell_angle_beta 120.000000
_cell_angle_gamma 90.000000
_cell_volume 2805.922308
_symmetry_space_group_name_H-M "C 2/M"
_symmetry_group_IT_number 12
_symmetry_cell_setting 'monoclinic'
loop_
_space_group_symop_operation_xyz
x,y,z
-x,y,-z
-x,-y,-z
x,-y,z
1/2+x,1/2+y,z
1/2-x,1/2+y,-z
1/2-x,1/2-y,-z
1/2+x,1/2-y,z
loop_
_atom_site_type_symbol
_atom_site_label
_atom_site_fract_x
_atom_site_fract_y
_atom_site_fract_z
Si Si1 0.817918 0.826244 0.307694
Si Si2 0.461353 0.820738 0.926673
Si Si3 0.768225 0.819634 0.172070
Si Si4 0.629505 0.675925 0.290801
Si Si5 0.516756 0.170131 0.571286
Si Si6 0.331698 0.327613 0.566772
Si Si7 0.442480 0.325347 0.148602
O O1 0.828081 0.773100 0.247118
O O2 0.698777 0.796116 0.281205
O O3 0.874789 0.724913 0.371060
O O4 0.846140 0.000000 0.322087
O O5 0.347337 0.766245 0.873381
O O6 0.530099 0.766223 0.897158
O O7 0.458627 0.000000 0.927177
O O8 0.500000 0.771428 0.000000
O O9 0.832995 0.780278 0.138508
O O10 0.765593 0.000000 0.175958
O O11 0.659186 0.500000 0.293043
O O12 0.648195 0.710996 0.362047
O O13 0.520255 0.689175 0.225827
O O14 0.500000 0.173101 0.500000
O O15 0.439263 0.288135 0.572569
O O16 0.496648 0.000000 0.583139
O O17 0.304837 0.500000 0.557632
O O18 0.250000 0.250000 0.500000
O O19 0.443121 0.500000 0.134457
#
# Coordination Sequence:
#
# PCOD9224888 Si02
#       7
#     8   8   8   8   8   8   8
#     4  11  21  36  61  86 113 152 198 243 296 361
#     4  10  21  39  61  87 123 160 196 246 303 357
#     4   9  19  37  59  86 120 158 196 241 301 359
#     4  10  21  37  57  83 116 151 191 245 303 353
#     4  11  24  40  56  79 114 152 193 246 304 357
#     4  11  23  39  58  82 114 153 198 245 301 363
#     4  10  20  37  61  85 116 157 200 243 294 357
#
# _framework density 9.9788940000000004
#
# number of rings (size 3 to 8) (size 9 to 14) (size 15 to 20)
#    0.000    1.714    1.429    3.000    0.000    8.857 
#    0.000    3.571    0.000    0.000    0.000    0.000 
#    0.000    0.000    0.000    0.000    0.000    0.000 
#
# Total GULP energy -155986.053572 kJ/mol
# GULP energy per Si atom -5570.930485 kJ/mol
# Density = 0.995618 g / cm^3
# Si number density = 9.978894 Si / 1000 Ang^3
#
#
#
# Elastic Constant Matrix: (Units=GPa)
#
#
# Indices 1 2 3 4 5 6 
#
# 1 40.1771 -3.0234 11.6516 0.0000 -15.4937 0.0000
# 2 -3.0234 -0.3065 28.7292 0.0000 -6.6946 0.0000
# 3 11.6516 28.7292 104.9976 0.0000 -24.6037 0.0000
# 4 0.0000 0.0000 0.0000 -270.0100 0.0000 -40.5378
# 5 -15.4937 -6.6946 -24.6037 0.0000 22.2374 0.0000
# 6 0.0000 0.0000 0.0000 -40.5378 0.0000 16.9813
#
#
#
# Elastic Compliance Matrix: (Units=1/GPa)
#
#
# Indices 1 2 3 4 5 6 
#
# 1 0.029696 -0.022479 0.008259 0.000000 0.023061 0.000000
# 2 -0.022479 -0.105423 0.027315 0.000000 -0.017179 0.000000
# 3 0.008259 0.027315 0.005952 0.000000 0.020563 0.000000
# 4 0.000000 0.000000 0.000000 -0.002726 0.000000 -0.006509
# 5 0.023061 -0.017179 0.020563 0.000000 0.078617 0.000000
# 6 0.000000 0.000000 0.000000 -0.006509 0.000000 0.043351
#
#
# Mechanical properties :
#
#
# Convention : Reuss Voigt Hill
#
# Bulk Modulus (GPa) = -22.94362 24.39809 0.72724
# Shear Modulus (GPa) = 571.39445 -38.99089 266.20178
#
# Velocity S-wave (km/s) = 16.93880 -4.42483 11.56166
# Velocity P-wave (km/s) = 19.26248 3.72211 13.36392
#
# Compressibility (1/GPa) = -0.04358511
#
# Stress axis : x y z
#
# Youngs Moduli (GPa) = 33.67432 -9.48563 168.00270
#
# Poissons Ratio (x) = -0.21323 -1.38757
# Poissons Ratio (y) = 0.75698 -4.58893
# Poissons Ratio (z) = -0.27812 0.25910
#
# Static dielectric constant tensor:
#      x y z
#    x 1.919320 0.000000 0.314260 
#    y 0.000000 1.662410 0.000000 
#    z 0.314260 0.000000 2.326240 
# 
# From -- ./inp_files/338467.got.cif
#   From: 2010.05.17/outbox.ucp.g08.bks.cvg/sg12_170_cif.got.tgz:338467.got - 2010.06.11 11:47:21.
