data_PCOD9224419
_publ_section_title
;
Structure prediction by ZEFSAII (Michael W. Deem and Ramdas Pophale) SiO2 
 PCOD9224419
Probable space group: C 2/M
;
_chemical_formula_sum "Si O2"
_cell_formula_units_Z 32
_cell_length_a 30.000000
_cell_length_b 9.000000
_cell_length_c 24.000000
_cell_angle_alpha 90.000000
_cell_angle_beta 30.000000
_cell_angle_gamma 90.000000
_cell_volume 3240.000000
_symmetry_space_group_name_H-M "C 2/M"
_symmetry_group_IT_number 12
_symmetry_cell_setting 'monoclinic'
loop_
_space_group_symop_operation_xyz
x,y,z
-x,y,-z
-x,-y,-z
x,-y,z
1/2+x,1/2+y,z
1/2-x,1/2+y,-z
1/2-x,1/2-y,-z
1/2+x,1/2-y,z
loop_
_atom_site_type_symbol
_atom_site_label
_atom_site_fract_x
_atom_site_fract_y
_atom_site_fract_z
Si Si1 0.088559 0.179599 0.570756
Si Si2 0.653109 0.679869 0.618917
Si Si3 0.065158 0.679094 0.823717
Si Si4 0.880268 0.171743 0.007040
Si Si5 0.254808 0.176777 0.322311
Si Si6 0.085664 0.173816 0.308000
Si Si7 0.197214 0.669897 0.276253
Si Si8 0.767189 0.328557 0.039163
O O1 0.089029 0.210954 0.635524
O O2 0.183890 0.235242 0.444390
O O3 0.002344 0.228237 0.629147
O O4 0.089034 0.000000 0.565058
O O5 0.660862 0.500000 0.617426
O O6 0.750000 0.750000 0.500000
O O7 0.608242 0.758398 0.720171
O O8 0.057972 0.500000 0.830463
O O9 0.142551 0.726575 0.783651
O O10 0.967186 0.747329 0.937292
O O11 0.791513 0.176857 0.141161
O O12 0.845815 0.249704 0.988202
O O13 0.903073 0.000000 0.972230
O O14 0.210862 0.220944 0.312410
O O15 0.258437 0.000000 0.324975
O O16 0.115559 0.274021 0.327225
O O17 0.173427 0.178434 0.173906
O O18 0.072912 0.000000 0.337971
O O19 0.183952 0.500000 0.308331
O O20 0.790426 0.500000 0.006391
O O21 0.750000 0.250000 0.000000
#
# Coordination Sequence:
#
# PCOD9224419 Si02
#       8
#     8   8   8   8   8   8   8   8
#     4   9  19  37  59  85 115 152 196 234 275 345
#     4  11  21  37  60  85 121 160 196 240 289 342
#     4  11  23  39  59  89 120 151 197 244 291 350
#     4  10  22  40  59  81 114 155 194 240 297 352
#     4  10  21  39  61  83 114 153 195 238 288 352
#     4   9  19  37  60  82 110 152 195 233 284 346
#     4  10  22  40  60  84 116 148 190 246 297 345
#     4  10  20  34  55  84 116 151 194 241 288 347
#
# _framework density 9.8765429999999999
#
# number of rings (size 3 to 8) (size 9 to 14) (size 15 to 20)
#    0.000    2.000    1.250    1.875    1.750    4.000 
#    0.000    6.875    0.000    0.000    0.000    0.000 
#    0.000    0.000    0.000    0.000    0.000    0.000 
#
# Total GULP energy -178505.410864 kJ/mol
# GULP energy per Si atom -5578.294089 kJ/mol
# Density = 0.985406 g / cm^3
# Si number density = 9.876543 Si / 1000 Ang^3
#
#
#
# Elastic Constant Matrix: (Units=GPa)
#
#
# Indices 1 2 3 4 5 6 
#
# 1 86.5422 3.2210 3.4545 0.0055 -28.6926 -0.0030
# 2 3.2210 49.9214 7.4702 0.0123 -10.0347 -0.0050
# 3 3.4545 7.4702 10.5493 0.0129 -20.8380 -0.0023
# 4 0.0055 0.0123 0.0129 26.5133 -0.0060 -2.9666
# 5 -28.6926 -10.0347 -20.8380 -0.0060 33.4391 0.0024
# 6 -0.0030 -0.0050 -0.0023 -2.9666 0.0024 26.6836
#
#
#
# Elastic Compliance Matrix: (Units=1/GPa)
#
#
# Indices 1 2 3 4 5 6 
#
# 1 0.006944 0.001841 -0.040201 0.000013 -0.018541 0.000001
# 2 0.001841 0.021533 -0.000143 -0.000008 0.007952 0.000003
# 3 -0.040201 -0.000143 -0.172508 0.000060 -0.142038 0.000000
# 4 0.000013 -0.000008 0.000060 0.038192 0.000053 0.004246
# 5 -0.018541 0.007952 -0.142038 0.000053 -0.072130 -0.000001
# 6 0.000001 0.000003 0.000000 0.004246 -0.000001 0.037948
#
#
# Mechanical properties :
#
#
# Convention : Reuss Voigt Hill
#
# Bulk Modulus (GPa) = -4.52412 19.47825 7.47707
# Shear Modulus (GPa) = -36.57818 26.18503 -5.19658
#
# Velocity S-wave (km/s) = -4.30789 3.64485 -1.62372
# Velocity P-wave (km/s) = 5.19992 5.25315 0.52743
#
# Compressibility (1/GPa) = -0.22103749
#
# Stress axis : x y z
#
# Youngs Moduli (GPa) = 144.00612 46.44125 -5.79685
#
# Poissons Ratio (x) = -0.08548 -0.23304
# Poissons Ratio (y) = -0.26506 -0.00083
# Poissons Ratio (z) = 5.78912 0.00666
#
# Static dielectric constant tensor:
#      x y z
#    x 1.700320 0.000000 0.032090 
#    y 0.000000 1.670950 0.000010 
#    z 0.032090 0.000010 1.708810 
# 
# From -- ./inp_files/249212.got.cif
#   From: 2010.05.17/outbox.ucp.g08.bks.cvg/sg12_125_cif.got.tgz:249212.got - 2010.06.11 11:47:21.
