data_PCOD9224379
_publ_section_title
;
Structure prediction by ZEFSAII (Michael W. Deem and Ramdas Pophale) SiO2 
 PCOD9224379
Probable space group: C 2/M
;
_chemical_formula_sum "Si O2"
_cell_formula_units_Z 28
_cell_length_a 15.000000
_cell_length_b 9.000000
_cell_length_c 24.000000
_cell_angle_alpha 90.000000
_cell_angle_beta 110.000000
_cell_angle_gamma 90.000000
_cell_volume 3044.604091
_symmetry_space_group_name_H-M "C 2/M"
_symmetry_group_IT_number 12
_symmetry_cell_setting 'monoclinic'
loop_
_space_group_symop_operation_xyz
x,y,z
-x,y,-z
-x,-y,-z
x,-y,z
1/2+x,1/2+y,z
1/2-x,1/2+y,-z
1/2-x,1/2-y,-z
1/2+x,1/2-y,z
loop_
_atom_site_type_symbol
_atom_site_label
_atom_site_fract_x
_atom_site_fract_y
_atom_site_fract_z
Si Si1 0.986145 0.321891 0.650214
Si Si2 0.583781 0.676964 0.129696
Si Si3 0.391543 0.177271 0.748401
Si Si4 0.203366 0.823127 0.436119
Si Si5 0.896591 0.326095 0.054297
Si Si6 0.231339 0.325637 0.084162
Si Si7 0.201717 0.678129 0.662439
O O1 0.978902 0.500000 0.640090
O O2 0.958146 0.292356 0.708815
O O3 0.901281 0.243327 0.598151
O O4 0.093821 0.278748 0.656071
O O5 0.588319 0.500000 0.129458
O O6 0.571945 0.738757 0.189417
O O7 0.494012 0.736416 0.075677
O O8 0.678565 0.747514 0.123792
O O9 0.285195 0.236477 0.712933
O O10 0.389906 0.000000 0.756972
O O11 0.250000 0.750000 0.500000
O O12 0.270531 0.795275 0.396397
O O13 0.195939 0.000000 0.441319
O O14 0.915536 0.500000 0.068882
O O15 0.826600 0.257330 0.085645
O O16 0.840346 0.314563 0.984007
O O17 0.248670 0.500000 0.098268
O O18 0.210663 0.500000 0.674524
#
# Coordination Sequence:
#
# PCOD9224379 Si02
#       7
#     8   8   8   8   8   8   8
#     4   9  19  37  59  79 104 141 181 221 269 321
#     4  12  24  37  56  81 112 149 187 228 275 330
#     4  10  21  37  56  79 107 138 179 231 277 323
#     4  10  20  34  54  81 114 145 178 221 264 315
#     4  10  21  38  59  83 112 144 180 226 280 337
#     4  10  21  38  59  83 111 143 182 228 278 334
#     4   9  19  37  58  79 106 143 182 221 271 327
#
# _framework density 9.1965979999999998
#
# number of rings (size 3 to 8) (size 9 to 14) (size 15 to 20)
#    0.000    2.000    0.000    3.429    0.000    6.857 
#    0.000    7.143    0.000    0.000    0.000    0.000 
#    0.000    0.000    0.000    0.000    0.000    0.000 
#
# Total GULP energy -156382.319182 kJ/mol
# GULP energy per Si atom -5585.082828 kJ/mol
# Density = 0.917567 g / cm^3
# Si number density = 9.196598 Si / 1000 Ang^3
#
#
#
# Elastic Constant Matrix: (Units=GPa)
#
#
# Indices 1 2 3 4 5 6 
#
# 1 113.1033 26.4718 5.1960 0.0000 -5.0155 0.0000
# 2 26.4718 84.4588 28.9900 0.0000 -7.8529 0.0000
# 3 5.1960 28.9900 33.6275 0.0000 -5.3839 0.0000
# 4 0.0000 0.0000 0.0000 31.9395 0.0000 4.3837
# 5 -5.0155 -7.8529 -5.3839 0.0000 14.7964 0.0000
# 6 0.0000 0.0000 0.0000 4.3837 0.0000 34.3682
#
#
#
# Elastic Compliance Matrix: (Units=1/GPa)
#
#
# Indices 1 2 3 4 5 6 
#
# 1 0.009660 -0.003459 0.001826 0.000000 0.002103 0.000000
# 2 -0.003459 0.018267 -0.014705 0.000000 0.003171 0.000000
# 3 0.001826 -0.014705 0.043517 0.000000 0.008649 0.000000
# 4 0.000000 0.000000 0.000000 0.031867 0.000000 -0.004065
# 5 0.002103 0.003171 0.008649 0.000000 0.073127 0.000000
# 6 0.000000 0.000000 0.000000 -0.004065 0.000000 0.029615
#
#
# Mechanical properties :
#
#
# Convention : Reuss Voigt Hill
#
# Bulk Modulus (GPa) = 25.79453 39.16725 32.48089
# Shear Modulus (GPa) = 19.86863 27.58960 23.72912
#
# Velocity S-wave (km/s) = 3.29023 3.87717 3.59570
# Velocity P-wave (km/s) = 5.33747 6.43303 5.91069
#
# Compressibility (1/GPa) = 0.03876791
#
# Stress axis : x y z
#
# Youngs Moduli (GPa) = 103.51481 54.74464 22.97933
#
# Poissons Ratio (x) = 0.18937 -0.04196
# Poissons Ratio (y) = 0.35807 0.33792
# Poissons Ratio (z) = -0.18903 0.80503
#
# Static dielectric constant tensor:
#      x y z
#    x 1.617120 0.000000 -0.010060 
#    y 0.000000 1.609520 0.000000 
#    z -0.010060 0.000000 1.643590 
# 
# From -- ./inp_files/338193.got.cif
#   From: 2010.05.17/outbox.ucp.g08.bks.cvg/sg12_170_cif.got.tgz:338193.got - 2010.06.11 11:47:21.
