data_PCOD9224400
_publ_section_title
;
Structure prediction by ZEFSAII (Michael W. Deem and Ramdas Pophale) SiO2 
 PCOD9224400
Probable space group: C 2/M
;
_chemical_formula_sum "Si O2"
_cell_formula_units_Z 32
_cell_length_a 21.000000
_cell_length_b 9.000000
_cell_length_c 21.000000
_cell_angle_alpha 90.000000
_cell_angle_beta 60.000000
_cell_angle_gamma 90.000000
_cell_volume 3437.254828
_symmetry_space_group_name_H-M "C 2/M"
_symmetry_group_IT_number 12
_symmetry_cell_setting 'monoclinic'
loop_
_space_group_symop_operation_xyz
x,y,z
-x,y,-z
-x,-y,-z
x,-y,z
1/2+x,1/2+y,z
1/2-x,1/2+y,-z
1/2-x,1/2-y,-z
1/2+x,1/2-y,z
loop_
_atom_site_type_symbol
_atom_site_label
_atom_site_fract_x
_atom_site_fract_y
_atom_site_fract_z
Si Si1 0.798871 0.322983 0.421331
Si Si2 0.555301 0.178255 0.164701
Si Si3 0.274596 0.830268 0.659346
Si Si4 0.813012 0.169856 0.837517
Si Si5 0.031681 0.678053 0.662428
Si Si6 0.969313 0.321022 0.083164
Si Si7 0.096954 0.170086 0.341711
Si Si8 0.814375 0.830336 0.163429
O O1 0.795796 0.500000 0.427614
O O2 0.750000 0.250000 0.500000
O O3 0.767063 0.270378 0.370112
O O4 0.883880 0.277093 0.384261
O O5 0.632478 0.255001 0.140067
O O6 0.500993 0.212685 0.251096
O O7 0.519443 0.228104 0.116909
O O8 0.564813 0.000000 0.159296
O O9 0.355069 0.766373 0.633922
O O10 0.229752 0.827795 0.747898
O O11 0.278486 0.000000 0.634699
O O12 0.857548 0.171502 0.747898
O O13 0.739413 0.260996 0.862091
O O14 0.796781 0.000000 0.861580
O O15 0.025649 0.500000 0.657353
O O16 0.980798 0.758715 0.636559
O O17 0.968854 0.500000 0.083859
O O18 0.887462 0.263850 0.133366
O O19 0.000000 0.270183 0.000000
O O20 0.090853 0.000000 0.365666
O O21 0.832225 0.000000 0.139364
#
# Coordination Sequence:
#
# PCOD9224400 Si02
#       8
#     8   8   8   8   8   8   8   8
#     4  11  23  38  55  77 108 144 180 218 262 311
#     4   9  17  32  54  78 104 134 171 214 260 311
#     4  10  20  35  56  81 108 138 174 216 262 313
#     4   9  17  30  51  79 107 133 167 213 262 312
#     4   9  18  33  54  78 104 136 171 211 261 313
#     4  10  21  36  53  75 106 143 180 219 264 314
#     4   9  17  30  52  81 108 133 166 213 263 310
#     4  10  20  34  55  81 107 137 174 217 263 312
#
# _framework density 9.3097549999999991
#
# number of rings (size 3 to 8) (size 9 to 14) (size 15 to 20)
#    0.000    2.375    0.000    2.625    0.000    7.250 
#    0.000    3.750    0.000    3.750    0.000    0.000 
#    0.000    0.000    0.000    0.000    0.000    0.000 
#
# Total GULP energy -178556.953363 kJ/mol
# GULP energy per Si atom -5579.904793 kJ/mol
# Density = 0.928857 g / cm^3
# Si number density = 9.309755 Si / 1000 Ang^3
#
#
#
# Elastic Constant Matrix: (Units=GPa)
#
#
# Indices 1 2 3 4 5 6 
#
# 1 102.7440 13.8018 4.2997 0.0002 1.8098 -0.0004
# 2 13.8018 9.8318 8.7073 0.0003 -1.2846 -0.0008
# 3 4.2997 8.7073 2.2872 0.0002 0.5110 -0.0002
# 4 0.0002 0.0003 0.0002 15.6855 -0.0002 0.2899
# 5 1.8098 -1.2846 0.5110 -0.0002 -31.3566 0.0001
# 6 -0.0004 -0.0008 -0.0002 0.2899 0.0001 32.2373
#
#
#
# Elastic Compliance Matrix: (Units=1/GPa)
#
#
# Indices 1 2 3 4 5 6 
#
# 1 0.010527 -0.001216 -0.015254 0.000000 0.000409 0.000000
# 2 -0.001216 -0.043364 0.166389 -0.000001 0.004418 0.000000
# 3 -0.015254 0.166389 -0.165230 -0.000001 -0.010389 0.000003
# 4 0.000000 -0.000001 -0.000001 0.063764 0.000000 -0.000573
# 5 0.000409 0.004418 -0.010389 0.000000 -0.032218 0.000000
# 6 0.000000 0.000000 0.000003 -0.000573 0.000000 0.031025
#
#
# Mechanical properties :
#
#
# Convention : Reuss Voigt Hill
#
# Bulk Modulus (GPa) = 9.82589 18.72007 14.27298
# Shear Modulus (GPa) = -12.45611 9.18351 -1.63630
#
# Velocity S-wave (km/s) = -2.58927 2.22326 -0.93847
# Velocity P-wave (km/s) = 1.91062 4.08245 2.55107
#
# Compressibility (1/GPa) = 0.10177192
#
# Stress axis : x y z
#
# Youngs Moduli (GPa) = 94.99032 -23.06051 -6.05219
#
# Poissons Ratio (x) = -0.02804 -0.09232
# Poissons Ratio (y) = 0.11549 1.00701
# Poissons Ratio (z) = 1.44895 3.83700
#
# Static dielectric constant tensor:
#      x y z
#    x 1.614090 0.000000 0.011080 
#    y 0.000000 1.623300 0.000000 
#    z 0.011080 0.000000 1.629600 
# 
# From -- ./inp_files/319921.got.cif
#   From: 2010.05.17/outbox.ucp.g08.bks.cvg/sg12_160_cif.got.tgz:319921.got - 2010.06.11 11:47:21.
