data_PCOD9224224
_publ_section_title
;
Structure prediction by ZEFSAII (Michael W. Deem and Ramdas Pophale) SiO2 
 PCOD9224224
Probable space group: C 2/M
;
_chemical_formula_sum "Si O2"
_cell_formula_units_Z 32
_cell_length_a 15.000000
_cell_length_b 9.000000
_cell_length_c 30.000000
_cell_angle_alpha 90.000000
_cell_angle_beta 60.000000
_cell_angle_gamma 90.000000
_cell_volume 3507.402885
_symmetry_space_group_name_H-M "C 2/M"
_symmetry_group_IT_number 12
_symmetry_cell_setting 'monoclinic'
loop_
_space_group_symop_operation_xyz
x,y,z
-x,y,-z
-x,-y,-z
x,-y,z
1/2+x,1/2+y,z
1/2-x,1/2+y,-z
1/2-x,1/2-y,-z
1/2+x,1/2-y,z
loop_
_atom_site_type_symbol
_atom_site_label
_atom_site_fract_x
_atom_site_fract_y
_atom_site_fract_z
Si Si1 0.733918 0.177574 0.135617
Si Si2 0.059170 0.678016 0.885155
Si Si3 0.663105 0.677589 0.242475
Si Si4 0.436848 0.677887 0.307418
Si Si5 0.399488 0.320996 0.497125
Si Si6 0.830637 0.321406 0.946964
Si Si7 0.316778 0.679295 0.423189
Si Si8 0.122476 0.322819 0.770072
O O1 0.849545 0.236132 0.113749
O O2 0.671747 0.245615 0.192402
O O3 0.691880 0.224678 0.098195
O O4 0.730006 0.000000 0.139250
O O5 0.075878 0.500000 0.885385
O O6 0.063399 0.710375 0.830995
O O7 0.947075 0.718022 0.930526
O O8 0.671192 0.500000 0.233449
O O9 0.554178 0.712425 0.290994
O O10 0.760057 0.720870 0.248149
O O11 0.427597 0.500000 0.306864
O O12 0.362646 0.731363 0.364916
O O13 0.415467 0.743815 0.264443
O O14 0.500000 0.272288 0.500000
O O15 0.394138 0.500000 0.502295
O O16 0.392424 0.284761 0.445977
O O17 0.294528 0.250409 0.541711
O O18 0.822734 0.500000 0.950424
O O19 0.750000 0.250000 0.000000
O O20 0.307072 0.500000 0.425046
O O21 0.116634 0.500000 0.764869
#
# Coordination Sequence:
#
# PCOD9224224 Si02
#       8
#     8   8   8   8   8   8   8   8
#     4  10  20  35  55  78 102 130 168 213 252 292
#     4   9  19  37  56  74 100 135 169 203 250 304
#     4   9  19  35  53  74 102 137 170 200 245 303
#     4  10  20  33  50  74 106 138 165 201 250 299
#     4   9  18  34  56  76  95 129 175 213 247 295
#     4  10  22  37  53  75 103 133 167 208 255 304
#     4   9  19  34  50  74 106 133 163 208 256 297
#     4   9  18  33  53  75 100 132 170 207 243 291
#
# _framework density 9.1235599999999994
#
# number of rings (size 3 to 8) (size 9 to 14) (size 15 to 20)
#    0.000    2.625    0.000    1.875    0.000    7.250 
#    0.000    5.000    0.000    0.000    0.000    0.000 
#    0.000    0.000    0.000    0.000    0.000    0.000 
#
# Total GULP energy -178411.451084 kJ/mol
# GULP energy per Si atom -5575.357846 kJ/mol
# Density = 0.910279 g / cm^3
# Si number density = 9.123560 Si / 1000 Ang^3
#
#
#
# Elastic Constant Matrix: (Units=GPa)
#
#
# Indices 1 2 3 4 5 6 
#
# 1 74.4229 14.8025 21.3425 0.0000 -4.7940 0.0000
# 2 14.8025 -2.0997 6.1510 0.0000 -5.4448 0.0000
# 3 21.3425 6.1510 -2.0984 0.0000 -23.8411 0.0000
# 4 0.0000 0.0000 0.0000 24.9065 0.0000 1.4909
# 5 -4.7940 -5.4448 -23.8411 0.0000 11.1106 0.0000
# 6 0.0000 0.0000 0.0000 1.4909 0.0000 20.2253
#
#
#
# Elastic Compliance Matrix: (Units=1/GPa)
#
#
# Indices 1 2 3 4 5 6 
#
# 1 0.009512 0.025645 -0.000689 0.000000 0.015192 0.000000
# 2 0.025645 -0.169342 0.022915 0.000000 -0.022750 0.000000
# 3 -0.000689 0.022915 -0.021301 0.000000 -0.034775 0.000000
# 4 0.000000 0.000000 0.000000 0.040328 0.000000 -0.002973
# 5 0.015192 -0.022750 -0.034775 0.000000 0.010791 0.000000
# 6 0.000000 0.000000 0.000000 -0.002973 0.000000 0.049662
#
#
# Mechanical properties :
#
#
# Convention : Reuss Voigt Hill
#
# Bulk Modulus (GPa) = -11.71104 17.20188 2.74542
# Shear Modulus (GPa) = -24.44358 13.11041 -5.66659
#
# Velocity S-wave (km/s) = -3.66401 2.68338 -1.76415
# Velocity P-wave (km/s) = 4.93273 4.36444 1.62535
#
# Compressibility (1/GPa) = -0.08538953
#
# Stress axis : x y z
#
# Youngs Moduli (GPa) = 105.12671 -5.90520 -46.94719
#
# Poissons Ratio (x) = 0.15144 -0.03236
# Poissons Ratio (y) = -2.69597 1.07579
# Poissons Ratio (z) = 0.07247 0.13532
#
# Static dielectric constant tensor:
#      x y z
#    x 1.617350 0.000000 -0.017770 
#    y 0.000000 1.609910 0.000000 
#    z -0.017770 0.000000 1.621000 
# 
# From -- ./inp_files/338835.got.cif
#   From: 2010.05.17/outbox.ucp.g08.bks.cvg/sg12_170_cif.got.tgz:338835.got - 2010.06.11 11:47:21.
