data_PCOD9224032
_publ_section_title
;
Structure prediction by ZEFSAII (Michael W. Deem and Ramdas Pophale) SiO2 
 PCOD9224032
Probable space group: C 2/M
;
_chemical_formula_sum "Si O2"
_cell_formula_units_Z 32
_cell_length_a 15.000000
_cell_length_b 18.000000
_cell_length_c 12.000000
_cell_angle_alpha 90.000000
_cell_angle_beta 90.000000
_cell_angle_gamma 90.000000
_cell_volume 3240.000000
_symmetry_space_group_name_H-M "C 2/M"
_symmetry_group_IT_number 12
_symmetry_cell_setting 'monoclinic'
loop_
_space_group_symop_operation_xyz
x,y,z
-x,y,-z
-x,-y,-z
x,-y,z
1/2+x,1/2+y,z
1/2-x,1/2+y,-z
1/2-x,1/2-y,-z
1/2+x,1/2-y,z
loop_
_atom_site_type_symbol
_atom_site_label
_atom_site_fract_x
_atom_site_fract_y
_atom_site_fract_z
Si Si1 0.336608 0.086583 0.820754
Si Si2 0.713517 0.589743 0.483271
Si Si3 0.321681 0.589858 0.770811
Si Si4 0.002810 0.166275 0.134850
Si Si5 0.857120 0.912974 0.287046
Si Si6 0.088455 0.586169 0.574629
Si Si7 0.012218 0.333599 0.781289
Si Si8 0.347189 0.911192 0.076930
O O1 0.242407 0.092610 0.761204
O O2 0.414284 0.133207 0.764915
O O3 0.363724 0.000000 0.817555
O O4 0.327010 0.109669 0.949762
O O5 0.706100 0.500000 0.488538
O O6 0.684803 0.612516 0.358987
O O7 0.653788 0.617948 0.586465
O O8 0.819923 0.604824 0.489698
O O9 0.329375 0.500000 0.774640
O O10 0.405970 0.627236 0.827880
O O11 0.233010 0.610363 0.839981
O O12 0.923295 0.123975 0.199177
O O13 0.996657 0.248944 0.183864
O O14 0.000000 0.165835 0.000000
O O15 0.882225 0.000000 0.294202
O O16 0.099613 0.500000 0.617487
O O17 0.070433 0.643601 0.673991
O O18 0.000000 0.586378 0.500000
O O19 0.061739 0.375371 0.882066
O O20 0.355053 0.000000 0.081851
#
# Coordination Sequence:
#
# PCOD9224032 Si02
#       8
#     8   8   8   8   8   8   8   8
#     4  10  20  35  60  91 121 155 201 255 304 356
#     4   9  18  37  65  94 118 147 197 257 314 361
#     4  10  21  40  66  90 115 157 211 264 309 357
#     4  12  27  43  59  85 124 171 211 252 309 366
#     4  10  22  42  66  91 118 155 208 264 308 357
#     4  10  19  36  65  96 128 163 200 247 302 366
#     4  12  23  38  57  91 129 164 199 242 305 378
#     4  10  19  35  62  91 118 155 202 253 305 359
#
# _framework density 9.8765429999999999
#
# number of rings (size 3 to 8) (size 9 to 14) (size 15 to 20)
#    0.000    1.625    1.250    4.125    0.000    6.500 
#    2.250    5.000    0.000    0.000    0.000    0.000 
#    0.000    0.000    0.000    0.000    0.000    0.000 
#
# Total GULP energy -178695.558885 kJ/mol
# GULP energy per Si atom -5584.236215 kJ/mol
# Density = 0.985406 g / cm^3
# Si number density = 9.876543 Si / 1000 Ang^3
#
#
#
# Elastic Constant Matrix: (Units=GPa)
#
#
# Indices 1 2 3 4 5 6 
#
# 1 79.5489 41.3440 20.7424 0.0000 -18.5962 0.0000
# 2 41.3440 25.3015 25.8837 0.0000 -9.6333 0.0000
# 3 20.7424 25.8837 79.1201 0.0000 -12.5150 0.0000
# 4 0.0000 0.0000 0.0000 205.7386 0.0000 195.4992
# 5 -18.5962 -9.6333 -12.5150 0.0000 34.9297 0.0000
# 6 0.0000 0.0000 0.0000 195.4992 0.0000 227.7976
#
#
#
# Elastic Compliance Matrix: (Units=1/GPa)
#
#
# Indices 1 2 3 4 5 6 
#
# 1 0.375080 -0.754368 0.155973 0.000000 0.047525 0.000000
# 2 -0.754368 1.580084 -0.332595 0.000000 -0.085013 0.000000
# 3 0.155973 -0.332595 0.083938 0.000000 0.021386 0.000000
# 4 0.000000 0.000000 0.000000 0.026345 0.000000 -0.022609
# 5 0.047525 -0.085013 0.021386 0.000000 0.038148 0.000000
# 6 0.000000 0.000000 0.000000 -0.022609 0.000000 0.023794
#
#
# Mechanical properties :
#
#
# Convention : Reuss Voigt Hill
#
# Bulk Modulus (GPa) = 5.64588 39.99009 22.81798
# Shear Modulus (GPa) = 1.23505 100.09319 50.66412
#
# Velocity S-wave (km/s) = 0.79158 7.12616 5.06995
# Velocity P-wave (km/s) = 1.92351 9.38075 6.77120
#
# Compressibility (1/GPa) = 0.17712039
#
# Stress axis : x y z
#
# Youngs Moduli (GPa) = 2.66610 0.63288 11.91352
#
# Poissons Ratio (x) = 0.47742 -1.85818
# Poissons Ratio (y) = 2.01122 3.96238
# Poissons Ratio (z) = -0.41584 0.21049
#
# Static dielectric constant tensor:
#      x y z
#    x 1.674590 0.000000 0.003210 
#    y 0.000000 1.690510 0.000000 
#    z 0.003210 0.000000 1.722190 
# 
# From -- ./inp_files/146158.got.cif
#   From: 2010.05.17/outbox.ucp.g08.bks.cvg/sg12_74_cif.got.tgz:146158.got - 2010.06.11 11:47:21.
