data_PCOD9224585
_publ_section_title
;
Structure prediction by ZEFSAII (Michael W. Deem and Ramdas Pophale) SiO2 
 PCOD9224585
Probable space group: C 2/M
;
_chemical_formula_sum "Si O2"
_cell_formula_units_Z 28
_cell_length_a 24.000000
_cell_length_b 9.000000
_cell_length_c 15.000000
_cell_angle_alpha 90.000000
_cell_angle_beta 60.000000
_cell_angle_gamma 90.000000
_cell_volume 2805.922308
_symmetry_space_group_name_H-M "C 2/M"
_symmetry_group_IT_number 12
_symmetry_cell_setting 'monoclinic'
loop_
_space_group_symop_operation_xyz
x,y,z
-x,y,-z
-x,-y,-z
x,-y,z
1/2+x,1/2+y,z
1/2-x,1/2+y,-z
1/2-x,1/2-y,-z
1/2+x,1/2-y,z
loop_
_atom_site_type_symbol
_atom_site_label
_atom_site_fract_x
_atom_site_fract_y
_atom_site_fract_z
Si Si1 0.243372 0.672395 0.629168
Si Si2 0.184722 0.676900 0.020697
Si Si3 0.431658 0.675327 0.802925
Si Si4 0.992719 0.675079 0.400024
Si Si5 0.849895 0.671375 0.145782
Si Si6 0.530025 0.676820 0.879873
Si Si7 0.851960 0.676615 0.450654
O O1 0.257313 0.500000 0.594736
O O2 0.217122 0.676419 0.749359
O O3 0.187077 0.726374 0.606298
O O4 0.305404 0.770810 0.566143
O O5 0.192043 0.500000 0.008031
O O6 0.130382 0.726339 0.131708
O O7 0.250000 0.750000 0.000000
O O8 0.159580 0.735084 0.944732
O O9 0.419264 0.500000 0.824628
O O10 0.457720 0.715983 0.686025
O O11 0.484874 0.722969 0.834523
O O12 0.002279 0.500000 0.367673
O O13 0.923622 0.725197 0.416001
O O14 0.000000 0.683353 0.500000
O O15 0.870655 0.500000 0.121130
O O16 0.900899 0.750266 0.168074
O O17 0.536462 0.500000 0.869381
O O18 0.500000 0.714951 0.000000
O O19 0.855108 0.500000 0.442249
#
# Coordination Sequence:
#
# PCOD9224585 Si02
#       7
#     8   8   8   8   8   8   8
#     4   9  18  33  54  80 111 142 179 230 282 336
#     4  11  24  41  60  83 115 155 198 242 292 349
#     4  11  23  40  62  88 119 155 195 242 298 354
#     4  10  22  40  61  85 115 151 196 245 293 347
#     4  10  21  36  57  86 115 150 194 238 289 348
#     4  10  20  35  57  86 120 152 188 238 293 347
#     4   9  18  34  55  80 110 144 182 227 283 341
#
# _framework density 9.9788940000000004
#
# number of rings (size 3 to 8) (size 9 to 14) (size 15 to 20)
#    0.000    2.000    1.429    1.714    0.000    5.714 
#    0.000    5.714    0.000    0.000    0.000    0.000 
#    0.000    0.000    0.000    0.000    0.000    0.000 
#
# Total GULP energy -156076.302490 kJ/mol
# GULP energy per Si atom -5574.153660 kJ/mol
# Density = 0.995618 g / cm^3
# Si number density = 9.978894 Si / 1000 Ang^3
#
#
#
# Elastic Constant Matrix: (Units=GPa)
#
#
# Indices 1 2 3 4 5 6 
#
# 1 24.8521 -14.9216 37.3444 0.0000 -13.4909 0.0000
# 2 -14.9216 -34.9946 38.2879 0.0000 4.0268 0.0000
# 3 37.3444 38.2879 30.1541 0.0000 -14.0401 0.0000
# 4 0.0000 0.0000 0.0000 22.5583 0.0000 -3.1584
# 5 -13.4909 4.0268 -14.0401 0.0000 13.9036 0.0000
# 6 0.0000 0.0000 0.0000 -3.1584 0.0000 26.2718
#
#
#
# Elastic Compliance Matrix: (Units=1/GPa)
#
#
# Indices 1 2 3 4 5 6 
#
# 1 0.075010 -0.037343 -0.012375 0.000000 0.071101 0.000000
# 2 -0.037343 0.011854 0.024020 0.000000 -0.015411 0.000000
# 3 -0.012375 0.024020 0.017289 0.000000 -0.001506 0.000000
# 4 0.000000 0.000000 0.000000 0.045089 0.000000 0.005421
# 5 0.071101 -0.015411 -0.001506 0.000000 0.143857 0.000000
# 6 0.000000 0.000000 0.000000 0.005421 0.000000 0.038715
#
#
# Mechanical properties :
#
#
# Convention : Reuss Voigt Hill
#
# Bulk Modulus (GPa) = 18.95483 15.71478 17.33480
# Shear Modulus (GPa) = 12.47517 9.83348 11.15433
#
# Velocity S-wave (km/s) = 2.50287 2.22212 2.36666
# Velocity P-wave (km/s) = 4.22736 3.80459 4.02153
#
# Compressibility (1/GPa) = 0.05275700
#
# Stress axis : x y z
#
# Youngs Moduli (GPa) = 13.33154 84.36036 57.83939
#
# Poissons Ratio (x) = 3.15024 0.71579
# Poissons Ratio (y) = 0.49783 -1.38930
# Poissons Ratio (z) = 0.16498 -2.02633
#
# Static dielectric constant tensor:
#      x y z
#    x 1.775740 0.000000 -0.145020 
#    y 0.000000 1.670130 0.000000 
#    z -0.145020 0.000000 1.919580 
# 
# From -- ./inp_files/238284.got.cif
#   From: 2010.05.17/outbox.ucp.g08.bks.cvg/sg12_120_cif.got.tgz:238284.got - 2010.06.11 11:47:21.
