data_PCOD9224049
_publ_section_title
;
Structure prediction by ZEFSAII (Michael W. Deem and Ramdas Pophale) SiO2 
 PCOD9224049
Probable space group: C 2/M
;
_chemical_formula_sum "Si O2"
_cell_formula_units_Z 32
_cell_length_a 21.000000
_cell_length_b 27.000000
_cell_length_c 18.000000
_cell_angle_alpha 90.000000
_cell_angle_beta 20.000000
_cell_angle_gamma 90.000000
_cell_volume 3490.657583
_symmetry_space_group_name_H-M "C 2/M"
_symmetry_group_IT_number 12
_symmetry_cell_setting 'monoclinic'
loop_
_space_group_symop_operation_xyz
x,y,z
-x,y,-z
-x,-y,-z
x,-y,z
1/2+x,1/2+y,z
1/2-x,1/2+y,-z
1/2-x,1/2-y,-z
1/2+x,1/2-y,z
loop_
_atom_site_type_symbol
_atom_site_label
_atom_site_fract_x
_atom_site_fract_y
_atom_site_fract_z
Si Si1 0.858342 0.791524 0.990855
Si Si2 0.205891 0.143960 0.311186
Si Si3 0.777812 0.157828 0.368369
Si Si4 0.174572 0.604930 0.974236
Si Si5 0.076227 0.695972 0.177207
Si Si6 0.421425 0.441295 0.439474
Si Si7 0.309436 0.059049 0.455347
Si Si8 0.206431 0.739654 0.311822
O O1 0.667507 0.807667 0.159349
O O2 0.832519 0.768943 0.100869
O O3 0.919392 0.749270 0.865766
O O4 0.012429 0.833376 0.833940
O O5 0.333816 0.122554 0.103224
O O6 0.190468 0.100915 0.390654
O O7 0.239476 0.201924 0.299689
O O8 0.000000 0.146407 0.500000
O O9 0.636800 0.181163 0.582224
O O10 0.728326 0.098596 0.435035
O O11 0.744142 0.194718 0.331475
O O12 0.362115 0.573169 0.783425
O O13 0.186318 0.656791 0.006152
O O14 0.997192 0.576309 0.204543
O O15 0.391158 0.500000 0.493742
O O16 0.353988 0.436698 0.427836
O O17 0.323533 0.000000 0.460362
O O18 0.000000 0.736236 0.500000
#
# Coordination Sequence:
#
# PCOD9224049 Si02
#       8
#     8   8   8   8   8   8   8   8
#     4  11  21  36  58  85 118 157 191 234 297 347
#     4   9  20  34  56  83 122 158 195 233 290 347
#     4  11  23  38  60  87 115 154 200 240 297 361
#     4  10  19  36  57  85 114 155 191 236 293 344
#     4  10  21  35  56  86 121 152 193 242 283 352
#     4  10  21  37  57  82 116 157 201 244 286 342
#     4  10  23  41  60  85 114 148 199 254 297 342
#     4  11  21  39  59  87 124 161 189 243 297 358
#
# _framework density 9.1673270000000002
#
# number of rings (size 3 to 8) (size 9 to 14) (size 15 to 20)
#    0.000    1.750    2.500    1.875    0.000    6.250 
#    2.250    1.250    0.000    1.875    0.000    0.000 
#    0.000    0.000    0.000    0.000    0.000    0.000 
#
# Total GULP energy -178143.680359 kJ/mol
# GULP energy per Si atom -5566.990011 kJ/mol
# Density = 0.914646 g / cm^3
# Si number density = 9.167327 Si / 1000 Ang^3
#
#
#
# Elastic Constant Matrix: (Units=GPa)
#
#
# Indices 1 2 3 4 5 6 
#
# 1 66.5469 34.7396 5.5346 -0.0173 9.1190 -0.0352
# 2 34.7396 129.2633 12.6391 -0.0444 7.5531 -0.0008
# 3 5.5346 12.6391 57.3884 -0.0990 -2.7466 -0.0032
# 4 -0.0173 -0.0444 -0.0990 28.2676 0.0029 2.9925
# 5 9.1190 7.5531 -2.7466 0.0029 24.2719 0.0195
# 6 -0.0352 -0.0008 -0.0032 2.9925 0.0195 37.3750
#
#
#
# Elastic Compliance Matrix: (Units=1/GPa)
#
#
# Indices 1 2 3 4 5 6 
#
# 1 0.018208 -0.004466 -0.001039 -0.000001 -0.005568 0.000020
# 2 -0.004466 0.009178 -0.001656 0.000006 -0.001365 -0.000004
# 3 -0.001039 -0.001656 0.018031 0.000060 0.002946 -0.000006
# 4 -0.000001 0.000006 0.000060 0.035679 0.000003 -0.002857
# 5 -0.005568 -0.001365 0.002946 0.000003 0.044050 -0.000028
# 6 0.000020 -0.000004 -0.000006 -0.002857 -0.000028 0.026985
#
#
# Mechanical properties :
#
#
# Convention : Reuss Voigt Hill
#
# Bulk Modulus (GPa) = 32.15963 39.89168 36.02565
# Shear Modulus (GPa) = 28.27754 31.33524 29.80639
#
# Velocity S-wave (km/s) = 3.93147 4.13858 4.03635
# Velocity P-wave (km/s) = 6.17957 6.68146 6.43541
#
# Compressibility (1/GPa) = 0.03109489
#
# Stress axis : x y z
#
# Youngs Moduli (GPa) = 54.92059 108.95348 55.45965
#
# Poissons Ratio (x) = 0.48664 0.05761
# Poissons Ratio (y) = 0.24530 0.09184
# Poissons Ratio (z) = 0.05705 0.18043
#
# Static dielectric constant tensor:
#      x y z
#    x 1.647200 -0.000050 -0.009570 
#    y -0.000050 1.657320 0.000150 
#    z -0.009570 0.000150 1.688150 
# 
# From -- ./inp_files/286677.got.cif
#   From: 2010.05.17/outbox.ucp.g08.bks.cvg/sg12_144_cif.got.tgz:286677.got - 2010.06.11 11:47:21.
