data_PCOD9224809
_publ_section_title
;
Structure prediction by ZEFSAII (Michael W. Deem and Ramdas Pophale) SiO2 
 PCOD9224809
Probable space group: C 2/M
;
_chemical_formula_sum "Si O2"
_cell_formula_units_Z 32
_cell_length_a 9.000000
_cell_length_b 18.000000
_cell_length_c 30.000000
_cell_angle_alpha 90.000000
_cell_angle_beta 40.000000
_cell_angle_gamma 90.000000
_cell_volume 3123.947783
_symmetry_space_group_name_H-M "C 2/M"
_symmetry_group_IT_number 12
_symmetry_cell_setting 'monoclinic'
loop_
_space_group_symop_operation_xyz
x,y,z
-x,y,-z
-x,-y,-z
x,-y,z
1/2+x,1/2+y,z
1/2-x,1/2+y,-z
1/2-x,1/2-y,-z
1/2+x,1/2-y,z
loop_
_atom_site_type_symbol
_atom_site_label
_atom_site_fract_x
_atom_site_fract_y
_atom_site_fract_z
Si Si1 0.560063 0.914707 0.056852
Si Si2 0.263377 0.912978 0.445551
Si Si3 0.422591 0.414333 0.843217
Si Si4 0.456668 0.085033 0.184517
Si Si5 0.464555 0.319691 0.682637
Si Si6 0.768626 0.322602 0.526921
Si Si7 0.551407 0.414292 0.915087
Si Si8 0.783297 0.335310 0.694986
O O1 0.331273 0.879195 0.088669
O O2 0.471622 0.917329 0.127808
O O3 0.584002 0.000000 0.033901
O O4 0.816900 0.883221 0.991043
O O5 0.304127 0.893726 0.487643
O O6 0.471291 0.876208 0.369961
O O7 0.000000 0.884148 0.500000
O O8 0.264608 0.000000 0.435794
O O9 0.390643 0.500000 0.835951
O O10 0.526919 0.417420 0.868046
O O11 0.593032 0.377267 0.768668
O O12 0.234237 0.124328 0.255663
O O13 0.702123 0.124493 0.136678
O O14 0.458308 0.000000 0.201235
O O15 0.567808 0.333481 0.609518
O O16 0.665779 0.321198 0.673708
O O17 0.347453 0.239615 0.705698
O O18 0.750000 0.250000 0.500000
O O19 0.000000 0.309461 0.500000
O O20 0.576202 0.500000 0.927432
#
# Coordination Sequence:
#
# PCOD9224809 Si02
#       8
#     8   8   8   8   8   8   8   8
#     4   9  16  32  58  89 124 164 212 260 314 376
#     4  11  26  45  69  99 130 165 207 261 320 377
#     4  10  20  36  61  91 125 162 209 266 315 369
#     4  10  21  37  60  94 128 160 208 266 321 373
#     4  12  26  42  67  91 122 171 207 256 314 383
#     4  12  23  44  69  96 126 167 214 261 309 381
#     4   9  18  32  57  92 126 164 208 262 318 371
#     4  12  26  44  64  91 126 167 210 257 316 381
#
# _framework density 10.243449
#
# number of rings (size 3 to 8) (size 9 to 14) (size 15 to 20)
#    0.000    1.375    3.750    1.500    3.500    4.250 
#    0.000    2.500    0.000    4.500    0.000    0.000 
#    0.000    0.000    0.000    0.000    0.000    0.000 
#
# Total GULP energy -178267.376217 kJ/mol
# GULP energy per Si atom -5570.855507 kJ/mol
# Density = 1.022013 g / cm^3
# Si number density = 10.243449 Si / 1000 Ang^3
#
#
#
# Elastic Constant Matrix: (Units=GPa)
#
#
# Indices 1 2 3 4 5 6 
#
# 1 70.1534 11.7894 29.2028 0.0030 -15.9367 -0.0024
# 2 11.7894 46.1630 36.6328 -0.0043 -10.1832 0.0013
# 3 29.2028 36.6328 129.5663 -0.0145 -8.6758 0.0032
# 4 0.0030 -0.0043 -0.0145 12.7978 0.0056 4.2464
# 5 -15.9367 -10.1832 -8.6758 0.0056 35.6065 -0.0007
# 6 -0.0024 0.0013 0.0032 4.2464 -0.0007 15.2566
#
#
#
# Elastic Compliance Matrix: (Units=1/GPa)
#
#
# Indices 1 2 3 4 5 6 
#
# 1 0.017246 -0.000226 -0.003365 -0.000013 0.006834 0.000008
# 2 -0.000226 0.029329 -0.007814 -0.000002 0.006383 0.000000
# 3 -0.003365 -0.007814 0.010608 0.000013 -0.001156 -0.000006
# 4 -0.000013 -0.000002 0.000013 0.086089 -0.000017 -0.023961
# 5 0.006834 0.006383 -0.001156 -0.000017 0.032687 0.000007
# 6 0.000008 0.000000 -0.000006 -0.023961 0.000007 0.072214
#
#
# Mechanical properties :
#
#
# Convention : Reuss Voigt Hill
#
# Bulk Modulus (GPa) = 29.09327 44.57031 36.83179
# Shear Modulus (GPa) = 17.70274 23.94938 20.82606
#
# Velocity S-wave (km/s) = 2.94275 3.42279 3.19180
# Velocity P-wave (km/s) = 5.07721 6.11746 5.62145
#
# Compressibility (1/GPa) = 0.03437221
#
# Stress axis : x y z
#
# Youngs Moduli (GPa) = 57.98464 34.09611 94.26456
#
# Poissons Ratio (x) = 0.00771 0.31725
# Poissons Ratio (y) = 0.01311 0.73658
# Poissons Ratio (z) = 0.19515 0.26642
#
# Static dielectric constant tensor:
#      x y z
#    x 1.904310 -0.000010 -0.048150 
#    y -0.000010 1.735300 0.000000 
#    z -0.048150 0.000000 1.746120 
# 
# From -- ./inp_files/372886.got.cif
#   From: 2010.05.17/outbox.ucp.g08.bks.cvg/sg12_187_cif.got.tgz:372886.got - 2010.06.11 11:47:21.
