data_PCOD9224190
_publ_section_title
;
Structure prediction by ZEFSAII (Michael W. Deem and Ramdas Pophale) SiO2 
 PCOD9224190
Probable space group: C 2/M
;
_chemical_formula_sum "Si O2"
_cell_formula_units_Z 32
_cell_length_a 21.000000
_cell_length_b 9.000000
_cell_length_c 21.000000
_cell_angle_alpha 90.000000
_cell_angle_beta 120.000000
_cell_angle_gamma 90.000000
_cell_volume 3437.254828
_symmetry_space_group_name_H-M "C 2/M"
_symmetry_group_IT_number 12
_symmetry_cell_setting 'monoclinic'
loop_
_space_group_symop_operation_xyz
x,y,z
-x,y,-z
-x,-y,-z
x,-y,z
1/2+x,1/2+y,z
1/2-x,1/2+y,-z
1/2-x,1/2-y,-z
1/2+x,1/2-y,z
loop_
_atom_site_type_symbol
_atom_site_label
_atom_site_fract_x
_atom_site_fract_y
_atom_site_fract_z
Si Si1 0.673599 0.177397 0.978534
Si Si2 0.114808 0.675306 0.598495
Si Si3 0.444790 0.826049 0.560427
Si Si4 0.331107 0.322187 0.252875
Si Si5 0.469280 0.170229 0.159689
Si Si6 0.464364 0.337997 0.912366
Si Si7 0.192427 0.169801 0.117294
Si Si8 0.503634 0.674779 0.705869
O O1 0.659637 0.240437 0.041411
O O2 0.675905 0.000000 0.980973
O O3 0.750000 0.250000 0.000000
O O4 0.613486 0.222459 0.896323
O O5 0.133669 0.500000 0.610704
O O6 0.109418 0.726321 0.522549
O O7 0.164383 0.767426 0.671680
O O8 0.029547 0.687257 0.578628
O O9 0.446945 0.740956 0.627263
O O10 0.431093 0.000000 0.563157
O O11 0.324429 0.500000 0.245520
O O12 0.264500 0.245430 0.182317
O O13 0.411536 0.276747 0.265824
O O14 0.507674 0.197577 0.111930
O O15 0.510926 0.267599 0.231501
O O16 0.468335 0.000000 0.179327
O O17 0.488084 0.500000 0.896533
O O18 0.376421 0.335903 0.869834
O O19 0.500000 0.335490 0.000000
O O20 0.209941 0.000000 0.106566
O O21 0.502764 0.500000 0.700253
#
# Coordination Sequence:
#
# PCOD9224190 Si02
#       8
#     8   8   8   8   8   8   8   8
#     4  11  23  36  52  75 102 133 167 203 248 302
#     4   8  14  26  45  69  99 136 171 205 246 296
#     4   8  14  26  45  69  99 134 171 207 246 294
#     4  10  20  32  48  74 107 140 171 209 251 297
#     4  11  23  36  53  75  99 130 168 211 255 299
#     4  10  21  39  59  76  95 125 166 213 261 305
#     4  11  22  36  55  75  98 131 168 209 256 303
#     4  10  20  32  48  72 105 140 171 207 251 299
#
# _framework density 9.3097549999999991
#
# number of rings (size 3 to 8) (size 9 to 14) (size 15 to 20)
#    0.000    2.125    1.250    3.375    0.000    6.750 
#    0.000    2.500    0.000    0.000    0.000    0.875 
#    0.000    0.000    0.000    0.000    0.000    0.000 
#
# Total GULP energy -178238.317704 kJ/mol
# GULP energy per Si atom -5569.947428 kJ/mol
# Density = 0.928857 g / cm^3
# Si number density = 9.309755 Si / 1000 Ang^3
#
#
#
# Elastic Constant Matrix: (Units=GPa)
#
#
# Indices 1 2 3 4 5 6 
#
# 1 14.2632 -1.1220 -7.8830 0.0000 -1.3406 0.0000
# 2 -1.1220 16.6063 24.1271 0.0000 -4.4413 0.0000
# 3 -7.8830 24.1271 89.1029 0.0000 -17.1266 0.0000
# 4 0.0000 0.0000 0.0000 29.6468 0.0000 -3.8436
# 5 -1.3406 -4.4413 -17.1266 0.0000 8.7054 0.0000
# 6 0.0000 0.0000 0.0000 -3.8436 0.0000 13.1234
#
#
#
# Elastic Compliance Matrix: (Units=1/GPa)
#
#
# Indices 1 2 3 4 5 6 
#
# 1 0.083784 -0.009290 0.018488 0.000000 0.044536 0.000000
# 2 -0.009290 0.100373 -0.029642 0.000000 -0.008539 0.000000
# 3 0.018488 -0.029642 0.029791 0.000000 0.046334 0.000000
# 4 0.000000 0.000000 0.000000 0.035062 0.000000 0.010269
# 5 0.044536 -0.008539 0.046334 0.000000 0.208527 0.000000
# 6 0.000000 0.000000 0.000000 0.010269 0.000000 0.079207
#
#
# Mechanical properties :
#
#
# Convention : Reuss Voigt Hill
#
# Bulk Modulus (GPa) = 5.77833 16.69073 11.23453
# Shear Modulus (GPa) = 7.87007 17.28515 12.57761
#
# Velocity S-wave (km/s) = 2.05814 3.05017 2.60187
# Velocity P-wave (km/s) = 2.95940 4.62474 3.88242
#
# Compressibility (1/GPa) = 0.17306048
#
# Stress axis : x y z
#
# Youngs Moduli (GPa) = 11.93551 9.96281 33.56720
#
# Poissons Ratio (x) = 0.09255 -0.62060
# Poissons Ratio (y) = 0.11088 0.99500
# Poissons Ratio (z) = -0.22067 0.29532
#
# Static dielectric constant tensor:
#      x y z
#    x 1.685220 0.000000 -0.007160 
#    y 0.000000 1.653360 0.000000 
#    z -0.007160 0.000000 1.515160 
# 
# From -- ./inp_files/319876.got.cif
#   From: 2010.05.17/outbox.ucp.g08.bks.cvg/sg12_160_cif.got.tgz:319876.got - 2010.06.11 11:47:21.
