data_PCOD9224944
_publ_section_title
;
Structure prediction by ZEFSAII (Michael W. Deem and Ramdas Pophale) SiO2 
 PCOD9224944
Probable space group: C 2/M
;
_chemical_formula_sum "Si O2"
_cell_formula_units_Z 24
_cell_length_a 18.000000
_cell_length_b 15.000000
_cell_length_c 9.000000
_cell_angle_alpha 90.000000
_cell_angle_beta 90.000000
_cell_angle_gamma 90.000000
_cell_volume 2430.000000
_symmetry_space_group_name_H-M "C 2/M"
_symmetry_group_IT_number 12
_symmetry_cell_setting 'monoclinic'
loop_
_space_group_symop_operation_xyz
x,y,z
-x,y,-z
-x,-y,-z
x,-y,z
1/2+x,1/2+y,z
1/2-x,1/2+y,-z
1/2-x,1/2-y,-z
1/2+x,1/2-y,z
loop_
_atom_site_type_symbol
_atom_site_label
_atom_site_fract_x
_atom_site_fract_y
_atom_site_fract_z
Si Si1 0.075729 0.848747 0.423382
Si Si2 0.811201 0.500000 0.071825
Si Si3 0.674277 0.500000 0.283658
Si Si4 0.706479 0.695091 0.633894
Si Si5 0.105913 0.500000 0.234640
Si Si6 0.950748 0.695273 0.805802
Si Si7 0.733674 0.000000 0.412700
Si Si8 0.375594 0.195881 0.112926
O O1 0.128580 0.828544 0.560273
O O2 0.065079 0.757391 0.333975
O O3 0.000000 0.882913 0.500000
O O4 0.119649 0.916218 0.313729
O O5 0.726338 0.500000 0.136502
O O6 0.849640 0.592490 0.124714
O O7 0.829990 0.500000 0.894692
O O8 0.732584 0.500000 0.421914
O O9 0.750000 0.750000 0.500000
O O10 0.743082 0.596901 0.656164
O O11 0.683738 0.748410 0.785542
O O12 0.060251 0.589997 0.216076
O O13 0.145540 0.500000 0.394102
O O14 0.038601 0.708167 0.836312
O O15 0.890476 0.718579 0.937327
#
# Coordination Sequence:
#
# PCOD9224944 Si02
#       8
#     8   4   4   8   4   8   4   8
#     4  11  21  39  59  85 114 152 199 241 286 341
#     4  10  21  37  60  86 115 153 194 237 289 354
#     4  10  23  39  59  82 112 153 198 239 286 341
#     4  11  22  38  61  85 120 156 194 242 294 347
#     4  10  21  38  59  86 120 149 187 244 296 345
#     4  10  21  37  60  87 117 151 192 241 291 355
#     4  10  22  38  55  83 119 151 188 238 295 336
#     4  10  20  38  59  86 118 153 191 237 298 347
#
# _framework density 9.8765429999999999
#
# number of rings (size 3 to 8) (size 9 to 14) (size 15 to 20)
#    0.000    1.667    1.667    3.750    0.000    3.333 
#    0.000    4.583    0.000    2.000    0.000    0.000 
#    0.000    0.000    0.000    0.000    0.000    0.000 
#
# Total GULP energy -133670.172992 kJ/mol
# GULP energy per Si atom -5569.590541 kJ/mol
# Density = 0.985406 g / cm^3
# Si number density = 9.876543 Si / 1000 Ang^3
#
#
#
# Elastic Constant Matrix: (Units=GPa)
#
#
# Indices 1 2 3 4 5 6 
#
# 1 56.2019 -8.1962 1.4404 0.0000 -29.0296 0.0000
# 2 -8.1962 102.8202 19.8766 0.0000 -14.8400 0.0000
# 3 1.4404 19.8766 28.3948 0.0000 -20.6726 0.0000
# 4 0.0000 0.0000 0.0000 29.2228 0.0000 -1.1302
# 5 -29.0296 -14.8400 -20.6726 0.0000 40.9153 0.0000
# 6 0.0000 0.0000 0.0000 -1.1302 0.0000 24.3316
#
#
#
# Elastic Compliance Matrix: (Units=1/GPa)
#
#
# Indices 1 2 3 4 5 6 
#
# 1 0.040288 0.004352 0.026686 0.000000 0.043646 0.000000
# 2 0.004352 0.011719 -0.004874 0.000000 0.004875 0.000000
# 3 0.026686 -0.004874 0.078736 0.000000 0.056947 0.000000
# 4 0.000000 0.000000 0.000000 0.034281 0.000000 0.001592
# 5 0.043646 0.004875 0.056947 0.000000 0.085949 0.000000
# 6 0.000000 0.000000 0.000000 0.001592 0.000000 0.041173
#
#
# Mechanical properties :
#
#
# Convention : Reuss Voigt Hill
#
# Bulk Modulus (GPa) = 5.46239 23.73984 14.60111
# Shear Modulus (GPa) = 16.62002 30.51367 23.56685
#
# Velocity S-wave (km/s) = 2.90382 3.93460 3.45783
# Velocity P-wave (km/s) = 3.74356 5.71715 4.83219
#
# Compressibility (1/GPa) = 0.18307011
#
# Stress axis : x y z
#
# Youngs Moduli (GPa) = 24.82128 85.33439 12.70066
#
# Poissons Ratio (x) = -0.37139 -0.33893
# Poissons Ratio (y) = -0.10803 0.06191
# Poissons Ratio (z) = -0.66238 0.41595
#
# Static dielectric constant tensor:
#      x y z
#    x 1.711750 0.000000 0.025820 
#    y 0.000000 1.722790 0.000000 
#    z 0.025820 0.000000 1.740250 
# 
# From -- ./inp_files/73723.got.cif
#   From: 2010.05.17/outbox.ucp.g08.bks.cvg/sg12_37_cif.got.tgz:73723.got - 2010.06.11 11:47:21.
