data_PCOD9224431
_publ_section_title
;
Structure prediction by ZEFSAII (Michael W. Deem and Ramdas Pophale) SiO2 
 PCOD9224431
Probable space group: C 2/M
;
_chemical_formula_sum "Si O2"
_cell_formula_units_Z 20
_cell_length_a 18.000000
_cell_length_b 12.000000
_cell_length_c 30.000000
_cell_angle_alpha 90.000000
_cell_angle_beta 160.000000
_cell_angle_gamma 90.000000
_cell_volume 2216.290529
_symmetry_space_group_name_H-M "C 2/M"
_symmetry_group_IT_number 12
_symmetry_cell_setting 'monoclinic'
loop_
_space_group_symop_operation_xyz
x,y,z
-x,y,-z
-x,-y,-z
x,-y,z
1/2+x,1/2+y,z
1/2-x,1/2+y,-z
1/2-x,1/2-y,-z
1/2+x,1/2-y,z
loop_
_atom_site_type_symbol
_atom_site_label
_atom_site_fract_x
_atom_site_fract_y
_atom_site_fract_z
Si Si1 0.903440 0.125794 0.061463
Si Si2 0.408397 0.134034 0.666507
Si Si3 0.170199 0.250644 0.134963
Si Si4 0.945345 0.132262 0.365150
Si Si5 0.573027 0.207808 0.222434
O O1 0.013612 0.195775 0.083887
O O2 0.994541 0.172680 0.159528
O O3 0.969405 0.000000 0.092320
O O4 0.642270 0.136271 0.911852
O O5 0.645938 0.168032 0.781639
O O6 0.387508 0.191997 0.703095
O O7 0.197134 0.166727 0.517131
O O8 0.402405 0.000000 0.668957
O O9 0.326074 0.332727 0.251774
O O10 0.000000 0.288912 0.000000
O O11 0.786656 0.175051 0.315121
O O12 0.946326 0.000000 0.367515
#
# Coordination Sequence:
#
# PCOD9224431 Si02
#       5
#     8   8   8   8   8
#     4  10  20  35  55  82 113 142 179 226 275 322
#     4  11  21  36  59  83 109 143 185 229 272 321
#     4  11  22  36  56  83 111 145 184 225 272 322
#     4  10  22  38  56  80 112 148 182 224 274 325
#     4  10  20  34  56  84 108 139 184 227 271 321
#
# _framework density 9.0240880000000008
#
# number of rings (size 3 to 8) (size 9 to 14) (size 15 to 20)
#    0.000    1.600    2.000    3.600    0.000    2.800 
#    0.000    1.000    0.000   10.800    0.000    0.000 
#    0.000    0.000    0.000    0.000    0.000    0.000 
#
# Total GULP energy -111418.694376 kJ/mol
# GULP energy per Si atom -5570.934719 kJ/mol
# Density = 0.900355 g / cm^3
# Si number density = 9.024088 Si / 1000 Ang^3
#
#
#
# Elastic Constant Matrix: (Units=GPa)
#
#
# Indices 1 2 3 4 5 6 
#
# 1 32.2235 -28.5456 11.9788 -0.0003 5.8015 -0.0003
# 2 -28.5456 -6.5659 -1.6354 0.0088 -1.0347 -0.0043
# 3 11.9788 -1.6354 141.5198 0.0413 -4.9881 -0.0128
# 4 -0.0003 0.0088 0.0413 9.4640 -0.0078 4.0472
# 5 5.8015 -1.0347 -4.9881 -0.0078 35.2379 0.0007
# 6 -0.0003 -0.0043 -0.0128 4.0472 0.0007 11.8350
#
#
#
# Elastic Compliance Matrix: (Units=1/GPa)
#
#
# Indices 1 2 3 4 5 6 
#
# 1 0.006650 -0.028348 -0.000963 0.000039 -0.002064 -0.000025
# 2 -0.028348 -0.030249 0.002194 0.000030 0.004089 -0.000020
# 3 -0.000963 0.002194 0.007217 -0.000042 0.001245 0.000023
# 4 0.000039 0.000030 -0.000042 0.123763 0.000017 -0.042323
# 5 -0.002064 0.004089 0.001245 0.000017 0.029015 -0.000005
# 6 -0.000025 -0.000020 0.000023 -0.042323 -0.000005 0.098969
#
#
# Mechanical properties :
#
#
# Convention : Reuss Voigt Hill
#
# Bulk Modulus (GPa) = -14.16114 14.53032 0.18459
# Shear Modulus (GPa) = 18.79270 23.66601 21.22935
#
# Velocity S-wave (km/s) = 3.23034 3.62507 3.43339
# Velocity P-wave (km/s) = 2.45971 5.05864 3.97744
#
# Compressibility (1/GPa) = -0.07061577
#
# Stress axis : x y z
#
# Youngs Moduli (GPa) = 150.36581 -33.05931 138.56323
#
# Poissons Ratio (x) = -0.93717 0.13347
# Poissons Ratio (y) = 4.26257 -0.30401
# Poissons Ratio (z) = 0.14484 0.07253
#
# Static dielectric constant tensor:
#      x y z
#    x 1.630300 0.000000 -0.008910 
#    y 0.000000 1.621200 0.000000 
#    z -0.008910 0.000000 1.620620 
# 
# From -- ./inp_files/142523.got.cif
#   From: 2010.05.17/outbox.ucp.g08.bks.cvg/sg12_72_cif.got.tgz:142523.got - 2010.06.11 11:47:21.
