data_PCOD9224814
_publ_section_title
;
Structure prediction by ZEFSAII (Michael W. Deem and Ramdas Pophale) SiO2 
 PCOD9224814
Probable space group: C 2/M
;
_chemical_formula_sum "Si O2"
_cell_formula_units_Z 26
_cell_length_a 9.000000
_cell_length_b 18.000000
_cell_length_c 21.000000
_cell_angle_alpha 90.000000
_cell_angle_beta 130.000000
_cell_angle_gamma 90.000000
_cell_volume 2606.083195
_symmetry_space_group_name_H-M "C 2/M"
_symmetry_group_IT_number 12
_symmetry_cell_setting 'monoclinic'
loop_
_space_group_symop_operation_xyz
x,y,z
-x,y,-z
-x,-y,-z
x,-y,z
1/2+x,1/2+y,z
1/2-x,1/2+y,-z
1/2-x,1/2-y,-z
1/2+x,1/2-y,z
loop_
_atom_site_type_symbol
_atom_site_label
_atom_site_fract_x
_atom_site_fract_y
_atom_site_fract_z
Si Si1 0.021559 0.586419 0.299834
Si Si2 0.090881 0.803547 0.884608
Si Si3 0.686766 0.586643 0.506120
Si Si4 0.379558 0.414447 0.760091
Si Si5 0.500000 0.722468 0.000000
Si Si6 0.276356 0.213566 0.715653
Si Si7 0.149238 0.173924 0.368305
O O1 0.020796 0.500000 0.281572
O O2 0.804238 0.615401 0.250213
O O3 0.127867 0.591874 0.397250
O O4 0.140749 0.634933 0.283627
O O5 0.304310 0.770368 0.940823
O O6 0.073018 0.877373 0.838507
O O7 0.936111 0.750180 0.805862
O O8 0.028255 0.818230 0.940257
O O9 0.500000 0.600948 0.500000
O O10 0.669148 0.500000 0.479284
O O11 0.702019 0.644744 0.452603
O O12 0.382241 0.500000 0.771054
O O13 0.343696 0.395578 0.677162
O O14 0.070064 0.203691 0.690735
O O15 0.242631 0.262111 0.641795
#
# Coordination Sequence:
#
# PCOD9224814 Si02
#       7
#     8   8   8   8   4   8   8
#     4  10  21  37  58  82 113 153 194 236 283 329
#     4  10  20  37  59  85 112 142 180 227 273 341
#     4  10  20  37  56  80 114 152 196 240 280 329
#     4  10  21  38  59  85 114 148 189 233 277 330
#     4  10  20  36  62  84 108 144 178 216 286 340
#     4  11  21  37  58  84 113 146 190 234 280 334
#     4  11  22  36  57  81 113 155 192 238 283 322
#
# _framework density 9.9766580000000005
#
# number of rings (size 3 to 8) (size 9 to 14) (size 15 to 20)
#    0.000    1.692    1.538    5.077    0.000    1.846 
#    0.000    3.077    0.000    3.692    0.000    0.000 
#    0.000    0.000    0.000    0.000    0.000    0.000 
#
# Total GULP energy -145049.615819 kJ/mol
# GULP energy per Si atom -5578.831378 kJ/mol
# Density = 0.995395 g / cm^3
# Si number density = 9.976658 Si / 1000 Ang^3
#
#
#
# Elastic Constant Matrix: (Units=GPa)
#
#
# Indices 1 2 3 4 5 6 
#
# 1 33.0437 1.8503 12.2973 0.0000 -11.1683 0.0000
# 2 1.8503 51.0134 34.8071 0.0000 -1.0597 0.0000
# 3 12.2973 34.8071 11.2064 0.0000 3.8610 0.0000
# 4 0.0000 0.0000 0.0000 7.1776 0.0000 -7.8027
# 5 -11.1683 -1.0597 3.8610 0.0000 28.1304 0.0000
# 6 0.0000 0.0000 0.0000 -7.8027 0.0000 19.6541
#
#
#
# Elastic Compliance Matrix: (Units=1/GPa)
#
#
# Indices 1 2 3 4 5 6 
#
# 1 0.024394 -0.016857 0.023585 0.000000 0.005813 0.000000
# 2 -0.016857 -0.004111 0.035295 0.000000 -0.011692 0.000000
# 3 0.023585 0.035295 -0.052438 0.000000 0.017891 0.000000
# 4 0.000000 0.000000 0.000000 0.245101 0.000000 0.097305
# 5 0.005813 -0.011692 0.017891 0.000000 0.034960 0.000000
# 6 0.000000 0.000000 0.000000 0.097305 0.000000 0.089510
#
#
# Mechanical properties :
#
#
# Convention : Reuss Voigt Hill
#
# Bulk Modulus (GPa) = 19.27046 21.46366 20.36706
# Shear Modulus (GPa) = 18.47295 14.07967 16.27631
#
# Velocity S-wave (km/s) = 3.04601 2.65925 2.85918
# Velocity P-wave (km/s) = 4.69571 4.49546 4.59667
#
# Compressibility (1/GPa) = 0.05189291
#
# Stress axis : x y z
#
# Youngs Moduli (GPa) = 40.99356 -243.23928 -19.07016
#
# Poissons Ratio (x) = -4.10020 0.44978
# Poissons Ratio (y) = 0.69101 0.67309
# Poissons Ratio (z) = -0.96685 8.58519
#
# Static dielectric constant tensor:
#      x y z
#    x 1.735250 0.000000 0.015210 
#    y 0.000000 1.740340 0.000000 
#    z 0.015210 0.000000 1.708860 
# 
# From -- ./inp_files/301188.got.cif
#   From: 2010.05.17/outbox.ucp.g08.bks.cvg/sg12_151_cif.got.tgz:301188.got - 2010.06.11 11:47:21.
