data_PCOD9224450
_publ_section_title
;
Structure prediction by ZEFSAII (Michael W. Deem and Ramdas Pophale) SiO2 
 PCOD9224450
Probable space group: C 2/M
;
_chemical_formula_sum "Si O2"
_cell_formula_units_Z 24
_cell_length_a 21.000000
_cell_length_b 18.000000
_cell_length_c 9.000000
_cell_angle_alpha 90.000000
_cell_angle_beta 130.000000
_cell_angle_gamma 90.000000
_cell_volume 2606.083195
_symmetry_space_group_name_H-M "C 2/M"
_symmetry_group_IT_number 12
_symmetry_cell_setting 'monoclinic'
loop_
_space_group_symop_operation_xyz
x,y,z
-x,y,-z
-x,-y,-z
x,-y,z
1/2+x,1/2+y,z
1/2-x,1/2+y,-z
1/2-x,1/2-y,-z
1/2+x,1/2-y,z
loop_
_atom_site_type_symbol
_atom_site_label
_atom_site_fract_x
_atom_site_fract_y
_atom_site_fract_z
Si Si1 0.810209 0.083890 0.707578
Si Si2 0.237705 0.581366 0.285903
Si Si3 0.416401 0.869659 0.776782
Si Si4 0.320010 0.191904 0.049396
Si Si5 0.867769 0.585812 0.392454
Si Si6 0.907194 0.228202 0.917145
O O1 0.798380 0.099595 0.513928
O O2 0.721841 0.085463 0.659461
O O3 0.862399 0.150135 0.852312
O O4 0.843334 0.000000 0.772989
O O5 0.258933 0.500000 0.259218
O O6 0.149254 0.578422 0.238807
O O7 0.227825 0.637749 0.137126
O O8 0.426390 0.888674 0.618568
O O9 0.376603 0.787917 0.747011
O O10 0.500000 0.872131 0.000000
O O11 0.359754 0.142762 0.242522
O O12 0.250000 0.250000 0.000000
O O13 0.389326 0.232368 0.049176
O O14 0.886614 0.500000 0.376616
O O15 0.000000 0.214748 0.000000
#
# Coordination Sequence:
#
# PCOD9224450 Si02
#       6
#     8   8   8   8   8   8
#     4   9  18  34  57  83 107 146 194 235 282 334
#     4   9  19  33  53  79 110 143 187 235 275 334
#     4   9  19  34  56  82 112 150 191 227 279 335
#     4  11  21  34  57  84 111 148 186 230 286 331
#     4  10  20  34  57  88 116 143 189 239 279 334
#     4  10  21  37  55  80 116 150 189 234 280 338
#
# _framework density 9.2092229999999997
#
# number of rings (size 3 to 8) (size 9 to 14) (size 15 to 20)
#    0.000    2.333    1.667    2.000    2.333    3.667 
#    0.000    7.500    0.000   11.500    0.000    2.333 
#    0.000    0.000    0.000    0.000    0.000    0.000 
#
# Total GULP energy -133603.314561 kJ/mol
# GULP energy per Si atom -5566.804773 kJ/mol
# Density = 0.918826 g / cm^3
# Si number density = 9.209223 Si / 1000 Ang^3
#
#
#
# Elastic Constant Matrix: (Units=GPa)
#
#
# Indices 1 2 3 4 5 6 
#
# 1 67.4653 36.1918 35.6675 0.0000 -14.7911 0.0000
# 2 36.1918 124.2293 77.1221 0.0000 -19.0096 0.0000
# 3 35.6675 77.1221 92.0897 0.0000 -32.4139 0.0000
# 4 0.0000 0.0000 0.0000 16.3171 0.0000 -9.7721
# 5 -14.7911 -19.0096 -32.4139 0.0000 29.6786 0.0000
# 6 0.0000 0.0000 0.0000 -9.7721 0.0000 23.1443
#
#
#
# Elastic Compliance Matrix: (Units=1/GPa)
#
#
# Indices 1 2 3 4 5 6 
#
# 1 0.019076 -0.002492 -0.004089 0.000000 0.003445 0.000000
# 2 -0.002492 0.018177 -0.017214 0.000000 -0.008400 0.000000
# 3 -0.004089 -0.017214 0.036162 0.000000 0.026431 0.000000
# 4 0.000000 0.000000 0.000000 0.082027 0.000000 0.034634
# 5 0.003445 -0.008400 0.026431 0.000000 0.058899 0.000000
# 6 0.000000 0.000000 0.000000 0.034634 0.000000 0.057830
#
#
# Mechanical properties :
#
#
# Convention : Reuss Voigt Hill
#
# Bulk Modulus (GPa) = 38.72104 64.63855 51.67980
# Shear Modulus (GPa) = 15.22679 22.81487 19.02083
#
# Velocity S-wave (km/s) = 2.87838 3.52333 3.21706
# Velocity P-wave (km/s) = 5.66704 7.19183 6.47448
#
# Compressibility (1/GPa) = 0.02582575
#
# Stress axis : x y z
#
# Youngs Moduli (GPa) = 52.42111 55.01577 27.65336
#
# Poissons Ratio (x) = 0.13709 0.11307
# Poissons Ratio (y) = 0.13063 0.47602
# Poissons Ratio (z) = 0.21435 0.94703
#
# Static dielectric constant tensor:
#      x y z
#    x 1.630340 0.000000 0.022340 
#    y 0.000000 1.695750 0.000000 
#    z 0.022340 0.000000 1.668580 
# 
# From -- ./inp_files/88156.got.cif
#   From: 2010.05.17/outbox.ucp.g08.bks.cvg/sg12_45_cif.got.tgz:88156.got - 2010.06.11 11:47:21.
