data_PCOD9224288
_publ_section_title
;
Structure prediction by ZEFSAII (Michael W. Deem and Ramdas Pophale) SiO2 
 PCOD9224288
Probable space group: C 2/M
;
_chemical_formula_sum "Si O2"
_cell_formula_units_Z 28
_cell_length_a 12.000000
_cell_length_b 15.000000
_cell_length_c 18.000000
_cell_angle_alpha 90.000000
_cell_angle_beta 120.000000
_cell_angle_gamma 90.000000
_cell_volume 2805.922308
_symmetry_space_group_name_H-M "C 2/M"
_symmetry_group_IT_number 12
_symmetry_cell_setting 'monoclinic'
loop_
_space_group_symop_operation_xyz
x,y,z
-x,y,-z
-x,-y,-z
x,-y,z
1/2+x,1/2+y,z
1/2-x,1/2+y,-z
1/2-x,1/2-y,-z
1/2+x,1/2-y,z
loop_
_atom_site_type_symbol
_atom_site_label
_atom_site_fract_x
_atom_site_fract_y
_atom_site_fract_z
Si Si1 0.650567 0.602812 0.398731
Si Si2 0.383938 0.597645 0.901092
Si Si3 0.556907 0.266843 0.885576
Si Si4 0.786090 0.606953 0.016134
Si Si5 0.734630 0.603659 0.599273
Si Si6 0.509232 0.217962 0.302510
Si Si7 0.380891 0.791788 0.403770
O O1 0.614272 0.500000 0.367421
O O2 0.687979 0.602906 0.498191
O O3 0.554976 0.684685 0.348632
O O4 0.775410 0.639569 0.398064
O O5 0.379515 0.500000 0.861668
O O6 0.426546 0.681734 0.866653
O O7 0.261349 0.608253 0.913469
O O8 0.500000 0.593005 0.000000
O O9 0.596489 0.178545 0.946439
O O10 0.538342 0.234989 0.795754
O O11 0.671049 0.341262 0.933429
O O12 0.802427 0.500000 0.002567
O O13 0.722249 0.500000 0.621920
O O14 0.877831 0.643960 0.655496
O O15 0.656612 0.686760 0.607642
O O16 0.406863 0.184800 0.327598
O O17 0.500000 0.800795 0.500000
#
# Coordination Sequence:
#
# PCOD9224288 Si02
#       7
#     8   8   8   8   8   8   8
#     4  10  21  36  56  80 105 139 184 229 269 313
#     4   8  15  32  58  80 101 135 176 215 261 321
#     4  10  20  33  57  83 110 142 176 224 276 315
#     4   9  19  37  59  82 107 140 182 221 267 329
#     4  10  21  37  55  76 105 143 185 225 267 318
#     4  11  22  36  53  81 114 142 180 227 268 315
#     4  11  19  36  57  78 108 146 184 222 264 321
#
# _framework density 9.9788940000000004
#
# number of rings (size 3 to 8) (size 9 to 14) (size 15 to 20)
#    0.000    2.143    2.857    2.143    0.000    5.714 
#    0.000    1.429    0.000   11.571    0.000    0.000 
#    0.000    0.000    0.000    0.000    0.000    0.000 
#
# Total GULP energy -155925.190554 kJ/mol
# GULP energy per Si atom -5568.756806 kJ/mol
# Density = 0.995618 g / cm^3
# Si number density = 9.978894 Si / 1000 Ang^3
#
#
#
# Elastic Constant Matrix: (Units=GPa)
#
#
# Indices 1 2 3 4 5 6 
#
# 1 31.7949 -21.8036 -10.9550 0.0000 -0.7687 0.0000
# 2 -21.8036 89.4933 -2.5343 0.0000 17.0173 0.0000
# 3 -10.9550 -2.5343 52.0678 0.0000 -5.2694 0.0000
# 4 0.0000 0.0000 0.0000 16.8941 0.0000 -5.3001
# 5 -0.7687 17.0173 -5.2694 0.0000 13.6835 0.0000
# 6 0.0000 0.0000 0.0000 -5.3001 0.0000 2.7534
#
#
#
# Elastic Compliance Matrix: (Units=1/GPa)
#
#
# Indices 1 2 3 4 5 6 
#
# 1 0.042784 0.012547 0.008612 0.000000 -0.009884 0.000000
# 2 0.012547 0.018384 0.001345 0.000000 -0.021640 0.000000
# 3 0.008612 0.001345 0.021813 0.000000 0.007212 0.000000
# 4 0.000000 0.000000 0.000000 0.149443 0.000000 0.287671
# 5 -0.009884 -0.021640 0.007212 0.000000 0.102215 0.000000
# 6 0.000000 0.000000 0.000000 0.287671 0.000000 0.916945
#
#
# Mechanical properties :
#
#
# Convention : Reuss Voigt Hill
#
# Bulk Modulus (GPa) = 7.81319 11.41890 9.61605
# Shear Modulus (GPa) = 4.00243 20.57612 12.28928
#
# Velocity S-wave (km/s) = 1.41768 3.21437 2.48415
# Velocity P-wave (km/s) = 2.56965 4.41704 3.61340
#
# Compressibility (1/GPa) = 0.12798869
#
# Stress axis : x y z
#
# Youngs Moduli (GPa) = 23.37312 54.39541 45.84425
#
# Poissons Ratio (x) = -0.68250 -0.39482
# Poissons Ratio (y) = -0.29326 -0.06164
# Poissons Ratio (z) = -0.20129 -0.07314
#
# Static dielectric constant tensor:
#      x y z
#    x 1.791660 0.000000 0.008960 
#    y 0.000000 1.707580 0.000000 
#    z 0.008960 0.000000 1.682280 
# 
# From -- ./inp_files/263421.got.cif
#   From: 2010.05.17/outbox.ucp.g08.bks.cvg/sg12_132_cif.got.tgz:263421.got - 2010.06.11 11:47:21.
