data_PCOD9224915
_publ_section_title
;
Structure prediction by ZEFSAII (Michael W. Deem and Ramdas Pophale) SiO2 
 PCOD9224915
Probable space group: C 2/M
;
_chemical_formula_sum "Si O2"
_cell_formula_units_Z 32
_cell_length_a 30.000000
_cell_length_b 9.000000
_cell_length_c 15.000000
_cell_angle_alpha 90.000000
_cell_angle_beta 50.000000
_cell_angle_gamma 90.000000
_cell_volume 3102.479995
_symmetry_space_group_name_H-M "C 2/M"
_symmetry_group_IT_number 12
_symmetry_cell_setting 'monoclinic'
loop_
_space_group_symop_operation_xyz
x,y,z
-x,y,-z
-x,-y,-z
x,-y,z
1/2+x,1/2+y,z
1/2-x,1/2+y,-z
1/2-x,1/2-y,-z
1/2+x,1/2-y,z
loop_
_atom_site_type_symbol
_atom_site_label
_atom_site_fract_x
_atom_site_fract_y
_atom_site_fract_z
Si Si1 0.877762 0.673600 0.174936
Si Si2 0.021170 0.322855 0.089783
Si Si3 0.149614 0.676370 0.441501
Si Si4 0.432575 0.319430 0.802175
Si Si5 0.779421 0.170116 0.202079
Si Si6 0.538434 0.330006 0.537887
Si Si7 0.900286 0.175597 0.314579
Si Si8 0.805990 0.165803 0.957883
O O1 0.880346 0.500000 0.195456
O O2 0.824268 0.708579 0.180158
O O3 0.863285 0.776699 0.277203
O O4 0.940766 0.711235 0.048508
O O5 0.012676 0.500000 0.101085
O O6 0.065216 0.266693 0.108492
O O7 0.962083 0.246327 0.202682
O O8 0.147549 0.500000 0.458438
O O9 0.212665 0.709297 0.316256
O O10 0.094773 0.729242 0.453079
O O11 0.130784 0.756944 0.558408
O O12 0.432553 0.500000 0.814097
O O13 0.491343 0.282036 0.672937
O O14 0.369335 0.277713 0.845423
O O15 0.789342 0.000000 0.223729
O O16 0.796551 0.161396 0.076316
O O17 0.500000 0.333371 0.500000
O O18 0.556946 0.500000 0.533968
O O19 0.907409 0.000000 0.314134
O O20 0.802888 0.000000 0.925595
O O21 0.750000 0.250000 0.000000
#
# Coordination Sequence:
#
# PCOD9224915 Si02
#       8
#     8   8   8   8   8   8   8   8
#     4  11  24  41  64  94 124 158 202 251 303 359
#     4  11  22  38  62  94 128 158 196 252 305 357
#     4  11  24  42  63  89 122 160 206 259 308 357
#     4  10  20  37  62  89 122 163 203 250 303 359
#     4  10  23  43  63  87 122 163 205 252 305 364
#     4  10  22  39  61  91 124 162 206 250 304 367
#     4  12  25  41  64  91 122 163 203 246 306 369
#     4  10  22  39  61  90 124 161 205 251 300 360
#
# _framework density 10.314329000000001
#
# number of rings (size 3 to 8) (size 9 to 14) (size 15 to 20)
#    0.000    1.375    2.500    2.625    1.750    5.750 
#    0.000    0.000    0.000    0.000    0.000    0.000 
#    0.000    0.000    0.000    0.000    0.000    0.000 
#
# Total GULP energy -178215.802998 kJ/mol
# GULP energy per Si atom -5569.243844 kJ/mol
# Density = 1.029085 g / cm^3
# Si number density = 10.314329 Si / 1000 Ang^3
#
#
#
# Elastic Constant Matrix: (Units=GPa)
#
#
# Indices 1 2 3 4 5 6 
#
# 1 45.9587 16.8151 5.7808 0.0000 -10.5696 -0.0004
# 2 16.8151 38.9346 26.6459 0.0000 -7.9563 -0.0026
# 3 5.7808 26.6459 88.8340 0.0000 -23.9915 0.0000
# 4 0.0000 0.0000 0.0000 26.0540 0.0000 -6.8843
# 5 -10.5696 -7.9563 -23.9915 0.0000 44.5432 0.0002
# 6 -0.0004 -0.0026 0.0000 -6.8843 0.0002 -340.4304
#
#
#
# Elastic Compliance Matrix: (Units=1/GPa)
#
#
# Indices 1 2 3 4 5 6 
#
# 1 0.027570 -0.013284 0.003881 0.000000 0.006260 0.000000
# 2 -0.013284 0.038735 -0.011394 0.000000 -0.002370 0.000000
# 3 0.003881 -0.011394 0.016525 0.000000 0.007786 0.000000
# 4 0.000000 0.000000 0.000000 0.038178 0.000000 -0.000772
# 5 0.006260 -0.002370 0.007786 0.000000 0.027706 0.000000
# 6 0.000000 0.000000 0.000000 -0.000772 0.000000 -0.002922
#
#
# Mechanical properties :
#
#
# Convention : Reuss Voigt Hill
#
# Bulk Modulus (GPa) = 24.25095 30.24566 27.24831
# Shear Modulus (GPa) = 24.85933 -45.66762 -10.40415
#
# Velocity S-wave (km/s) = 3.47520 -4.71020 -2.24822
# Velocity P-wave (km/s) = 5.28055 3.85844 2.54918
#
# Compressibility (1/GPa) = 0.04123551
#
# Stress axis : x y z
#
# Youngs Moduli (GPa) = 36.27077 25.81662 60.51455
#
# Poissons Ratio (x) = 0.34295 -0.23486
# Poissons Ratio (y) = 0.48182 0.68952
# Poissons Ratio (z) = -0.14077 0.29416
#
# Static dielectric constant tensor:
#      x y z
#    x 2.069660 0.000000 0.076750 
#    y 0.000000 1.518560 0.000000 
#    z 0.076750 0.000000 1.720870 
# 
# From -- ./inp_files/249811.got.cif
#   From: 2010.05.17/outbox.ucp.g08.bks.cvg/sg12_125_cif.got.tgz:249811.got - 2010.06.11 11:47:21.
