data_PCOD9224547
_publ_section_title
;
Structure prediction by ZEFSAII (Michael W. Deem and Ramdas Pophale) SiO2 
 PCOD9224547
Probable space group: C 2/M
;
_chemical_formula_sum "Si O2"
_cell_formula_units_Z 26
_cell_length_a 15.000000
_cell_length_b 18.000000
_cell_length_c 21.000000
_cell_angle_alpha 90.000000
_cell_angle_beta 150.000000
_cell_angle_gamma 90.000000
_cell_volume 2835.000000
_symmetry_space_group_name_H-M "C 2/M"
_symmetry_group_IT_number 12
_symmetry_cell_setting 'monoclinic'
loop_
_space_group_symop_operation_xyz
x,y,z
-x,y,-z
-x,-y,-z
x,-y,z
1/2+x,1/2+y,z
1/2-x,1/2+y,-z
1/2-x,1/2-y,-z
1/2+x,1/2-y,z
loop_
_atom_site_type_symbol
_atom_site_label
_atom_site_fract_x
_atom_site_fract_y
_atom_site_fract_z
Si Si1 0.708743 0.710187 0.606930
Si Si2 0.778177 0.086317 0.488368
Si Si3 0.164300 0.913764 0.787162
Si Si4 0.655250 0.121781 0.544268
Si Si5 0.949991 0.238102 0.097314
Si Si6 0.000000 0.681800 0.000000
Si Si7 0.516589 0.580667 0.832729
O O1 0.500000 0.696145 0.500000
O O2 0.759704 0.643229 0.591600
O O3 0.693504 0.790155 0.563185
O O4 0.876865 0.724445 0.759524
O O5 0.642596 0.093545 0.464191
O O6 0.975485 0.107120 0.638387
O O7 0.783786 0.000000 0.471795
O O8 0.146092 0.906662 0.852423
O O9 0.192345 0.000000 0.789691
O O10 0.334628 0.867154 0.873424
O O11 0.500000 0.111717 0.500000
O O12 0.824828 0.082016 0.680126
O O13 0.942084 0.267957 0.021978
O O14 0.980200 0.149974 0.119336
O O15 0.750000 0.250000 0.000000
O O16 0.552363 0.500000 0.883125
#
# Coordination Sequence:
#
# PCOD9224547 Si02
#       7
#     8   8   8   8   8   4   8
#     4  10  21  39  59  86 115 150 198 244 294 343
#     4  10  20  35  56  86 122 153 182 237 302 346
#     4   9  18  33  57  87 114 148 195 241 287 340
#     4   9  18  33  57  85 113 151 198 238 275 336
#     4  11  23  41  59  88 118 155 195 240 290 349
#     4  12  21  36  63  82 114 154 200 238 287 356
#     4   9  18  36  57  79 116 151 188 242 287 331
#
# _framework density 9.1710759999999993
#
# number of rings (size 3 to 8) (size 9 to 14) (size 15 to 20)
#    0.000    2.154    1.538    3.000    0.000    1.538 
#    8.308    2.692    0.000    0.000    0.000    0.000 
#    0.000    0.000    0.000    0.000    0.000    0.000 
#
# Total GULP energy -144749.719412 kJ/mol
# GULP energy per Si atom -5567.296900 kJ/mol
# Density = 0.915020 g / cm^3
# Si number density = 9.171076 Si / 1000 Ang^3
#
#
#
# Elastic Constant Matrix: (Units=GPa)
#
#
# Indices 1 2 3 4 5 6 
#
# 1 87.2892 48.8904 26.8490 0.0018 11.6091 -0.0004
# 2 48.8904 94.2206 23.7089 0.0052 -4.3196 0.0000
# 3 26.8490 23.7089 53.8568 0.0078 3.1947 0.0000
# 4 0.0018 0.0052 0.0078 18.2359 0.0012 4.8237
# 5 11.6091 -4.3196 3.1947 0.0012 20.3435 -0.0007
# 6 -0.0004 0.0000 0.0000 4.8237 -0.0007 8.5107
#
#
#
# Elastic Compliance Matrix: (Units=1/GPa)
#
#
# Indices 1 2 3 4 5 6 
#
# 1 0.020189 -0.009809 -0.004986 0.000004 -0.012821 -0.000002
# 2 -0.009809 0.016938 -0.003141 -0.000004 0.009687 0.000002
# 3 -0.004986 -0.003141 0.022517 -0.000009 -0.001358 0.000005
# 4 0.000004 -0.000004 -0.000009 0.064508 -0.000007 -0.036562
# 5 -0.012821 0.009687 -0.001358 -0.000007 0.058742 0.000008
# 6 -0.000002 0.000002 0.000005 -0.036562 0.000008 0.138221
#
#
# Mechanical properties :
#
#
# Convention : Reuss Voigt Hill
#
# Bulk Modulus (GPa) = 42.06752 48.25145 45.15949
# Shear Modulus (GPa) = 13.70201 18.47925 16.09063
#
# Velocity S-wave (km/s) = 2.73614 3.17752 2.96505
# Velocity P-wave (km/s) = 5.74166 6.31075 6.03292
#
# Compressibility (1/GPa) = 0.02377131
#
# Stress axis : x y z
#
# Youngs Moduli (GPa) = 49.53217 59.04001 44.41155
#
# Poissons Ratio (x) = 0.57912 0.22144
# Poissons Ratio (y) = 0.48586 0.13949
# Poissons Ratio (z) = 0.24697 0.18544
#
# Static dielectric constant tensor:
#      x y z
#    x 1.698780 0.000000 0.012610 
#    y 0.000000 1.642180 0.000000 
#    z 0.012610 0.000000 1.639330 
# 
# From -- ./inp_files/311520.got.cif
#   From: 2010.05.17/outbox.ucp.g08.bks.cvg/sg12_156_cif.got.tgz:311520.got - 2010.06.11 11:47:21.
