data_PCOD9224717
_publ_section_title
;
Structure prediction by ZEFSAII (Michael W. Deem and Ramdas Pophale) SiO2 
 PCOD9224717
Probable space group: C 2/M
;
_chemical_formula_sum "Si O2"
_cell_formula_units_Z 32
_cell_length_a 24.000000
_cell_length_b 9.000000
_cell_length_c 30.000000
_cell_angle_alpha 90.000000
_cell_angle_beta 30.000000
_cell_angle_gamma 90.000000
_cell_volume 3240.000000
_symmetry_space_group_name_H-M "C 2/M"
_symmetry_group_IT_number 12
_symmetry_cell_setting 'monoclinic'
loop_
_space_group_symop_operation_xyz
x,y,z
-x,y,-z
-x,-y,-z
x,-y,z
1/2+x,1/2+y,z
1/2-x,1/2+y,-z
1/2-x,1/2-y,-z
1/2+x,1/2-y,z
loop_
_atom_site_type_symbol
_atom_site_label
_atom_site_fract_x
_atom_site_fract_y
_atom_site_fract_z
Si Si1 0.427630 0.671174 0.819406
Si Si2 0.128695 0.323442 0.633725
Si Si3 0.696244 0.831012 0.754560
Si Si4 0.280734 0.676566 0.081617
Si Si5 0.552527 0.681028 0.416202
Si Si6 0.979200 0.171255 0.883731
Si Si7 0.625529 0.169837 0.905853
Si Si8 0.386508 0.321349 0.452313
O O1 0.427118 0.500000 0.805329
O O2 0.543716 0.744804 0.725466
O O3 0.327027 0.756272 0.866366
O O4 0.416934 0.676789 0.879894
O O5 0.112436 0.500000 0.645324
O O6 0.258199 0.293568 0.555543
O O7 0.102480 0.259972 0.602604
O O8 0.820057 0.765792 0.670733
O O9 0.598014 0.748675 0.797259
O O10 0.654180 0.833461 0.834455
O O11 0.704306 0.000000 0.731776
O O12 0.278982 0.500000 0.078750
O O13 0.289885 0.728848 0.125852
O O14 0.393443 0.734896 0.979410
O O15 0.500000 0.720375 0.500000
O O16 0.556121 0.500000 0.410735
O O17 0.475617 0.727650 0.427831
O O18 0.000835 0.000000 0.880725
O O19 0.631620 0.000000 0.918790
O O20 0.500000 0.225063 0.000000
O O21 0.397923 0.500000 0.437911
#
# Coordination Sequence:
#
# PCOD9224717 Si02
#       8
#     8   8   8   8   8   8   8   8
#     4  11  24  40  60  84 115 154 195 243 298 356
#     4  10  21  37  59  88 115 149 197 245 293 347
#     4  10  21  36  60  88 116 156 201 240 285 347
#     4  11  23  39  60  87 117 152 195 244 296 347
#     4   9  19  35  58  88 118 152 196 240 284 338
#     4  10  23  41  59  83 118 155 192 239 298 354
#     4  10  20  36  57  87 121 157 198 237 286 354
#     4   9  19  37  60  85 118 155 191 238 293 347
#
# _framework density 9.8765429999999999
#
# number of rings (size 3 to 8) (size 9 to 14) (size 15 to 20)
#    0.000    2.000    1.250    1.500    3.500    2.750 
#    0.000    0.625    0.000    0.750    0.000    0.000 
#    0.000    0.000    0.000    0.000    0.000    0.000 
#
# Total GULP energy -178562.449222 kJ/mol
# GULP energy per Si atom -5580.076538 kJ/mol
# Density = 0.985406 g / cm^3
# Si number density = 9.876543 Si / 1000 Ang^3
#
#
#
# Elastic Constant Matrix: (Units=GPa)
#
#
# Indices 1 2 3 4 5 6 
#
# 1 42.2779 28.0158 -13.5918 -0.0006 -8.9815 -0.0061
# 2 28.0158 38.7777 10.3718 0.0000 -11.3973 0.0021
# 3 -13.5918 10.3718 18.0802 -0.0026 4.1251 -0.0052
# 4 -0.0006 0.0000 -0.0026 18.9939 -0.0006 -8.2295
# 5 -8.9815 -11.3973 4.1251 -0.0006 14.3965 0.0041
# 6 -0.0061 0.0021 -0.0052 -8.2295 0.0041 19.2025
#
#
#
# Elastic Compliance Matrix: (Units=1/GPa)
#
#
# Indices 1 2 3 4 5 6 
#
# 1 -0.055967 0.088950 -0.108279 -0.000056 0.066529 -0.000095
# 2 0.088950 -0.088033 0.129045 0.000068 -0.051176 0.000113
# 3 -0.108279 0.129045 -0.115569 -0.000071 0.067724 -0.000125
# 4 -0.000056 0.000068 -0.000071 0.064653 0.000034 0.027708
# 5 0.066529 -0.051176 0.067724 0.000034 0.051047 0.000049
# 6 -0.000095 0.000113 -0.000125 0.027708 0.000049 0.063951
#
#
# Mechanical properties :
#
#
# Convention : Reuss Voigt Hill
#
# Bulk Modulus (GPa) = -24.91423 16.52529 -4.19447
# Shear Modulus (GPa) = -15.98833 15.47457 -0.25688
#
# Velocity S-wave (km/s) = -2.84810 2.80196 -0.36101
# Velocity P-wave (km/s) = 4.84311 4.34190 1.51718
#
# Compressibility (1/GPa) = -0.04013771
#
# Stress axis : x y z
#
# Youngs Moduli (GPa) = -17.86755 -11.35941 -8.65285
#
# Poissons Ratio (x) = 1.01042 -0.93692
# Poissons Ratio (y) = 1.58932 1.11661
# Poissons Ratio (z) = -1.93469 1.46587
#
# Static dielectric constant tensor:
#      x y z
#    x 1.697630 0.000000 0.005380 
#    y 0.000000 1.696010 0.000000 
#    z 0.005380 0.000000 1.703710 
# 
# From -- ./inp_files/382235.got.cif
#   From: 2010.05.17/outbox.ucp.g08.bks.cvg/sg12_192_cif.got.tgz:382235.got - 2010.06.11 11:47:21.
