data_PCOD9224593
_publ_section_title
;
Structure prediction by ZEFSAII (Michael W. Deem and Ramdas Pophale) SiO2 
 PCOD9224593
Probable space group: C 2/M
;
_chemical_formula_sum "Si O2"
_cell_formula_units_Z 32
_cell_length_a 30.000000
_cell_length_b 15.000000
_cell_length_c 9.000000
_cell_angle_alpha 90.000000
_cell_angle_beta 130.000000
_cell_angle_gamma 90.000000
_cell_volume 3102.479995
_symmetry_space_group_name_H-M "C 2/M"
_symmetry_group_IT_number 12
_symmetry_cell_setting 'monoclinic'
loop_
_space_group_symop_operation_xyz
x,y,z
-x,y,-z
-x,-y,-z
x,-y,z
1/2+x,1/2+y,z
1/2-x,1/2+y,-z
1/2-x,1/2-y,-z
1/2+x,1/2-y,z
loop_
_atom_site_type_symbol
_atom_site_label
_atom_site_fract_x
_atom_site_fract_y
_atom_site_fract_z
Si Si1 0.772560 0.606501 0.191341
Si Si2 0.626535 0.790098 0.065747
Si Si3 0.553774 0.100501 0.695085
Si Si4 0.860918 0.100348 0.573655
Si Si5 0.651924 0.400504 0.097054
Si Si6 0.235495 0.608132 0.168896
Si Si7 0.439878 0.755808 0.786289
Si Si8 0.605754 0.100643 0.495401
O O1 0.782451 0.500000 0.202843
O O2 0.715870 0.616785 0.168952
O O3 0.830579 0.641986 0.392750
O O4 0.765741 0.636096 0.006825
O O5 0.618985 0.690001 0.984975
O O6 0.688366 0.834638 0.159179
O O7 0.609105 0.784703 0.199119
O O8 0.579946 0.851996 0.888852
O O9 0.500000 0.146291 0.500000
O O10 0.600489 0.096244 0.662447
O O11 0.535985 0.000000 0.698095
O O12 0.849220 0.098453 0.726398
O O13 0.800235 0.124497 0.367130
O O14 0.913340 0.167656 0.655846
O O15 0.876131 0.000000 0.559618
O O16 0.633174 0.500000 0.006669
O O17 0.224026 0.500000 0.157044
O O18 0.442586 0.836771 0.677998
O O19 0.500000 0.739259 0.000000
O O20 0.600561 0.000000 0.425847
#
# Coordination Sequence:
#
# PCOD9224593 Si02
#       8
#     8   8   8   8   8   8   8   8
#     4   9  18  34  54  81 115 146 179 220 277 343
#     4  11  22  35  59  83 113 150 190 235 286 331
#     4  10  20  37  58  79 109 149 191 230 274 336
#     4   9  21  40  61  83 111 148 190 239 291 340
#     4   9  20  36  54  79 113 149 185 227 280 338
#     4  10  20  35  57  89 119 143 184 234 285 346
#     4  11  25  40  56  82 115 150 197 242 278 333
#     4  10  21  36  55  81 114 150 186 225 276 338
#
# _framework density 10.314329000000001
#
# number of rings (size 3 to 8) (size 9 to 14) (size 15 to 20)
#    0.000    2.125    1.250    1.125    3.500    4.000 
#    0.000    0.000    0.000    0.375    0.000    0.000 
#    0.000    0.000    0.000    0.000    0.000    0.000 
#
# Total GULP energy -178331.259099 kJ/mol
# GULP energy per Si atom -5572.851847 kJ/mol
# Density = 1.029085 g / cm^3
# Si number density = 10.314329 Si / 1000 Ang^3
#
#
#
# Elastic Constant Matrix: (Units=GPa)
#
#
# Indices 1 2 3 4 5 6 
#
# 1 24.3967 15.2485 -18.0612 0.0000 -4.8509 0.0000
# 2 15.2485 89.7682 47.9765 0.0000 6.0137 0.0000
# 3 -18.0612 47.9765 53.7415 0.0000 12.7399 0.0000
# 4 0.0000 0.0000 0.0000 -21.3596 0.0000 19.7154
# 5 -4.8509 6.0137 12.7399 0.0000 5.9796 0.0000
# 6 0.0000 0.0000 0.0000 19.7154 0.0000 4.3474
#
#
#
# Elastic Compliance Matrix: (Units=1/GPa)
#
#
# Indices 1 2 3 4 5 6 
#
# 1 -0.153648 0.125211 -0.210165 0.000000 0.197199 0.000000
# 2 0.125211 -0.075179 0.135760 0.000000 -0.112060 0.000000
# 3 -0.210165 0.135760 -0.202930 0.000000 0.125327 0.000000
# 4 0.000000 0.000000 0.000000 -0.009028 0.000000 0.040941
# 5 0.197199 -0.112060 0.125327 0.000000 0.172894 0.000000
# 6 0.000000 0.000000 0.000000 0.040941 0.000000 0.044355
#
#
# Mechanical properties :
#
#
# Convention : Reuss Voigt Hill
#
# Bulk Modulus (GPa) = -3.02897 28.69267 12.83185
# Shear Modulus (GPa) = -11.48906 5.97634 -2.75636
#
# Velocity S-wave (km/s) = -2.36253 1.70393 -1.15719
# Velocity P-wave (km/s) = 2.98556 4.22025 2.10914
#
# Compressibility (1/GPa) = -0.33014512
#
# Stress axis : x y z
#
# Youngs Moduli (GPa) = -6.50837 -13.30162 -4.92781
#
# Poissons Ratio (x) = 1.66551 -1.03565
# Poissons Ratio (y) = 0.81492 0.66900
# Poissons Ratio (z) = -1.36783 1.80582
#
# Static dielectric constant tensor:
#      x y z
#    x 1.781120 0.000000 0.025260 
#    y 0.000000 1.798760 0.000000 
#    z 0.025260 0.000000 1.713000 
# 
# From -- ./inp_files/112010.got.cif
#   From: 2010.05.17/outbox.ucp.g08.bks.cvg/sg12_57_cif.got.tgz:112010.got - 2010.06.11 11:47:21.
