data_PCOD9224378
_publ_section_title
;
Structure prediction by ZEFSAII (Michael W. Deem and Ramdas Pophale) SiO2 
 PCOD9224378
Probable space group: C 2/M
;
_chemical_formula_sum "Si O2"
_cell_formula_units_Z 32
_cell_length_a 30.000000
_cell_length_b 9.000000
_cell_length_c 15.000000
_cell_angle_alpha 90.000000
_cell_angle_beta 130.000000
_cell_angle_gamma 90.000000
_cell_volume 3102.479995
_symmetry_space_group_name_H-M "C 2/M"
_symmetry_group_IT_number 12
_symmetry_cell_setting 'monoclinic'
loop_
_space_group_symop_operation_xyz
x,y,z
-x,y,-z
-x,-y,-z
x,-y,z
1/2+x,1/2+y,z
1/2-x,1/2+y,-z
1/2-x,1/2-y,-z
1/2+x,1/2-y,z
loop_
_atom_site_type_symbol
_atom_site_label
_atom_site_fract_x
_atom_site_fract_y
_atom_site_fract_z
Si Si1 0.890528 0.177070 0.700707
Si Si2 0.541484 0.326639 0.632828
Si Si3 0.587213 0.177731 0.859100
Si Si4 0.670110 0.674478 0.720217
Si Si5 0.687359 0.325525 0.236165
Si Si6 0.995985 0.677834 0.096329
Si Si7 0.793109 0.678048 0.927629
Si Si8 0.317565 0.827175 0.452880
O O1 0.862621 0.219450 0.760122
O O2 0.953270 0.250025 0.780708
O O3 0.850622 0.235639 0.570080
O O4 0.893880 0.000000 0.700930
O O5 0.500000 0.269233 0.500000
O O6 0.526014 0.500000 0.626566
O O7 0.544192 0.244798 0.730425
O O8 0.607976 0.315352 0.685891
O O9 0.563148 0.210108 0.927077
O O10 0.587343 0.000000 0.846739
O O11 0.653845 0.235428 0.943474
O O12 0.679914 0.500000 0.710539
O O13 0.725766 0.725585 0.850524
O O14 0.667985 0.767448 0.626864
O O15 0.680987 0.500000 0.202972
O O16 0.692514 0.227193 0.154983
O O17 0.747828 0.313021 0.368257
O O18 0.003514 0.500000 0.104457
O O19 0.000000 0.732980 0.000000
O O20 0.794794 0.500000 0.937713
O O21 0.332991 0.000000 0.480907
#
# Coordination Sequence:
#
# PCOD9224378 Si02
#       8
#     8   8   8   8   8   8   8   8
#     4  11  22  34  52  78 111 150 193 238 284 342
#     4  10  23  41  60  84 117 156 193 235 290 350
#     4  10  22  39  60  88 116 149 195 242 291 343
#     4   9  19  37  59  84 114 149 190 235 286 342
#     4   9  19  34  52  80 115 150 189 234 283 338
#     4  10  22  40  59  82 114 151 192 238 289 345
#     4   9  18  35  60  85 112 147 188 237 289 343
#     4  10  20  34  54  81 113 148 189 236 287 339
#
# _framework density 10.314329000000001
#
# number of rings (size 3 to 8) (size 9 to 14) (size 15 to 20)
#    0.000    2.250    0.000    1.875    1.750    5.000 
#    0.000    0.000    0.000    0.000    0.000    0.000 
#    0.000    0.000    0.000    0.000    0.000    0.000 
#
# Total GULP energy -178534.841345 kJ/mol
# GULP energy per Si atom -5579.213792 kJ/mol
# Density = 1.029085 g / cm^3
# Si number density = 10.314329 Si / 1000 Ang^3
#
#
#
# Elastic Constant Matrix: (Units=GPa)
#
#
# Indices 1 2 3 4 5 6 
#
# 1 60.1554 31.8386 33.6221 0.0000 -0.4990 0.0000
# 2 31.8386 -33.7922 2.3725 0.0000 11.2932 0.0000
# 3 33.6221 2.3725 118.1372 0.0000 4.1898 0.0000
# 4 0.0000 0.0000 0.0000 25.4379 0.0000 -3.3949
# 5 -0.4990 11.2932 4.1898 0.0000 16.8579 0.0000
# 6 0.0000 0.0000 0.0000 -3.3949 0.0000 14.6028
#
#
#
# Elastic Compliance Matrix: (Units=1/GPa)
#
#
# Indices 1 2 3 4 5 6 
#
# 1 0.013221 0.010324 -0.003772 0.000000 -0.005588 0.000000
# 2 0.010324 -0.016116 -0.003035 0.000000 0.011856 0.000000
# 3 -0.003772 -0.003035 0.009616 0.000000 -0.000468 0.000000
# 4 0.000000 0.000000 0.000000 0.040570 0.000000 0.009432
# 5 -0.005588 0.011856 -0.000468 0.000000 0.051328 0.000000
# 6 0.000000 0.000000 0.000000 0.009432 0.000000 0.070673
#
#
# Mechanical properties :
#
#
# Convention : Reuss Voigt Hill
#
# Bulk Modulus (GPa) = 72.69736 31.12961 51.91348
# Shear Modulus (GPa) = 29.96847 16.49088 23.22967
#
# Velocity S-wave (km/s) = 3.81564 2.83046 3.35936
# Velocity P-wave (km/s) = 7.39795 5.07989 6.34566
#
# Compressibility (1/GPa) = 0.01375566
#
# Stress axis : x y z
#
# Youngs Moduli (GPa) = 75.63724 -62.05058 103.99569
#
# Poissons Ratio (x) = 0.64064 0.39226
# Poissons Ratio (y) = -0.78091 0.31565
# Poissons Ratio (z) = 0.28530 -0.18834
#
# Static dielectric constant tensor:
#      x y z
#    x 1.772590 0.000000 0.017660 
#    y 0.000000 1.699660 0.000000 
#    z 0.017660 0.000000 1.722540 
# 
# From -- ./inp_files/250039.got.cif
#   From: 2010.05.17/outbox.ucp.g08.bks.cvg/sg12_126_cif.got.tgz:250039.got - 2010.06.11 11:47:21.
