data_PCOD9224498
_publ_section_title
;
Structure prediction by ZEFSAII (Michael W. Deem and Ramdas Pophale) SiO2 
 PCOD9224498
Probable space group: C 2/M
;
_chemical_formula_sum "Si O2"
_cell_formula_units_Z 28
_cell_length_a 18.000000
_cell_length_b 9.000000
_cell_length_c 21.000000
_cell_angle_alpha 90.000000
_cell_angle_beta 120.000000
_cell_angle_gamma 90.000000
_cell_volume 2946.218424
_symmetry_space_group_name_H-M "C 2/M"
_symmetry_group_IT_number 12
_symmetry_cell_setting 'monoclinic'
loop_
_space_group_symop_operation_xyz
x,y,z
-x,y,-z
-x,-y,-z
x,-y,z
1/2+x,1/2+y,z
1/2-x,1/2+y,-z
1/2-x,1/2-y,-z
1/2+x,1/2-y,z
loop_
_atom_site_type_symbol
_atom_site_label
_atom_site_fract_x
_atom_site_fract_y
_atom_site_fract_z
Si Si1 0.739486 0.675201 0.155958
Si Si2 0.105118 0.676966 0.876348
Si Si3 0.593236 0.178403 0.016799
Si Si4 0.635662 0.822152 0.680933
Si Si5 0.679467 0.823584 0.555522
Si Si6 0.007456 0.173808 0.725890
Si Si7 0.356493 0.827971 0.600900
O O1 0.720562 0.500000 0.147918
O O2 0.811742 0.701709 0.132460
O O3 0.659388 0.765683 0.097403
O O4 0.777788 0.713336 0.241767
O O5 0.089554 0.500000 0.870694
O O6 0.031708 0.755701 0.804039
O O7 0.113107 0.729374 0.952742
O O8 0.595620 0.000000 0.016257
O O9 0.500000 0.227204 0.000000
O O10 0.640215 0.786068 0.607884
O O11 0.563682 0.744212 0.692720
O O12 0.622624 0.000000 0.680589
O O13 0.624706 0.810510 0.466892
O O14 0.759170 0.716732 0.574708
O O15 0.704355 0.000000 0.569124
O O16 0.912255 0.217355 0.666250
O O17 0.022751 0.000000 0.734744
O O18 0.373235 0.000000 0.624081
#
# Coordination Sequence:
#
# PCOD9224498 Si02
#       7
#     8   8   8   8   8   8   8
#     4   9  18  33  54  76 100 134 171 209 254 308
#     4   9  19  37  56  74 101 137 174 212 261 314
#     4  10  21  35  52  77 107 135 167 211 259 309
#     4   9  19  37  57  79 108 138 173 218 268 316
#     4   9  19  36  57  79 105 141 182 219 259 315
#     4  11  22  35  54  80 107 137 179 224 263 312
#     4  10  20  35  55  78 108 144 178 217 266 314
#
# _framework density 9.5037079999999996
#
# number of rings (size 3 to 8) (size 9 to 14) (size 15 to 20)
#    0.000    2.429    0.000    3.000    0.000    6.000 
#    0.000    5.714    0.000    0.000    0.000    0.000 
#    0.000    0.000    0.000    0.000    0.000    0.000 
#
# Total GULP energy -156063.440252 kJ/mol
# GULP energy per Si atom -5573.694295 kJ/mol
# Density = 0.948208 g / cm^3
# Si number density = 9.503708 Si / 1000 Ang^3
#
#
#
# Elastic Constant Matrix: (Units=GPa)
#
#
# Indices 1 2 3 4 5 6 
#
# 1 -5.5060 4.0511 -19.1231 0.0000 7.0740 0.0000
# 2 4.0511 -22.7541 -9.6966 0.0000 14.2064 0.0000
# 3 -19.1231 -9.6966 1.5024 0.0000 20.9858 0.0000
# 4 0.0000 0.0000 0.0000 20.8964 0.0000 -1.4455
# 5 7.0740 14.2064 20.9858 0.0000 16.8670 0.0000
# 6 0.0000 0.0000 0.0000 -1.4455 0.0000 13.8285
#
#
#
# Elastic Compliance Matrix: (Units=1/GPa)
#
#
# Indices 1 2 3 4 5 6 
#
# 1 0.004502 0.030716 -0.039274 0.000000 0.021106 0.000000
# 2 0.030716 -0.024459 -0.007649 0.000000 0.017236 0.000000
# 3 -0.039274 -0.007649 0.012439 0.000000 0.007438 0.000000
# 4 0.000000 0.000000 0.000000 0.048204 0.000000 0.005039
# 5 0.021106 0.017236 0.007438 0.000000 0.026664 0.000000
# 6 0.000000 0.000000 0.000000 0.005039 0.000000 0.072841
#
#
# Mechanical properties :
#
#
# Convention : Reuss Voigt Hill
#
# Bulk Modulus (GPa) = -25.04129 -8.47720 -16.75925
# Shear Modulus (GPa) = 31.38815 10.18576 20.78696
#
# Velocity S-wave (km/s) = 4.06811 2.31743 3.31059
# Velocity P-wave (km/s) = 2.97706 1.64043 2.40353
#
# Compressibility (1/GPa) = -0.03993405
#
# Stress axis : x y z
#
# Youngs Moduli (GPa) = 222.13824 -40.88512 80.39261
#
# Poissons Ratio (x) = 1.25582 3.15737
# Poissons Ratio (y) = -6.82316 0.61495
# Poissons Ratio (z) = 8.72435 -0.31275
#
# Static dielectric constant tensor:
#      x y z
#    x 1.671880 0.000000 0.029370 
#    y 0.000000 1.628280 0.000000 
#    z 0.029370 0.000000 1.678580 
# 
# From -- ./inp_files/275162.got.cif
#   From: 2010.05.17/outbox.ucp.g08.bks.cvg/sg12_138_cif.got.tgz:275162.got - 2010.06.11 11:47:21.
