data_PCOD9224947
_publ_section_title
;
Structure prediction by ZEFSAII (Michael W. Deem and Ramdas Pophale) SiO2 
 PCOD9224947
Probable space group: C 2/M
;
_chemical_formula_sum "Si O2"
_cell_formula_units_Z 32
_cell_length_a 30.000000
_cell_length_b 9.000000
_cell_length_c 24.000000
_cell_angle_alpha 90.000000
_cell_angle_beta 150.000000
_cell_angle_gamma 90.000000
_cell_volume 3240.000000
_symmetry_space_group_name_H-M "C 2/M"
_symmetry_group_IT_number 12
_symmetry_cell_setting 'monoclinic'
loop_
_space_group_symop_operation_xyz
x,y,z
-x,y,-z
-x,-y,-z
x,-y,z
1/2+x,1/2+y,z
1/2-x,1/2+y,-z
1/2-x,1/2-y,-z
1/2+x,1/2-y,z
loop_
_atom_site_type_symbol
_atom_site_label
_atom_site_fract_x
_atom_site_fract_y
_atom_site_fract_z
Si Si1 0.332121 0.329888 0.562261
Si Si2 0.904855 0.677771 0.866860
Si Si3 0.068792 0.680190 0.753584
Si Si4 0.385745 0.178793 0.505695
Si Si5 0.555844 0.328617 0.202744
Si Si6 0.226900 0.678547 0.849353
Si Si7 0.099246 0.325523 0.913638
Si Si8 0.268090 0.819798 0.271989
O O1 0.316339 0.500000 0.530189
O O2 0.250000 0.250000 0.500000
O O3 0.348773 0.242745 0.523372
O O4 0.398957 0.328522 0.687357
O O5 0.898369 0.500000 0.851077
O O6 0.892894 0.767781 0.795740
O O7 0.825166 0.738192 0.818629
O O8 0.000000 0.708574 0.000000
O O9 0.066473 0.500000 0.752993
O O10 0.155930 0.733674 0.817129
O O11 0.070819 0.727285 0.820496
O O12 0.988318 0.723745 0.625667
O O13 0.336156 0.224773 0.395332
O O14 0.379541 0.000000 0.500606
O O15 0.528259 0.500000 0.162202
O O16 0.478233 0.210094 0.126964
O O17 0.228435 0.500000 0.852905
O O18 0.203694 0.717959 0.760555
O O19 0.318707 0.739529 0.971684
O O20 0.117634 0.500000 0.930001
O O21 0.257136 0.000000 0.263153
#
# Coordination Sequence:
#
# PCOD9224947 Si02
#       8
#     8   8   8   8   8   8   8   8
#     4  11  23  37  56  84 114 148 189 233 285 343
#     4  11  24  40  59  84 116 155 197 240 289 346
#     4   9  19  36  60  87 117 153 195 242 293 344
#     4  10  20  38  60  84 117 154 193 240 289 343
#     4  11  23  38  58  85 115 149 190 236 288 346
#     4  10  21  38  59  86 118 155 197 243 292 343
#     4  11  21  36  59  88 119 154 194 240 295 349
#     4  10  22  38  59  86 117 155 198 242 290 344
#
# _framework density 9.8765429999999999
#
# number of rings (size 3 to 8) (size 9 to 14) (size 15 to 20)
#    0.000    1.625    1.250    3.375    0.000    9.000 
#    0.000    3.750    0.000    0.000    0.000    2.625 
#    0.000    0.000    0.000    0.000    0.000    0.000 
#
# Total GULP energy -178274.634169 kJ/mol
# GULP energy per Si atom -5571.082318 kJ/mol
# Density = 0.985406 g / cm^3
# Si number density = 9.876543 Si / 1000 Ang^3
#
#
#
# Elastic Constant Matrix: (Units=GPa)
#
#
# Indices 1 2 3 4 5 6 
#
# 1 46.2282 7.9176 -27.0223 0.0000 -9.5579 0.0000
# 2 7.9176 -17.3814 -1.6287 0.0000 -25.0162 0.0000
# 3 -27.0223 -1.6287 21.3017 0.0000 -24.2375 0.0000
# 4 0.0000 0.0000 0.0000 55.6674 0.0000 44.4067
# 5 -9.5579 -25.0162 -24.2375 0.0000 18.1854 0.0000
# 6 0.0000 0.0000 0.0000 44.4067 0.0000 109.0260
#
#
#
# Elastic Compliance Matrix: (Units=1/GPa)
#
#
# Indices 1 2 3 4 5 6 
#
# 1 -0.016035 0.032726 -0.046072 0.000000 -0.024814 0.000000
# 2 0.032726 -0.049946 0.040485 0.000000 0.002451 0.000000
# 3 -0.046072 0.040485 -0.053071 0.000000 -0.039256 0.000000
# 4 0.000000 0.000000 0.000000 0.026610 0.000000 -0.010838
# 5 -0.024814 0.002451 -0.039256 0.000000 -0.007001 0.000000
# 6 0.000000 0.000000 0.000000 -0.010838 0.000000 0.013587
#
#
# Mechanical properties :
#
#
# Convention : Reuss Voigt Hill
#
# Bulk Modulus (GPa) = -15.43811 0.96464 -7.23673
# Shear Modulus (GPa) = -30.91646 41.30123 5.19239
#
# Velocity S-wave (km/s) = -3.96048 4.57757 1.62307
# Velocity P-wave (km/s) = 5.36157 5.33182 0.39885
#
# Compressibility (1/GPa) = -0.06477477
#
# Stress axis : x y z
#
# Youngs Moduli (GPa) = -62.36384 -20.02142 -18.84270
#
# Poissons Ratio (x) = 0.65523 -0.86813
# Poissons Ratio (y) = 2.04094 0.76284
# Poissons Ratio (z) = -2.87325 0.81057
#
# Static dielectric constant tensor:
#      x y z
#    x 1.624690 0.000000 0.019650 
#    y 0.000000 1.658530 0.000000 
#    z 0.019650 0.000000 1.718610 
# 
# From -- ./inp_files/353588.got.cif
#   From: 2010.05.17/outbox.ucp.g08.bks.cvg/sg12_177_cif.got.tgz:353588.got - 2010.06.11 11:47:21.
