data_PCOD9224590
_publ_section_title
;
Structure prediction by ZEFSAII (Michael W. Deem and Ramdas Pophale) SiO2 
 PCOD9224590
Probable space group: C 2/M
;
_chemical_formula_sum "Si O2"
_cell_formula_units_Z 24
_cell_length_a 18.000000
_cell_length_b 9.000000
_cell_length_c 30.000000
_cell_angle_alpha 90.000000
_cell_angle_beta 30.000000
_cell_angle_gamma 90.000000
_cell_volume 2430.000000
_symmetry_space_group_name_H-M "C 2/M"
_symmetry_group_IT_number 12
_symmetry_cell_setting 'monoclinic'
loop_
_space_group_symop_operation_xyz
x,y,z
-x,y,-z
-x,-y,-z
x,-y,z
1/2+x,1/2+y,z
1/2-x,1/2+y,-z
1/2-x,1/2-y,-z
1/2+x,1/2-y,z
loop_
_atom_site_type_symbol
_atom_site_label
_atom_site_fract_x
_atom_site_fract_y
_atom_site_fract_z
Si Si1 0.494803 0.318828 0.746234
Si Si2 0.655433 0.168062 0.928372
Si Si3 0.107795 0.336559 0.057780
Si Si4 0.339499 0.820532 0.254685
Si Si5 0.231298 0.676067 0.557385
Si Si6 0.477840 0.168586 0.564122
O O1 0.502467 0.500000 0.745991
O O2 0.320597 0.276438 0.831270
O O3 0.562248 0.241468 0.755220
O O4 0.600279 0.259757 0.652115
O O5 0.648224 0.000000 0.911611
O O6 0.500000 0.251190 0.000000
O O7 0.638960 0.153141 0.989643
O O8 0.115669 0.500000 0.074545
O O9 0.943364 0.284013 0.157688
O O10 0.250000 0.250000 0.000000
O O11 0.181762 0.735985 0.339159
O O12 0.315594 0.000000 0.270050
O O13 0.204426 0.500000 0.570806
O O14 0.250000 0.750000 0.500000
O O15 0.392084 0.714995 0.493602
O O16 0.500000 0.150686 0.500000
O O17 0.497014 0.000000 0.573483
#
# Coordination Sequence:
#
# PCOD9224590 Si02
#       6
#     8   8   8   8   8   8
#     4  11  21  37  63  90 120 162 208 254 315 373
#     4   9  19  36  59  87 121 160 203 250 303 364
#     4  10  20  35  57  87 119 157 204 252 304 362
#     4  11  22  35  59  92 125 162 209 260 313 369
#     4  12  26  44  66  92 128 164 207 256 314 375
#     4  11  23  40  64  92 124 161 209 257 309 370
#
# _framework density 9.8765429999999999
#
# number of rings (size 3 to 8) (size 9 to 14) (size 15 to 20)
#    0.000    1.333    3.333    3.000    0.000    2.667 
#    0.000    3.333    0.000    4.500    0.000    0.000 
#    0.000    0.000    0.000    0.000    0.000    0.000 
#
# Total GULP energy -133648.636469 kJ/mol
# GULP energy per Si atom -5568.693186 kJ/mol
# Density = 0.985406 g / cm^3
# Si number density = 9.876543 Si / 1000 Ang^3
#
#
#
# Elastic Constant Matrix: (Units=GPa)
#
#
# Indices 1 2 3 4 5 6 
#
# 1 37.5527 11.6574 15.9438 -0.0001 -20.9810 0.0002
# 2 11.6574 82.0943 35.4320 -0.0003 -4.1507 0.0004
# 3 15.9438 35.4320 190.9678 -0.0001 -39.5354 0.0002
# 4 -0.0001 -0.0003 -0.0001 71.0868 0.0001 -19.8150
# 5 -20.9810 -4.1507 -39.5354 0.0001 19.4940 -0.0001
# 6 0.0002 0.0004 0.0002 -19.8150 -0.0001 27.8018
#
#
#
# Elastic Compliance Matrix: (Units=1/GPa)
#
#
# Indices 1 2 3 4 5 6 
#
# 1 0.164636 -0.030177 0.046898 0.000000 0.265882 0.000000
# 2 -0.030177 0.018932 -0.011864 0.000000 -0.052508 0.000000
# 3 0.046898 -0.011864 0.023183 0.000000 0.094965 0.000000
# 4 0.000000 0.000000 0.000000 0.017555 0.000000 0.012512
# 5 0.265882 -0.052508 0.094965 0.000000 0.518878 -0.000001
# 6 0.000000 0.000000 0.000000 0.012512 -0.000001 0.044886
#
#
# Mechanical properties :
#
#
# Convention : Reuss Voigt Hill
#
# Bulk Modulus (GPa) = 4.61967 48.52013 26.56990
# Shear Modulus (GPa) = 5.87883 40.18197 23.03040
#
# Velocity S-wave (km/s) = 1.72703 4.51512 3.41825
# Velocity P-wave (km/s) = 2.51408 7.19711 5.39068
#
# Compressibility (1/GPa) = 0.21646566
#
# Stress axis : x y z
#
# Youngs Moduli (GPa) = 6.07401 52.82110 43.13598
#
# Poissons Ratio (x) = 1.59397 -2.02300
# Poissons Ratio (y) = 0.18329 0.51175
# Poissons Ratio (z) = -0.28486 0.62666
#
# Static dielectric constant tensor:
#      x y z
#    x 1.644760 0.000000 0.081480 
#    y 0.000000 1.767220 0.000000 
#    z 0.081480 0.000000 1.674150 
# 
# From -- ./inp_files/280809.got.cif
#   From: 2010.05.17/outbox.ucp.g08.bks.cvg/sg12_141_cif.got.tgz:280809.got - 2010.06.11 11:47:21.
