data_PCOD9224447
_publ_section_title
;
Structure prediction by ZEFSAII (Michael W. Deem and Ramdas Pophale) SiO2 
 PCOD9224447
Probable space group: C 2/M
;
_chemical_formula_sum "Si O2"
_cell_formula_units_Z 28
_cell_length_a 9.000000
_cell_length_b 18.000000
_cell_length_c 27.000000
_cell_angle_alpha 90.000000
_cell_angle_beta 40.000000
_cell_angle_gamma 90.000000
_cell_volume 2811.553005
_symmetry_space_group_name_H-M "C 2/M"
_symmetry_group_IT_number 12
_symmetry_cell_setting 'monoclinic'
loop_
_space_group_symop_operation_xyz
x,y,z
-x,y,-z
-x,-y,-z
x,-y,z
1/2+x,1/2+y,z
1/2-x,1/2+y,-z
1/2-x,1/2-y,-z
1/2+x,1/2-y,z
loop_
_atom_site_type_symbol
_atom_site_label
_atom_site_fract_x
_atom_site_fract_y
_atom_site_fract_z
Si Si1 0.434309 0.083566 0.876118
Si Si2 0.963566 0.305286 0.951647
Si Si3 0.839259 0.305492 0.814842
Si Si4 0.139999 0.639945 0.300042
Si Si5 0.357726 0.581845 0.586967
Si Si6 0.489129 0.415818 0.717605
Si Si7 0.108468 0.798844 0.338536
O O1 0.400057 0.121828 0.937432
O O2 0.317658 0.133042 0.863211
O O3 0.713331 0.083192 0.797712
O O4 0.349920 0.000000 0.895078
O O5 0.186180 0.264915 0.869789
O O6 0.000000 0.318984 0.000000
O O7 0.750000 0.250000 0.000000
O O8 0.777283 0.334478 0.775856
O O9 0.114664 0.291782 0.741798
O O10 0.918108 0.587351 0.350787
O O11 0.037790 0.713367 0.353659
O O12 0.348546 0.604222 0.277494
O O13 0.500000 0.585635 0.500000
O O14 0.405103 0.500000 0.597851
O O15 0.420162 0.651728 0.605363
O O16 0.549050 0.500000 0.685457
O O17 0.512974 0.348573 0.672571
#
# Coordination Sequence:
#
# PCOD9224447 Si02
#       7
#     8   8   8   8   8   8   8
#     4  10  22  40  59  84 117 151 193 245 293 343
#     4  12  24  39  62  85 114 159 196 241 292 357
#     4  10  21  39  59  87 114 156 197 229 289 359
#     4  11  21  35  62  88 117 146 196 246 279 340
#     4  10  22  40  59  82 118 161 196 230 289 360
#     4  10  20  34  57  87 116 144 187 244 293 335
#     4  10  20  37  61  84 116 152 193 241 286 342
#
# _framework density 9.9589090000000002
#
# number of rings (size 3 to 8) (size 9 to 14) (size 15 to 20)
#    0.000    1.571    1.429    5.143    2.000    4.857 
#    0.000    2.143    0.000    2.571    0.000    0.000 
#    0.000    0.000    0.000    0.000    0.000    0.000 
#
# Total GULP energy -156344.697313 kJ/mol
# GULP energy per Si atom -5583.739190 kJ/mol
# Density = 0.993624 g / cm^3
# Si number density = 9.958909 Si / 1000 Ang^3
#
#
#
# Elastic Constant Matrix: (Units=GPa)
#
#
# Indices 1 2 3 4 5 6 
#
# 1 89.5307 7.1369 -1.0272 0.0040 17.3470 0.0009
# 2 7.1369 109.2982 2.1140 0.0025 17.5492 -0.0017
# 3 -1.0272 2.1140 40.7157 -0.0020 15.6954 -0.0037
# 4 0.0040 0.0025 -0.0020 12.8700 -0.0056 -4.8045
# 5 17.3470 17.5492 15.6954 -0.0056 15.4645 0.0047
# 6 0.0009 -0.0017 -0.0037 -4.8045 0.0047 23.9661
#
#
#
# Elastic Compliance Matrix: (Units=1/GPa)
#
#
# Indices 1 2 3 4 5 6 
#
# 1 0.020576 0.006307 0.019462 -0.000024 -0.049990 0.000008
# 2 0.006307 0.014521 0.013937 -0.000016 -0.037698 0.000007
# 3 0.019462 0.013937 0.063804 -0.000035 -0.102404 0.000023
# 4 -0.000024 -0.000016 -0.000035 0.083986 0.000106 0.016837
# 5 -0.049990 -0.037698 -0.102404 0.000106 0.267454 -0.000048
# 6 0.000008 0.000007 0.000023 0.016837 -0.000048 0.045101
#
#
# Mechanical properties :
#
#
# Convention : Reuss Voigt Hill
#
# Bulk Modulus (GPa) = 5.60812 28.44356 17.02584
# Shear Modulus (GPa) = 10.51600 25.88151 18.19875
#
# Velocity S-wave (km/s) = 2.30025 3.60865 3.02601
# Velocity P-wave (km/s) = 3.14271 5.62802 4.55803
#
# Compressibility (1/GPa) = 0.17831295
#
# Stress axis : x y z
#
# Youngs Moduli (GPa) = 48.60097 68.86647 15.67308
#
# Poissons Ratio (x) = -0.43431 -0.30503
# Poissons Ratio (y) = -0.30651 -0.21844
# Poissons Ratio (z) = -0.94589 -0.95982
#
# Static dielectric constant tensor:
#      x y z
#    x 1.699270 0.000000 0.015530 
#    y 0.000000 1.718600 0.000000 
#    z 0.015530 0.000000 1.709170 
# 
# From -- ./inp_files/257221.got.cif
#   From: 2010.05.17/outbox.ucp.g08.bks.cvg/sg12_129_cif.got.tgz:257221.got - 2010.06.11 11:47:21.
