data_PCOD9224830
_publ_section_title
;
Structure prediction by ZEFSAII (Michael W. Deem and Ramdas Pophale) SiO2 
 PCOD9224830
Probable space group: C 2/M
;
_chemical_formula_sum "Si O2"
_cell_formula_units_Z 28
_cell_length_a 27.000000
_cell_length_b 9.000000
_cell_length_c 18.000000
_cell_angle_alpha 90.000000
_cell_angle_beta 50.000000
_cell_angle_gamma 90.000000
_cell_volume 3350.678394
_symmetry_space_group_name_H-M "C 2/M"
_symmetry_group_IT_number 12
_symmetry_cell_setting 'monoclinic'
loop_
_space_group_symop_operation_xyz
x,y,z
-x,y,-z
-x,-y,-z
x,-y,z
1/2+x,1/2+y,z
1/2-x,1/2+y,-z
1/2-x,1/2-y,-z
1/2+x,1/2-y,z
loop_
_atom_site_type_symbol
_atom_site_label
_atom_site_fract_x
_atom_site_fract_y
_atom_site_fract_z
Si Si1 0.015814 0.178549 0.585359
Si Si2 0.112235 0.680113 0.900430
Si Si3 0.103762 0.680753 0.370907
Si Si4 0.742945 0.318667 0.279859
Si Si5 0.497553 0.822491 0.110658
Si Si6 0.785500 0.820598 0.395693
Si Si7 0.933028 0.826117 0.299429
O O1 0.062994 0.259761 0.481230
O O2 0.051998 0.196328 0.628774
O O3 0.943936 0.251816 0.647528
O O4 0.010937 0.000000 0.575612
O O5 0.113984 0.500000 0.896162
O O6 0.187644 0.723795 0.825682
O O7 0.064834 0.728719 0.878220
O O8 0.066997 0.727745 0.012658
O O9 0.105663 0.500000 0.366276
O O10 0.177078 0.747199 0.308748
O O11 0.736654 0.500000 0.286687
O O12 0.756217 0.256295 0.350290
O O13 0.484263 0.768952 0.205077
O O14 0.497307 0.000000 0.105229
O O15 0.750000 0.750000 0.500000
O O16 0.861141 0.788364 0.339737
O O17 0.777731 0.000000 0.398769
O O18 0.942376 0.000000 0.274077
#
# Coordination Sequence:
#
# PCOD9224830 Si02
#       7
#     8   8   8   8   8   8   8
#     4  10  20  37  57  76 102 140 179 215 258 312
#     4   8  16  30  51  77 103 134 174 213 252 306
#     4  11  22  36  54  79 105 133 176 224 262 306
#     4  11  20  34  54  76 104 140 175 212 258 310
#     4   9  16  31  53  76 102 135 174 212 252 308
#     4  11  22  34  48  73 108 141 172 208 256 312
#     4  10  21  34  50  76 107 135 168 211 260 309
#
# _framework density 8.3565170000000002
#
# number of rings (size 3 to 8) (size 9 to 14) (size 15 to 20)
#    0.000    2.000    1.429    5.143    0.000    2.857 
#    0.000    2.857    0.000    0.857    0.000    0.000 
#    0.000    0.000    0.000    0.000    0.000    0.000 
#
# Total GULP energy -155875.793963 kJ/mol
# GULP energy per Si atom -5566.992642 kJ/mol
# Density = 0.833750 g / cm^3
# Si number density = 8.356517 Si / 1000 Ang^3
#
#
#
# Elastic Constant Matrix: (Units=GPa)
#
#
# Indices 1 2 3 4 5 6 
#
# 1 79.1267 25.1366 18.7983 -0.0002 -30.7995 0.0001
# 2 25.1366 65.0916 26.1405 0.0005 -10.6074 0.0002
# 3 18.7983 26.1405 77.2841 -0.0012 -26.0128 0.0004
# 4 -0.0002 0.0005 -0.0012 18.4701 0.0003 0.0369
# 5 -30.7995 -10.6074 -26.0128 0.0003 32.5314 0.0000
# 6 0.0001 0.0002 0.0004 0.0369 0.0000 30.6510
#
#
#
# Elastic Compliance Matrix: (Units=1/GPa)
#
#
# Indices 1 2 3 4 5 6 
#
# 1 0.022591 -0.006811 0.004461 0.000000 0.022735 0.000000
# 2 -0.006811 0.019875 -0.006916 -0.000001 -0.005498 0.000000
# 3 0.004461 -0.006916 0.020327 0.000001 0.018222 0.000000
# 4 0.000000 -0.000001 0.000001 0.054142 0.000001 -0.000065
# 5 0.022735 -0.005498 0.018222 0.000001 0.065042 0.000000
# 6 0.000000 0.000000 0.000000 -0.000065 0.000000 0.032625
#
#
# Mechanical properties :
#
#
# Convention : Reuss Voigt Hill
#
# Bulk Modulus (GPa) = 22.59369 40.18369 31.38869
# Shear Modulus (GPa) = 20.17048 26.42564 23.29806
#
# Velocity S-wave (km/s) = 3.47777 3.98067 3.73769
# Velocity P-wave (km/s) = 5.44743 6.72482 6.11954
#
# Compressibility (1/GPa) = 0.04426015
#
# Stress axis : x y z
#
# Youngs Moduli (GPa) = 44.26535 50.31535 49.19600
#
# Poissons Ratio (x) = 0.34268 -0.21945
# Poissons Ratio (y) = 0.30148 0.34026
# Poissons Ratio (z) = -0.19746 0.34800
#
# Static dielectric constant tensor:
#      x y z
#    x 1.570330 0.000000 0.009950 
#    y 0.000000 1.563940 0.000000 
#    z 0.009950 0.000000 1.610600 
# 
# From -- ./inp_files/291844.got.cif
#   From: 2010.05.17/outbox.ucp.g08.bks.cvg/sg12_146_cif.got.tgz:291844.got - 2010.06.11 11:47:21.
