data_PCOD9224226
_publ_section_title
;
Structure prediction by ZEFSAII (Michael W. Deem and Ramdas Pophale) SiO2 
 PCOD9224226
Probable space group: C 2/M
;
_chemical_formula_sum "Si O2"
_cell_formula_units_Z 32
_cell_length_a 21.000000
_cell_length_b 15.000000
_cell_length_c 30.000000
_cell_angle_alpha 90.000000
_cell_angle_beta 160.000000
_cell_angle_gamma 90.000000
_cell_volume 3232.090354
_symmetry_space_group_name_H-M "C 2/M"
_symmetry_group_IT_number 12
_symmetry_cell_setting 'monoclinic'
loop_
_space_group_symop_operation_xyz
x,y,z
-x,y,-z
-x,-y,-z
x,-y,z
1/2+x,1/2+y,z
1/2-x,1/2+y,-z
1/2-x,1/2-y,-z
1/2+x,1/2-y,z
loop_
_atom_site_type_symbol
_atom_site_label
_atom_site_fract_x
_atom_site_fract_y
_atom_site_fract_z
Si Si1 0.635173 0.599211 0.855791
Si Si2 0.677137 0.902694 0.148475
Si Si3 0.125469 0.099239 0.956725
Si Si4 0.276642 0.104926 0.454874
Si Si5 0.451410 0.105396 0.778407
Si Si6 0.414728 0.396389 0.581280
Si Si7 0.392783 0.721602 0.478775
Si Si8 0.518258 0.790372 0.914147
O O1 0.713673 0.500000 0.897177
O O2 0.612883 0.604107 0.894776
O O3 0.430345 0.605445 0.701744
O O4 0.779012 0.675566 0.936549
O O5 0.637135 0.819902 0.153707
O O6 0.880662 0.895156 0.261163
O O7 0.679655 0.000000 0.173998
O O8 0.500000 0.905103 0.000000
O O9 0.022694 0.185883 0.907526
O O10 0.061652 0.000000 0.928596
O O11 0.346422 0.107143 0.112003
O O12 0.239314 0.130597 0.482746
O O13 0.382806 0.179139 0.494533
O O14 0.341512 0.000000 0.495671
O O15 0.306110 0.174571 0.661991
O O16 0.483447 0.147744 0.848165
O O17 0.393646 0.000000 0.742105
O O18 0.373241 0.500000 0.542644
O O19 0.447515 0.341110 0.557349
O O20 0.500000 0.720323 0.500000
#
# Coordination Sequence:
#
# PCOD9224226 Si02
#       8
#     8   8   8   8   8   8   8   8
#     4   9  16  28  50  78 104 133 172 219 269 320
#     4  10  20  33  52  80 107 131 167 220 278 328
#     4   9  18  30  47  75 108 141 180 222 264 318
#     4  10  21  39  60  80 107 146 190 231 272 324
#     4  10  20  33  50  76 109 143 178 219 271 329
#     4  10  22  39  58  81 111 146 184 227 275 330
#     4  12  24  37  56  82 113 147 184 229 279 330
#     4  11  17  28  50  75 107 140 173 216 272 327
#
# _framework density 9.9007129999999997
#
# number of rings (size 3 to 8) (size 9 to 14) (size 15 to 20)
#    0.000    1.875    0.000    7.125    0.000    4.250 
#    0.000    0.000    0.000    2.625    0.000    0.000 
#    0.000    0.000    0.000    0.000    0.000    0.000 
#
# Total GULP energy -178223.493841 kJ/mol
# GULP energy per Si atom -5569.484183 kJ/mol
# Density = 0.987818 g / cm^3
# Si number density = 9.900713 Si / 1000 Ang^3
#
#
#
# Elastic Constant Matrix: (Units=GPa)
#
#
# Indices 1 2 3 4 5 6 
#
# 1 93.1520 59.7905 13.7487 0.0025 4.3089 -0.0020
# 2 59.7905 142.6497 -2.2161 -0.0095 8.0590 0.0055
# 3 13.7487 -2.2161 30.5297 -0.0468 -9.8980 0.0277
# 4 0.0025 -0.0095 -0.0468 22.0885 0.0069 -1.6131
# 5 4.3089 8.0590 -9.8980 0.0069 18.6026 0.0000
# 6 -0.0020 0.0055 0.0277 -1.6131 0.0000 34.2033
#
#
#
# Elastic Compliance Matrix: (Units=1/GPa)
#
#
# Indices 1 2 3 4 5 6 
#
# 1 0.016974 -0.006913 -0.010211 -0.000024 -0.006370 0.000009
# 2 -0.006913 0.010011 0.003569 0.000013 -0.000837 -0.000004
# 3 -0.010211 0.003569 0.045775 0.000089 0.025175 -0.000034
# 4 -0.000024 0.000013 0.000089 0.045429 0.000031 0.002142
# 5 -0.006370 -0.000837 0.025175 0.000031 0.068989 -0.000019
# 6 0.000009 -0.000004 -0.000034 0.002142 -0.000019 0.029338
#
#
# Mechanical properties :
#
#
# Convention : Reuss Voigt Hill
#
# Bulk Modulus (GPa) = 21.90682 45.44197 33.67440
# Shear Modulus (GPa) = 19.31674 27.97943 23.64808
#
# Velocity S-wave (km/s) = 3.12672 3.76307 3.45956
# Velocity P-wave (km/s) = 4.91146 6.47144 5.74465
#
# Compressibility (1/GPa) = 0.04564788
#
# Stress axis : x y z
#
# Youngs Moduli (GPa) = 58.91230 99.89411 21.84617
#
# Poissons Ratio (x) = 0.69061 0.22308
# Poissons Ratio (y) = 0.40729 -0.07797
# Poissons Ratio (z) = 0.60157 -0.35651
#
# Static dielectric constant tensor:
#      x y z
#    x 1.741440 0.000000 -0.047500 
#    y 0.000000 1.716100 -0.000020 
#    z -0.047500 -0.000020 1.795830 
# 
# From -- ./inp_files/381502.got.cif
#   From: 2010.05.17/outbox.ucp.g08.bks.cvg/sg12_191_cif.got.tgz:381502.got - 2010.06.11 11:47:21.
