data_PCOD9224395
_publ_section_title
;
Structure prediction by ZEFSAII (Michael W. Deem and Ramdas Pophale) SiO2 
 PCOD9224395
Probable space group: C 2/M
;
_chemical_formula_sum "Si O2"
_cell_formula_units_Z 24
_cell_length_a 24.000000
_cell_length_b 24.000000
_cell_length_c 9.000000
_cell_angle_alpha 90.000000
_cell_angle_beta 30.000000
_cell_angle_gamma 90.000000
_cell_volume 2592.000000
_symmetry_space_group_name_H-M "C 2/M"
_symmetry_group_IT_number 12
_symmetry_cell_setting 'monoclinic'
loop_
_space_group_symop_operation_xyz
x,y,z
-x,y,-z
-x,-y,-z
x,-y,z
1/2+x,1/2+y,z
1/2-x,1/2+y,-z
1/2-x,1/2-y,-z
1/2+x,1/2-y,z
loop_
_atom_site_type_symbol
_atom_site_label
_atom_site_fract_x
_atom_site_fract_y
_atom_site_fract_z
Si Si1 0.489365 0.066523 0.201749
Si Si2 0.867307 0.788384 0.736617
Si Si3 0.770312 0.434152 0.201100
Si Si4 0.059924 0.060326 0.201196
Si Si5 0.765994 0.398349 0.864906
Si Si6 0.431165 0.352504 0.302357
O O1 0.389621 0.101754 0.509030
O O2 0.464793 0.000000 0.278417
O O3 0.500000 0.077071 0.000000
O O4 0.608546 0.076957 0.006066
O O5 0.893537 0.805024 0.505392
O O6 0.000000 0.776464 0.500000
O O7 0.750000 0.750000 0.000000
O O8 0.811726 0.842696 0.944141
O O9 0.744963 0.500000 0.282062
O O10 0.675995 0.392313 0.482797
O O11 0.773624 0.421748 0.015738
O O12 0.000000 0.065161 0.500000
O O13 0.014646 0.107896 0.201165
O O14 0.029731 0.000000 0.207869
O O15 0.190338 0.063644 0.933585
O O16 0.500000 0.332922 0.000000
#
# Coordination Sequence:
#
# PCOD9224395 Si02
#       6
#     8   8   8   8   8   8
#     4  10  22  35  51  83 126 168 204 244 299 364
#     4  11  24  46  70  91 117 158 212 273 323 380
#     4  10  20  34  54  85 124 166 208 242 290 371
#     4  11  19  33  61  93 126 162 201 238 298 370
#     4  11  20  38  61  84 117 158 210 252 303 364
#     4  11  23  39  61  92 129 158 200 259 318 369
#
# _framework density 9.2592590000000001
#
# number of rings (size 3 to 8) (size 9 to 14) (size 15 to 20)
#    0.000    1.333    5.000    2.500    2.333    5.333 
#    0.000    1.667    0.000    0.000    0.000    0.000 
#    0.000    0.000    0.000    0.000    0.000    0.000 
#
# Total GULP energy -133628.960349 kJ/mol
# GULP energy per Si atom -5567.873348 kJ/mol
# Density = 0.923818 g / cm^3
# Si number density = 9.259259 Si / 1000 Ang^3
#
#
#
# Elastic Constant Matrix: (Units=GPa)
#
#
# Indices 1 2 3 4 5 6 
#
# 1 89.7503 22.2535 45.9225 0.0000 -26.2045 0.0000
# 2 22.2535 57.9432 32.7544 0.0000 -2.8397 0.0000
# 3 45.9225 32.7544 148.5239 -0.0001 -10.3727 0.0000
# 4 0.0000 0.0000 -0.0001 28.5037 0.0000 -10.6671
# 5 -26.2045 -2.8397 -10.3727 0.0000 45.7119 0.0000
# 6 0.0000 0.0000 0.0000 -10.6671 0.0000 19.5748
#
#
#
# Elastic Compliance Matrix: (Units=1/GPa)
#
#
# Indices 1 2 3 4 5 6 
#
# 1 0.016386 -0.003827 -0.003641 0.000000 0.008329 0.000000
# 2 -0.003827 0.020613 -0.003481 0.000000 -0.001703 0.000000
# 3 -0.003641 -0.003481 0.008602 0.000000 -0.000351 0.000000
# 4 0.000000 0.000000 0.000000 0.044071 0.000000 0.024016
# 5 0.008329 -0.001703 -0.000351 0.000000 0.026465 0.000000
# 6 0.000000 0.000000 0.000000 0.024016 0.000000 0.064173
#
#
# Mechanical properties :
#
#
# Convention : Reuss Voigt Hill
#
# Bulk Modulus (GPa) = 42.19037 55.34201 48.76619
# Shear Modulus (GPa) = 23.79728 31.77722 27.78725
#
# Velocity S-wave (km/s) = 3.58865 4.14692 3.87785
# Velocity P-wave (km/s) = 6.32483 7.27178 6.81478
#
# Compressibility (1/GPa) = 0.02370209
#
# Stress axis : x y z
#
# Youngs Moduli (GPa) = 61.02922 48.51417 116.25432
#
# Poissons Ratio (x) = 0.18565 0.42324
# Poissons Ratio (y) = 0.23355 0.40474
# Poissons Ratio (z) = 0.22219 0.16890
#
# Static dielectric constant tensor:
#      x y z
#    x 1.659140 0.000000 -0.029460 
#    y 0.000000 1.691520 0.000000 
#    z -0.029460 0.000000 1.680750 
# 
# From -- ./inp_files/99769.got.cif
#   From: 2010.05.17/outbox.ucp.g08.bks.cvg/sg12_50_cif.got.tgz:99769.got - 2010.06.11 11:47:21.
