data_PCOD9224507
_publ_section_title
;
Structure prediction by ZEFSAII (Michael W. Deem and Ramdas Pophale) SiO2 
 PCOD9224507
Probable space group: C 2/M
;
_chemical_formula_sum "Si O2"
_cell_formula_units_Z 28
_cell_length_a 15.000000
_cell_length_b 9.000000
_cell_length_c 30.000000
_cell_angle_alpha 90.000000
_cell_angle_beta 130.000000
_cell_angle_gamma 90.000000
_cell_volume 3102.479995
_symmetry_space_group_name_H-M "C 2/M"
_symmetry_group_IT_number 12
_symmetry_cell_setting 'monoclinic'
loop_
_space_group_symop_operation_xyz
x,y,z
-x,y,-z
-x,-y,-z
x,-y,z
1/2+x,1/2+y,z
1/2-x,1/2+y,-z
1/2-x,1/2-y,-z
1/2+x,1/2-y,z
loop_
_atom_site_type_symbol
_atom_site_label
_atom_site_fract_x
_atom_site_fract_y
_atom_site_fract_z
Si Si1 0.214635 0.679298 0.878955
Si Si2 0.606640 0.678337 0.566919
Si Si3 0.497029 0.820655 0.872190
Si Si4 0.072478 0.320800 0.651704
Si Si5 0.195095 0.321908 0.438226
Si Si6 0.250873 0.819350 0.212149
Si Si7 0.641780 0.680044 0.992489
O O1 0.214137 0.500000 0.877710
O O2 0.216902 0.728168 0.828315
O O3 0.326005 0.719325 0.945936
O O4 0.098256 0.722030 0.869075
O O5 0.500000 0.724548 0.500000
O O6 0.596570 0.500000 0.569569
O O7 0.607687 0.753961 0.615310
O O8 0.723112 0.712971 0.577189
O O9 0.373428 0.755046 0.818048
O O10 0.494922 0.000000 0.874771
O O11 0.532742 0.749598 0.931475
O O12 0.076926 0.500000 0.650586
O O13 0.154245 0.277497 0.719697
O O14 0.937323 0.276084 0.613565
O O15 0.197115 0.500000 0.445153
O O16 0.250000 0.250000 0.500000
O O17 0.240542 0.000000 0.209126
O O18 0.638868 0.500000 0.988002
O O19 0.750000 0.750000 0.000000
#
# Coordination Sequence:
#
# PCOD9224507 Si02
#       7
#     8   8   8   8   8   8   8
#     4   8  17  34  56  77 104 143 184 219 267 331
#     4  10  20  35  57  84 111 140 173 214 268 324
#     4  10  20  35  55  81 109 143 184 227 278 329
#     4  10  22  37  55  80 109 141 181 224 268 319
#     4  10  20  35  56  82 109 140 175 216 266 320
#     4  10  21  38  55  75 105 144 186 225 265 322
#     4   9  16  30  53  81 109 142 183 231 278 325
#
# _framework density 9.0250380000000003
#
# number of rings (size 3 to 8) (size 9 to 14) (size 15 to 20)
#    0.000    2.429    1.429    1.714    0.000    3.143 
#    0.000   10.000    0.000    0.000    0.000    0.000 
#    0.000    0.000    0.000    0.000    0.000    0.000 
#
# Total GULP energy -156116.528631 kJ/mol
# GULP energy per Si atom -5575.590308 kJ/mol
# Density = 0.900450 g / cm^3
# Si number density = 9.025038 Si / 1000 Ang^3
#
#
#
# Elastic Constant Matrix: (Units=GPa)
#
#
# Indices 1 2 3 4 5 6 
#
# 1 93.4771 23.5062 66.6815 0.0000 -0.9614 0.0000
# 2 23.5062 32.4036 36.8128 0.0000 1.8294 0.0000
# 3 66.6815 36.8128 183.3733 0.0000 0.8743 0.0000
# 4 0.0000 0.0000 0.0000 32.1985 0.0000 -0.0410
# 5 -0.9614 1.8294 0.8743 0.0000 34.6331 0.0000
# 6 0.0000 0.0000 0.0000 -0.0410 0.0000 23.9147
#
#
#
# Elastic Compliance Matrix: (Units=1/GPa)
#
#
# Indices 1 2 3 4 5 6 
#
# 1 0.015379 -0.006279 -0.004336 0.000000 0.000868 0.000000
# 2 -0.006279 0.042669 -0.006272 0.000000 -0.002270 0.000000
# 3 -0.004336 -0.006272 0.008289 0.000000 0.000002 0.000000
# 4 0.000000 0.000000 0.000000 0.031057 0.000000 0.000053
# 5 0.000868 -0.002270 0.000002 0.000000 0.029018 0.000000
# 6 0.000000 0.000000 0.000000 0.000053 0.000000 0.041815
#
#
# Mechanical properties :
#
#
# Convention : Reuss Voigt Hill
#
# Bulk Modulus (GPa) = 30.70940 62.58389 46.64664
# Shear Modulus (GPa) = 23.49008 30.29950 26.89479
#
# Velocity S-wave (km/s) = 3.61138 4.10156 3.86425
# Velocity P-wave (km/s) = 5.86855 7.56162 6.76823
#
# Compressibility (1/GPa) = 0.03256332
#
# Stress axis : x y z
#
# Youngs Moduli (GPa) = 65.02507 23.43614 120.64009
#
# Poissons Ratio (x) = 0.14716 0.52308
# Poissons Ratio (y) = 0.40830 0.75663
# Poissons Ratio (z) = 0.28194 0.14699
#
# Static dielectric constant tensor:
#      x y z
#    x 1.652580 0.000000 0.015140 
#    y 0.000000 1.606690 0.000000 
#    z 0.015140 0.000000 1.616990 
# 
# From -- ./inp_files/360035.got.cif
#   From: 2010.05.17/outbox.ucp.g08.bks.cvg/sg12_181_cif.got.tgz:360035.got - 2010.06.11 11:47:21.
