data_PCOD9224047
_publ_section_title
;
Structure prediction by ZEFSAII (Michael W. Deem and Ramdas Pophale) SiO2 
 PCOD9224047
Probable space group: C 2/M
;
_chemical_formula_sum "Si O2"
_cell_formula_units_Z 28
_cell_length_a 15.000000
_cell_length_b 9.000000
_cell_length_c 30.000000
_cell_angle_alpha 90.000000
_cell_angle_beta 50.000000
_cell_angle_gamma 90.000000
_cell_volume 3102.479995
_symmetry_space_group_name_H-M "C 2/M"
_symmetry_group_IT_number 12
_symmetry_cell_setting 'monoclinic'
loop_
_space_group_symop_operation_xyz
x,y,z
-x,y,-z
-x,-y,-z
x,-y,z
1/2+x,1/2+y,z
1/2-x,1/2+y,-z
1/2-x,1/2-y,-z
1/2+x,1/2-y,z
loop_
_atom_site_type_symbol
_atom_site_label
_atom_site_fract_x
_atom_site_fract_y
_atom_site_fract_z
Si Si1 0.558020 0.319691 0.355179
Si Si2 0.389980 0.679883 0.563308
Si Si3 0.280117 0.679444 0.775164
Si Si4 0.676973 0.321304 0.139292
Si Si5 0.078019 0.168136 0.931932
Si Si6 0.190700 0.322008 0.562012
Si Si7 0.488574 0.179027 0.133971
O O1 0.549874 0.500000 0.356636
O O2 0.605329 0.272414 0.387780
O O3 0.642451 0.266356 0.289725
O O4 0.433092 0.248872 0.390852
O O5 0.500000 0.736691 0.500000
O O6 0.398405 0.500000 0.560402
O O7 0.272424 0.718333 0.576855
O O8 0.278619 0.500000 0.775188
O O9 0.337836 0.719880 0.803744
O O10 0.145614 0.722199 0.812099
O O11 0.674098 0.500000 0.135393
O O12 0.807269 0.259256 0.090985
O O13 0.582577 0.247592 0.137295
O O14 0.004708 0.253418 0.917684
O O15 0.109344 0.000000 0.906618
O O16 0.000000 0.155950 0.000000
O O17 0.186133 0.500000 0.558622
O O18 0.250000 0.250000 0.500000
O O19 0.498509 0.000000 0.130384
#
# Coordination Sequence:
#
# PCOD9224047 Si02
#       7
#     8   8   8   8   8   8   8
#     4  10  19  36  57  75 103 139 174 218 269 322
#     4   9  17  31  51  73  97 132 169 201 254 321
#     4   8  18  35  55  78 104 139 180 223 273 327
#     4  10  20  36  57  82 113 149 189 231 278 331
#     4  10  21  37  57  84 116 150 189 231 278 330
#     4  11  21  34  52  76 102 132 172 214 263 323
#     4  10  20  36  58  83 111 147 191 232 278 330
#
# _framework density 9.0250380000000003
#
# number of rings (size 3 to 8) (size 9 to 14) (size 15 to 20)
#    0.000    2.286    1.429    2.571    0.000    2.857 
#    0.000    7.857    0.000    0.000    0.000    0.000 
#    0.000    0.000    0.000    0.000    0.000    0.000 
#
# Total GULP energy -155970.928368 kJ/mol
# GULP energy per Si atom -5570.390299 kJ/mol
# Density = 0.900450 g / cm^3
# Si number density = 9.025038 Si / 1000 Ang^3
#
#
#
# Elastic Constant Matrix: (Units=GPa)
#
#
# Indices 1 2 3 4 5 6 
#
# 1 185.4252 56.1024 68.7747 0.0000 29.4698 0.0000
# 2 56.1024 66.8972 30.4345 0.0000 12.6364 -0.0001
# 3 68.7747 30.4345 107.3421 0.0000 31.7987 0.0000
# 4 0.0000 0.0000 0.0000 -2.9115 0.0000 -13.4633
# 5 29.4698 12.6364 31.7987 0.0000 -8.3450 0.0000
# 6 0.0000 -0.0001 0.0000 -13.4633 0.0000 15.6402
#
#
#
# Elastic Compliance Matrix: (Units=1/GPa)
#
#
# Indices 1 2 3 4 5 6 
#
# 1 0.008268 -0.005388 -0.004698 0.000000 0.003135 0.000000
# 2 -0.005388 0.020459 -0.002766 0.000000 0.001411 0.000000
# 3 -0.004698 -0.002766 0.009050 0.000000 0.013706 0.000000
# 4 0.000000 0.000000 0.000000 -0.068961 0.000000 -0.059363
# 5 0.003135 0.001411 0.013706 0.000000 -0.054398 0.000000
# 6 0.000000 0.000000 0.000000 -0.059363 0.000000 0.012837
#
#
# Mechanical properties :
#
#
# Convention : Reuss Voigt Hill
#
# Bulk Modulus (GPa) = 82.83971 74.47641 78.65806
# Shear Modulus (GPa) = -116.23745 14.50028 -50.86859
#
# Velocity S-wave (km/s) = -8.03349 2.83739 -5.31442
# Velocity P-wave (km/s) = 6.32893 7.21699 2.45251
#
# Compressibility (1/GPa) = 0.01207150
#
# Stress axis : x y z
#
# Youngs Moduli (GPa) = 120.95466 48.87777 110.49509
#
# Poissons Ratio (x) = 0.26337 0.51911
# Poissons Ratio (y) = 0.65174 0.30567
# Poissons Ratio (z) = 0.56825 0.13521
#
# Static dielectric constant tensor:
#      x y z
#    x 1.590660 0.000000 0.013950 
#    y 0.000000 1.607180 0.000000 
#    z 0.013950 0.000000 1.641210 
# 
# From -- ./inp_files/374949.got.cif
#   From: 2010.05.17/outbox.ucp.g08.bks.cvg/sg12_188_cif.got.tgz:374949.got - 2010.06.11 11:47:21.
