data_PCOD9224742
_publ_section_title
;
Structure prediction by ZEFSAII (Michael W. Deem and Ramdas Pophale) SiO2 
 PCOD9224742
Probable space group: C 2/M
;
_chemical_formula_sum "Si O2"
_cell_formula_units_Z 32
_cell_length_a 15.000000
_cell_length_b 15.000000
_cell_length_c 18.000000
_cell_angle_alpha 90.000000
_cell_angle_beta 50.000000
_cell_angle_gamma 90.000000
_cell_volume 3102.479995
_symmetry_space_group_name_H-M "C 2/M"
_symmetry_group_IT_number 12
_symmetry_cell_setting 'monoclinic'
loop_
_space_group_symop_operation_xyz
x,y,z
-x,y,-z
-x,-y,-z
x,-y,z
1/2+x,1/2+y,z
1/2-x,1/2+y,-z
1/2-x,1/2-y,-z
1/2+x,1/2-y,z
loop_
_atom_site_type_symbol
_atom_site_label
_atom_site_fract_x
_atom_site_fract_y
_atom_site_fract_z
Si Si1 0.235965 0.105241 0.655622
Si Si2 0.255389 0.100455 0.059888
Si Si3 0.520393 0.796987 0.072246
Si Si4 0.853843 0.393235 0.442535
Si Si5 0.358322 0.600049 0.721003
Si Si6 0.940720 0.273807 0.608852
Si Si7 0.497744 0.399551 0.129156
Si Si8 0.851948 0.397520 0.275622
O O1 0.256961 0.126026 0.557306
O O2 0.319230 0.174459 0.655774
O O3 0.103305 0.110476 0.754500
O O4 0.271763 0.000000 0.647896
O O5 0.224019 0.111886 0.163334
O O6 0.128612 0.102454 0.090441
O O7 0.304260 0.000000 0.022911
O O8 0.346780 0.173428 0.982961
O O9 0.492756 0.691655 0.085694
O O10 0.438415 0.840246 0.178624
O O11 0.500000 0.833783 0.000000
O O12 0.865889 0.500000 0.434893
O O13 0.833890 0.363481 0.368868
O O14 0.972083 0.347707 0.406117
O O15 0.413154 0.500000 0.698309
O O16 0.432167 0.689123 0.668155
O O17 0.272948 0.599912 0.696418
O O18 0.000000 0.243058 0.500000
O O19 0.479830 0.500000 0.106014
O O20 0.895828 0.500000 0.254287
#
# Coordination Sequence:
#
# PCOD9224742 Si02
#       8
#     8   8   8   8   8   8   8   8
#     4   9  18  37  64  90 122 160 194 236 302 364
#     4  10  22  41  62  84 114 156 203 247 294 351
#     4  12  23  38  65  89 117 159 198 250 306 350
#     4   9  19  37  63  94 122 150 193 252 299 349
#     4  10  21  38  56  79 119 161 199 242 290 352
#     4  10  20  36  58  90 121 157 198 243 298 356
#     4  10  23  42  62  88 120 157 201 243 293 361
#     4  10  21  38  61  91 120 150 200 251 297 351
#
# _framework density 10.314329000000001
#
# number of rings (size 3 to 8) (size 9 to 14) (size 15 to 20)
#    0.000    2.000    1.250    1.875    1.750    2.500 
#    2.250    1.875    0.000    0.000    0.000    0.000 
#    0.000    0.000    0.000    0.000    0.000    0.000 
#
# Total GULP energy -178538.103083 kJ/mol
# GULP energy per Si atom -5579.315721 kJ/mol
# Density = 1.029085 g / cm^3
# Si number density = 10.314329 Si / 1000 Ang^3
#
#
#
# Elastic Constant Matrix: (Units=GPa)
#
#
# Indices 1 2 3 4 5 6 
#
# 1 11.5006 -10.8549 13.2637 0.0000 1.8046 0.0000
# 2 -10.8549 87.7461 43.5194 0.0000 -3.9534 0.0000
# 3 13.2637 43.5194 80.3254 0.0000 -0.4489 0.0000
# 4 0.0000 0.0000 0.0000 30.9114 0.0000 2.1530
# 5 1.8046 -3.9534 -0.4489 0.0000 32.0250 0.0000
# 6 0.0000 0.0000 0.0000 2.1530 0.0000 12.5956
#
#
#
# Elastic Compliance Matrix: (Units=1/GPa)
#
#
# Indices 1 2 3 4 5 6 
#
# 1 0.237177 0.066323 -0.075132 0.000000 -0.006231 0.000000
# 2 0.066323 0.034235 -0.029500 0.000000 0.000076 0.000000
# 3 -0.075132 -0.029500 0.040844 0.000000 0.001164 0.000000
# 4 0.000000 0.000000 0.000000 0.032740 0.000000 -0.005596
# 5 -0.006231 0.000076 0.001164 0.000000 0.031602 0.000000
# 6 0.000000 0.000000 0.000000 -0.005596 0.000000 0.080349
#
#
# Mechanical properties :
#
#
# Convention : Reuss Voigt Hill
#
# Bulk Modulus (GPa) = 4.24374 30.15873 17.20124
# Shear Modulus (GPa) = 8.16844 24.01601 16.09222
#
# Velocity S-wave (km/s) = 1.99207 3.41575 2.79604
# Velocity P-wave (km/s) = 2.71161 5.49618 4.33364
#
# Compressibility (1/GPa) = 0.23564102
#
# Stress axis : x y z
#
# Youngs Moduli (GPa) = 4.21625 29.20947 24.48313
#
# Poissons Ratio (x) = -1.93726 1.83946
# Poissons Ratio (y) = -0.27963 0.72224
# Poissons Ratio (z) = 0.31677 0.86167
#
# Static dielectric constant tensor:
#      x y z
#    x 1.763060 0.000000 0.020370 
#    y 0.000000 1.775500 0.000000 
#    z 0.020370 0.000000 1.711700 
# 
# From -- ./inp_files/270678.got.cif
#   From: 2010.05.17/outbox.ucp.g08.bks.cvg/sg12_136_cif.got.tgz:270678.got - 2010.06.11 11:47:21.
