data_PCOD9224037
_publ_section_title
;
Structure prediction by ZEFSAII (Michael W. Deem and Ramdas Pophale) SiO2 
 PCOD9224037
Probable space group: C 2/M
;
_chemical_formula_sum "Si O2"
_cell_formula_units_Z 28
_cell_length_a 18.000000
_cell_length_b 18.000000
_cell_length_c 15.000000
_cell_angle_alpha 90.000000
_cell_angle_beta 140.000000
_cell_angle_gamma 90.000000
_cell_volume 3123.947783
_symmetry_space_group_name_H-M "C 2/M"
_symmetry_group_IT_number 12
_symmetry_cell_setting 'monoclinic'
loop_
_space_group_symop_operation_xyz
x,y,z
-x,y,-z
-x,-y,-z
x,-y,z
1/2+x,1/2+y,z
1/2-x,1/2+y,-z
1/2-x,1/2-y,-z
1/2+x,1/2-y,z
loop_
_atom_site_type_symbol
_atom_site_label
_atom_site_fract_x
_atom_site_fract_y
_atom_site_fract_z
Si Si1 0.763896 0.586022 0.212709
Si Si2 0.199147 0.087498 0.349852
Si Si3 0.726457 0.684630 0.905991
Si Si4 0.065495 0.867166 0.902193
Si Si5 0.524827 0.803855 0.919268
Si Si6 0.853811 0.309838 0.601794
Si Si7 0.059560 0.286494 0.651655
O O1 0.799630 0.500000 0.248294
O O2 0.738477 0.615921 0.288668
O O3 0.865138 0.638184 0.268419
O O4 0.644410 0.591895 0.047904
O O5 0.287896 0.118581 0.503630
O O6 0.064150 0.106667 0.236273
O O7 0.207940 0.000000 0.354837
O O8 0.641935 0.630866 0.882682
O O9 0.652333 0.721625 0.758301
O O10 0.750000 0.750000 0.000000
O O11 0.853496 0.657201 0.995507
O O12 0.050771 0.783503 0.926054
O O13 0.416472 0.820365 0.754633
O O14 0.500000 0.816498 0.000000
O O15 0.750000 0.250000 0.500000
O O16 0.958362 0.285790 0.632305
O O17 0.000000 0.282646 0.500000
#
# Coordination Sequence:
#
# PCOD9224037 Si02
#       7
#     8   8   8   8   8   8   8
#     4  11  22  34  55  84 119 160 190 216 278 361
#     4  11  23  37  55  85 123 156 186 229 287 352
#     4  10  19  36  54  79 108 147 190 235 279 325
#     4  11  19  36  57  80 117 155 189 236 273 341
#     4  11  21  34  59  83 113 145 188 244 294 328
#     4  12  23  37  56  87 115 151 196 236 283 345
#     4  12  22  35  55  78 120 153 183 233 286 333
#
# _framework density 8.9630179999999999
#
# number of rings (size 3 to 8) (size 9 to 14) (size 15 to 20)
#    0.000    0.857    8.571    1.714    2.000    2.000 
#    0.000    0.000    0.000    0.429    0.000    1.000 
#    0.000    0.000    0.000    0.000    0.000    0.000 
#
# Total GULP energy -156172.756174 kJ/mol
# GULP energy per Si atom -5577.598435 kJ/mol
# Density = 0.894262 g / cm^3
# Si number density = 8.963018 Si / 1000 Ang^3
#
#
#
# Elastic Constant Matrix: (Units=GPa)
#
#
# Indices 1 2 3 4 5 6 
#
# 1 116.5248 18.0633 56.1372 0.0000 12.8528 0.0000
# 2 18.0633 22.3299 13.7536 0.0000 3.5269 0.0000
# 3 56.1372 13.7536 157.2829 0.0000 -0.4018 0.0000
# 4 0.0000 0.0000 0.0000 23.4932 0.0000 -1.1251
# 5 12.8528 3.5269 -0.4018 0.0000 37.5490 0.0000
# 6 0.0000 0.0000 0.0000 -1.1251 0.0000 9.5149
#
#
#
# Elastic Compliance Matrix: (Units=1/GPa)
#
#
# Indices 1 2 3 4 5 6 
#
# 1 0.011743 -0.006734 -0.003611 0.000000 -0.003426 0.000000
# 2 -0.006734 0.051963 -0.002147 0.000000 -0.002599 0.000000
# 3 -0.003611 -0.002147 0.007839 0.000000 0.001522 0.000000
# 4 0.000000 0.000000 0.000000 0.042808 0.000000 0.005062
# 5 -0.003426 -0.002599 0.001522 0.000000 0.028065 0.000000
# 6 0.000000 0.000000 0.000000 0.005062 0.000000 0.105696
#
#
# Mechanical properties :
#
#
# Convention : Reuss Voigt Hill
#
# Bulk Modulus (GPa) = 21.47752 52.44953 36.96353
# Shear Modulus (GPa) = 17.32383 27.99033 22.65708
#
# Velocity S-wave (km/s) = 3.11208 3.95579 3.55902
# Velocity P-wave (km/s) = 4.99205 7.08426 6.12810
#
# Compressibility (1/GPa) = 0.04656031
#
# Stress axis : x y z
#
# Youngs Moduli (GPa) = 85.15384 19.24430 127.57447
#
# Poissons Ratio (x) = 0.12960 0.46071
# Poissons Ratio (y) = 0.57344 0.27391
# Poissons Ratio (z) = 0.30752 0.04132
#
# Static dielectric constant tensor:
#      x y z
#    x 1.677770 0.000000 0.013040 
#    y 0.000000 1.636560 0.000000 
#    z 0.013040 0.000000 1.692170 
# 
# From -- ./inp_files/226600.got.cif
#   From: 2010.05.17/outbox.ucp.g08.bks.cvg/sg12_114_cif.got.tgz:226600.got - 2010.06.11 11:47:21.
