data_PCOD9224164
_publ_section_title
;
Structure prediction by ZEFSAII (Michael W. Deem and Ramdas Pophale) SiO2 
 PCOD9224164
Probable space group: C 2/M
;
_chemical_formula_sum "Si O2"
_cell_formula_units_Z 20
_cell_length_a 15.000000
_cell_length_b 15.000000
_cell_length_c 12.000000
_cell_angle_alpha 90.000000
_cell_angle_beta 50.000000
_cell_angle_gamma 90.000000
_cell_volume 2068.319996
_symmetry_space_group_name_H-M "C 2/M"
_symmetry_group_IT_number 12
_symmetry_cell_setting 'monoclinic'
loop_
_space_group_symop_operation_xyz
x,y,z
-x,y,-z
-x,-y,-z
x,-y,z
1/2+x,1/2+y,z
1/2-x,1/2+y,-z
1/2-x,1/2-y,-z
1/2+x,1/2-y,z
loop_
_atom_site_type_symbol
_atom_site_label
_atom_site_fract_x
_atom_site_fract_y
_atom_site_fract_z
Si Si1 0.740846 0.392213 0.532841
Si Si2 0.139488 0.895192 0.377072
Si Si3 0.502808 0.104094 0.364119
Si Si4 0.856101 0.772670 0.834854
Si Si5 0.473379 0.607332 0.151500
O O1 0.741881 0.500000 0.531245
O O2 0.688363 0.364183 0.456794
O O3 0.873834 0.365299 0.433320
O O4 0.657513 0.368849 0.703239
O O5 0.177008 0.831680 0.246442
O O6 0.000000 0.890998 0.500000
O O7 0.170512 0.000000 0.333527
O O8 0.500000 0.103876 0.500000
O O9 0.589398 0.178707 0.248695
O O10 0.524969 0.000000 0.311398
O O11 0.944503 0.834328 0.835061
O O12 0.750000 0.750000 0.000000
O O13 0.490188 0.500000 0.157256
O O14 0.500000 0.623977 0.000000
#
# Coordination Sequence:
#
# PCOD9224164 Si02
#       5
#     8   8   8   8   8
#     4   9  19  39  68  93 116 161 214 260 312 365
#     4  10  19  39  68  95 121 154 208 265 311 365
#     4  10  24  44  64  89 124 168 215 260 309 370
#     4  12  26  39  59  94 133 167 206 251 317 378
#     4  10  22  40  63  94 130 164 205 258 317 377
#
# _framework density 9.6696840000000002
#
# number of rings (size 3 to 8) (size 9 to 14) (size 15 to 20)
#    0.000    1.800    2.000    1.200    2.800    4.000 
#    0.000    0.000    0.000    4.200    0.000    0.000 
#    0.000    0.000    0.000    0.000    0.000    0.000 
#
# Total GULP energy -111714.455357 kJ/mol
# GULP energy per Si atom -5585.722768 kJ/mol
# Density = 0.964767 g / cm^3
# Si number density = 9.669684 Si / 1000 Ang^3
#
#
#
# Elastic Constant Matrix: (Units=GPa)
#
#
# Indices 1 2 3 4 5 6 
#
# 1 81.0509 26.3117 40.4642 0.0000 5.7731 0.0000
# 2 26.3117 102.0453 71.8150 0.0000 2.1728 0.0000
# 3 40.4642 71.8150 163.5386 0.0000 5.2340 0.0000
# 4 0.0000 0.0000 0.0000 10.8765 0.0000 0.4495
# 5 5.7731 2.1728 5.2340 0.0000 21.8309 0.0000
# 6 0.0000 0.0000 0.0000 0.4495 0.0000 -22.7670
#
#
#
# Elastic Compliance Matrix: (Units=1/GPa)
#
#
# Indices 1 2 3 4 5 6 
#
# 1 0.014478 -0.001759 -0.002713 0.000000 -0.003003 0.000000
# 2 -0.001759 0.014397 -0.005901 0.000000 0.000447 0.000000
# 3 -0.002713 -0.005901 0.009408 0.000000 -0.000951 0.000000
# 4 0.000000 0.000000 0.000000 0.091866 0.000000 0.001814
# 5 -0.003003 0.000447 -0.000951 0.000000 0.046784 0.000000
# 6 0.000000 0.000000 0.000000 0.001814 0.000000 -0.043887
#
#
# Mechanical properties :
#
#
# Convention : Reuss Voigt Hill
#
# Bulk Modulus (GPa) = 57.03078 69.31297 63.17188
# Shear Modulus (GPa) = 31.32102 15.85769 23.58935
#
# Velocity S-wave (km/s) = 4.02873 2.86662 3.49629
# Velocity P-wave (km/s) = 7.15502 6.84652 7.00247
#
# Compressibility (1/GPa) = 0.01753439
#
# Stress axis : x y z
#
# Youngs Moduli (GPa) = 69.07188 69.46121 106.29384
#
# Poissons Ratio (x) = 0.12221 0.28843
# Poissons Ratio (y) = 0.12153 0.62724
# Poissons Ratio (z) = 0.18743 0.40989
#
# Static dielectric constant tensor:
#      x y z
#    x 1.668640 0.000000 -0.041220 
#    y 0.000000 1.678720 0.000000 
#    z -0.041220 0.000000 1.628910 
# 
# From -- ./inp_files/142497.got.cif
#   From: 2010.05.17/outbox.ucp.g08.bks.cvg/sg12_72_cif.got.tgz:142497.got - 2010.06.11 11:47:21.
