data_PCOD9224204
_publ_section_title
;
Structure prediction by ZEFSAII (Michael W. Deem and Ramdas Pophale) SiO2 
 PCOD9224204
Probable space group: C 2/M
;
_chemical_formula_sum "Si O2"
_cell_formula_units_Z 24
_cell_length_a 21.000000
_cell_length_b 21.000000
_cell_length_c 18.000000
_cell_angle_alpha 90.000000
_cell_angle_beta 20.000000
_cell_angle_gamma 90.000000
_cell_volume 2714.955898
_symmetry_space_group_name_H-M "C 2/M"
_symmetry_group_IT_number 12
_symmetry_cell_setting 'monoclinic'
loop_
_space_group_symop_operation_xyz
x,y,z
-x,y,-z
-x,-y,-z
x,-y,z
1/2+x,1/2+y,z
1/2-x,1/2+y,-z
1/2-x,1/2-y,-z
1/2+x,1/2-y,z
loop_
_atom_site_type_symbol
_atom_site_label
_atom_site_fract_x
_atom_site_fract_y
_atom_site_fract_z
Si Si1 0.952586 0.107591 0.631973
Si Si2 0.944615 0.763068 0.195601
Si Si3 0.409087 0.071105 0.888008
Si Si4 0.449129 0.808608 0.347589
Si Si5 0.858205 0.254917 0.719337
Si Si6 0.125472 0.626555 0.790465
O O1 0.861253 0.177439 0.714912
O O2 0.000000 0.077378 0.500000
O O3 0.156135 0.112922 0.443924
O O4 0.801895 0.075608 0.850068
O O5 0.770605 0.810773 0.390957
O O6 0.968362 0.735013 0.252919
O O7 0.885959 0.702227 0.210947
O O8 0.148862 0.781311 0.942852
O O9 0.458656 0.124248 0.773288
O O10 0.536025 0.089768 0.819567
O O11 0.447956 0.000000 0.819961
O O12 0.557849 0.775591 0.294627
O O13 0.000000 0.275979 0.500000
O O14 0.000000 0.610920 0.000000
#
# Coordination Sequence:
#
# PCOD9224204 Si02
#       6
#     8   8   8   8   8   8
#     4  11  20  35  55  81 113 145 177 223 269 314
#     4  10  20  32  55  83 110 144 171 218 279 327
#     4  11  25  39  52  75 108 152 193 223 257 312
#     4  10  21  35  54  79 110 143 180 222 270 326
#     4  11  20  33  58  88 113 134 171 228 283 328
#     4  11  19  35  55  79 113 141 176 222 267 315
#
# _framework density 8.8399230000000006
#
# number of rings (size 3 to 8) (size 9 to 14) (size 15 to 20)
#    0.000    1.333    6.667    1.500    0.000    1.333 
#    0.000    0.000    0.000    0.500    0.000    1.167 
#    0.000    0.000    0.000    0.000    0.000    0.000 
#
# Total GULP energy -133946.975405 kJ/mol
# GULP energy per Si atom -5581.123975 kJ/mol
# Density = 0.881980 g / cm^3
# Si number density = 8.839923 Si / 1000 Ang^3
#
#
#
# Elastic Constant Matrix: (Units=GPa)
#
#
# Indices 1 2 3 4 5 6 
#
# 1 17.6457 4.3685 7.0911 -0.0251 -9.7875 0.0214
# 2 4.3685 58.0583 22.9552 -0.0191 11.0511 0.0214
# 3 7.0911 22.9552 149.5090 -0.0320 -17.6705 0.0432
# 4 -0.0251 -0.0191 -0.0320 3.0509 0.0045 -6.5030
# 5 -9.7875 11.0511 -17.6705 0.0045 24.9274 0.0015
# 6 0.0214 0.0214 0.0432 -6.5030 0.0015 -24.6900
#
#
#
# Elastic Compliance Matrix: (Units=1/GPa)
#
#
# Indices 1 2 3 4 5 6 
#
# 1 0.082131 -0.015406 0.003371 0.000444 0.041467 -0.000051
# 2 -0.015406 0.024517 -0.005493 -0.000004 -0.020812 -0.000002
# 3 0.003371 -0.005493 0.008531 0.000062 0.009806 -0.000003
# 4 0.000444 -0.000004 0.000062 0.209925 0.000185 -0.055291
# 5 0.041467 -0.020812 0.009806 0.000185 0.072576 -0.000009
# 6 -0.000051 -0.000002 -0.000003 -0.055291 -0.000009 -0.025939
#
#
# Mechanical properties :
#
#
# Convention : Reuss Voigt Hill
#
# Bulk Modulus (GPa) = 12.48074 32.67142 22.57608
# Shear Modulus (GPa) = 11.53391 13.37753 12.45572
#
# Velocity S-wave (km/s) = 2.55694 2.75372 2.65715
# Velocity P-wave (km/s) = 3.97390 5.35072 4.71286
#
# Compressibility (1/GPa) = 0.08012343
#
# Stress axis : x y z
#
# Youngs Moduli (GPa) = 12.17560 40.78871 117.21764
#
# Poissons Ratio (x) = 0.62838 -0.39514
# Poissons Ratio (y) = 0.18757 0.64391
# Poissons Ratio (z) = -0.04104 0.22406
#
# Static dielectric constant tensor:
#      x y z
#    x 1.628750 0.000000 -0.013180 
#    y 0.000000 1.590860 0.000010 
#    z -0.013180 0.000010 1.634090 
# 
# From -- ./inp_files/285843.got.cif
#   From: 2010.05.17/outbox.ucp.g08.bks.cvg/sg12_143_cif.got.tgz:285843.got - 2010.06.11 11:47:21.
