data_PCOD9224997
_publ_section_title
;
Structure prediction by ZEFSAII (Michael W. Deem and Ramdas Pophale) SiO2 
 PCOD9224997
Probable space group: C 2/M
;
_chemical_formula_sum "Si O2"
_cell_formula_units_Z 18
_cell_length_a 9.000000
_cell_length_b 21.000000
_cell_length_c 15.000000
_cell_angle_alpha 90.000000
_cell_angle_beta 40.000000
_cell_angle_gamma 90.000000
_cell_volume 1822.302873
_symmetry_space_group_name_H-M "C 2/M"
_symmetry_group_IT_number 12
_symmetry_cell_setting 'monoclinic'
loop_
_space_group_symop_operation_xyz
x,y,z
-x,y,-z
-x,-y,-z
x,-y,z
1/2+x,1/2+y,z
1/2-x,1/2+y,-z
1/2-x,1/2-y,-z
1/2+x,1/2-y,z
loop_
_atom_site_type_symbol
_atom_site_label
_atom_site_fract_x
_atom_site_fract_y
_atom_site_fract_z
Si Si1 0.632666 0.795514 0.851957
Si Si2 0.000000 0.866614 0.500000
Si Si3 0.008235 0.687816 0.281576
Si Si4 0.669413 0.925142 0.337958
Si Si5 0.116182 0.073717 0.256799
O O1 0.857613 0.748819 0.737771
O O2 0.480919 0.800987 0.831183
O O3 0.711000 0.867681 0.837320
O O4 0.500000 0.770496 0.000000
O O5 0.770269 0.824564 0.584461
O O6 0.968593 0.910096 0.602932
O O7 0.118807 0.625428 0.281394
O O8 0.500000 0.912118 0.500000
O O9 0.919499 0.920123 0.270768
O O10 0.635063 0.000000 0.326523
O O11 0.198188 0.000000 0.217020
#
# Coordination Sequence:
#
# PCOD9224997 Si02
#       5
#     8   4   8   8   8
#     4  11  25  44  63  87 124 172 216 261 301 353
#     4  10  21  36  62  94 125 156 198 258 317 382
#     4  11  23  40  64  92 124 166 207 255 313 374
#     4  10  20  38  63  93 131 163 193 245 313 385
#     4  10  21  38  62  92 126 161 202 255 315 373
#
# _framework density 9.8776119999999992
#
# number of rings (size 3 to 8) (size 9 to 14) (size 15 to 20)
#    0.000    1.556    2.222    2.333    0.000    7.556 
#   10.000    0.000    0.000    3.333    0.000    0.000 
#    0.000    0.000    0.000    0.000    0.000    0.000 
#
# Total GULP energy -100320.663764 kJ/mol
# GULP energy per Si atom -5573.370209 kJ/mol
# Density = 0.985513 g / cm^3
# Si number density = 9.877612 Si / 1000 Ang^3
#
#
#
# Elastic Constant Matrix: (Units=GPa)
#
#
# Indices 1 2 3 4 5 6 
#
# 1 157.5585 65.9539 26.7650 -0.0001 13.5601 0.0001
# 2 65.9539 146.4442 30.5154 0.0000 -5.3290 0.0000
# 3 26.7650 30.5154 33.6620 -0.0003 8.9322 0.0004
# 4 -0.0001 0.0000 -0.0003 14.7768 0.0002 -3.6138
# 5 13.5601 -5.3290 8.9322 0.0002 27.6403 -0.0002
# 6 0.0001 0.0000 0.0004 -3.6138 -0.0002 49.7222
#
#
#
# Elastic Compliance Matrix: (Units=1/GPa)
#
#
# Indices 1 2 3 4 5 6 
#
# 1 0.008592 -0.003472 -0.002611 0.000000 -0.004041 0.000000
# 2 -0.003472 0.010360 -0.008327 0.000000 0.006392 0.000000
# 3 -0.002611 -0.008327 0.043115 0.000001 -0.014257 0.000000
# 4 0.000000 0.000000 0.000001 0.068898 -0.000001 0.005007
# 5 -0.004041 0.006392 -0.014257 -0.000001 0.044001 0.000000
# 6 0.000000 0.000000 0.000000 0.005007 0.000000 0.020476
#
#
# Mechanical properties :
#
#
# Convention : Reuss Voigt Hill
#
# Bulk Modulus (GPa) = 30.07912 64.90370 47.49141
# Shear Modulus (GPa) = 21.24544 32.72322 26.98433
#
# Velocity S-wave (km/s) = 3.28294 4.07435 3.69986
# Velocity P-wave (km/s) = 5.44327 7.42018 6.50723
#
# Compressibility (1/GPa) = 0.03324566
#
# Stress axis : x y z
#
# Youngs Moduli (GPa) = 116.39112 96.52457 23.19373
#
# Poissons Ratio (x) = 0.33516 0.06057
# Poissons Ratio (y) = 0.40415 0.19313
# Poissons Ratio (z) = 0.30395 0.80374
#
# Static dielectric constant tensor:
#      x y z
#    x 1.680990 0.000000 -0.015070 
#    y 0.000000 1.684380 0.000000 
#    z -0.015070 0.000000 1.780400 
# 
# From -- ./inp_files/118760.got.cif
#   From: 2010.05.17/outbox.ucp.g08.bks.cvg/sg12_60_cif.got.tgz:118760.got - 2010.06.11 11:47:21.
