data_PCOD9224946
_publ_section_title
;
Structure prediction by ZEFSAII (Michael W. Deem and Ramdas Pophale) SiO2 
 PCOD9224946
Probable space group: C 2/M
;
_chemical_formula_sum "Si O2"
_cell_formula_units_Z 32
_cell_length_a 30.000000
_cell_length_b 12.000000
_cell_length_c 9.000000
_cell_angle_alpha 90.000000
_cell_angle_beta 90.000000
_cell_angle_gamma 90.000000
_cell_volume 3240.000000
_symmetry_space_group_name_H-M "C 2/M"
_symmetry_group_IT_number 12
_symmetry_cell_setting 'monoclinic'
loop_
_space_group_symop_operation_xyz
x,y,z
-x,y,-z
-x,-y,-z
x,-y,z
1/2+x,1/2+y,z
1/2-x,1/2+y,-z
1/2-x,1/2-y,-z
1/2+x,1/2-y,z
loop_
_atom_site_type_symbol
_atom_site_label
_atom_site_fract_x
_atom_site_fract_y
_atom_site_fract_z
Si Si1 0.187859 0.710030 0.414356
Si Si2 0.159087 0.869803 0.677569
Si Si3 0.361734 0.123836 0.860466
Si Si4 0.924277 0.122604 0.144330
Si Si5 0.703026 0.238582 0.919028
Si Si6 0.955827 0.708403 0.903563
Si Si7 0.485651 0.623473 0.669390
Si Si8 0.257622 0.882049 0.328873
O O1 0.169383 0.797887 0.533677
O O2 0.151888 0.656562 0.307118
O O3 0.223192 0.781329 0.320482
O O4 0.216933 0.626490 0.514542
O O5 0.112274 0.829873 0.745063
O O6 0.192817 0.843270 0.812285
O O7 0.157940 0.000000 0.642260
O O8 0.414724 0.125548 0.885316
O O9 0.344178 0.000000 0.890343
O O10 0.336418 0.210489 0.967789
O O11 0.969705 0.113265 0.234277
O O12 0.908160 0.000000 0.100503
O O13 0.935342 0.193124 0.002516
O O14 0.707350 0.137463 0.801802
O O15 0.750000 0.250000 0.000000
O O16 0.964076 0.768272 0.744998
O O17 0.000000 0.672406 0.000000
O O18 0.500000 0.640225 0.500000
O O19 0.462663 0.500000 0.679215
O O20 0.234519 0.000000 0.314251
#
# Coordination Sequence:
#
# PCOD9224946 Si02
#       8
#     8   8   8   8   8   8   8   8
#     4  10  22  38  57  86 122 157 204 245 301 359
#     4  10  21  37  60  88 125 158 192 242 298 359
#     4  12  25  42  63  87 118 161 211 261 309 355
#     4   9  17  33  56  84 118 155 186 225 294 365
#     4  11  22  41  59  88 120 157 203 247 297 359
#     4  10  21  39  61  85 118 158 199 257 300 362
#     4   9  18  32  56  89 120 153 187 232 298 364
#     4  10  20  38  60  83 117 161 201 242 295 359
#
# _framework density 9.8765429999999999
#
# number of rings (size 3 to 8) (size 9 to 14) (size 15 to 20)
#    0.000    1.875    2.500    1.500    1.750    2.750 
#    0.000    1.875    0.000    0.375    0.000    0.000 
#    0.000    0.000    0.000    0.000    0.000    0.000 
#
# Total GULP energy -178160.300844 kJ/mol
# GULP energy per Si atom -5567.509401 kJ/mol
# Density = 0.985406 g / cm^3
# Si number density = 9.876543 Si / 1000 Ang^3
#
#
#
# Elastic Constant Matrix: (Units=GPa)
#
#
# Indices 1 2 3 4 5 6 
#
# 1 61.7522 9.5151 4.4823 0.0000 -1.7800 0.0000
# 2 9.5151 40.2241 28.1049 0.0000 2.6776 0.0000
# 3 4.4823 28.1049 73.9987 0.0000 -2.9351 0.0000
# 4 0.0000 0.0000 0.0000 3.0258 0.0000 -6.5104
# 5 -1.7800 2.6776 -2.9351 0.0000 23.0825 0.0000
# 6 0.0000 0.0000 0.0000 -6.5104 0.0000 9.1543
#
#
#
# Elastic Compliance Matrix: (Units=1/GPa)
#
#
# Indices 1 2 3 4 5 6 
#
# 1 0.016917 -0.004724 0.000847 0.000000 0.001960 0.000000
# 2 -0.004724 0.035893 -0.013594 0.000000 -0.006256 0.000000
# 3 0.000847 -0.013594 0.018785 0.000000 0.004031 0.000000
# 4 0.000000 0.000000 0.000000 -0.623363 0.000000 -0.443324
# 5 0.001960 -0.006256 0.004031 0.000000 0.044712 0.000000
# 6 0.000000 0.000000 0.000000 -0.443324 0.000000 -0.206045
#
#
# Mechanical properties :
#
#
# Convention : Reuss Voigt Hill
#
# Bulk Modulus (GPa) = 27.28294 28.90883 28.09588
# Shear Modulus (GPa) = -7.50817 15.97739 4.23461
#
# Velocity S-wave (km/s) = -1.95173 2.84712 1.46575
# Velocity P-wave (km/s) = 2.96023 5.04728 4.13751
#
# Compressibility (1/GPa) = 0.03665295
#
# Stress axis : x y z
#
# Youngs Moduli (GPa) = 59.11330 27.86051 53.23266
#
# Poissons Ratio (x) = 0.13162 -0.04511
# Poissons Ratio (y) = 0.27926 0.72366
# Poissons Ratio (z) = -0.05009 0.37874
#
# Static dielectric constant tensor:
#      x y z
#    x 1.794560 0.000000 -0.151160 
#    y 0.000000 1.717350 0.000000 
#    z -0.151160 0.000000 1.940120 
# 
# From -- ./inp_files/110483.got.cif
#   From: 2010.05.17/outbox.ucp.g08.bks.cvg/sg12_56_cif.got.tgz:110483.got - 2010.06.11 11:47:21.
