data_PCOD9224096
_publ_section_title
;
Structure prediction by ZEFSAII (Michael W. Deem and Ramdas Pophale) SiO2 
 PCOD9224096
Probable space group: C 2/M
;
_chemical_formula_sum "Si O2"
_cell_formula_units_Z 28
_cell_length_a 12.000000
_cell_length_b 15.000000
_cell_length_c 30.000000
_cell_angle_alpha 90.000000
_cell_angle_beta 30.000000
_cell_angle_gamma 90.000000
_cell_volume 2700.000000
_symmetry_space_group_name_H-M "C 2/M"
_symmetry_group_IT_number 12
_symmetry_cell_setting 'monoclinic'
loop_
_space_group_symop_operation_xyz
x,y,z
-x,y,-z
-x,-y,-z
x,-y,z
1/2+x,1/2+y,z
1/2-x,1/2+y,-z
1/2-x,1/2-y,-z
1/2+x,1/2-y,z
loop_
_atom_site_type_symbol
_atom_site_label
_atom_site_fract_x
_atom_site_fract_y
_atom_site_fract_z
Si Si1 0.303292 0.603191 0.305113
Si Si2 0.691701 0.349581 0.232428
Si Si3 0.496225 0.154484 0.302200
Si Si4 0.468289 0.398284 0.155114
Si Si5 0.941162 0.607318 0.968073
Si Si6 0.662471 0.395387 0.342878
Si Si7 0.677644 0.106644 0.540447
O O1 0.261329 0.500000 0.307350
O O2 0.479025 0.603649 0.283460
O O3 0.419040 0.644425 0.220865
O O4 0.056205 0.640202 0.399977
O O5 0.599224 0.251356 0.272390
O O6 0.893218 0.352841 0.126768
O O7 0.735306 0.387590 0.266293
O O8 0.726068 0.099649 0.216406
O O9 0.334957 0.151401 0.316094
O O10 0.362505 0.125027 0.392958
O O11 0.540794 0.500000 0.139045
O O12 0.681622 0.362104 0.054612
O O13 0.964941 0.500000 0.953385
O O14 0.000000 0.625878 0.000000
O O15 0.666248 0.500000 0.354069
O O16 0.410278 0.359764 0.439354
O O17 0.690263 0.000000 0.529434
#
# Coordination Sequence:
#
# PCOD9224096 Si02
#       7
#     8   8   8   8   8   8   8
#     4   9  17  35  61  88 116 150 200 254 297 350
#     4  12  25  36  58  93 133 156 194 258 322 360
#     4  11  24  39  60  88 126 163 202 248 309 370
#     4   9  18  36  65  88 109 154 214 254 283 351
#     4  10  19  36  64  91 116 158 209 251 297 365
#     4  11  24  43  64  89 123 166 210 254 304 363
#     4   9  20  41  68  87 111 162 218 250 287 365
#
# _framework density 10.370369999999999
#
# number of rings (size 3 to 8) (size 9 to 14) (size 15 to 20)
#    0.000    1.857    1.429    3.857    4.000    2.857 
#    2.571    2.857    0.000    2.571    0.000    0.000 
#    0.000    0.000    0.000    0.000    0.000    0.000 
#
# Total GULP energy -156079.119214 kJ/mol
# GULP energy per Si atom -5574.254258 kJ/mol
# Density = 1.034677 g / cm^3
# Si number density = 10.370370 Si / 1000 Ang^3
#
#
#
# Elastic Constant Matrix: (Units=GPa)
#
#
# Indices 1 2 3 4 5 6 
#
# 1 83.0495 -17.4477 35.3166 -0.0163 -4.2456 0.0024
# 2 -17.4477 38.3015 -2.6517 -0.0046 -9.5026 0.0039
# 3 35.3166 -2.6517 134.9302 -0.0332 -3.2898 0.0131
# 4 -0.0163 -0.0046 -0.0332 9.1188 0.0075 -6.9542
# 5 -4.2456 -9.5026 -3.2898 0.0075 19.9823 -0.0041
# 6 0.0024 0.0039 0.0131 -6.9542 -0.0041 34.8517
#
#
#
# Elastic Compliance Matrix: (Units=1/GPa)
#
#
# Indices 1 2 3 4 5 6 
#
# 1 0.015825 0.008644 -0.003805 0.000016 0.006847 0.000003
# 2 0.008644 0.034439 -0.001146 0.000015 0.018025 0.000001
# 3 -0.003805 -0.001146 0.008385 0.000025 0.000027 0.000002
# 4 0.000016 0.000015 0.000025 0.129346 -0.000029 0.025809
# 5 0.006847 0.018025 0.000027 -0.000029 0.060075 -0.000001
# 6 0.000003 0.000001 0.000002 0.025809 -0.000001 0.033843
#
#
# Mechanical properties :
#
#
# Convention : Reuss Voigt Hill
#
# Bulk Modulus (GPa) = 15.14349 31.85729 23.50039
# Shear Modulus (GPa) = 16.86110 28.86150 22.86130
#
# Velocity S-wave (km/s) = 2.85431 3.73438 3.32360
# Velocity P-wave (km/s) = 4.26380 5.82985 5.10721
#
# Compressibility (1/GPa) = 0.06603498
#
# Stress axis : x y z
#
# Youngs Moduli (GPa) = 63.19011 29.03681 119.25528
#
# Poissons Ratio (x) = -0.25100 0.45380
# Poissons Ratio (y) = -0.54623 0.13669
# Poissons Ratio (z) = 0.24046 0.03328
#
# Static dielectric constant tensor:
#      x y z
#    x 1.744650 -0.000040 -0.044460 
#    y -0.000040 2.675590 -0.000110 
#    z -0.044460 -0.000110 1.773400 
# 
# From -- ./inp_files/205031.got.cif
#   From: 2010.05.17/outbox.ucp.g08.bks.cvg/sg12_103_cif.got.tgz:205031.got - 2010.06.11 11:47:21.
