data_PCOD9224819
_publ_section_title
;
Structure prediction by ZEFSAII (Michael W. Deem and Ramdas Pophale) SiO2 
 PCOD9224819
Probable space group: C 2/M
;
_chemical_formula_sum "Si O2"
_cell_formula_units_Z 32
_cell_length_a 18.000000
_cell_length_b 9.000000
_cell_length_c 30.000000
_cell_angle_alpha 90.000000
_cell_angle_beta 40.000000
_cell_angle_gamma 90.000000
_cell_volume 3123.947783
_symmetry_space_group_name_H-M "C 2/M"
_symmetry_group_IT_number 12
_symmetry_cell_setting 'monoclinic'
loop_
_space_group_symop_operation_xyz
x,y,z
-x,y,-z
-x,-y,-z
x,-y,z
1/2+x,1/2+y,z
1/2-x,1/2+y,-z
1/2-x,1/2-y,-z
1/2+x,1/2-y,z
loop_
_atom_site_type_symbol
_atom_site_label
_atom_site_fract_x
_atom_site_fract_y
_atom_site_fract_z
Si Si1 0.393254 0.174716 0.280265
Si Si2 0.708839 0.174732 0.215664
Si Si3 0.694172 0.825834 0.983901
Si Si4 0.336861 0.677526 0.669006
Si Si5 0.619288 0.323462 0.171677
Si Si6 0.679601 0.672705 0.598124
Si Si7 0.593357 0.325658 0.536590
Si Si8 0.473131 0.666666 0.065170
O O1 0.271840 0.206590 0.312445
O O2 0.500326 0.257283 0.208013
O O3 0.379789 0.230322 0.336840
O O4 0.414981 0.000000 0.268882
O O5 0.683612 0.235271 0.276063
O O6 0.634485 0.264316 0.214329
O O7 0.842452 0.196162 0.139584
O O8 0.683709 0.000000 0.224197
O O9 0.767842 0.772437 0.907417
O O10 0.708744 0.000000 0.979546
O O11 0.750000 0.750000 0.000000
O O12 0.560930 0.784807 0.043974
O O13 0.341595 0.500000 0.676195
O O14 0.460285 0.716067 0.590599
O O15 0.613695 0.500000 0.173856
O O16 0.674420 0.500000 0.613056
O O17 0.619272 0.689319 0.577639
O O18 0.811211 0.727698 0.531698
O O19 0.610313 0.500000 0.517029
O O20 0.503090 0.500000 0.067307
O O21 0.500000 0.668827 0.000000
#
# Coordination Sequence:
#
# PCOD9224819 Si02
#       8
#     8   8   8   8   8   8   8   8
#     4  11  24  40  60  87 121 161 203 246 298 356
#     4  11  23  39  64  91 118 156 199 249 301 356
#     4  11  25  41  62  89 120 159 200 247 302 361
#     4  10  23  41  60  87 122 161 202 247 298 353
#     4  11  24  42  62  86 118 157 201 248 300 358
#     4  10  20  36  62  92 120 155 197 246 298 352
#     4   9  19  38  62  86 117 156 198 243 294 353
#     4  10  21  40  63  89 121 154 196 248 302 358
#
# _framework density 10.243449
#
# number of rings (size 3 to 8) (size 9 to 14) (size 15 to 20)
#    0.000    1.625    1.250    2.625    1.750    6.250 
#    0.000    2.500    0.000    0.000    0.000    0.000 
#    0.000    0.000    0.000    0.000    0.000    0.000 
#
# Total GULP energy -178779.467462 kJ/mol
# GULP energy per Si atom -5586.858358 kJ/mol
# Density = 1.022013 g / cm^3
# Si number density = 10.243449 Si / 1000 Ang^3
#
#
#
# Elastic Constant Matrix: (Units=GPa)
#
#
# Indices 1 2 3 4 5 6 
#
# 1 37.9601 47.0894 13.7881 0.0000 -15.0612 0.0003
# 2 47.0894 29.3170 25.0445 -0.0001 -17.8544 0.0014
# 3 13.7881 25.0445 51.1104 0.0000 -20.6229 -0.0002
# 4 0.0000 -0.0001 0.0000 35.2193 0.0000 -3.2412
# 5 -15.0612 -17.8544 -20.6229 0.0000 29.9304 0.0000
# 6 0.0003 0.0014 -0.0002 -3.2412 0.0000 19.9427
#
#
#
# Elastic Compliance Matrix: (Units=1/GPa)
#
#
# Indices 1 2 3 4 5 6 
#
# 1 -0.015263 0.039507 -0.012232 0.000000 0.007459 -0.000003
# 2 0.039507 -0.032167 0.007456 0.000000 0.005829 0.000002
# 3 -0.012232 0.007456 0.025656 0.000000 0.015970 0.000000
# 4 0.000000 0.000000 0.000000 0.028825 0.000000 0.004685
# 5 0.007459 0.005829 0.015970 0.000000 0.051645 0.000000
# 6 -0.000003 0.000002 0.000000 0.004685 0.000000 0.050905
#
#
# Mechanical properties :
#
#
# Convention : Reuss Voigt Hill
#
# Bulk Modulus (GPa) = 20.96901 32.24793 26.60847
# Shear Modulus (GPa) = 89.23122 19.18287 54.20704
#
# Velocity S-wave (km/s) = 6.60680 3.06330 5.14945
# Velocity P-wave (km/s) = 8.27389 5.31852 6.95500
#
# Compressibility (1/GPa) = 0.04768941
#
# Stress axis : x y z
#
# Youngs Moduli (GPa) = -65.51830 -31.08805 38.97783
#
# Poissons Ratio (x) = 1.22820 0.47677
# Poissons Ratio (y) = 2.58845 -0.29063
# Poissons Ratio (z) = -0.80141 0.23180
#
# Static dielectric constant tensor:
#      x y z
#    x 1.744090 0.000000 -0.019160 
#    y 0.000000 1.686500 0.000000 
#    z -0.019160 0.000000 1.724580 
# 
# From -- ./inp_files/377980.got.cif
#   From: 2010.05.17/outbox.ucp.g08.bks.cvg/sg12_189_cif.got.tgz:377980.got - 2010.06.11 11:47:21.
