data_PCOD9224247
_publ_section_title
;
Structure prediction by ZEFSAII (Michael W. Deem and Ramdas Pophale) SiO2 
 PCOD9224247
Probable space group: C 2/M
;
_chemical_formula_sum "Si O2"
_cell_formula_units_Z 32
_cell_length_a 15.000000
_cell_length_b 9.000000
_cell_length_c 30.000000
_cell_angle_alpha 90.000000
_cell_angle_beta 60.000000
_cell_angle_gamma 90.000000
_cell_volume 3507.402885
_symmetry_space_group_name_H-M "C 2/M"
_symmetry_group_IT_number 12
_symmetry_cell_setting 'monoclinic'
loop_
_space_group_symop_operation_xyz
x,y,z
-x,y,-z
-x,-y,-z
x,-y,z
1/2+x,1/2+y,z
1/2-x,1/2+y,-z
1/2-x,1/2-y,-z
1/2+x,1/2-y,z
loop_
_atom_site_type_symbol
_atom_site_label
_atom_site_fract_x
_atom_site_fract_y
_atom_site_fract_z
Si Si1 0.813367 0.322483 0.121019
Si Si2 0.991674 0.676409 0.868367
Si Si3 0.674161 0.824120 0.228327
Si Si4 0.460943 0.675995 0.307781
Si Si5 0.388475 0.321237 0.508701
Si Si6 0.778004 0.176875 0.946654
Si Si7 0.325857 0.678885 0.423329
Si Si8 0.128179 0.174078 0.763191
O O1 0.800005 0.500000 0.129060
O O2 0.723099 0.245014 0.171558
O O3 0.802881 0.283975 0.072027
O O4 0.922424 0.284738 0.115831
O O5 0.973487 0.500000 0.873743
O O6 0.887916 0.763794 0.903114
O O7 0.044641 0.726090 0.809233
O O8 0.566427 0.755010 0.268887
O O9 0.760139 0.792958 0.244676
O O10 0.664498 0.000000 0.225265
O O11 0.481920 0.500000 0.306856
O O12 0.406397 0.729663 0.366055
O O13 0.382419 0.695632 0.286473
O O14 0.500000 0.273688 0.500000
O O15 0.383117 0.500000 0.514930
O O16 0.371941 0.285004 0.460502
O O17 0.286772 0.249042 0.555680
O O18 0.780209 0.000000 0.950622
O O19 0.750000 0.250000 0.000000
O O20 0.315730 0.500000 0.423238
O O21 0.105733 0.000000 0.778745
#
# Coordination Sequence:
#
# PCOD9224247 Si02
#       8
#     8   8   8   8   8   8   8   8
#     4   9  20  38  57  75 102 139 171 202 250 307
#     4  10  20  36  57  79 102 132 171 211 249 297
#     4  10  20  33  52  78 104 131 169 211 248 292
#     4  10  20  34  51  72 105 141 168 202 251 305
#     4   9  18  34  54  74  99 131 168 214 262 300
#     4  11  23  38  55  77 104 134 168 208 255 304
#     4   9  19  34  51  74 101 133 173 209 248 304
#     4   9  19  35  52  73 103 137 168 202 249 301
#
# _framework density 9.1235599999999994
#
# number of rings (size 3 to 8) (size 9 to 14) (size 15 to 20)
#    0.000    2.375    0.000    1.875    0.000    7.750 
#    0.000    2.500    0.000    0.000    0.000    0.000 
#    0.000    0.000    0.000    0.000    0.000    0.000 
#
# Total GULP energy -178542.222654 kJ/mol
# GULP energy per Si atom -5579.444458 kJ/mol
# Density = 0.910279 g / cm^3
# Si number density = 9.123560 Si / 1000 Ang^3
#
#
#
# Elastic Constant Matrix: (Units=GPa)
#
#
# Indices 1 2 3 4 5 6 
#
# 1 56.6325 15.6793 4.2656 0.0000 2.2657 0.0000
# 2 15.6793 6.5327 3.2868 0.0000 9.7208 0.0000
# 3 4.2656 3.2868 5.4705 0.0000 21.4765 0.0000
# 4 0.0000 0.0000 0.0000 25.3169 0.0000 -5.8334
# 5 2.2657 9.7208 21.4765 0.0000 6.9371 0.0000
# 6 0.0000 0.0000 0.0000 -5.8334 0.0000 28.1332
#
#
#
# Elastic Compliance Matrix: (Units=1/GPa)
#
#
# Indices 1 2 3 4 5 6 
#
# 1 0.062827 -0.183730 0.077889 0.000000 -0.004200 0.000000
# 2 -0.183730 0.750570 -0.321477 0.000000 0.003510 0.000000
# 3 0.077889 -0.321477 0.121339 0.000000 0.049384 0.000000
# 4 0.000000 0.000000 0.000000 0.041481 0.000000 0.008601
# 5 -0.004200 0.003510 0.049384 0.000000 -0.012282 0.000000
# 6 0.000000 0.000000 0.000000 0.008601 0.000000 0.037329
#
#
# Mechanical properties :
#
#
# Convention : Reuss Voigt Hill
#
# Bulk Modulus (GPa) = 12.48426 12.78879 12.63652
# Shear Modulus (GPa) = 2.65590 15.10439 8.88015
#
# Velocity S-wave (km/s) = 1.20776 2.88022 2.20843
# Velocity P-wave (km/s) = 2.96674 4.25262 3.66649
#
# Compressibility (1/GPa) = 0.08010089
#
# Stress axis : x y z
#
# Youngs Moduli (GPa) = 15.91675 1.33232 8.24135
#
# Poissons Ratio (x) = 0.24479 -0.64191
# Poissons Ratio (y) = 2.92439 2.64940
# Poissons Ratio (z) = -1.23975 0.42831
#
# Static dielectric constant tensor:
#      x y z
#    x 1.623810 0.000000 0.035550 
#    y 0.000000 1.611910 0.000000 
#    z 0.035550 0.000000 1.601290 
# 
# From -- ./inp_files/338935.got.cif
#   From: 2010.05.17/outbox.ucp.g08.bks.cvg/sg12_170_cif.got.tgz:338935.got - 2010.06.11 11:47:21.
