data_PCOD9224535
_publ_section_title
;
Structure prediction by ZEFSAII (Michael W. Deem and Ramdas Pophale) SiO2 
 PCOD9224535
Probable space group: C 2/M
;
_chemical_formula_sum "Si O2"
_cell_formula_units_Z 32
_cell_length_a 30.000000
_cell_length_b 9.000000
_cell_length_c 24.000000
_cell_angle_alpha 90.000000
_cell_angle_beta 30.000000
_cell_angle_gamma 90.000000
_cell_volume 3240.000000
_symmetry_space_group_name_H-M "C 2/M"
_symmetry_group_IT_number 12
_symmetry_cell_setting 'monoclinic'
loop_
_space_group_symop_operation_xyz
x,y,z
-x,y,-z
-x,-y,-z
x,-y,z
1/2+x,1/2+y,z
1/2-x,1/2+y,-z
1/2-x,1/2-y,-z
1/2+x,1/2-y,z
loop_
_atom_site_type_symbol
_atom_site_label
_atom_site_fract_x
_atom_site_fract_y
_atom_site_fract_z
Si Si1 0.145850 0.331430 0.501948
Si Si2 0.582071 0.668568 0.681548
Si Si3 0.642864 0.331773 0.735143
Si Si4 0.393540 0.830619 0.109928
Si Si5 0.174694 0.327435 0.936395
Si Si6 0.364500 0.325475 0.779447
Si Si7 0.870518 0.832166 0.898845
Si Si8 0.980248 0.678442 0.457839
O O1 0.110968 0.500000 0.545546
O O2 0.120822 0.246406 0.585240
O O3 0.251672 0.336104 0.386818
O O4 0.106586 0.274295 0.484950
O O5 0.618304 0.500000 0.644953
O O6 0.601046 0.733911 0.723001
O O7 0.477430 0.662463 0.782698
O O8 0.606206 0.500000 0.780037
O O9 0.631926 0.252536 0.806067
O O10 0.362027 0.768241 0.083363
O O11 0.358583 0.000000 0.149761
O O12 0.500000 0.835072 0.000000
O O13 0.146466 0.500000 0.969334
O O14 0.281308 0.319363 0.827368
O O15 0.147450 0.252597 0.024175
O O16 0.390799 0.500000 0.756387
O O17 0.342718 0.275365 0.866926
O O18 0.441144 0.230106 0.668280
O O19 0.834090 0.000000 0.943295
O O20 0.976669 0.500000 0.466596
O O21 0.000000 0.734625 0.500000
#
# Coordination Sequence:
#
# PCOD9224535 Si02
#       8
#     8   8   8   8   8   8   8   8
#     4  10  21  37  56  83 114 145 185 229 273 325
#     4  10  20  36  57  83 114 146 184 228 274 326
#     4  10  22  37  57  84 113 145 185 231 274 324
#     4  10  22  40  58  81 113 147 185 227 273 329
#     4  10  22  37  56  82 111 144 185 231 276 327
#     4  10  21  38  57  82 113 143 184 232 275 327
#     4  10  20  35  56  82 111 144 182 227 277 328
#     4  10  22  38  57  82 114 149 186 226 272 328
#
# _framework density 9.8765429999999999
#
# number of rings (size 3 to 8) (size 9 to 14) (size 15 to 20)
#    0.000    2.000    1.250    1.500    1.750    3.500 
#    0.000    0.000    0.000    0.000    0.000    0.000 
#    0.000    0.000    0.000    0.000    0.000    0.000 
#
# Total GULP energy -178178.298305 kJ/mol
# GULP energy per Si atom -5568.071822 kJ/mol
# Density = 0.985406 g / cm^3
# Si number density = 9.876543 Si / 1000 Ang^3
#
#
#
# Elastic Constant Matrix: (Units=GPa)
#
#
# Indices 1 2 3 4 5 6 
#
# 1 198.8121 23.7525 19.2632 0.0022 25.7367 -0.0019
# 2 23.7525 17.1857 13.6791 0.0022 12.7302 -0.0050
# 3 19.2632 13.6791 35.5228 0.0081 11.2134 -0.0064
# 4 0.0022 0.0022 0.0081 21.6721 -0.0016 13.8893
# 5 25.7367 12.7302 11.2134 -0.0016 35.2908 0.0001
# 6 -0.0019 -0.0050 -0.0064 13.8893 0.0001 32.9684
#
#
#
# Elastic Compliance Matrix: (Units=1/GPa)
#
#
# Indices 1 2 3 4 5 6 
#
# 1 0.006119 -0.007027 -0.000004 0.000001 -0.001926 -0.000001
# 2 -0.007027 0.111275 -0.031106 -0.000011 -0.025131 0.000015
# 3 -0.000004 -0.031106 0.040668 -0.000019 -0.001698 0.000011
# 4 0.000001 -0.000011 -0.000019 0.063208 0.000012 -0.026629
# 5 -0.001926 -0.025131 -0.001698 0.000012 0.039346 -0.000010
# 6 -0.000001 0.000015 0.000011 -0.026629 -0.000010 0.041551
#
#
# Mechanical properties :
#
#
# Convention : Reuss Voigt Hill
#
# Bulk Modulus (GPa) = 12.22687 40.54557 26.38622
# Shear Modulus (GPa) = 12.32428 30.97465 21.64947
#
# Velocity S-wave (km/s) = 2.50054 3.96421 3.31419
# Velocity P-wave (km/s) = 3.81317 6.44391 5.29454
#
# Compressibility (1/GPa) = 0.08178711
#
# Stress axis : x y z
#
# Youngs Moduli (GPa) = 163.41997 8.98675 24.58963
#
# Poissons Ratio (x) = 0.06315 0.00010
# Poissons Ratio (y) = 1.14837 0.76488
# Poissons Ratio (z) = 0.00069 0.27954
#
# Static dielectric constant tensor:
#      x y z
#    x 1.709060 0.000000 -0.017150 
#    y 0.000000 1.749250 0.000000 
#    z -0.017150 0.000000 1.726750 
# 
# From -- ./inp_files/353271.got.cif
#   From: 2010.05.17/outbox.ucp.g08.bks.cvg/sg12_177_cif.got.tgz:353271.got - 2010.06.11 11:47:21.
