data_PCOD9224259
_publ_section_title
;
Structure prediction by ZEFSAII (Michael W. Deem and Ramdas Pophale) SiO2 
 PCOD9224259
Probable space group: C 2/M
;
_chemical_formula_sum "Si O2"
_cell_formula_units_Z 28
_cell_length_a 15.000000
_cell_length_b 15.000000
_cell_length_c 18.000000
_cell_angle_alpha 90.000000
_cell_angle_beta 50.000000
_cell_angle_gamma 90.000000
_cell_volume 3102.479995
_symmetry_space_group_name_H-M "C 2/M"
_symmetry_group_IT_number 12
_symmetry_cell_setting 'monoclinic'
loop_
_space_group_symop_operation_xyz
x,y,z
-x,y,-z
-x,-y,-z
x,-y,z
1/2+x,1/2+y,z
1/2-x,1/2+y,-z
1/2-x,1/2-y,-z
1/2+x,1/2-y,z
loop_
_atom_site_type_symbol
_atom_site_label
_atom_site_fract_x
_atom_site_fract_y
_atom_site_fract_z
Si Si1 0.589887 0.398742 0.548571
Si Si2 0.171134 0.595374 0.490323
Si Si3 0.307831 0.893041 0.089918
Si Si4 0.443762 0.842074 0.301824
Si Si5 0.206814 0.235924 0.380382
Si Si6 0.004733 0.602997 0.887870
Si Si7 0.379871 0.288754 0.731718
O O1 0.558159 0.500000 0.549861
O O2 0.697291 0.398929 0.548965
O O3 0.638711 0.349191 0.449774
O O4 0.484479 0.345522 0.640282
O O5 0.152654 0.500000 0.463590
O O6 0.095980 0.603243 0.605345
O O7 0.149846 0.677898 0.448338
O O8 0.393924 0.865414 0.111623
O O9 0.188584 0.845621 0.171513
O O10 0.289074 0.000000 0.101034
O O11 0.378437 0.861571 0.979378
O O12 0.337557 0.774365 0.341055
O O13 0.461136 0.890770 0.215191
O O14 0.561539 0.794327 0.260600
O O15 0.198085 0.238155 0.297083
O O16 0.995607 0.500000 0.912823
#
# Coordination Sequence:
#
# PCOD9224259 Si02
#       7
#     8   8   8   8   8   8   8
#     4  10  20  33  53  78 108 138 174 221 270 319
#     4  10  20  37  55  74 106 151 187 216 261 308
#     4   9  19  34  55  82 106 134 171 216 276 330
#     4  11  20  35  54  78 109 139 178 221 264 313
#     4  11  21  37  50  77 113 145 176 221 262 313
#     4   9  18  36  56  77 108 137 169 218 272 325
#     4  12  21  32  55  79 109 138 180 216 264 317
#
# _framework density 9.0250380000000003
#
# number of rings (size 3 to 8) (size 9 to 14) (size 15 to 20)
#    0.000    1.714    4.286    3.000    0.000    2.857 
#    0.000    2.143    0.000    0.000    0.000    0.000 
#    0.000    3.429    0.000    0.000    0.000    0.000 
#
# Total GULP energy -155948.438093 kJ/mol
# GULP energy per Si atom -5569.587075 kJ/mol
# Density = 0.900450 g / cm^3
# Si number density = 9.025038 Si / 1000 Ang^3
#
#
#
# Elastic Constant Matrix: (Units=GPa)
#
#
# Indices 1 2 3 4 5 6 
#
# 1 -0.2007 9.3809 -7.0451 0.0000 -7.5016 0.0000
# 2 9.3809 35.0057 -0.0094 0.0000 14.4972 0.0000
# 3 -7.0451 -0.0094 63.3431 0.0000 0.9905 0.0000
# 4 0.0000 0.0000 0.0000 12.6450 0.0000 -2.0817
# 5 -7.5016 14.4972 0.9905 0.0000 13.9154 0.0000
# 6 0.0000 0.0000 0.0000 -2.0817 0.0000 1.3693
#
#
#
# Elastic Compliance Matrix: (Units=1/GPa)
#
#
# Indices 1 2 3 4 5 6 
#
# 1 -0.051019 0.043845 -0.004529 0.000000 -0.072859 0.000000
# 2 0.043845 0.012610 0.004719 0.000000 0.010163 0.000000
# 3 -0.004529 0.004719 0.015416 0.000000 -0.008455 0.000000
# 4 0.000000 0.000000 0.000000 0.105481 0.000000 0.160353
# 5 -0.072859 0.010163 -0.008455 0.000000 0.022600 0.000000
# 6 0.000000 0.000000 0.000000 0.160353 0.000000 0.974046
#
#
# Mechanical properties :
#
#
# Convention : Reuss Voigt Hill
#
# Bulk Modulus (GPa) = 15.36638 11.42230 13.39434
# Shear Modulus (GPa) = 4.93703 11.97407 8.45555
#
# Velocity S-wave (km/s) = 1.65563 2.57841 2.16672
# Velocity P-wave (km/s) = 3.49092 3.89950 3.70085
#
# Compressibility (1/GPa) = 0.06507715
#
# Stress axis : x y z
#
# Youngs Moduli (GPa) = -19.60040 79.30464 64.86650
#
# Poissons Ratio (x) = -3.47708 0.29376
# Poissons Ratio (y) = 0.85937 -0.30613
# Poissons Ratio (z) = -0.08876 -0.37427
#
# Static dielectric constant tensor:
#      x y z
#    x 1.655750 0.000000 -0.027660 
#    y 0.000000 1.626460 0.000000 
#    z -0.027660 0.000000 1.644800 
# 
# From -- ./inp_files/214303.got.cif
#   From: 2010.05.17/outbox.ucp.g08.bks.cvg/sg12_108_cif.got.tgz:214303.got - 2010.06.11 11:47:21.
