data_PCOD9224938
_publ_section_title
;
Structure prediction by ZEFSAII (Michael W. Deem and Ramdas Pophale) SiO2 
 PCOD9224938
Probable space group: C 2/M
;
_chemical_formula_sum "Si O2"
_cell_formula_units_Z 32
_cell_length_a 30.000000
_cell_length_b 18.000000
_cell_length_c 12.000000
_cell_angle_alpha 90.000000
_cell_angle_beta 150.000000
_cell_angle_gamma 90.000000
_cell_volume 3240.000000
_symmetry_space_group_name_H-M "C 2/M"
_symmetry_group_IT_number 12
_symmetry_cell_setting 'monoclinic'
loop_
_space_group_symop_operation_xyz
x,y,z
-x,y,-z
-x,-y,-z
x,-y,z
1/2+x,1/2+y,z
1/2-x,1/2+y,-z
1/2-x,1/2-y,-z
1/2+x,1/2-y,z
loop_
_atom_site_type_symbol
_atom_site_label
_atom_site_fract_x
_atom_site_fract_y
_atom_site_fract_z
Si Si1 0.776906 0.418415 0.722248
Si Si2 0.134857 0.584571 0.479160
Si Si3 0.189055 0.701953 0.029368
Si Si4 0.811037 0.669689 0.213574
Si Si5 0.960048 0.807233 0.038843
Si Si6 0.542113 0.135905 0.975044
Si Si7 0.796824 0.913778 0.678346
Si Si8 0.007677 0.234458 0.387630
O O1 0.762997 0.500000 0.743785
O O2 0.769159 0.347378 0.783501
O O3 0.716048 0.411891 0.481977
O O4 0.877958 0.413291 0.894896
O O5 0.112432 0.500000 0.406829
O O6 0.178811 0.595796 0.693879
O O7 0.205004 0.611277 0.538435
O O8 0.044942 0.631133 0.289102
O O9 0.236459 0.780551 0.112492
O O10 0.208136 0.658036 0.956673
O O11 0.083783 0.716861 0.818531
O O12 0.901320 0.718833 0.408182
O O13 0.929829 0.721646 0.955100
O O14 0.010701 0.806644 0.270975
O O15 0.877656 0.861166 0.882446
O O16 0.000000 0.826872 0.000000
O O17 0.500000 0.109708 0.000000
O O18 0.810553 0.000000 0.741617
O O19 0.000000 0.199716 0.500000
#
# Coordination Sequence:
#
# PCOD9224938 Si02
#       8
#     8   8   8   8   8   8   8   8
#     4  11  22  36  57  85 122 160 189 235 301 361
#     4  11  21  35  58  86 120 153 189 240 299 362
#     4  10  21  37  59  83 115 159 197 245 291 357
#     4  10  21  37  59  84 115 154 201 244 298 348
#     4  11  23  38  61  92 112 153 206 254 294 348
#     4  11  21  35  55  88 118 151 195 235 291 360
#     4  10  24  40  58  85 121 161 194 245 309 355
#     4  10  20  38  58  85 121 152 192 243 303 357
#
# _framework density 9.8765429999999999
#
# number of rings (size 3 to 8) (size 9 to 14) (size 15 to 20)
#    0.000    1.500    3.750    1.125    1.750    1.750 
#    0.000    0.000    0.000    4.125    0.000    0.000 
#    0.000    0.000    0.000    0.000    0.000    0.000 
#
# Total GULP energy -178158.867040 kJ/mol
# GULP energy per Si atom -5567.464595 kJ/mol
# Density = 0.985406 g / cm^3
# Si number density = 9.876543 Si / 1000 Ang^3
#
#
#
# Elastic Constant Matrix: (Units=GPa)
#
#
# Indices 1 2 3 4 5 6 
#
# 1 75.5275 8.5592 15.5027 0.0000 -16.0539 0.0000
# 2 8.5592 17.1360 23.1633 0.0000 4.3977 0.0000
# 3 15.5027 23.1633 42.5593 0.0000 -2.6843 0.0000
# 4 0.0000 0.0000 0.0000 37.9986 0.0000 -29.9178
# 5 -16.0539 4.3977 -2.6843 0.0000 35.6000 0.0000
# 6 0.0000 0.0000 0.0000 -29.9178 0.0000 52.9049
#
#
#
# Elastic Compliance Matrix: (Units=1/GPa)
#
#
# Indices 1 2 3 4 5 6 
#
# 1 0.016248 -0.011932 0.001136 0.000000 0.008887 0.000000
# 2 -0.011932 0.289640 -0.156634 0.000000 -0.052971 0.000000
# 3 0.001136 -0.156634 0.110109 0.000000 0.028164 0.000000
# 4 0.000000 0.000000 0.000000 0.047438 0.000000 0.026826
# 5 0.008887 -0.052971 0.028164 0.000000 0.040765 0.000000
# 6 0.000000 0.000000 0.000000 0.026826 0.000000 0.034072
#
#
# Mechanical properties :
#
#
# Convention : Reuss Voigt Hill
#
# Bulk Modulus (GPa) = 12.32494 25.51926 18.92210
# Shear Modulus (GPa) = 5.55446 31.16719 18.36082
#
# Velocity S-wave (km/s) = 1.67870 3.97651 3.05211
# Velocity P-wave (km/s) = 3.16393 5.83358 4.69261
#
# Compressibility (1/GPa) = 0.08113631
#
# Stress axis : x y z
#
# Youngs Moduli (GPa) = 61.54529 3.45257 9.08192
#
# Poissons Ratio (x) = 0.04120 -0.01032
# Poissons Ratio (y) = 0.73439 1.42254
# Poissons Ratio (z) = -0.06993 0.54079
#
# Static dielectric constant tensor:
#      x y z
#    x 1.761910 0.000000 -0.056230 
#    y 0.000000 1.653390 0.000000 
#    z -0.056230 0.000000 1.760610 
# 
# From -- ./inp_files/190089.got.cif
#   From: 2010.05.17/outbox.ucp.g08.bks.cvg/sg12_96_cif.got.tgz:190089.got - 2010.06.11 11:47:21.
