data_PCOD9224468
_publ_section_title
;
Structure prediction by ZEFSAII (Michael W. Deem and Ramdas Pophale) SiO2 
 PCOD9224468
Probable space group: C 2/M
;
_chemical_formula_sum "Si O2"
_cell_formula_units_Z 32
_cell_length_a 30.000000
_cell_length_b 9.000000
_cell_length_c 24.000000
_cell_angle_alpha 90.000000
_cell_angle_beta 30.000000
_cell_angle_gamma 90.000000
_cell_volume 3240.000000
_symmetry_space_group_name_H-M "C 2/M"
_symmetry_group_IT_number 12
_symmetry_cell_setting 'monoclinic'
loop_
_space_group_symop_operation_xyz
x,y,z
-x,y,-z
-x,-y,-z
x,-y,z
1/2+x,1/2+y,z
1/2-x,1/2+y,-z
1/2-x,1/2-y,-z
1/2+x,1/2-y,z
loop_
_atom_site_type_symbol
_atom_site_label
_atom_site_fract_x
_atom_site_fract_y
_atom_site_fract_z
Si Si1 0.611383 0.820524 0.923821
Si Si2 0.157937 0.322104 0.175851
Si Si3 0.989864 0.677877 0.574995
Si Si4 0.160626 0.321172 0.989889
Si Si5 0.958588 0.822234 0.795119
Si Si6 0.098701 0.827467 0.554312
Si Si7 0.285640 0.826171 0.405045
Si Si8 0.908532 0.318763 0.175659
O O1 0.637277 0.770226 0.833563
O O2 0.610964 0.000000 0.921290
O O3 0.667329 0.779429 0.917378
O O4 0.510832 0.779009 0.051430
O O5 0.154706 0.500000 0.169602
O O6 0.103918 0.289932 0.291870
O O7 0.108841 0.234289 0.179770
O O8 0.257340 0.261625 0.070609
O O9 0.998905 0.500000 0.563568
O O10 0.000000 0.732543 0.500000
O O11 0.062054 0.740023 0.540867
O O12 0.165210 0.500000 0.990272
O O13 0.071139 0.263353 0.117125
O O14 0.052087 0.782844 0.663695
O O15 0.954060 0.000000 0.808634
O O16 0.203301 0.818071 0.450793
O O17 0.073488 0.000000 0.573315
O O18 0.250000 0.750000 0.500000
O O19 0.367206 0.764509 0.278861
O O20 0.302449 0.000000 0.400037
O O21 0.903600 0.500000 0.184240
#
# Coordination Sequence:
#
# PCOD9224468 Si02
#       8
#     8   8   8   8   8   8   8   8
#     4   8  16  30  50  76 102 133 174 216 257 305
#     4  10  20  35  52  73 103 137 172 211 258 310
#     4   9  19  36  57  79 104 138 178 218 262 318
#     4  11  21  31  50  80 105 129 172 218 259 311
#     4  10  20  35  52  70 103 142 172 211 260 311
#     4   9  20  36  52  77 108 140 179 220 267 320
#     4  10  21  35  55  82 110 141 179 223 270 320
#     4   8  15  32  53  73 103 137 171 215 260 304
#
# _framework density 9.8765429999999999
#
# number of rings (size 3 to 8) (size 9 to 14) (size 15 to 20)
#    0.000    2.625    0.000    2.250    1.750    2.750 
#    0.000    1.250    0.000    1.500    0.000    4.375 
#    0.000    0.000    0.000    0.000    0.000    0.000 
#
# Total GULP energy -178278.041681 kJ/mol
# GULP energy per Si atom -5571.188803 kJ/mol
# Density = 0.985406 g / cm^3
# Si number density = 9.876543 Si / 1000 Ang^3
#
#
#
# Elastic Constant Matrix: (Units=GPa)
#
#
# Indices 1 2 3 4 5 6 
#
# 1 48.0260 3.3351 21.7362 -0.0013 21.7755 -0.0026
# 2 3.3351 24.0758 11.8533 0.0016 6.7145 0.0018
# 3 21.7362 11.8533 78.7518 0.0010 26.2228 0.0030
# 4 -0.0013 0.0016 0.0010 21.8419 -0.0021 8.4268
# 5 21.7755 6.7145 26.2228 -0.0021 41.5598 -0.0041
# 6 -0.0026 0.0018 0.0030 8.4268 -0.0041 15.6000
#
#
#
# Elastic Compliance Matrix: (Units=1/GPa)
#
#
# Indices 1 2 3 4 5 6 
#
# 1 0.028147 0.001483 -0.003800 0.000000 -0.012590 0.000002
# 2 0.001483 0.045412 -0.005751 -0.000002 -0.004485 -0.000004
# 3 -0.003800 -0.005751 0.017268 0.000001 -0.007976 -0.000006
# 4 0.000000 -0.000002 0.000001 0.057837 0.000000 -0.031243
# 5 -0.012590 -0.004485 -0.007976 0.000000 0.036415 0.000010
# 6 0.000002 -0.000004 -0.000006 -0.031243 0.000010 0.080979
#
#
# Mechanical properties :
#
#
# Convention : Reuss Voigt Hill
#
# Bulk Modulus (GPa) = 13.38835 24.96699 19.17767
# Shear Modulus (GPa) = 16.28172 23.39559 19.83866
#
# Velocity S-wave (km/s) = 2.87411 3.44525 3.17256
# Velocity P-wave (km/s) = 4.21979 5.33791 4.81144
#
# Compressibility (1/GPa) = 0.07469180
#
# Stress axis : x y z
#
# Youngs Moduli (GPa) = 35.52741 22.02047 57.90974
#
# Poissons Ratio (x) = -0.03265 0.22005
# Poissons Ratio (y) = -0.05268 0.33304
# Poissons Ratio (z) = 0.13500 0.12664
#
# Static dielectric constant tensor:
#      x y z
#    x 1.739690 0.000000 -0.008040 
#    y 0.000000 1.663680 0.000000 
#    z -0.008040 0.000000 1.750680 
# 
# From -- ./inp_files/353306.got.cif
#   From: 2010.05.17/outbox.ucp.g08.bks.cvg/sg12_177_cif.got.tgz:353306.got - 2010.06.11 11:47:21.
