data_PCOD9224030
_publ_section_title
;
Structure prediction by ZEFSAII (Michael W. Deem and Ramdas Pophale) SiO2 
 PCOD9224030
Probable space group: C 2/M
;
_chemical_formula_sum "Si O2"
_cell_formula_units_Z 28
_cell_length_a 21.000000
_cell_length_b 18.000000
_cell_length_c 21.000000
_cell_angle_alpha 90.000000
_cell_angle_beta 20.000000
_cell_angle_gamma 90.000000
_cell_volume 2714.955898
_symmetry_space_group_name_H-M "C 2/M"
_symmetry_group_IT_number 12
_symmetry_cell_setting 'monoclinic'
loop_
_space_group_symop_operation_xyz
x,y,z
-x,y,-z
-x,-y,-z
x,-y,z
1/2+x,1/2+y,z
1/2-x,1/2+y,-z
1/2-x,1/2-y,-z
1/2+x,1/2-y,z
loop_
_atom_site_type_symbol
_atom_site_label
_atom_site_fract_x
_atom_site_fract_y
_atom_site_fract_z
Si Si1 0.845439 0.590146 0.910388
Si Si2 0.875511 0.324692 0.752649
Si Si3 0.702102 0.911614 0.644873
Si Si4 0.085923 0.910611 0.680628
Si Si5 0.397534 0.709066 0.528288
Si Si6 0.453543 0.303430 0.110717
Si Si7 0.305077 0.912520 0.605507
O O1 0.858145 0.500000 0.885871
O O2 0.910134 0.636106 0.787795
O O3 0.983217 0.606156 0.839945
O O4 0.629852 0.610923 0.122214
O O5 0.966132 0.244460 0.652936
O O6 0.993022 0.374989 0.591754
O O7 0.653094 0.320120 0.953683
O O8 0.825336 0.873226 0.582692
O O9 0.796298 0.885270 0.490265
O O10 0.715560 0.000000 0.637447
O O11 0.187883 0.892957 0.651048
O O12 0.086573 0.000000 0.677854
O O13 0.500000 0.717418 0.500000
O O14 0.201886 0.753842 0.708955
O O15 0.331379 0.377918 0.213568
O O16 0.500000 0.266028 0.000000
O O17 0.324818 0.000000 0.592598
#
# Coordination Sequence:
#
# PCOD9224030 Si02
#       7
#     8   8   8   8   8   8   8
#     4  10  19  35  61  92 128 161 191 239 300 358
#     4  11  21  37  62  86 124 167 197 238 300 356
#     4  10  22  41  65  92 119 149 194 253 315 371
#     4   9  17  33  57  88 122 152 186 235 298 356
#     4  11  25  44  63  84 116 160 208 254 300 359
#     4  11  23  41  60  82 119 170 209 247 296 349
#     4  10  20  34  59  91 122 160 204 246 288 345
#
# _framework density 10.313243
#
# number of rings (size 3 to 8) (size 9 to 14) (size 15 to 20)
#    0.000    1.714    4.286    0.429    0.000    2.857 
#    0.000    2.143    0.000    0.429    0.000    0.000 
#    0.000    0.000    0.000    0.000    0.000    0.000 
#
# Total GULP energy -156064.577565 kJ/mol
# GULP energy per Si atom -5573.734913 kJ/mol
# Density = 1.028977 g / cm^3
# Si number density = 10.313243 Si / 1000 Ang^3
#
#
#
# Elastic Constant Matrix: (Units=GPa)
#
#
# Indices 1 2 3 4 5 6 
#
# 1 42.9738 23.4331 20.0667 0.0013 -27.0528 0.0072
# 2 23.4331 42.6660 21.6377 -0.0245 -23.9062 -0.0119
# 3 20.0667 21.6377 133.0054 -0.0550 -36.1248 -0.0068
# 4 0.0013 -0.0245 -0.0550 13.5696 0.0258 -10.1614
# 5 -27.0528 -23.9062 -36.1248 0.0258 29.3666 -0.0029
# 6 0.0072 -0.0119 -0.0068 -10.1614 -0.0029 22.8427
#
#
#
# Elastic Compliance Matrix: (Units=1/GPa)
#
#
# Indices 1 2 3 4 5 6 
#
# 1 0.062194 -0.000694 0.009217 -0.000159 0.068066 -0.000079
# 2 -0.000694 0.044406 0.003792 0.000062 0.040175 0.000057
# 3 0.009217 0.003792 0.012998 0.000017 0.027567 0.000014
# 4 -0.000159 0.000062 0.000017 0.110506 -0.000168 0.049158
# 5 0.068066 0.040175 0.027567 -0.000168 0.163371 -0.000046
# 6 -0.000079 0.000057 0.000014 0.049158 -0.000046 0.065645
#
#
# Mechanical properties :
#
#
# Convention : Reuss Voigt Hill
#
# Bulk Modulus (GPa) = 6.93349 38.76890 22.85120
# Shear Modulus (GPa) = 10.36124 23.38964 16.87544
#
# Velocity S-wave (km/s) = 2.24370 3.37109 2.86343
# Velocity P-wave (km/s) = 3.17506 5.82999 4.69413
#
# Compressibility (1/GPa) = 0.14422742
#
# Stress axis : x y z
#
# Youngs Moduli (GPa) = 16.07883 22.51933 76.93242
#
# Poissons Ratio (x) = 0.01563 -0.70905
# Poissons Ratio (y) = 0.01116 -0.29175
# Poissons Ratio (z) = -0.14819 -0.08540
#
# Static dielectric constant tensor:
#      x y z
#    x 1.758250 0.000000 0.016870 
#    y 0.000000 1.784310 0.000030 
#    z 0.016870 0.000030 1.748640 
# 
# From -- ./inp_files/322653.got.cif
#   From: 2010.05.17/outbox.ucp.g08.bks.cvg/sg12_162_cif.got.tgz:322653.got - 2010.06.11 11:47:21.
