data_PCOD9224502
_publ_section_title
;
Structure prediction by ZEFSAII (Michael W. Deem and Ramdas Pophale) SiO2 
 PCOD9224502
Probable space group: C 2/M
;
_chemical_formula_sum "Si O2"
_cell_formula_units_Z 32
_cell_length_a 18.000000
_cell_length_b 9.000000
_cell_length_c 21.000000
_cell_angle_alpha 90.000000
_cell_angle_beta 90.000000
_cell_angle_gamma 90.000000
_cell_volume 3402.000000
_symmetry_space_group_name_H-M "C 2/M"
_symmetry_group_IT_number 12
_symmetry_cell_setting 'monoclinic'
loop_
_space_group_symop_operation_xyz
x,y,z
-x,y,-z
-x,-y,-z
x,-y,z
1/2+x,1/2+y,z
1/2-x,1/2+y,-z
1/2-x,1/2-y,-z
1/2+x,1/2-y,z
loop_
_atom_site_type_symbol
_atom_site_label
_atom_site_fract_x
_atom_site_fract_y
_atom_site_fract_z
Si Si1 0.335297 0.176158 0.929170
Si Si2 0.428244 0.826260 0.192106
Si Si3 0.664657 0.170096 0.297426
Si Si4 0.834111 0.825438 0.575273
Si Si5 0.583091 0.325190 0.183373
Si Si6 0.174475 0.176051 0.562340
Si Si7 0.822260 0.323010 0.075695
Si Si8 0.343914 0.331269 0.299045
O O1 0.393066 0.253601 0.883242
O O2 0.253311 0.234709 0.911762
O O3 0.338759 0.000000 0.920602
O O4 0.346975 0.210678 0.003651
O O5 0.500955 0.728701 0.199002
O O6 0.384215 0.788815 0.127534
O O7 0.375217 0.787437 0.250718
O O8 0.447424 0.000000 0.190573
O O9 0.636820 0.233732 0.364869
O O10 0.636337 0.264997 0.238673
O O11 0.754319 0.174172 0.299287
O O12 0.641262 0.000000 0.289104
O O13 0.865704 0.794963 0.504613
O O14 0.747443 0.778489 0.567349
O O15 0.840028 0.000000 0.588888
O O16 0.588456 0.500000 0.179390
O O17 0.131086 0.195268 0.628166
O O18 0.197663 0.000000 0.561061
O O19 0.806216 0.500000 0.078993
O O20 0.365187 0.500000 0.280294
#
# Coordination Sequence:
#
# PCOD9224502 Si02
#       8
#     8   8   8   8   8   8   8   8
#     4  10  20  37  61  86 112 141 175 218 265 312
#     4  11  23  38  55  77 107 142 180 221 265 313
#     4  10  20  35  55  79 108 141 177 220 270 322
#     4   9  15  25  45  74 105 137 175 219 266 314
#     4  12  25  39  55  77 107 142 181 222 266 319
#     4   8  15  27  44  70 106 142 175 216 266 317
#     4   9  20  38  60  85 112 143 178 216 261 316
#     4   9  18  33  53  78 107 140 177 217 263 315
#
# _framework density 9.4062319999999993
#
# number of rings (size 3 to 8) (size 9 to 14) (size 15 to 20)
#    0.000    2.250    0.000    4.125    0.000    7.000 
#    0.000    2.500    0.000    0.750    0.000    5.250 
#    0.000    0.000    0.000    0.000    0.000    0.000 
#
# Total GULP energy -178483.304380 kJ/mol
# GULP energy per Si atom -5577.603262 kJ/mol
# Density = 0.938482 g / cm^3
# Si number density = 9.406232 Si / 1000 Ang^3
#
#
#
# Elastic Constant Matrix: (Units=GPa)
#
#
# Indices 1 2 3 4 5 6 
#
# 1 15.0223 13.9985 21.7650 0.0000 -11.0771 0.0000
# 2 13.9985 18.5776 17.5468 0.0000 0.8573 0.0000
# 3 21.7650 17.5468 50.7962 0.0000 -9.2330 0.0000
# 4 0.0000 0.0000 0.0000 24.2768 0.0000 -2.0049
# 5 -11.0771 0.8573 -9.2330 0.0000 -30.3897 0.0000
# 6 0.0000 0.0000 0.0000 -2.0049 0.0000 22.3812
#
#
#
# Elastic Compliance Matrix: (Units=1/GPa)
#
#
# Indices 1 2 3 4 5 6 
#
# 1 0.204650 -0.087683 -0.067671 0.000000 -0.056509 0.000000
# 2 -0.087683 0.114331 0.004238 0.000000 0.033899 0.000000
# 3 -0.067671 0.004238 0.049016 0.000000 0.009894 0.000000
# 4 0.000000 0.000000 0.000000 0.041499 0.000000 0.003717
# 5 -0.056509 0.033899 0.009894 0.000000 -0.014358 0.000000
# 6 0.000000 0.000000 0.000000 0.003717 0.000000 0.045013
#
#
# Mechanical properties :
#
#
# Convention : Reuss Voigt Hill
#
# Bulk Modulus (GPa) = 15.20540 21.22407 18.21473
# Shear Modulus (GPa) = 6.54188 5.32605 5.93396
#
# Velocity S-wave (km/s) = 1.86681 1.68442 1.77795
# Velocity P-wave (km/s) = 3.57026 3.88451 3.73070
#
# Compressibility (1/GPa) = 0.06576612
#
# Stress axis : x y z
#
# Youngs Moduli (GPa) = 4.88639 8.74650 20.40137
#
# Poissons Ratio (x) = 0.76692 1.38057
# Poissons Ratio (y) = 0.42845 -0.08645
# Poissons Ratio (z) = 0.33066 -0.03706
#
# Static dielectric constant tensor:
#      x y z
#    x 1.633780 0.000000 -0.009810 
#    y 0.000000 1.633750 0.000000 
#    z -0.009810 0.000000 1.680720 
# 
# From -- ./inp_files/314074.got.cif
#   From: 2010.05.17/outbox.ucp.g08.bks.cvg/sg12_158_cif.got.tgz:314074.got - 2010.06.11 11:47:21.
