data_PCOD9224237
_publ_section_title
;
Structure prediction by ZEFSAII (Michael W. Deem and Ramdas Pophale) SiO2 
 PCOD9224237
Probable space group: C 2/M
;
_chemical_formula_sum "Si O2"
_cell_formula_units_Z 20
_cell_length_a 15.000000
_cell_length_b 9.000000
_cell_length_c 30.000000
_cell_angle_alpha 90.000000
_cell_angle_beta 30.000000
_cell_angle_gamma 90.000000
_cell_volume 2025.000000
_symmetry_space_group_name_H-M "C 2/M"
_symmetry_group_IT_number 12
_symmetry_cell_setting 'monoclinic'
loop_
_space_group_symop_operation_xyz
x,y,z
-x,y,-z
-x,-y,-z
x,-y,z
1/2+x,1/2+y,z
1/2-x,1/2+y,-z
1/2-x,1/2-y,-z
1/2+x,1/2-y,z
loop_
_atom_site_type_symbol
_atom_site_label
_atom_site_fract_x
_atom_site_fract_y
_atom_site_fract_z
Si Si1 0.926002 0.179471 0.483174
Si Si2 0.898451 0.675943 0.872459
Si Si3 0.856270 0.822332 0.801269
Si Si4 0.471802 0.177815 0.939221
Si Si5 0.958899 0.179462 0.370496
O O1 0.022238 0.217502 0.393776
O O2 0.731364 0.247160 0.558275
O O3 0.000000 0.228711 0.500000
O O4 0.916804 0.000000 0.489203
O O5 0.899855 0.500000 0.865745
O O6 0.950537 0.749993 0.803106
O O7 0.004836 0.708665 0.872180
O O8 0.700598 0.734046 0.970235
O O9 0.646297 0.786176 0.891897
O O10 0.923651 0.777566 0.723100
O O11 0.873710 0.000000 0.797295
O O12 0.437056 0.000000 0.958065
O O13 0.941826 0.000000 0.377290
#
# Coordination Sequence:
#
# PCOD9224237 Si02
#       5
#     8   8   8   8   8
#     4   9  18  34  56  77  99 130 164 200 245 296
#     4  10  20  33  51  75 100 129 170 214 248 285
#     4  10  20  34  51  71 100 136 167 199 247 302
#     4   9  19  35  52  70  98 136 170 202 248 301
#     4   9  19  34  51  75 103 129 163 204 245 295
#
# _framework density 9.8765429999999999
#
# number of rings (size 3 to 8) (size 9 to 14) (size 15 to 20)
#    0.000    2.600    0.000    1.200    0.000    6.800 
#    0.000    4.000    0.000    0.000    0.000    0.000 
#    0.000    0.000    0.000    0.000    0.000    0.000 
#
# Total GULP energy -111435.294549 kJ/mol
# GULP energy per Si atom -5571.764727 kJ/mol
# Density = 0.985406 g / cm^3
# Si number density = 9.876543 Si / 1000 Ang^3
#
#
#
# Elastic Constant Matrix: (Units=GPa)
#
#
# Indices 1 2 3 4 5 6 
#
# 1 149.2076 23.2655 22.6125 0.0002 37.9391 -0.0002
# 2 23.2655 5.7580 6.3200 0.0001 8.7068 -0.0003
# 3 22.6125 6.3200 43.2758 -0.0003 27.1571 -0.0002
# 4 0.0002 0.0001 -0.0003 20.8879 -0.0001 7.8349
# 5 37.9391 8.7068 27.1571 -0.0001 34.3239 0.0001
# 6 -0.0002 -0.0003 -0.0002 7.8349 0.0001 29.2390
#
#
#
# Elastic Compliance Matrix: (Units=1/GPa)
#
#
# Indices 1 2 3 4 5 6 
#
# 1 0.018661 -0.071003 0.004488 0.000000 -0.006167 -0.000001
# 2 -0.071003 0.553082 -0.009692 -0.000005 -0.054148 0.000007
# 3 0.004488 -0.009692 0.047167 0.000000 -0.039821 0.000000
# 4 0.000000 -0.000005 0.000000 0.053224 0.000001 -0.014262
# 5 -0.006167 -0.054148 -0.039821 0.000001 0.081192 -0.000001
# 6 -0.000001 0.000007 0.000000 -0.014262 -0.000001 0.038023
#
#
# Mechanical properties :
#
#
# Convention : Reuss Voigt Hill
#
# Bulk Modulus (GPa) = 2.14364 33.62639 17.88502
# Shear Modulus (GPa) = 4.54851 26.62637 15.58744
#
# Velocity S-wave (km/s) = 1.51911 3.67544 2.81216
# Velocity P-wave (km/s) = 2.04071 5.92217 4.42926
#
# Compressibility (1/GPa) = 0.46649615
#
# Stress axis : x y z
#
# Youngs Moduli (GPa) = 53.58694 1.80805 21.20136
#
# Poissons Ratio (x) = 0.12838 -0.09516
# Poissons Ratio (y) = 3.80486 0.20548
# Poissons Ratio (z) = -0.24052 0.01752
#
# Static dielectric constant tensor:
#      x y z
#    x 1.708970 0.000000 0.049580 
#    y 0.000000 1.654640 0.000000 
#    z 0.049580 0.000000 1.749070 
# 
# From -- ./inp_files/211190.got.cif
#   From: 2010.05.17/outbox.ucp.g08.bks.cvg/sg12_106_cif.got.tgz:211190.got - 2010.06.11 11:47:21.
