data_PCOD9224289
_publ_section_title
;
Structure prediction by ZEFSAII (Michael W. Deem and Ramdas Pophale) SiO2 
 PCOD9224289
Probable space group: C 2/M
;
_chemical_formula_sum "Si O2"
_cell_formula_units_Z 32
_cell_length_a 18.000000
_cell_length_b 9.000000
_cell_length_c 30.000000
_cell_angle_alpha 90.000000
_cell_angle_beta 40.000000
_cell_angle_gamma 90.000000
_cell_volume 3123.947783
_symmetry_space_group_name_H-M "C 2/M"
_symmetry_group_IT_number 12
_symmetry_cell_setting 'monoclinic'
loop_
_space_group_symop_operation_xyz
x,y,z
-x,y,-z
-x,-y,-z
x,-y,z
1/2+x,1/2+y,z
1/2-x,1/2+y,-z
1/2-x,1/2-y,-z
1/2+x,1/2-y,z
loop_
_atom_site_type_symbol
_atom_site_label
_atom_site_fract_x
_atom_site_fract_y
_atom_site_fract_z
Si Si1 0.376834 0.178765 0.617022
Si Si2 0.108335 0.318954 0.555476
Si Si3 0.182105 0.180080 0.776332
Si Si4 0.574998 0.678195 0.093066
Si Si5 0.195369 0.321529 0.957971
Si Si6 0.257168 0.677382 0.406694
Si Si7 0.772998 0.178884 0.825284
Si Si8 0.481981 0.177050 0.303158
O O1 0.500801 0.233893 0.574582
O O2 0.274215 0.230083 0.696966
O O3 0.345682 0.203667 0.580391
O O4 0.381918 0.000000 0.620388
O O5 0.120946 0.500000 0.550001
O O6 0.217859 0.268682 0.474037
O O7 0.052869 0.284671 0.629489
O O8 0.216863 0.249430 0.807558
O O9 0.048522 0.220474 0.829765
O O10 0.189034 0.000000 0.775862
O O11 0.577405 0.500000 0.087495
O O12 0.681829 0.720673 0.075711
O O13 0.598672 0.748644 0.033701
O O14 0.183253 0.500000 0.965969
O O15 0.204912 0.279635 0.901814
O O16 0.281044 0.500000 0.397812
O O17 0.365863 0.759854 0.334845
O O18 0.903930 0.240826 0.765651
O O19 0.775375 0.000000 0.821376
O O20 0.495559 0.000000 0.293142
#
# Coordination Sequence:
#
# PCOD9224289 Si02
#       8
#     8   8   8   8   8   8   8   8
#     4   9  17  32  56  82 109 143 184 229 272 320
#     4   9  17  33  56  81 107 143 187 228 273 328
#     4  10  20  36  58  82 112 148 183 225 276 326
#     4   9  19  36  60  86 111 143 182 221 268 327
#     4   9  20  38  59  83 113 145 180 224 271 318
#     4  10  20  33  57  85 107 140 189 234 273 326
#     4  11  23  38  58  82 110 146 188 230 271 323
#     4  11  22  37  55  78 114 149 181 227 281 332
#
# _framework density 10.243449
#
# number of rings (size 3 to 8) (size 9 to 14) (size 15 to 20)
#    0.000    2.250    1.250    1.500    1.750    3.500 
#    0.000    3.750    0.000    0.750    0.000    0.000 
#    0.000    0.000    0.000    0.000    0.000    0.000 
#
# Total GULP energy -178351.773476 kJ/mol
# GULP energy per Si atom -5573.492921 kJ/mol
# Density = 1.022013 g / cm^3
# Si number density = 10.243449 Si / 1000 Ang^3
#
#
#
# Elastic Constant Matrix: (Units=GPa)
#
#
# Indices 1 2 3 4 5 6 
#
# 1 -107.9581 -34.4766 -101.1521 0.0001 51.0458 0.0002
# 2 -34.4766 -6.7248 -22.0328 -0.0006 14.4571 0.0014
# 3 -101.1521 -22.0328 8.6058 0.0002 43.6903 -0.0001
# 4 0.0001 -0.0006 0.0002 26.9866 -0.0001 4.3954
# 5 51.0458 14.4571 43.6903 -0.0001 19.6813 0.0000
# 6 0.0002 0.0014 -0.0001 4.3954 0.0000 15.7499
#
#
#
# Elastic Compliance Matrix: (Units=1/GPa)
#
#
# Indices 1 2 3 4 5 6 
#
# 1 0.017533 -0.065871 -0.002207 -0.000002 0.007810 0.000006
# 2 -0.065871 0.310748 -0.030463 0.000012 0.010204 -0.000030
# 3 -0.002207 -0.030463 0.012696 -0.000001 -0.000083 0.000003
# 4 -0.000002 0.000012 -0.000001 0.038820 0.000000 -0.010834
# 5 0.007810 0.010204 -0.000083 0.000000 0.023244 -0.000001
# 6 0.000006 -0.000030 0.000003 -0.010834 -0.000001 0.066516
#
#
# Mechanical properties :
#
#
# Convention : Reuss Voigt Hill
#
# Bulk Modulus (GPa) = 6.94943 -46.82222 -19.93640
# Shear Modulus (GPa) = 6.99689 15.92252 11.45971
#
# Velocity S-wave (km/s) = 1.85006 2.79086 2.36766
# Velocity P-wave (km/s) = 2.82190 3.53823 1.50930
#
# Compressibility (1/GPa) = 0.14389668
#
# Stress axis : x y z
#
# Youngs Moduli (GPa) = 57.03407 3.21804 78.76536
#
# Poissons Ratio (x) = 0.21198 0.17381
# Poissons Ratio (y) = 3.75688 2.39941
# Poissons Ratio (z) = 0.12585 0.09803
#
# Static dielectric constant tensor:
#      x y z
#    x 1.835280 0.000000 -0.013730 
#    y 0.000000 1.692600 0.000000 
#    z -0.013730 0.000000 1.707710 
# 
# From -- ./inp_files/378175.got.cif
#   From: 2010.05.17/outbox.ucp.g08.bks.cvg/sg12_190_cif.got.tgz:378175.got - 2010.06.11 11:47:21.
