data_PCOD9224633
_publ_section_title
;
Structure prediction by ZEFSAII (Michael W. Deem and Ramdas Pophale) SiO2 
 PCOD9224633
Probable space group: C 2/M
;
_chemical_formula_sum "Si O2"
_cell_formula_units_Z 20
_cell_length_a 18.000000
_cell_length_b 9.000000
_cell_length_c 15.000000
_cell_angle_alpha 90.000000
_cell_angle_beta 60.000000
_cell_angle_gamma 90.000000
_cell_volume 2104.441731
_symmetry_space_group_name_H-M "C 2/M"
_symmetry_group_IT_number 12
_symmetry_cell_setting 'monoclinic'
loop_
_space_group_symop_operation_xyz
x,y,z
-x,y,-z
-x,-y,-z
x,-y,z
1/2+x,1/2+y,z
1/2-x,1/2+y,-z
1/2-x,1/2-y,-z
1/2+x,1/2-y,z
loop_
_atom_site_type_symbol
_atom_site_label
_atom_site_fract_x
_atom_site_fract_y
_atom_site_fract_z
Si Si1 0.477845 0.168591 0.421262
Si Si2 0.164054 0.821308 0.801016
Si Si3 0.671926 0.822226 0.992592
Si Si4 0.776340 0.664047 0.571426
Si Si5 0.004148 0.679248 0.793073
O O1 0.500000 0.251713 0.500000
O O2 0.377039 0.153762 0.496949
O O3 0.498369 0.226507 0.309944
O O4 0.517044 0.000000 0.399454
O O5 0.243382 0.779504 0.687134
O O6 0.080320 0.762996 0.798634
O O7 0.162465 0.000000 0.814115
O O8 0.167953 0.745977 0.895652
O O9 0.584164 0.794827 0.100810
O O10 0.682723 0.000000 0.979991
O O11 0.750000 0.750000 0.000000
O O12 0.737007 0.500000 0.589224
O O13 0.750000 0.750000 0.500000
O O14 0.021105 0.500000 0.783116
#
# Coordination Sequence:
#
# PCOD9224633 Si02
#       5
#     8   8   8   8   8
#     4   9  18  33  58  86 114 150 191 240 290 341
#     4  11  23  38  61  90 122 157 197 245 296 353
#     4  11  25  42  62  88 118 155 200 248 299 353
#     4  10  20  35  59  88 118 151 193 239 290 352
#     4  10  21  39  63  87 115 156 205 244 288 356
#
# _framework density 9.5037079999999996
#
# number of rings (size 3 to 8) (size 9 to 14) (size 15 to 20)
#    0.000    1.800    2.000    1.800    2.800    4.800 
#    0.000    0.000    0.000    1.200    0.000    0.000 
#    0.000    0.000    0.000    0.000    0.000    0.000 
#
# Total GULP energy -111420.065606 kJ/mol
# GULP energy per Si atom -5571.003280 kJ/mol
# Density = 0.948208 g / cm^3
# Si number density = 9.503708 Si / 1000 Ang^3
#
#
#
# Elastic Constant Matrix: (Units=GPa)
#
#
# Indices 1 2 3 4 5 6 
#
# 1 50.4459 28.8478 57.7994 0.0000 35.3654 0.0000
# 2 28.8478 49.5757 56.0434 0.0000 9.3018 0.0000
# 3 57.7994 56.0434 221.3794 0.0000 34.4127 0.0000
# 4 0.0000 0.0000 0.0000 28.1138 0.0000 3.6386
# 5 35.3654 9.3018 34.4127 0.0000 42.4877 0.0000
# 6 0.0000 0.0000 0.0000 3.6386 0.0000 26.3211
#
#
#
# Elastic Compliance Matrix: (Units=1/GPa)
#
#
# Indices 1 2 3 4 5 6 
#
# 1 0.089000 -0.034707 -0.004709 0.000000 -0.062668 0.000000
# 2 -0.034707 0.041800 -0.005249 0.000000 0.023990 0.000000
# 3 -0.004709 -0.005249 0.007193 0.000000 -0.000757 0.000000
# 4 0.000000 0.000000 0.000000 0.036218 0.000000 -0.005007
# 5 -0.062668 0.023990 -0.000757 0.000000 0.071061 0.000000
# 6 0.000000 0.000000 0.000000 -0.005007 0.000000 0.038685
#
#
# Mechanical properties :
#
#
# Convention : Reuss Voigt Hill
#
# Bulk Modulus (GPa) = 20.54971 67.42026 43.98499
# Shear Modulus (GPa) = 12.83672 31.29854 22.06763
#
# Velocity S-wave (km/s) = 2.60157 4.06229 3.41104
# Velocity P-wave (km/s) = 4.45636 7.58620 6.22132
#
# Compressibility (1/GPa) = 0.04866248
#
# Stress axis : x y z
#
# Youngs Moduli (GPa) = 11.23598 23.92330 139.01971
#
# Poissons Ratio (x) = 0.83031 0.65463
# Poissons Ratio (y) = 0.38997 0.72978
# Poissons Ratio (z) = 0.05291 0.12558
#
# Static dielectric constant tensor:
#      x y z
#    x 1.526890 0.000000 -0.027560 
#    y 0.000000 1.702090 0.000000 
#    z -0.027560 0.000000 1.665500 
# 
# From -- ./inp_files/220559.got.cif
#   From: 2010.05.17/outbox.ucp.g08.bks.cvg/sg12_111_cif.got.tgz:220559.got - 2010.06.11 11:47:21.
