data_PCOD9224321
_publ_section_title
;
Structure prediction by ZEFSAII (Michael W. Deem and Ramdas Pophale) SiO2 
 PCOD9224321
Probable space group: C 2/M
;
_chemical_formula_sum "Si O2"
_cell_formula_units_Z 32
_cell_length_a 27.000000
_cell_length_b 15.000000
_cell_length_c 9.000000
_cell_angle_alpha 90.000000
_cell_angle_beta 80.000000
_cell_angle_gamma 90.000000
_cell_volume 3589.624260
_symmetry_space_group_name_H-M "C 2/M"
_symmetry_group_IT_number 12
_symmetry_cell_setting 'monoclinic'
loop_
_space_group_symop_operation_xyz
x,y,z
-x,y,-z
-x,-y,-z
x,-y,z
1/2+x,1/2+y,z
1/2-x,1/2+y,-z
1/2-x,1/2-y,-z
1/2+x,1/2-y,z
loop_
_atom_site_type_symbol
_atom_site_label
_atom_site_fract_x
_atom_site_fract_y
_atom_site_fract_z
Si Si1 0.311430 0.903405 0.793401
Si Si2 0.245235 0.849397 0.061867
Si Si3 0.145045 0.776079 0.609659
Si Si4 0.354514 0.712291 0.747191
Si Si5 0.736170 0.599973 0.581611
Si Si6 0.689182 0.897118 0.706116
Si Si7 0.939812 0.896893 0.204421
Si Si8 0.557559 0.603232 0.153638
O O1 0.343485 0.814484 0.805435
O O2 0.288769 0.893781 0.641183
O O3 0.336554 0.000000 0.798941
O O4 0.258377 0.905312 0.910252
O O5 0.191165 0.849881 0.167409
O O6 0.292932 0.873872 0.138469
O O7 0.250000 0.750000 0.000000
O O8 0.145272 0.784537 0.431461
O O9 0.195553 0.826253 0.640553
O O10 0.150439 0.675106 0.664036
O O11 0.097526 0.828355 0.698798
O O12 0.405682 0.670702 0.782587
O O13 0.715511 0.500000 0.609665
O O14 0.757180 0.612494 0.405805
O O15 0.673110 0.000000 0.701307
O O16 0.998344 0.881009 0.213335
O O17 0.927894 0.000000 0.250320
O O18 0.935160 0.889287 0.028170
O O19 0.568625 0.500000 0.189143
#
# Coordination Sequence:
#
# PCOD9224321 Si02
#       8
#     8   8   8   8   8   8   8   8
#     4  10  21  36  52  77 114 151 185 220 260 316
#     4  10  21  35  51  78 113 148 185 226 266 312
#     4  12  21  34  56  82 109 144 186 225 265 326
#     4  11  22  34  54  82 111 143 184 224 274 321
#     4  10  20  34  52  77 112 150 183 220 264 314
#     4  11  22  36  53  78 117 155 183 218 265 318
#     4   9  21  41  61  81 104 137 179 225 281 336
#     4   9  21  41  60  80 108 136 173 229 283 330
#
# _framework density 8.9145819999999993
#
# number of rings (size 3 to 8) (size 9 to 14) (size 15 to 20)
#    0.000    1.750    2.500    3.375    5.250    2.500 
#    0.000    1.250    0.000    0.750    0.000    3.500 
#    0.000    0.000    0.000    0.000    0.000    0.000 
#
# Total GULP energy -178233.739208 kJ/mol
# GULP energy per Si atom -5569.804350 kJ/mol
# Density = 0.889429 g / cm^3
# Si number density = 8.914582 Si / 1000 Ang^3
#
#
#
# Elastic Constant Matrix: (Units=GPa)
#
#
# Indices 1 2 3 4 5 6 
#
# 1 70.9648 67.7944 10.8371 0.0000 -1.7208 0.0000
# 2 67.7944 141.1580 21.9265 0.0000 -10.9197 0.0000
# 3 10.8371 21.9265 15.0015 0.0000 -15.0481 0.0000
# 4 0.0000 0.0000 0.0000 7.2507 0.0000 -12.5372
# 5 -1.7208 -10.9197 -15.0481 0.0000 22.7136 0.0000
# 6 0.0000 0.0000 0.0000 -12.5372 0.0000 21.4208
#
#
#
# Elastic Compliance Matrix: (Units=1/GPa)
#
#
# Indices 1 2 3 4 5 6 
#
# 1 0.027714 -0.011517 -0.019779 0.000000 -0.016541 0.000000
# 2 -0.011517 0.015538 -0.023172 0.000000 -0.008754 0.000000
# 3 -0.019779 -0.023172 0.304499 0.000000 0.189096 0.000000
# 4 0.000000 0.000000 0.000000-11.481766 0.000000 -6.720066
# 5 -0.016541 -0.008754 0.189096 0.000000 0.163843 0.000000
# 6 0.000000 0.000000 0.000000 -6.720066 0.000000 -3.886447
#
#
# Mechanical properties :
#
#
# Convention : Reuss Voigt Hill
#
# Bulk Modulus (GPa) = 4.18733 47.58226 25.88480
# Shear Modulus (GPa) = -0.34088 18.71478 9.18695
#
# Velocity S-wave (km/s) = -0.43773 3.24338 2.27243
# Velocity P-wave (km/s) = 1.44852 6.38528 4.62980
#
# Compressibility (1/GPa) = 0.23881538
#
# Stress axis : x y z
#
# Youngs Moduli (GPa) = 36.08321 64.35873 3.28408
#
# Poissons Ratio (x) = 0.74125 0.06495
# Poissons Ratio (y) = 0.41559 0.07610
# Poissons Ratio (z) = 0.71367 1.49129
#
# Static dielectric constant tensor:
#      x y z
#    x 1.563340 0.000000 -0.017020 
#    y 0.000000 1.622800 0.000000 
#    z -0.017020 0.000000 1.592860 
# 
# From -- ./inp_files/104594.got.cif
#   From: 2010.05.17/outbox.ucp.g08.bks.cvg/sg12_53_cif.got.tgz:104594.got - 2010.06.11 11:47:21.
