data_PCOD9224870
_publ_section_title
;
Structure prediction by ZEFSAII (Michael W. Deem and Ramdas Pophale) SiO2 
 PCOD9224870
Probable space group: C 2/M
;
_chemical_formula_sum "Si O2"
_cell_formula_units_Z 32
_cell_length_a 18.000000
_cell_length_b 9.000000
_cell_length_c 30.000000
_cell_angle_alpha 90.000000
_cell_angle_beta 40.000000
_cell_angle_gamma 90.000000
_cell_volume 3123.947783
_symmetry_space_group_name_H-M "C 2/M"
_symmetry_group_IT_number 12
_symmetry_cell_setting 'monoclinic'
loop_
_space_group_symop_operation_xyz
x,y,z
-x,y,-z
-x,-y,-z
x,-y,z
1/2+x,1/2+y,z
1/2-x,1/2+y,-z
1/2-x,1/2-y,-z
1/2+x,1/2-y,z
loop_
_atom_site_type_symbol
_atom_site_label
_atom_site_fract_x
_atom_site_fract_y
_atom_site_fract_z
Si Si1 0.246311 0.173369 0.366839
Si Si2 0.251533 0.174455 0.725594
Si Si3 0.999937 0.819257 0.868787
Si Si4 0.534211 0.666050 0.712914
Si Si5 0.330024 0.321263 0.501049
Si Si6 0.409369 0.321384 0.005272
Si Si7 0.958204 0.832375 0.651873
Si Si8 0.171387 0.826462 0.132092
O O1 0.211058 0.256343 0.338579
O O2 0.382536 0.208689 0.307241
O O3 0.195327 0.229751 0.437096
O O4 0.221424 0.000000 0.374551
O O5 0.355868 0.220821 0.708943
O O6 0.129020 0.233971 0.799059
O O7 0.241811 0.000000 0.725746
O O8 0.947191 0.765710 0.939340
O O9 0.915681 0.781734 0.867245
O O10 0.005035 0.000000 0.868387
O O11 0.569381 0.500000 0.713662
O O12 0.539666 0.664988 0.657538
O O13 0.403832 0.686739 0.788850
O O14 0.312519 0.500000 0.508004
O O15 0.250000 0.250000 0.500000
O O16 0.461203 0.291670 0.426413
O O17 0.412193 0.500000 0.002756
O O18 0.500000 0.268291 0.000000
O O19 0.284272 0.269506 0.077115
O O20 0.912430 0.000000 0.667142
O O21 0.201413 0.000000 0.112290
#
# Coordination Sequence:
#
# PCOD9224870 Si02
#       8
#     8   8   8   8   8   8   8   8
#     4  11  22  37  60  90 119 150 197 247 290 346
#     4  11  23  40  61  84 117 158 196 241 295 350
#     4   9  19  38  60  81 112 152 192 235 285 342
#     4  10  20  37  61  86 117 156 194 239 293 347
#     4  10  21  37  60  86 117 155 194 243 294 346
#     4  10  22  38  57  85 119 151 185 233 290 341
#     4  10  22  39  58  85 119 153 192 243 297 345
#     4  10  20  37  60  84 113 151 194 234 278 341
#
# _framework density 10.243449
#
# number of rings (size 3 to 8) (size 9 to 14) (size 15 to 20)
#    0.000    1.875    2.500    1.125    1.750    2.750 
#    0.000    3.750    0.000    0.000    0.000    0.000 
#    0.000    0.000    0.000    0.000    0.000    0.000 
#
# Total GULP energy -178432.023218 kJ/mol
# GULP energy per Si atom -5576.000726 kJ/mol
# Density = 1.022013 g / cm^3
# Si number density = 10.243449 Si / 1000 Ang^3
#
#
#
# Elastic Constant Matrix: (Units=GPa)
#
#
# Indices 1 2 3 4 5 6 
#
# 1 26.9343 13.1597 13.4478 -0.0001 -5.3038 -0.0004
# 2 13.1597 3.6891 15.2577 -0.0002 -4.0743 -0.0010
# 3 13.4478 15.2577 84.2786 0.0001 1.6559 -0.0002
# 4 -0.0001 -0.0002 0.0001 22.8311 0.0000 -2.0794
# 5 -5.3038 -4.0743 1.6559 0.0000 23.9658 -0.0001
# 6 -0.0004 -0.0010 -0.0002 -2.0794 -0.0001 18.6412
#
#
#
# Elastic Compliance Matrix: (Units=1/GPa)
#
#
# Indices 1 2 3 4 5 6 
#
# 1 -0.001397 0.106393 -0.019414 0.000002 0.019120 0.000006
# 2 0.106393 -0.257482 0.030076 -0.000003 -0.022306 -0.000012
# 3 -0.019414 0.030076 0.009515 0.000000 0.000159 0.000001
# 4 0.000002 -0.000003 0.000000 0.044249 0.000000 0.004936
# 5 0.019120 -0.022306 0.000159 0.000000 0.042154 -0.000001
# 6 0.000006 -0.000012 0.000001 0.004936 -0.000001 0.054195
#
#
# Mechanical properties :
#
#
# Convention : Reuss Voigt Hill
#
# Bulk Modulus (GPa) = -65.55936 22.07025 -21.74455
# Shear Modulus (GPa) = -14.36947 17.95675 1.79364
#
# Velocity S-wave (km/s) = -2.65126 2.96378 0.93670
# Velocity P-wave (km/s) = 6.43757 4.74429 3.07686
#
# Compressibility (1/GPa) = -0.01525335
#
# Stress axis : x y z
#
# Youngs Moduli (GPa) = -715.89046 -3.88376 105.09576
#
# Poissons Ratio (x) = 0.41321 2.04034
# Poissons Ratio (y) = 76.16597 -3.16086
# Poissons Ratio (z) = -13.89835 0.11681
#
# Static dielectric constant tensor:
#      x y z
#    x 1.771210 0.000000 0.009590 
#    y 0.000000 1.729350 0.000000 
#    z 0.009590 0.000000 1.789470 
# 
# From -- ./inp_files/378042.got.cif
#   From: 2010.05.17/outbox.ucp.g08.bks.cvg/sg12_190_cif.got.tgz:378042.got - 2010.06.11 11:47:21.
