data_PCOD9224165
_publ_section_title
;
Structure prediction by ZEFSAII (Michael W. Deem and Ramdas Pophale) SiO2 
 PCOD9224165
Probable space group: C 2/M
;
_chemical_formula_sum "Si O2"
_cell_formula_units_Z 28
_cell_length_a 12.000000
_cell_length_b 27.000000
_cell_length_c 9.000000
_cell_angle_alpha 90.000000
_cell_angle_beta 70.000000
_cell_angle_gamma 90.000000
_cell_volume 2740.143682
_symmetry_space_group_name_H-M "C 2/M"
_symmetry_group_IT_number 12
_symmetry_cell_setting 'monoclinic'
loop_
_space_group_symop_operation_xyz
x,y,z
-x,y,-z
-x,-y,-z
x,-y,z
1/2+x,1/2+y,z
1/2-x,1/2+y,-z
1/2-x,1/2-y,-z
1/2+x,1/2-y,z
loop_
_atom_site_type_symbol
_atom_site_label
_atom_site_fract_x
_atom_site_fract_y
_atom_site_fract_z
Si Si1 0.628996 0.711029 0.889401
Si Si2 0.579046 0.555347 0.251384
Si Si3 0.534450 0.910403 0.147209
Si Si4 0.128715 0.868905 0.663255
Si Si5 0.171017 0.321988 0.969368
Si Si6 0.290285 0.555300 0.123510
Si Si7 0.219628 0.602574 0.679376
O O1 0.633159 0.686810 0.724781
O O2 0.637703 0.770202 0.906975
O O3 0.500000 0.694457 0.000000
O O4 0.727217 0.689294 0.956627
O O5 0.525994 0.500000 0.293533
O O6 0.493970 0.602460 0.320449
O O7 0.692983 0.559696 0.305549
O O8 0.629776 0.559622 0.060786
O O9 0.652513 0.936644 0.147648
O O10 0.414306 0.913839 0.294751
O O11 0.500000 0.930342 0.000000
O O12 0.570049 0.852465 0.104635
O O13 0.173644 0.903409 0.776865
O O14 0.217721 0.872264 0.486836
O O15 0.211417 0.359945 0.823167
O O16 0.307637 0.500000 0.174991
#
# Coordination Sequence:
#
# PCOD9224165 Si02
#       7
#     8   8   8   8   8   8   8
#     4  11  21  37  67  90 119 160 212 257 308 359
#     4  11  23  41  65  90 122 168 212 253 307 370
#     4  10  19  40  64  85 117 156 209 252 297 362
#     4  12  24  38  58  92 130 160 194 255 313 373
#     4  10  21  41  63  91 118 161 213 259 298 369
#     4  11  22  39  63  89 114 155 208 255 297 354
#     4  11  23  39  61  87 129 162 198 249 313 369
#
# _framework density 10.218442
#
# number of rings (size 3 to 8) (size 9 to 14) (size 15 to 20)
#    0.000    1.143    4.286    4.286    0.000    4.857 
#    0.000    0.714    0.000    0.000    0.000    0.000 
#    0.000    0.000    0.000    0.000    0.000    0.000 
#
# Total GULP energy -156292.541627 kJ/mol
# GULP energy per Si atom -5581.876487 kJ/mol
# Density = 1.019518 g / cm^3
# Si number density = 10.218442 Si / 1000 Ang^3
#
#
#
# Elastic Constant Matrix: (Units=GPa)
#
#
# Indices 1 2 3 4 5 6 
#
# 1 80.1654 6.3298 19.4978 0.0000 -23.3341 0.0000
# 2 6.3298 69.2022 8.8619 0.0000 0.9899 0.0000
# 3 19.4978 8.8619 70.8162 0.0000 -15.6195 0.0000
# 4 0.0000 0.0000 0.0000 -5.2587 0.0000 8.4850
# 5 -23.3341 0.9899 -15.6195 0.0000 23.2855 0.0000
# 6 0.0000 0.0000 0.0000 8.4850 0.0000 13.5808
#
#
#
# Elastic Compliance Matrix: (Units=1/GPa)
#
#
# Indices 1 2 3 4 5 6 
#
# 1 0.017898 -0.001776 -0.000860 0.000000 0.017434 0.000000
# 2 -0.001776 0.014957 -0.002248 0.000000 -0.003924 0.000000
# 3 -0.000860 -0.002248 0.016983 0.000000 0.010625 0.000000
# 4 0.000000 0.000000 0.000000 -0.094698 0.000000 0.059165
# 5 0.017434 -0.003924 0.010625 0.000000 0.067710 0.000000
# 6 0.000000 0.000000 0.000000 0.059165 0.000000 0.036668
#
#
# Mechanical properties :
#
#
# Convention : Reuss Voigt Hill
#
# Bulk Modulus (GPa) = 24.95718 32.17363 28.56540
# Shear Modulus (GPa) = 60.50036 18.68781 39.59409
#
# Velocity S-wave (km/s) = 5.44681 3.02721 4.40635
# Velocity P-wave (km/s) = 7.19690 5.29110 6.31630
#
# Compressibility (1/GPa) = 0.04006863
#
# Stress axis : x y z
#
# Youngs Moduli (GPa) = 55.87114 66.85879 58.88305
#
# Poissons Ratio (x) = 0.11876 0.05066
# Poissons Ratio (y) = 0.09925 0.13237
# Poissons Ratio (z) = 0.04807 0.15030
#
# Static dielectric constant tensor:
#      x y z
#    x 1.801990 0.000000 -0.002710 
#    y 0.000000 1.736570 0.000000 
#    z -0.002710 0.000000 1.718300 
# 
# From -- ./inp_files/53154.got.cif
#   From: 2010.05.17/outbox.ucp.g08.bks.cvg/sg12_27_cif.got.tgz:53154.got - 2010.06.11 11:47:21.
