data_PCOD9224228
_publ_section_title
;
Structure prediction by ZEFSAII (Michael W. Deem and Ramdas Pophale) SiO2 
 PCOD9224228
Probable space group: C 2/M
;
_chemical_formula_sum "Si O2"
_cell_formula_units_Z 32
_cell_length_a 30.000000
_cell_length_b 9.000000
_cell_length_c 24.000000
_cell_angle_alpha 90.000000
_cell_angle_beta 30.000000
_cell_angle_gamma 90.000000
_cell_volume 3240.000000
_symmetry_space_group_name_H-M "C 2/M"
_symmetry_group_IT_number 12
_symmetry_cell_setting 'monoclinic'
loop_
_space_group_symop_operation_xyz
x,y,z
-x,y,-z
-x,-y,-z
x,-y,z
1/2+x,1/2+y,z
1/2-x,1/2+y,-z
1/2-x,1/2-y,-z
1/2+x,1/2-y,z
loop_
_atom_site_type_symbol
_atom_site_label
_atom_site_fract_x
_atom_site_fract_y
_atom_site_fract_z
Si Si1 0.180347 0.822281 0.156672
Si Si2 0.355193 0.327467 0.508970
Si Si3 0.053244 0.821310 0.700762
Si Si4 0.918665 0.177477 0.628280
Si Si5 0.787583 0.325220 0.690832
Si Si6 0.913764 0.822827 0.130085
Si Si7 0.642135 0.677592 0.067454
Si Si8 0.848295 0.670338 0.311623
O O1 0.104351 0.772260 0.283266
O O2 0.155637 0.792888 0.119015
O O3 0.188218 0.000000 0.154504
O O4 0.279242 0.751103 0.053663
O O5 0.375393 0.500000 0.503585
O O6 0.425244 0.277182 0.386211
O O7 0.342127 0.224682 0.576649
O O8 0.256720 0.326752 0.588327
O O9 0.130449 0.764331 0.657009
O O10 0.959925 0.771662 0.829335
O O11 0.051800 0.000000 0.701012
O O12 0.828654 0.224585 0.694310
O O13 0.000000 0.233674 0.500000
O O14 0.930072 0.000000 0.618373
O O15 0.800836 0.500000 0.687215
O O16 0.681932 0.299472 0.796523
O O17 0.901875 0.737709 0.201149
O O18 0.921440 0.000000 0.132820
O O19 0.000000 0.779262 0.000000
O O20 0.647332 0.500000 0.053333
O O21 0.874344 0.500000 0.292296
#
# Coordination Sequence:
#
# PCOD9224228 Si02
#       8
#     8   8   8   8   8   8   8   8
#     4   9  19  37  57  79 107 138 178 224 271 320
#     4   9  19  35  55  76 106 146 181 216 262 320
#     4  10  20  33  54  79 104 141 184 219 258 320
#     4  10  22  38  60  83 108 147 188 228 273 330
#     4  10  21  36  55  82 112 141 178 228 278 324
#     4   9  19  37  58  77 104 146 186 219 264 326
#     4   9  19  35  56  80 105 140 181 221 269 322
#     4  10  20  33  50  78 111 139 173 221 270 313
#
# _framework density 9.8765429999999999
#
# number of rings (size 3 to 8) (size 9 to 14) (size 15 to 20)
#    0.000    2.500    0.000    1.125    1.750    4.000 
#    0.000    3.750    0.000    0.000    0.000    0.000 
#    0.000    0.000    0.000    0.000    0.000    0.000 
#
# Total GULP energy -178390.950930 kJ/mol
# GULP energy per Si atom -5574.717217 kJ/mol
# Density = 0.985406 g / cm^3
# Si number density = 9.876543 Si / 1000 Ang^3
#
#
#
# Elastic Constant Matrix: (Units=GPa)
#
#
# Indices 1 2 3 4 5 6 
#
# 1 34.3957 2.3750 12.9854 -0.0010 4.0036 0.0006
# 2 2.3750 -3.3560 20.8171 0.0016 0.0737 -0.0006
# 3 12.9854 20.8171 118.6402 -0.0026 20.8692 0.0034
# 4 -0.0010 0.0016 -0.0026 26.1580 0.0012 3.9107
# 5 4.0036 0.0737 20.8692 0.0012 22.5747 -0.0013
# 6 0.0006 -0.0006 0.0034 3.9107 -0.0013 20.1742
#
#
#
# Elastic Compliance Matrix: (Units=1/GPa)
#
#
# Indices 1 2 3 4 5 6 
#
# 1 0.030449 0.001674 -0.003195 0.000001 -0.002452 -0.000001
# 2 0.001674 -0.129952 0.026984 0.000014 -0.024818 -0.000013
# 3 -0.003195 0.026984 0.004729 -0.000001 -0.003893 0.000000
# 4 0.000001 0.000014 -0.000001 0.039370 -0.000002 -0.007632
# 5 -0.002452 -0.024818 -0.003893 -0.000002 0.048412 0.000003
# 6 -0.000001 -0.000013 0.000000 -0.007632 0.000003 0.051048
#
#
# Mechanical properties :
#
#
# Convention : Reuss Voigt Hill
#
# Bulk Modulus (GPa) = -22.80644 24.67055 0.93205
# Shear Modulus (GPa) = -232.69858 21.34820 -105.67519
#
# Velocity S-wave (km/s) = -10.86551 3.29105 -7.32217
# Velocity P-wave (km/s) = 12.99936 5.19210 8.42690
#
# Compressibility (1/GPa) = -0.04384727
#
# Stress axis : x y z
#
# Youngs Moduli (GPa) = 32.84126 -7.69514 211.48184
#
# Poissons Ratio (x) = 0.01288 0.67575
# Poissons Ratio (y) = -0.05499 -5.70670
# Poissons Ratio (z) = 0.10494 0.20765
#
# Static dielectric constant tensor:
#      x y z
#    x 1.743660 0.000000 -0.016130 
#    y 0.000000 1.665010 0.000000 
#    z -0.016130 0.000000 1.709330 
# 
# From -- ./inp_files/353339.got.cif
#   From: 2010.05.17/outbox.ucp.g08.bks.cvg/sg12_177_cif.got.tgz:353339.got - 2010.06.11 11:47:21.
