data_PCOD9224601
_publ_section_title
;
Structure prediction by ZEFSAII (Michael W. Deem and Ramdas Pophale) SiO2 
 PCOD9224601
Probable space group: C 2/M
;
_chemical_formula_sum "Si O2"
_cell_formula_units_Z 24
_cell_length_a 21.000000
_cell_length_b 27.000000
_cell_length_c 9.000000
_cell_angle_alpha 90.000000
_cell_angle_beta 150.000000
_cell_angle_gamma 90.000000
_cell_volume 2551.500000
_symmetry_space_group_name_H-M "C 2/M"
_symmetry_group_IT_number 12
_symmetry_cell_setting 'monoclinic'
loop_
_space_group_symop_operation_xyz
x,y,z
-x,y,-z
-x,-y,-z
x,-y,z
1/2+x,1/2+y,z
1/2-x,1/2+y,-z
1/2-x,1/2-y,-z
1/2+x,1/2-y,z
loop_
_atom_site_type_symbol
_atom_site_label
_atom_site_fract_x
_atom_site_fract_y
_atom_site_fract_z
Si Si1 0.758163 0.558883 0.361836
Si Si2 0.993184 0.227608 0.663666
Si Si3 0.767031 0.724764 0.694316
Si Si4 0.510623 0.943695 0.696863
Si Si5 0.508874 0.379289 0.839054
Si Si6 0.766147 0.607019 0.695423
O O1 0.740204 0.500000 0.325056
O O2 0.877083 0.571566 0.498593
O O3 0.788475 0.578137 0.587845
O O4 0.629465 0.586415 0.055706
O O5 0.852837 0.239390 0.444126
O O6 0.019415 0.171255 0.769491
O O7 0.000000 0.232365 0.500000
O O8 0.101687 0.259744 0.962892
O O9 0.750000 0.750000 0.500000
O O10 0.765035 0.665780 0.667954
O O11 0.500000 0.944636 0.500000
O O12 0.538248 0.000000 0.805738
O O13 0.623242 0.908094 0.971494
O O14 0.375126 0.405289 0.531820
O O15 0.500000 0.368654 0.000000
#
# Coordination Sequence:
#
# PCOD9224601 Si02
#       6
#     8   8   8   8   8   8
#     4  10  20  35  58  85 110 142 185 229 274 327
#     4  11  23  39  59  85 116 148 188 236 281 331
#     4  11  23  40  60  84 114 151 190 230 283 339
#     4  10  22  38  54  78 114 149 182 225 275 327
#     4   9  20  38  58  83 112 145 183 228 281 334
#     4  10  21  36  58  84 108 142 186 227 273 329
#
# _framework density 9.4062319999999993
#
# number of rings (size 3 to 8) (size 9 to 14) (size 15 to 20)
#    0.000    1.833    0.000    5.000    0.000   12.333 
#    0.000    0.000    0.000    3.500    0.000    0.000 
#    0.000    0.000    0.000    0.000    0.000    0.000 
#
# Total GULP energy -134021.953134 kJ/mol
# GULP energy per Si atom -5584.248047 kJ/mol
# Density = 0.938482 g / cm^3
# Si number density = 9.406232 Si / 1000 Ang^3
#
#
#
# Elastic Constant Matrix: (Units=GPa)
#
#
# Indices 1 2 3 4 5 6 
#
# 1 11.8987 -15.7378 35.4524 0.0000 -5.0735 0.0000
# 2 -15.7378 6.5420 44.5670 0.0000 -3.4156 0.0000
# 3 35.4524 44.5670 95.3546 0.0000 14.8719 0.0000
# 4 0.0000 0.0000 0.0000 14.3824 0.0000 0.8026
# 5 -5.0735 -3.4156 14.8719 0.0000 11.6622 0.0000
# 6 0.0000 0.0000 0.0000 0.8026 0.0000 20.3916
#
#
#
# Elastic Compliance Matrix: (Units=1/GPa)
#
#
# Indices 1 2 3 4 5 6 
#
# 1 0.016129 -0.027563 0.008801 0.000000 -0.012279 0.000000
# 2 -0.027563 0.008327 0.009793 0.000000 -0.022041 0.000000
# 3 0.008801 0.009793 0.001989 0.000000 0.004160 0.000000
# 4 0.000000 0.000000 0.000000 0.069683 0.000000 -0.002743
# 5 -0.012279 -0.022041 0.004160 0.000000 0.068645 0.000000
# 6 0.000000 0.000000 0.000000 -0.002743 0.000000 0.049148
#
#
# Mechanical properties :
#
#
# Convention : Reuss Voigt Hill
#
# Bulk Modulus (GPa) = 117.54182 26.92873 72.23528
# Shear Modulus (GPa) = 21.30424 12.58814 16.94619
#
# Velocity S-wave (km/s) = 3.36885 2.58958 3.00458
# Velocity P-wave (km/s) = 8.81752 4.82562 7.10757
#
# Compressibility (1/GPa) = 0.00850761
#
# Stress axis : x y z
#
# Youngs Moduli (GPa) = 61.99894 120.08468 502.75534
#
# Poissons Ratio (x) = 3.30990 -4.42459
# Poissons Ratio (y) = 1.70888 -4.92363
# Poissons Ratio (z) = -0.54563 -1.17602
#
# Static dielectric constant tensor:
#      x y z
#    x 1.629220 0.000000 0.013300 
#    y 0.000000 1.618410 0.000000 
#    z 0.013300 0.000000 1.659120 
# 
# From -- ./inp_files/91170.got.cif
#   From: 2010.05.17/outbox.ucp.g08.bks.cvg/sg12_46_cif.got.tgz:91170.got - 2010.06.11 11:47:21.
