data_PCOD9224836
_publ_section_title
;
Structure prediction by ZEFSAII (Michael W. Deem and Ramdas Pophale) SiO2 
 PCOD9224836
Probable space group: C 2/M
;
_chemical_formula_sum "Si O2"
_cell_formula_units_Z 28
_cell_length_a 18.000000
_cell_length_b 9.000000
_cell_length_c 24.000000
_cell_angle_alpha 90.000000
_cell_angle_beta 130.000000
_cell_angle_gamma 90.000000
_cell_volume 2978.380795
_symmetry_space_group_name_H-M "C 2/M"
_symmetry_group_IT_number 12
_symmetry_cell_setting 'monoclinic'
loop_
_space_group_symop_operation_xyz
x,y,z
-x,y,-z
-x,-y,-z
x,-y,z
1/2+x,1/2+y,z
1/2-x,1/2+y,-z
1/2-x,1/2-y,-z
1/2+x,1/2-y,z
loop_
_atom_site_type_symbol
_atom_site_label
_atom_site_fract_x
_atom_site_fract_y
_atom_site_fract_z
Si Si1 0.877946 0.822069 0.728943
Si Si2 0.690107 0.821326 0.848199
Si Si3 0.153151 0.320582 0.593804
Si Si4 0.038674 0.821909 0.443327
Si Si5 0.935829 0.822273 0.112812
Si Si6 0.000165 0.323827 0.690081
Si Si7 0.892641 0.321887 0.973622
O O1 0.761914 0.788219 0.670018
O O2 0.933243 0.724902 0.709459
O O3 0.949153 0.796929 0.816930
O O4 0.885841 0.000000 0.720940
O O5 0.631985 0.746626 0.871567
O O6 0.613917 0.795595 0.760466
O O7 0.798436 0.752260 0.898304
O O8 0.697341 0.000000 0.859017
O O9 0.141998 0.500000 0.588315
O O10 0.064319 0.245678 0.584815
O O11 0.127358 0.254170 0.520192
O O12 0.037972 0.773496 0.379191
O O13 0.040852 0.000000 0.451833
O O14 0.921687 0.000000 0.103621
O O15 0.901507 0.746281 0.039556
O O16 0.991022 0.500000 0.674543
O O17 0.878080 0.500000 0.967919
O O18 0.000000 0.293025 0.000000
#
# Coordination Sequence:
#
# PCOD9224836 Si02
#       7
#     8   8   8   8   8   8   8
#     4   9  20  37  58  84 110 140 179 225 274 322
#     4  10  21  38  60  83 108 142 183 224 270 324
#     4  10  20  37  58  80 110 145 184 227 272 323
#     4  11  22  36  55  80 111 147 186 224 270 326
#     4  10  20  37  60  83 110 143 180 222 270 325
#     4  10  21  37  58  83 110 142 181 225 272 322
#     4  11  24  39  55  80 113 146 182 224 270 319
#
# _framework density 9.4010809999999996
#
# number of rings (size 3 to 8) (size 9 to 14) (size 15 to 20)
#    0.000    1.857    0.000    4.714    0.000    6.286 
#    0.000    4.286    0.000    0.000    0.000    0.000 
#    0.000    0.000    0.000    0.000    0.000    0.000 
#
# Total GULP energy -156169.872020 kJ/mol
# GULP energy per Si atom -5577.495429 kJ/mol
# Density = 0.937968 g / cm^3
# Si number density = 9.401081 Si / 1000 Ang^3
#
#
#
# Elastic Constant Matrix: (Units=GPa)
#
#
# Indices 1 2 3 4 5 6 
#
# 1 26.1060 7.4338 -0.8154 0.0000 23.7212 0.0000
# 2 7.4338 88.3461 14.7489 0.0000 14.1650 0.0000
# 3 -0.8154 14.7489 55.1076 0.0000 26.6336 0.0000
# 4 0.0000 0.0000 0.0000 31.9790 0.0000 5.2671
# 5 23.7212 14.1650 26.6336 0.0000 45.7073 0.0000
# 6 0.0000 0.0000 0.0000 5.2671 0.0000 32.5800
#
#
#
# Elastic Compliance Matrix: (Units=1/GPa)
#
#
# Indices 1 2 3 4 5 6 
#
# 1 0.120361 -0.003607 0.045095 0.000000 -0.087624 0.000000
# 2 -0.003607 0.012172 -0.003331 0.000000 0.000040 0.000000
# 3 0.045095 -0.003331 0.042481 0.000000 -0.047125 0.000000
# 4 0.000000 0.000000 0.000000 0.032126 0.000000 -0.005194
# 5 -0.087624 0.000040 -0.047125 0.000000 0.094801 0.000000
# 6 0.000000 0.000000 0.000000 -0.005194 0.000000 0.031533
#
#
# Mechanical properties :
#
#
# Convention : Reuss Voigt Hill
#
# Bulk Modulus (GPa) = 3.97885 23.58825 13.78355
# Shear Modulus (GPa) = 14.66559 31.93275 23.29917
#
# Velocity S-wave (km/s) = 2.79587 4.12558 3.52401
# Velocity P-wave (km/s) = 3.54165 5.93857 4.88927
#
# Compressibility (1/GPa) = 0.25132921
#
# Stress axis : x y z
#
# Youngs Moduli (GPa) = 8.30836 82.15460 23.54018
#
# Poissons Ratio (x) = 0.29631 -1.06155
# Poissons Ratio (y) = 0.02997 0.07840
# Poissons Ratio (z) = -0.37467 0.27362
#
# Static dielectric constant tensor:
#      x y z
#    x 1.668540 0.000000 -0.030150 
#    y 0.000000 1.620130 0.000000 
#    z -0.030150 0.000000 1.683090 
# 
# From -- ./inp_files/342544.got.cif
#   From: 2010.05.17/outbox.ucp.g08.bks.cvg/sg12_172_cif.got.tgz:342544.got - 2010.06.11 11:47:21.
