data_PCOD9224199
_publ_section_title
;
Structure prediction by ZEFSAII (Michael W. Deem and Ramdas Pophale) SiO2 
 PCOD9224199
Probable space group: C 2/M
;
_chemical_formula_sum "Si O2"
_cell_formula_units_Z 24
_cell_length_a 27.000000
_cell_length_b 24.000000
_cell_length_c 9.000000
_cell_angle_alpha 90.000000
_cell_angle_beta 30.000000
_cell_angle_gamma 90.000000
_cell_volume 2916.000000
_symmetry_space_group_name_H-M "C 2/M"
_symmetry_group_IT_number 12
_symmetry_cell_setting 'monoclinic'
loop_
_space_group_symop_operation_xyz
x,y,z
-x,y,-z
-x,-y,-z
x,-y,z
1/2+x,1/2+y,z
1/2-x,1/2+y,-z
1/2-x,1/2-y,-z
1/2+x,1/2-y,z
loop_
_atom_site_type_symbol
_atom_site_label
_atom_site_fract_x
_atom_site_fract_y
_atom_site_fract_z
Si Si1 0.544690 0.063107 0.124071
Si Si2 0.843987 0.563684 0.486507
Si Si3 0.736300 0.670194 0.678133
Si Si4 0.191494 0.769164 0.298448
Si Si5 0.158449 0.666137 0.915258
Si Si6 0.527596 0.722892 0.258579
O O1 0.430873 0.076972 0.379152
O O2 0.549320 0.000000 0.169448
O O3 0.601403 0.063666 0.816759
O O4 0.599733 0.108421 0.080443
O O5 0.809430 0.500000 0.601564
O O6 0.762186 0.611823 0.690974
O O7 0.788672 0.720264 0.633193
O O8 0.787234 0.668758 0.385154
O O9 0.619426 0.683832 0.970329
O O10 0.254217 0.821801 0.194958
O O11 0.075101 0.778085 0.567269
O O12 0.250000 0.750000 0.000000
O O13 0.077277 0.715622 0.130757
O O14 0.500000 0.708810 0.500000
#
# Coordination Sequence:
#
# PCOD9224199 Si02
#       6
#     8   8   8   8   8   8
#     4   8  14  27  49  76 103 128 157 201 254 295
#     4   8  14  27  49  76 102 128 160 202 249 292
#     4  10  20  32  51  78 100 125 168 210 241 290
#     4  11  20  33  49  70  98 138 165 197 251 297
#     4  10  20  32  51  78 101 126 165 209 244 291
#     4  11  20  33  49  70  98 135 167 199 244 300
#
# _framework density 8.2304530000000007
#
# number of rings (size 3 to 8) (size 9 to 14) (size 15 to 20)
#    0.000    2.333    3.333    4.000    0.000    4.000 
#    0.000    0.000    0.000    3.000    0.000    4.667 
#    0.000    0.000    0.000    0.000    0.000    0.000 
#
# Total GULP energy -133756.331918 kJ/mol
# GULP energy per Si atom -5573.180497 kJ/mol
# Density = 0.821172 g / cm^3
# Si number density = 8.230453 Si / 1000 Ang^3
#
#
#
# Elastic Constant Matrix: (Units=GPa)
#
#
# Indices 1 2 3 4 5 6 
#
# 1 91.9791 37.0611 26.5505 0.0000 -35.6721 0.0000
# 2 37.0611 87.1103 20.8414 0.0000 -31.5896 0.0000
# 3 26.5505 20.8414 57.2988 0.0000 -26.6550 0.0000
# 4 0.0000 0.0000 0.0000 6.1097 0.0000 -13.1504
# 5 -35.6721 -31.5896 -26.6550 0.0000 43.7643 0.0000
# 6 0.0000 0.0000 0.0000 -13.1504 0.0000 27.1767
#
#
#
# Elastic Compliance Matrix: (Units=1/GPa)
#
#
# Indices 1 2 3 4 5 6 
#
# 1 0.016554 -0.002866 -0.001833 0.000000 0.010307 0.000000
# 2 -0.002866 0.016061 -0.000290 0.000000 0.009081 0.000000
# 3 -0.001833 -0.000290 0.024579 0.000000 0.013267 0.000000
# 4 0.000000 0.000000 0.000000 -3.943695 0.000000 -1.908295
# 5 0.010307 0.009081 0.013267 0.000000 0.045886 0.000000
# 6 0.000000 0.000000 0.000000 -1.908295 0.000000 -0.886599
#
#
# Mechanical properties :
#
#
# Convention : Reuss Voigt Hill
#
# Bulk Modulus (GPa) = 21.17935 45.03270 33.10602
# Shear Modulus (GPa) = -1.06349 25.53916 12.23783
#
# Velocity S-wave (km/s) = -0.80466 3.94319 2.72958
# Velocity P-wave (km/s) = 3.46859 6.93890 5.48541
#
# Compressibility (1/GPa) = 0.04721580
#
# Stress axis : x y z
#
# Youngs Moduli (GPa) = 60.41008 62.26086 40.68577
#
# Poissons Ratio (x) = 0.17846 0.07457
# Poissons Ratio (y) = 0.17315 0.01179
# Poissons Ratio (z) = 0.11073 0.01804
#
# Static dielectric constant tensor:
#      x y z
#    x 1.589520 0.000000 0.020580 
#    y 0.000000 1.573320 0.000000 
#    z 0.020580 0.000000 1.543360 
# 
# From -- ./inp_files/64699.got.cif
#   From: 2010.05.17/outbox.ucp.g08.bks.cvg/sg12_33_cif.got.tgz:64699.got - 2010.06.11 11:47:21.
