data_PCOD9224099
_publ_section_title
;
Structure prediction by ZEFSAII (Michael W. Deem and Ramdas Pophale) SiO2 
 PCOD9224099
Probable space group: C 2/M
;
_chemical_formula_sum "Si O2"
_cell_formula_units_Z 32
_cell_length_a 18.000000
_cell_length_b 15.000000
_cell_length_c 15.000000
_cell_angle_alpha 90.000000
_cell_angle_beta 60.000000
_cell_angle_gamma 90.000000
_cell_volume 3507.402885
_symmetry_space_group_name_H-M "C 2/M"
_symmetry_group_IT_number 12
_symmetry_cell_setting 'monoclinic'
loop_
_space_group_symop_operation_xyz
x,y,z
-x,y,-z
-x,-y,-z
x,-y,z
1/2+x,1/2+y,z
1/2-x,1/2+y,-z
1/2-x,1/2-y,-z
1/2+x,1/2-y,z
loop_
_atom_site_type_symbol
_atom_site_label
_atom_site_fract_x
_atom_site_fract_y
_atom_site_fract_z
Si Si1 0.115674 0.770833 0.816421
Si Si2 0.937970 0.219288 0.459369
Si Si3 0.665293 0.678876 0.151224
Si Si4 0.314837 0.783870 0.675379
Si Si5 0.037392 0.398562 0.348014
Si Si6 0.490911 0.899503 0.169698
Si Si7 0.019940 0.104150 0.740643
Si Si8 0.642217 0.193790 0.992885
O O1 0.213181 0.793746 0.731747
O O2 0.055590 0.845694 0.807571
O O3 0.118287 0.755385 0.921953
O O4 0.081065 0.676599 0.797989
O O5 0.849611 0.236879 0.564812
O O6 0.943554 0.158972 0.367544
O O7 0.000000 0.181082 0.500000
O O8 0.975160 0.318002 0.414807
O O9 0.664127 0.725346 0.248944
O O10 0.583712 0.614065 0.198183
O O11 0.764433 0.649463 0.079471
O O12 0.649631 0.747528 0.078641
O O13 0.371091 0.872109 0.663339
O O14 0.013251 0.500000 0.386923
O O15 0.033475 0.394665 0.242716
O O16 0.458394 0.000000 0.176547
O O17 0.566106 0.875354 0.055336
O O18 0.043430 0.000000 0.723767
#
# Coordination Sequence:
#
# PCOD9224099 Si02
#       8
#     8   8   8   8   8   8   8   8
#     4  11  23  39  59  88 126 159 190 246 298 350
#     4  10  19  39  65  89 114 154 201 245 303 344
#     4  10  19  39  59  90 113 153 199 245 290 341
#     4  10  20  37  64  88 121 155 194 245 298 349
#     4  10  19  36  65  93 118 150 197 249 295 349
#     4  11  21  38  63  89 120 157 195 240 300 356
#     4  12  24  41  60  85 123 160 200 242 293 361
#     4  10  20  36  67  83 117 154 195 243 299 350
#
# _framework density 9.1235599999999994
#
# number of rings (size 3 to 8) (size 9 to 14) (size 15 to 20)
#    0.000    1.500    6.250    0.375    0.000    5.000 
#    0.000    3.750    0.000    0.000    0.000    0.000 
#    0.000    0.000    0.000    0.000    0.000    0.000 
#
# Total GULP energy -178407.389569 kJ/mol
# GULP energy per Si atom -5575.230924 kJ/mol
# Density = 0.910279 g / cm^3
# Si number density = 9.123560 Si / 1000 Ang^3
#
#
#
# Elastic Constant Matrix: (Units=GPa)
#
#
# Indices 1 2 3 4 5 6 
#
# 1 91.3148 36.4342 26.0769 0.0000 -0.9186 0.0000
# 2 36.4342 112.9328 31.5800 0.0000 0.4026 0.0000
# 3 26.0769 31.5800 102.5780 0.0000 2.0612 0.0000
# 4 0.0000 0.0000 0.0000 15.0926 0.0000 3.4485
# 5 -0.9186 0.4026 2.0612 0.0000 24.7552 0.0000
# 6 0.0000 0.0000 0.0000 3.4485 0.0000 14.9291
#
#
#
# Elastic Compliance Matrix: (Units=1/GPa)
#
#
# Indices 1 2 3 4 5 6 
#
# 1 0.013022 -0.003582 -0.002222 0.000000 0.000727 0.000000
# 2 -0.003582 0.010675 -0.002373 0.000000 -0.000109 0.000000
# 3 -0.002222 -0.002373 0.011064 0.000000 -0.000965 0.000000
# 4 0.000000 0.000000 0.000000 0.069949 0.000000 -0.016158
# 5 0.000727 -0.000109 -0.000965 0.000000 0.040505 0.000000
# 6 0.000000 0.000000 0.000000 -0.016158 0.000000 0.070715
#
#
# Mechanical properties :
#
#
# Convention : Reuss Voigt Hill
#
# Bulk Modulus (GPa) = 54.33425 55.00088 54.66756
# Shear Modulus (GPa) = 20.97128 25.13768 23.05448
#
# Velocity S-wave (km/s) = 3.39380 3.71566 3.55837
# Velocity P-wave (km/s) = 6.72300 6.97251 6.84889
#
# Compressibility (1/GPa) = 0.01840460
#
# Stress axis : x y z
#
# Youngs Moduli (GPa) = 76.79062 93.67965 90.38580
#
# Poissons Ratio (x) = 0.33560 0.20086
# Poissons Ratio (y) = 0.27510 0.21452
# Poissons Ratio (z) = 0.17064 0.22234
#
# Static dielectric constant tensor:
#      x y z
#    x 1.641070 0.000000 -0.009510 
#    y 0.000000 1.614240 0.000000 
#    z -0.009510 0.000000 1.666200 
# 
# From -- ./inp_files/225255.got.cif
#   From: 2010.05.17/outbox.ucp.g08.bks.cvg/sg12_113_cif.got.tgz:225255.got - 2010.06.11 11:47:21.
