data_PCOD9224079
_publ_section_title
;
Structure prediction by ZEFSAII (Michael W. Deem and Ramdas Pophale) SiO2 
 PCOD9224079
Probable space group: C 2/M
;
_chemical_formula_sum "Si O2"
_cell_formula_units_Z 24
_cell_length_a 27.000000
_cell_length_b 9.000000
_cell_length_c 15.000000
_cell_angle_alpha 90.000000
_cell_angle_beta 40.000000
_cell_angle_gamma 90.000000
_cell_volume 2342.960837
_symmetry_space_group_name_H-M "C 2/M"
_symmetry_group_IT_number 12
_symmetry_cell_setting 'monoclinic'
loop_
_space_group_symop_operation_xyz
x,y,z
-x,y,-z
-x,-y,-z
x,-y,z
1/2+x,1/2+y,z
1/2-x,1/2+y,-z
1/2-x,1/2-y,-z
1/2+x,1/2-y,z
loop_
_atom_site_type_symbol
_atom_site_label
_atom_site_fract_x
_atom_site_fract_y
_atom_site_fract_z
Si Si1 0.581218 0.673407 0.845519
Si Si2 0.648652 0.830651 0.909121
Si Si3 0.445127 0.819896 0.786760
Si Si4 0.113543 0.676735 0.615854
Si Si5 0.317739 0.334186 0.629033
Si Si6 0.910520 0.333944 0.645417
O O1 0.575503 0.500000 0.832361
O O2 0.637136 0.711616 0.848351
O O3 0.607457 0.761839 0.723191
O O4 0.500000 0.724657 0.000000
O O5 0.739389 0.838535 0.792563
O O6 0.622163 0.000000 0.920892
O O7 0.603389 0.784333 0.059159
O O8 0.533131 0.774049 0.680200
O O9 0.406620 0.766016 0.749259
O O10 0.446601 0.000000 0.776260
O O11 0.116140 0.500000 0.613582
O O12 0.182070 0.739553 0.461606
O O13 0.338140 0.500000 0.573374
O O14 0.376708 0.264662 0.615616
O O15 0.875348 0.500000 0.691519
O O16 0.000000 0.349825 0.500000
#
# Coordination Sequence:
#
# PCOD9224079 Si02
#       6
#     8   8   8   8   8   8
#     4  11  23  38  60  93 124 149 189 248 302 346
#     4  10  22  41  61  84 119 162 200 237 290 356
#     4   9  18  35  61  87 111 149 204 245 274 344
#     4  11  21  38  65  88 113 157 203 241 287 351
#     4  11  24  39  57  88 126 155 191 249 303 344
#     4  10  19  36  61  88 115 153 203 244 287 351
#
# _framework density 10.243449
#
# number of rings (size 3 to 8) (size 9 to 14) (size 15 to 20)
#    0.000    1.667    3.333    1.500    0.000    3.667 
#    0.000    0.833    0.000    0.000    0.000    0.000 
#    0.000    0.000    0.000    0.000    0.000    0.000 
#
# Total GULP energy -133741.871227 kJ/mol
# GULP energy per Si atom -5572.577968 kJ/mol
# Density = 1.022013 g / cm^3
# Si number density = 10.243449 Si / 1000 Ang^3
#
#
#
# Elastic Constant Matrix: (Units=GPa)
#
#
# Indices 1 2 3 4 5 6 
#
# 1 33.7889 11.9519 33.9912 0.0000 20.2611 -0.0001
# 2 11.9519 23.4409 19.7483 -0.0007 -2.0313 0.0006
# 3 33.9912 19.7483 74.5863 -0.0004 10.8468 0.0004
# 4 0.0000 -0.0007 -0.0004 19.8035 0.0001 20.0751
# 5 20.2611 -2.0313 10.8468 0.0001 28.8072 0.0000
# 6 -0.0001 0.0006 0.0004 20.0751 0.0000 7.4772
#
#
#
# Elastic Compliance Matrix: (Units=1/GPa)
#
#
# Indices 1 2 3 4 5 6 
#
# 1 0.128212 -0.042248 -0.035649 0.000005 -0.079732 -0.000006
# 2 -0.042248 0.071627 -0.005043 -0.000005 0.036664 0.000007
# 3 -0.035649 -0.005043 0.028981 -0.000001 0.013805 0.000001
# 4 0.000005 -0.000005 -0.000001 -0.029330 -0.000003 0.078747
# 5 -0.079732 0.036664 0.013805 -0.000003 0.088179 0.000004
# 6 -0.000006 0.000007 0.000001 0.078747 0.000004 -0.077682
#
#
# Mechanical properties :
#
#
# Convention : Reuss Voigt Hill
#
# Bulk Modulus (GPa) = 15.88794 29.24431 22.56613
# Shear Modulus (GPa) = 12.59929 15.62592 14.11261
#
# Velocity S-wave (km/s) = 2.48260 2.76475 2.62746
# Velocity P-wave (km/s) = 3.99871 4.94949 4.49928
#
# Compressibility (1/GPa) = 0.06294081
#
# Stress axis : x y z
#
# Youngs Moduli (GPa) = 7.79958 13.96116 34.50512
#
# Poissons Ratio (x) = 0.58983 1.23007
# Poissons Ratio (y) = 0.32951 0.17402
# Poissons Ratio (z) = 0.27805 0.07041
#
# Static dielectric constant tensor:
#      x y z
#    x 1.744910 0.000000 0.045250 
#    y 0.000000 1.741570 0.000000 
#    z 0.045250 0.000000 1.436750 
# 
# From -- ./inp_files/229881.got.cif
#   From: 2010.05.17/outbox.ucp.g08.bks.cvg/sg12_115_cif.got.tgz:229881.got - 2010.06.11 11:47:21.
