data_PCOD9224246
_publ_section_title
;
Structure prediction by ZEFSAII (Michael W. Deem and Ramdas Pophale) SiO2 
 PCOD9224246
Probable space group: C 2/M
;
_chemical_formula_sum "Si O2"
_cell_formula_units_Z 28
_cell_length_a 24.000000
_cell_length_b 9.000000
_cell_length_c 15.000000
_cell_angle_alpha 90.000000
_cell_angle_beta 120.000000
_cell_angle_gamma 90.000000
_cell_volume 2805.922308
_symmetry_space_group_name_H-M "C 2/M"
_symmetry_group_IT_number 12
_symmetry_cell_setting 'monoclinic'
loop_
_space_group_symop_operation_xyz
x,y,z
-x,y,-z
-x,-y,-z
x,-y,z
1/2+x,1/2+y,z
1/2-x,1/2+y,-z
1/2-x,1/2-y,-z
1/2+x,1/2-y,z
loop_
_atom_site_type_symbol
_atom_site_label
_atom_site_fract_x
_atom_site_fract_y
_atom_site_fract_z
Si Si1 0.175026 0.173919 0.795450
Si Si2 0.321071 0.321273 0.703792
Si Si3 0.319296 0.827860 0.892730
Si Si4 0.680997 0.178625 0.608693
Si Si5 0.954865 0.175758 0.728180
Si Si6 0.958700 0.321139 0.551907
Si Si7 0.909242 0.175096 0.099966
O O1 0.249605 0.192231 0.883772
O O2 0.172108 0.269268 0.703358
O O3 0.123959 0.210078 0.830975
O O4 0.165848 0.000000 0.764663
O O5 0.322137 0.500000 0.698127
O O6 0.324309 0.272501 0.809080
O O7 0.248648 0.268288 0.620686
O O8 0.385259 0.266990 0.704995
O O9 0.323412 0.000000 0.869321
O O10 0.374716 0.779419 0.002646
O O11 0.615523 0.229565 0.510954
O O12 0.682337 0.000000 0.608078
O O13 0.981587 0.256828 0.662639
O O14 0.013973 0.192643 0.843360
O O15 0.948892 0.000000 0.704696
O O16 0.960632 0.500000 0.553831
O O17 0.000000 0.270317 0.500000
O O18 0.894603 0.000000 0.071914
#
# Coordination Sequence:
#
# PCOD9224246 Si02
#       7
#     8   8   8   8   8   8   8
#     4   9  18  32  51  77 105 131 166 211 254 300
#     4   9  19  37  55  73 101 135 172 210 249 296
#     4  10  20  33  52  78 103 131 170 211 253 302
#     4   9  18  33  54  76 101 136 170 204 252 304
#     4  10  22  37  54  76 101 134 175 212 246 295
#     4  10  21  36  54  79 108 134 163 204 256 307
#     4  10  20  34  51  73 103 137 170 208 256 301
#
# _framework density 9.9788940000000004
#
# number of rings (size 3 to 8) (size 9 to 14) (size 15 to 20)
#    0.000    2.429    0.000    1.714    0.000    4.286 
#    0.000    2.857    0.000    0.000    0.000    0.000 
#    0.000    0.000    0.000    0.000    0.000    0.000 
#
# Total GULP energy -156005.297276 kJ/mol
# GULP energy per Si atom -5571.617760 kJ/mol
# Density = 0.995618 g / cm^3
# Si number density = 9.978894 Si / 1000 Ang^3
#
#
#
# Elastic Constant Matrix: (Units=GPa)
#
#
# Indices 1 2 3 4 5 6 
#
# 1 115.0212 11.2458 16.4742 0.0000 9.1903 0.0000
# 2 11.2458 -21.8500 8.4733 0.0000 12.8843 0.0000
# 3 16.4742 8.4733 30.6452 0.0000 10.6711 0.0000
# 4 0.0000 0.0000 0.0000 17.5018 0.0000 -4.6318
# 5 9.1903 12.8843 10.6711 0.0000 20.1983 0.0000
# 6 0.0000 0.0000 0.0000 -4.6318 0.0000 19.2988
#
#
#
# Elastic Compliance Matrix: (Units=1/GPa)
#
#
# Indices 1 2 3 4 5 6 
#
# 1 0.009421 0.001439 -0.004473 0.000000 -0.002841 0.000000
# 2 0.001439 -0.032915 0.001525 0.000000 0.019536 0.000000
# 3 -0.004473 0.001525 0.041965 0.000000 -0.021108 0.000000
# 4 0.000000 0.000000 0.000000 0.061012 0.000000 0.014643
# 5 -0.002841 0.019536 -0.021108 0.000000 0.049492 0.000000
# 6 0.000000 0.000000 0.000000 0.014643 0.000000 0.055331
#
#
# Mechanical properties :
#
#
# Convention : Reuss Voigt Hill
#
# Bulk Modulus (GPa) = 64.71764 21.80034 43.25899
# Shear Modulus (GPa) = 25.97740 17.24132 21.60936
#
# Velocity S-wave (km/s) = 3.61171 2.94239 3.29409
# Velocity P-wave (km/s) = 7.06330 4.74241 6.01584
#
# Compressibility (1/GPa) = 0.01545174
#
# Stress axis : x y z
#
# Youngs Moduli (GPa) = 106.14525 -30.38127 23.82966
#
# Poissons Ratio (x) = 0.04371 0.10659
# Poissons Ratio (y) = -0.15272 -0.03634
# Poissons Ratio (z) = 0.47479 0.04633
#
# Static dielectric constant tensor:
#      x y z
#    x 1.708060 0.000000 0.050160 
#    y 0.000000 1.663720 0.000000 
#    z 0.050160 0.000000 1.749330 
# 
# From -- ./inp_files/238969.got.cif
#   From: 2010.05.17/outbox.ucp.g08.bks.cvg/sg12_120_cif.got.tgz:238969.got - 2010.06.11 11:47:21.
