data_PCOD9224972
_publ_section_title
;
Structure prediction by ZEFSAII (Michael W. Deem and Ramdas Pophale) SiO2 
 PCOD9224972
Probable space group: C 2/M
;
_chemical_formula_sum "Si O2"
_cell_formula_units_Z 24
_cell_length_a 27.000000
_cell_length_b 9.000000
_cell_length_c 12.000000
_cell_angle_alpha 90.000000
_cell_angle_beta 60.000000
_cell_angle_gamma 90.000000
_cell_volume 2525.330077
_symmetry_space_group_name_H-M "C 2/M"
_symmetry_group_IT_number 12
_symmetry_cell_setting 'monoclinic'
loop_
_space_group_symop_operation_xyz
x,y,z
-x,y,-z
-x,-y,-z
x,-y,z
1/2+x,1/2+y,z
1/2-x,1/2+y,-z
1/2-x,1/2-y,-z
1/2+x,1/2-y,z
loop_
_atom_site_type_symbol
_atom_site_label
_atom_site_fract_x
_atom_site_fract_y
_atom_site_fract_z
Si Si1 0.202859 0.821959 0.830818
Si Si2 0.634025 0.321903 0.679688
Si Si3 0.325173 0.820733 0.589155
Si Si4 0.068081 0.175766 0.407711
Si Si5 0.603046 0.324125 0.110022
Si Si6 0.989127 0.671964 0.144441
O O1 0.164434 0.791644 0.764323
O O2 0.268332 0.771546 0.725285
O O3 0.208281 0.000000 0.838041
O O4 0.162841 0.772069 0.982305
O O5 0.631686 0.500000 0.666768
O O6 0.671380 0.248866 0.538766
O O7 0.569228 0.257572 0.756861
O O8 0.385827 0.767430 0.572651
O O9 0.323279 0.000000 0.584523
O O10 0.093515 0.190410 0.253655
O O11 0.000000 0.218033 0.500000
O O12 0.070613 0.000000 0.435335
O O13 0.598620 0.500000 0.088481
O O14 0.547118 0.241952 0.126841
O O15 0.983057 0.500000 0.186136
O O16 0.000000 0.676897 0.000000
#
# Coordination Sequence:
#
# PCOD9224972 Si02
#       6
#     8   8   8   8   8   8
#     4   9  20  37  58  86 117 155 196 240 291 348
#     4  11  21  37  61  85 116 157 202 239 285 350
#     4  11  23  39  59  85 119 153 194 245 299 347
#     4  10  22  40  61  86 114 149 198 246 288 346
#     4  10  20  38  62  85 117 159 201 239 282 346
#     4  11  22  35  55  89 125 151 186 239 294 341
#
# _framework density 9.5037079999999996
#
# number of rings (size 3 to 8) (size 9 to 14) (size 15 to 20)
#    0.000    1.667    1.667    3.000    0.000    3.667 
#    0.000    4.167    0.000    0.000    0.000    0.000 
#    0.000    0.000    0.000    0.000    0.000    0.000 
#
# Total GULP energy -133833.101102 kJ/mol
# GULP energy per Si atom -5576.379213 kJ/mol
# Density = 0.948208 g / cm^3
# Si number density = 9.503708 Si / 1000 Ang^3
#
#
#
# Elastic Constant Matrix: (Units=GPa)
#
#
# Indices 1 2 3 4 5 6 
#
# 1 74.6548 25.3264 38.7818 0.0000 -30.1933 0.0000
# 2 25.3264 60.4425 34.8863 0.0000 0.0988 0.0000
# 3 38.7818 34.8863 142.7191 0.0000 -38.1500 0.0000
# 4 0.0000 0.0000 0.0000 29.9930 0.0000 -4.4435
# 5 -30.1933 0.0988 -38.1500 0.0000 44.6054 0.0000
# 6 0.0000 0.0000 0.0000 -4.4435 0.0000 25.1655
#
#
#
# Elastic Compliance Matrix: (Units=1/GPa)
#
#
# Indices 1 2 3 4 5 6 
#
# 1 0.022981 -0.009911 0.000443 0.000000 0.015957 0.000000
# 2 -0.009911 0.024545 -0.006630 0.000000 -0.012434 0.000000
# 3 0.000443 -0.006630 0.011137 0.000000 0.009840 0.000000
# 4 0.000000 0.000000 0.000000 0.034237 0.000000 0.006045
# 5 0.015957 -0.012434 0.009840 0.000000 0.041664 0.000000
# 6 0.000000 0.000000 0.000000 0.006045 0.000000 0.040804
#
#
# Mechanical properties :
#
#
# Convention : Reuss Voigt Hill
#
# Bulk Modulus (GPa) = 37.78335 52.86727 45.32531
# Shear Modulus (GPa) = 23.10687 31.87423 27.49055
#
# Velocity S-wave (km/s) = 3.49044 4.09948 3.80716
# Velocity P-wave (km/s) = 6.01378 7.09099 6.57448
#
# Compressibility (1/GPa) = 0.02646669
#
# Stress axis : x y z
#
# Youngs Moduli (GPa) = 43.51510 40.74176 89.78759
#
# Poissons Ratio (x) = 0.40380 -0.03982
# Poissons Ratio (y) = 0.43129 0.59531
# Poissons Ratio (z) = -0.01930 0.27013
#
# Static dielectric constant tensor:
#      x y z
#    x 1.677780 0.000000 0.037000 
#    y 0.000000 1.649860 0.000000 
#    z 0.037000 0.000000 1.699930 
# 
# From -- ./inp_files/179717.got.cif
#   From: 2010.05.17/outbox.ucp.g08.bks.cvg/sg12_90_cif.got.tgz:179717.got - 2010.06.11 11:47:21.
