data_PCOD9224778
_publ_section_title
;
Structure prediction by ZEFSAII (Michael W. Deem and Ramdas Pophale) SiO2 
 PCOD9224778
Probable space group: C 2/M
;
_chemical_formula_sum "Si O2"
_cell_formula_units_Z 24
_cell_length_a 15.000000
_cell_length_b 9.000000
_cell_length_c 27.000000
_cell_angle_alpha 90.000000
_cell_angle_beta 140.000000
_cell_angle_gamma 90.000000
_cell_volume 2342.960837
_symmetry_space_group_name_H-M "C 2/M"
_symmetry_group_IT_number 12
_symmetry_cell_setting 'monoclinic'
loop_
_space_group_symop_operation_xyz
x,y,z
-x,y,-z
-x,-y,-z
x,-y,z
1/2+x,1/2+y,z
1/2-x,1/2+y,-z
1/2-x,1/2-y,-z
1/2+x,1/2-y,z
loop_
_atom_site_type_symbol
_atom_site_label
_atom_site_fract_x
_atom_site_fract_y
_atom_site_fract_z
Si Si1 0.353552 0.829415 0.302626
Si Si2 0.818775 0.330490 0.575642
Si Si3 0.055407 0.321465 0.948530
Si Si4 0.349949 0.821334 0.414603
Si Si5 0.164097 0.324181 0.891780
Si Si6 0.250968 0.325005 0.164356
O O1 0.517436 0.830086 0.362086
O O2 0.333933 0.781618 0.350648
O O3 0.286522 0.721687 0.234684
O O4 0.303176 0.000000 0.274893
O O5 0.770190 0.500000 0.556682
O O6 0.750000 0.250000 0.500000
O O7 0.769919 0.247564 0.603664
O O8 0.074346 0.500000 0.962689
O O9 0.056396 0.289656 0.889839
O O10 0.909960 0.279231 0.910850
O O11 0.188494 0.238847 0.026481
O O12 0.500000 0.773785 0.500000
O O13 0.346507 0.000000 0.416791
O O14 0.170958 0.500000 0.889538
O O15 0.146920 0.252217 0.831011
O O16 0.258408 0.500000 0.160470
#
# Coordination Sequence:
#
# PCOD9224778 Si02
#       6
#     8   8   8   8   8   8
#     4  10  23  41  58  81 117 155 189 235 292 346
#     4  11  22  38  61  87 114 147 189 237 289 345
#     4   9  20  38  58  83 116 152 190 235 283 334
#     4  10  20  39  62  85 115 148 186 236 292 344
#     4  10  20  36  60  87 115 150 192 235 283 339
#     4  11  23  38  57  82 117 154 192 237 284 339
#
# _framework density 10.243449
#
# number of rings (size 3 to 8) (size 9 to 14) (size 15 to 20)
#    0.000    1.833    1.667    2.000    0.000    7.667 
#    0.000    5.000    0.000    0.000    0.000    0.000 
#    0.000    0.000    0.000    0.000    0.000    0.000 
#
# Total GULP energy -134025.323512 kJ/mol
# GULP energy per Si atom -5584.388480 kJ/mol
# Density = 1.022013 g / cm^3
# Si number density = 10.243449 Si / 1000 Ang^3
#
#
#
# Elastic Constant Matrix: (Units=GPa)
#
#
# Indices 1 2 3 4 5 6 
#
# 1 132.3760 33.0905 19.1916 0.0000 -38.9038 0.0000
# 2 33.0905 -5.0316 14.1777 0.0000 -13.8103 0.0000
# 3 19.1916 14.1777 29.7605 0.0000 -14.3079 0.0000
# 4 0.0000 0.0000 0.0000 22.5525 0.0000 1.9552
# 5 -38.9038 -13.8103 -14.3079 0.0000 23.4990 0.0000
# 6 0.0000 0.0000 0.0000 1.9552 0.0000 17.1576
#
#
#
# Elastic Compliance Matrix: (Units=1/GPa)
#
#
# Indices 1 2 3 4 5 6 
#
# 1 0.013171 0.010247 0.000005 0.000000 0.027831 0.000000
# 2 0.010247 -0.059921 0.018612 0.000000 -0.006919 0.000000
# 3 0.000005 0.018612 0.042408 0.000000 0.036767 0.000000
# 4 0.000000 0.000000 0.000000 0.044783 0.000000 -0.005103
# 5 0.027831 -0.006919 0.036767 0.000000 0.106950 0.000000
# 6 0.000000 0.000000 0.000000 -0.005103 0.000000 0.058865
#
#
# Mechanical properties :
#
#
# Convention : Reuss Voigt Hill
#
# Bulk Modulus (GPa) = 18.73182 32.22495 25.47839
# Shear Modulus (GPa) = 30.06162 18.68483 24.37323
#
# Velocity S-wave (km/s) = 3.83477 3.02327 3.45294
# Velocity P-wave (km/s) = 5.36381 5.28683 5.32546
#
# Compressibility (1/GPa) = 0.05338509
#
# Stress axis : x y z
#
# Youngs Moduli (GPa) = 75.92327 -16.68866 23.58027
#
# Poissons Ratio (x) = 0.17101 -0.00011
# Poissons Ratio (y) = -0.77798 -0.43887
# Poissons Ratio (z) = -0.00036 0.31060
#
# Static dielectric constant tensor:
#      x y z
#    x 1.723670 0.000000 -0.037260 
#    y 0.000000 1.698440 0.000000 
#    z -0.037260 0.000000 1.745540 
# 
# From -- ./inp_files/360240.got.cif
#   From: 2010.05.17/outbox.ucp.g08.bks.cvg/sg12_181_cif.got.tgz:360240.got - 2010.06.11 11:47:21.
