data_PCOD9224430
_publ_section_title
;
Structure prediction by ZEFSAII (Michael W. Deem and Ramdas Pophale) SiO2 
 PCOD9224430
Probable space group: C 2/M
;
_chemical_formula_sum "Si O2"
_cell_formula_units_Z 32
_cell_length_a 30.000000
_cell_length_b 9.000000
_cell_length_c 24.000000
_cell_angle_alpha 90.000000
_cell_angle_beta 30.000000
_cell_angle_gamma 90.000000
_cell_volume 3240.000000
_symmetry_space_group_name_H-M "C 2/M"
_symmetry_group_IT_number 12
_symmetry_cell_setting 'monoclinic'
loop_
_space_group_symop_operation_xyz
x,y,z
-x,y,-z
-x,-y,-z
x,-y,z
1/2+x,1/2+y,z
1/2-x,1/2+y,-z
1/2-x,1/2-y,-z
1/2+x,1/2-y,z
loop_
_atom_site_type_symbol
_atom_site_label
_atom_site_fract_x
_atom_site_fract_y
_atom_site_fract_z
Si Si1 0.844022 0.832517 0.275216
Si Si2 0.535065 0.818547 0.215836
Si Si3 0.327889 0.822214 0.613819
Si Si4 0.156918 0.675523 0.981415
Si Si5 0.000656 0.333551 0.933483
Si Si6 0.320665 0.821338 0.746933
Si Si7 0.988353 0.319893 0.635665
Si Si8 0.341361 0.829188 0.387435
O O1 0.760757 0.805753 0.325770
O O2 0.936509 0.806755 0.144924
O O3 0.848151 0.702560 0.315359
O O4 0.836799 0.000000 0.306281
O O5 0.604192 0.769121 0.093564
O O6 0.549710 0.770624 0.263419
O O7 0.433767 0.770073 0.312324
O O8 0.535577 0.000000 0.212162
O O9 0.313538 0.763338 0.691533
O O10 0.413896 0.764105 0.487360
O O11 0.343079 0.000000 0.603698
O O12 0.174076 0.500000 0.970174
O O13 0.090867 0.692731 0.000186
O O14 0.247192 0.756970 0.867855
O O15 0.029672 0.500000 0.881942
O O16 0.000000 0.345546 0.000000
O O17 0.418492 0.784770 0.663453
O O18 0.310963 0.000000 0.757234
O O19 0.994242 0.500000 0.633679
O O20 0.250000 0.750000 0.500000
O O21 0.335000 0.000000 0.410429
#
# Coordination Sequence:
#
# PCOD9224430 Si02
#       8
#     8   8   8   8   8   8   8   8
#     4  11  21  33  53  81 111 144 181 221 273 325
#     4   9  18  34  55  77 107 144 181 220 270 334
#     4   9  18  33  53  81 114 141 175 225 281 334
#     4  10  20  36  54  75 108 149 182 218 273 333
#     4  10  20  35  54  76 106 147 189 224 267 329
#     4  10  20  34  56  84 107 135 182 236 276 316
#     4   9  17  32  56  81 104 138 182 226 276 331
#     4  11  21  36  56  80 112 146 185 226 270 328
#
# _framework density 9.8765429999999999
#
# number of rings (size 3 to 8) (size 9 to 14) (size 15 to 20)
#    0.000    2.125    1.250    2.625    0.000    4.750 
#    0.000    0.625    0.000    6.000    0.000    0.000 
#    0.000    0.000    0.000    0.000    0.000    0.000 
#
# Total GULP energy -178177.525992 kJ/mol
# GULP energy per Si atom -5568.047687 kJ/mol
# Density = 0.985406 g / cm^3
# Si number density = 9.876543 Si / 1000 Ang^3
#
#
#
# Elastic Constant Matrix: (Units=GPa)
#
#
# Indices 1 2 3 4 5 6 
#
# 1 13.2395 4.2674 -1.1677 0.0025 3.0079 -0.0026
# 2 4.2674 -4.6749 -7.1175 -0.0066 -13.6137 0.0005
# 3 -1.1677 -7.1175 3.1245 -0.0005 -13.9947 -0.0011
# 4 0.0025 -0.0066 -0.0005 29.1429 0.0001 -2.2352
# 5 3.0079 -13.6137 -13.9947 0.0001 19.0285 0.0014
# 6 -0.0026 0.0005 -0.0011 -2.2352 0.0014 7.5042
#
#
#
# Elastic Compliance Matrix: (Units=1/GPa)
#
#
# Indices 1 2 3 4 5 6 
#
# 1 0.081065 -0.011992 0.040470 -0.000007 0.008370 0.000031
# 2 -0.011992 0.039479 -0.096093 0.000008 -0.040532 -0.000011
# 3 0.040470 -0.096093 0.096027 -0.000021 -0.004521 0.000029
# 4 -0.000007 0.000008 -0.000021 0.035116 -0.000010 0.010460
# 5 0.008370 -0.040532 -0.004521 -0.000010 0.018906 -0.000001
# 6 0.000031 -0.000011 0.000029 0.010460 -0.000001 0.136375
#
#
# Mechanical properties :
#
#
# Convention : Reuss Voigt Hill
#
# Bulk Modulus (GPa) = 12.29380 0.40595 6.34988
# Shear Modulus (GPa) = 8.78254 12.18225 10.48239
#
# Velocity S-wave (km/s) = 2.11088 2.48609 2.30613
# Velocity P-wave (km/s) = 3.48975 2.90634 3.21132
#
# Compressibility (1/GPa) = 0.08134182
#
# Stress axis : x y z
#
# Youngs Moduli (GPa) = 12.33583 25.32975 10.41370
#
# Poissons Ratio (x) = 0.30375 -0.42144
# Poissons Ratio (y) = 0.14793 1.00068
# Poissons Ratio (z) = -0.49923 2.43401
#
# Static dielectric constant tensor:
#      x y z
#    x 1.712270 0.000000 0.036060 
#    y 0.000000 1.744810 0.000010 
#    z 0.036060 0.000010 1.794430 
# 
# From -- ./inp_files/353409.got.cif
#   From: 2010.05.17/outbox.ucp.g08.bks.cvg/sg12_177_cif.got.tgz:353409.got - 2010.06.11 11:47:21.
