data_PCOD9224455
_publ_section_title
;
Structure prediction by ZEFSAII (Michael W. Deem and Ramdas Pophale) SiO2 
 PCOD9224455
Probable space group: C 2/M
;
_chemical_formula_sum "Si O2"
_cell_formula_units_Z 32
_cell_length_a 24.000000
_cell_length_b 18.000000
_cell_length_c 21.000000
_cell_angle_alpha 90.000000
_cell_angle_beta 20.000000
_cell_angle_gamma 90.000000
_cell_volume 3102.806740
_symmetry_space_group_name_H-M "C 2/M"
_symmetry_group_IT_number 12
_symmetry_cell_setting 'monoclinic'
loop_
_space_group_symop_operation_xyz
x,y,z
-x,y,-z
-x,-y,-z
x,-y,z
1/2+x,1/2+y,z
1/2-x,1/2+y,-z
1/2-x,1/2-y,-z
1/2+x,1/2-y,z
loop_
_atom_site_type_symbol
_atom_site_label
_atom_site_fract_x
_atom_site_fract_y
_atom_site_fract_z
Si Si1 0.831558 0.918793 0.940893
Si Si2 0.742138 0.691341 0.790927
Si Si3 0.408990 0.809929 0.750299
Si Si4 0.179582 0.359212 0.875581
Si Si5 0.469174 0.359388 0.670338
Si Si6 0.146538 0.416563 0.438242
Si Si7 0.171445 0.414762 0.747674
Si Si8 0.009810 0.921133 0.093439
O O1 0.923648 0.913763 0.776210
O O2 0.946823 0.913819 0.879075
O O3 0.748108 0.000000 0.035825
O O4 0.719438 0.845869 0.064058
O O5 0.832337 0.689689 0.761784
O O6 0.707728 0.777276 0.814665
O O7 0.835358 0.641266 0.639621
O O8 0.578431 0.647412 0.981342
O O9 0.462497 0.725892 0.702007
O O10 0.543859 0.873108 0.600747
O O11 0.328698 0.368464 0.765890
O O12 0.179378 0.414497 0.816284
O O13 0.991689 0.370488 0.100959
O O14 0.655316 0.377279 0.453718
O O15 0.085631 0.500000 0.487067
O O16 0.322894 0.424839 0.279054
O O17 0.162927 0.500000 0.733964
O O18 0.087721 0.000000 0.987649
#
# Coordination Sequence:
#
# PCOD9224455 Si02
#       8
#     8   8   8   8   8   8   8   8
#     4  10  21  41  62  81 115 161 204 249 300 353
#     4  10  20  34  58  84 118 159 197 241 297 360
#     4  10  22  38  57  85 122 154 199 253 300 351
#     4  10  23  40  62  94 126 153 195 251 307 361
#     4  11  23  42  66  90 118 162 206 245 302 363
#     4  11  21  33  55  89 122 160 202 243 298 362
#     4  11  24  40  62  93 124 155 194 250 311 364
#     4   9  20  35  53  82 119 156 197 245 292 344
#
# _framework density 10.313243
#
# number of rings (size 3 to 8) (size 9 to 14) (size 15 to 20)
#    0.000    1.750    0.000    4.125    5.250    7.500 
#    2.250    0.625    0.000    0.000    0.000    0.000 
#    0.000    0.000    0.000    0.000    0.000    0.000 
#
# Total GULP energy -178256.301292 kJ/mol
# GULP energy per Si atom -5570.509415 kJ/mol
# Density = 1.028977 g / cm^3
# Si number density = 10.313243 Si / 1000 Ang^3
#
#
#
# Elastic Constant Matrix: (Units=GPa)
#
#
# Indices 1 2 3 4 5 6 
#
# 1 16.0363 15.3364 18.0026 0.0156 7.4582 0.0165
# 2 15.3364 131.5247 39.0301 -0.0199 -1.1523 -0.0133
# 3 18.0026 39.0301 109.2571 -0.0026 -5.5802 -0.0199
# 4 0.0156 -0.0199 -0.0026 30.1972 -0.0062 0.8806
# 5 7.4582 -1.1523 -5.5802 -0.0062 22.1702 0.0067
# 6 0.0165 -0.0133 -0.0199 0.8806 0.0067 12.0821
#
#
#
# Elastic Compliance Matrix: (Units=1/GPa)
#
#
# Indices 1 2 3 4 5 6 
#
# 1 0.108270 -0.007906 -0.017117 -0.000067 -0.041142 -0.000157
# 2 -0.007906 0.009084 -0.001806 0.000010 0.002677 0.000016
# 3 -0.017117 -0.001806 0.013076 0.000010 0.008956 0.000037
# 4 -0.000067 0.000010 0.000010 0.033186 0.000035 -0.002419
# 5 -0.041142 0.002677 0.008956 0.000035 0.061340 0.000037
# 6 -0.000157 0.000016 0.000037 -0.002419 0.000037 0.082943
#
#
# Mechanical properties :
#
#
# Convention : Reuss Voigt Hill
#
# Bulk Modulus (GPa) = 13.02543 44.61737 28.82140
# Shear Modulus (GPa) = 12.91496 25.18650 19.05073
#
# Velocity S-wave (km/s) = 2.50498 3.49818 3.04238
# Velocity P-wave (km/s) = 3.83343 6.16396 5.13272
#
# Compressibility (1/GPa) = 0.07677289
#
# Stress axis : x y z
#
# Youngs Moduli (GPa) = 9.23614 110.07984 76.47802
#
# Poissons Ratio (x) = 0.87026 1.30908
# Poissons Ratio (y) = 0.07302 0.13811
# Poissons Ratio (z) = 0.15810 0.19878
#
# Static dielectric constant tensor:
#      x y z
#    x 1.701510 0.000000 0.012380 
#    y 0.000000 1.799600 0.000000 
#    z 0.012380 0.000000 1.874010 
# 
# From -- ./inp_files/326074.got.cif
#   From: 2010.05.17/outbox.ucp.g08.bks.cvg/sg12_164_cif.got.tgz:326074.got - 2010.06.11 11:47:21.
