data_PCOD9224503
_publ_section_title
;
Structure prediction by ZEFSAII (Michael W. Deem and Ramdas Pophale) SiO2 
 PCOD9224503
Probable space group: C 2/M
;
_chemical_formula_sum "Si O2"
_cell_formula_units_Z 28
_cell_length_a 24.000000
_cell_length_b 9.000000
_cell_length_c 15.000000
_cell_angle_alpha 90.000000
_cell_angle_beta 60.000000
_cell_angle_gamma 90.000000
_cell_volume 2805.922308
_symmetry_space_group_name_H-M "C 2/M"
_symmetry_group_IT_number 12
_symmetry_cell_setting 'monoclinic'
loop_
_space_group_symop_operation_xyz
x,y,z
-x,y,-z
-x,-y,-z
x,-y,z
1/2+x,1/2+y,z
1/2-x,1/2+y,-z
1/2-x,1/2-y,-z
1/2+x,1/2-y,z
loop_
_atom_site_type_symbol
_atom_site_label
_atom_site_fract_x
_atom_site_fract_y
_atom_site_fract_z
Si Si1 0.465891 0.676684 0.171104
Si Si2 0.038554 0.325010 0.641093
Si Si3 0.880104 0.823872 0.962676
Si Si4 0.620074 0.665384 0.429948
Si Si5 0.261240 0.167718 0.397872
Si Si6 0.353359 0.822256 0.162893
Si Si7 0.598883 0.676540 0.247313
O O1 0.456573 0.500000 0.170403
O O2 0.440648 0.733867 0.287524
O O3 0.542262 0.706228 0.099476
O O4 0.423835 0.763512 0.133284
O O5 0.045441 0.500000 0.650549
O O6 0.076101 0.275048 0.522574
O O7 0.964525 0.276227 0.693428
O O8 0.862697 0.786817 0.873717
O O9 0.871966 0.000000 0.983502
O O10 0.843628 0.739868 0.070909
O O11 0.589848 0.500000 0.460897
O O12 0.689957 0.660810 0.415879
O O13 0.631028 0.696013 0.317044
O O14 0.250000 0.250000 0.500000
O O15 0.306482 0.229055 0.281658
O O16 0.285150 0.000000 0.398140
O O17 0.350015 0.000000 0.163271
O O18 0.580735 0.500000 0.252229
#
# Coordination Sequence:
#
# PCOD9224503 Si02
#       7
#     8   8   8   8   8   8   8
#     4  10  20  35  55  79 108 144 184 219 257 316
#     4  11  21  32  51  83 117 141 169 218 276 324
#     4   9  19  35  54  78 106 138 178 220 261 315
#     4  10  20  37  58  76 102 145 188 221 259 312
#     4  10  23  40  57  79 106 138 177 220 264 313
#     4  11  22  35  53  80 111 140 174 221 275 319
#     4   9  19  36  57  79 105 141 184 221 256 312
#
# _framework density 9.9788940000000004
#
# number of rings (size 3 to 8) (size 9 to 14) (size 15 to 20)
#    0.000    2.000    0.000    4.714    0.000   10.857 
#    0.000    0.714    0.000    0.000    0.000    0.000 
#    0.000    0.000    0.000    0.000    0.000    0.000 
#
# Total GULP energy -156163.170251 kJ/mol
# GULP energy per Si atom -5577.256080 kJ/mol
# Density = 0.995618 g / cm^3
# Si number density = 9.978894 Si / 1000 Ang^3
#
#
#
# Elastic Constant Matrix: (Units=GPa)
#
#
# Indices 1 2 3 4 5 6 
#
# 1 36.5671 15.6091 28.5456 0.0000 23.6391 0.0000
# 2 15.6091 52.9161 57.2949 0.0000 6.4186 0.0000
# 3 28.5456 57.2949 179.8880 0.0000 27.2560 0.0000
# 4 0.0000 0.0000 0.0000 36.9822 0.0000 3.4477
# 5 23.6391 6.4186 27.2560 0.0000 27.7378 0.0000
# 6 0.0000 0.0000 0.0000 3.4477 0.0000 6.1216
#
#
#
# Elastic Compliance Matrix: (Units=1/GPa)
#
#
# Indices 1 2 3 4 5 6 
#
# 1 0.070404 -0.017102 0.003250 0.000000 -0.059237 0.000000
# 2 -0.017102 0.033181 -0.010456 0.000000 0.017171 0.000000
# 3 0.003250 -0.010456 0.009901 0.000000 -0.010079 0.000000
# 4 0.000000 0.000000 0.000000 0.028538 0.000000 -0.016073
# 5 -0.059237 0.017171 -0.010079 0.000000 0.092467 0.000000
# 6 0.000000 0.000000 0.000000 -0.016073 0.000000 0.172409
#
#
# Mechanical properties :
#
#
# Convention : Reuss Voigt Hill
#
# Bulk Modulus (GPa) = 15.41521 52.47449 33.94485
# Shear Modulus (GPa) = 10.47913 25.36308 17.92110
#
# Velocity S-wave (km/s) = 2.29391 3.56875 2.99983
# Velocity P-wave (km/s) = 3.84145 6.58264 5.38924
#
# Compressibility (1/GPa) = 0.06487100
#
# Stress axis : x y z
#
# Youngs Moduli (GPa) = 14.20365 30.13763 101.00264
#
# Poissons Ratio (x) = 0.51540 -0.32828
# Poissons Ratio (y) = 0.24291 1.05610
# Poissons Ratio (z) = -0.04617 0.31512
#
# Static dielectric constant tensor:
#      x y z
#    x 1.756110 0.000000 0.054090 
#    y 0.000000 1.724850 0.000000 
#    z 0.054090 0.000000 1.717910 
# 
# From -- ./inp_files/238274.got.cif
#   From: 2010.05.17/outbox.ucp.g08.bks.cvg/sg12_120_cif.got.tgz:238274.got - 2010.06.11 11:47:21.
