data_PCOD9224700
_publ_section_title
;
Structure prediction by ZEFSAII (Michael W. Deem and Ramdas Pophale) SiO2 
 PCOD9224700
Probable space group: C 2/M
;
_chemical_formula_sum "Si O2"
_cell_formula_units_Z 32
_cell_length_a 30.000000
_cell_length_b 9.000000
_cell_length_c 15.000000
_cell_angle_alpha 90.000000
_cell_angle_beta 60.000000
_cell_angle_gamma 90.000000
_cell_volume 3507.402885
_symmetry_space_group_name_H-M "C 2/M"
_symmetry_group_IT_number 12
_symmetry_cell_setting 'monoclinic'
loop_
_space_group_symop_operation_xyz
x,y,z
-x,y,-z
-x,-y,-z
x,-y,z
1/2+x,1/2+y,z
1/2-x,1/2+y,-z
1/2-x,1/2-y,-z
1/2+x,1/2-y,z
loop_
_atom_site_type_symbol
_atom_site_label
_atom_site_fract_x
_atom_site_fract_y
_atom_site_fract_z
Si Si1 0.364526 0.173093 0.988724
Si Si2 0.139590 0.178454 0.511750
Si Si3 0.862576 0.820841 0.287626
Si Si4 0.939258 0.820727 0.568341
Si Si5 0.138776 0.326200 0.214340
Si Si6 0.747289 0.679184 0.153368
Si Si7 0.747224 0.179587 0.348450
Si Si8 0.560466 0.319971 0.945146
O O1 0.377609 0.182115 0.871861
O O2 0.366326 0.000000 0.015481
O O3 0.304052 0.219599 0.058392
O O4 0.406062 0.263025 0.004556
O O5 0.120796 0.216206 0.629355
O O6 0.095463 0.214758 0.484187
O O7 0.194435 0.258879 0.443348
O O8 0.148841 0.000000 0.496796
O O9 0.802664 0.775537 0.334737
O O10 0.904120 0.768247 0.173829
O O11 0.861738 0.000000 0.280307
O O12 0.905359 0.747738 0.680899
O O13 0.000000 0.776320 0.500000
O O14 0.938946 0.000000 0.579886
O O15 0.145272 0.500000 0.232976
O O16 0.194832 0.247290 0.165181
O O17 0.743028 0.500000 0.156434
O O18 0.747981 0.746696 0.250992
O O19 0.745142 0.000000 0.347247
O O20 0.559984 0.500000 0.947008
O O21 0.500000 0.273005 0.000000
#
# Coordination Sequence:
#
# PCOD9224700 Si02
#       8
#     8   8   8   8   8   8   8   8
#     4  10  23  40  59  86 119 155 192 235 292 349
#     4  10  20  36  57  80 114 151 188 232 281 344
#     4   9  19  35  55  83 115 148 185 233 286 334
#     4  10  22  39  59  84 114 153 198 239 283 337
#     4  11  23  39  60  87 119 152 190 240 293 346
#     4  11  21  36  59  86 116 152 191 233 290 353
#     4  11  20  33  56  84 115 147 184 233 289 345
#     4  10  21  38  61  87 115 151 197 242 286 336
#
# _framework density 9.1235599999999994
#
# number of rings (size 3 to 8) (size 9 to 14) (size 15 to 20)
#    0.000    1.750    2.500    1.875    0.000    3.000 
#    0.000    3.750    0.000    0.000    0.000    0.000 
#    0.000    0.000    0.000    0.000    0.000    0.000 
#
# Total GULP energy -178408.032735 kJ/mol
# GULP energy per Si atom -5575.251023 kJ/mol
# Density = 0.910279 g / cm^3
# Si number density = 9.123560 Si / 1000 Ang^3
#
#
#
# Elastic Constant Matrix: (Units=GPa)
#
#
# Indices 1 2 3 4 5 6 
#
# 1 147.8880 44.7189 88.9552 0.0000 -27.7790 0.0000
# 2 44.7189 43.9397 32.8736 0.0000 -5.6860 0.0000
# 3 88.9552 32.8736 107.7011 0.0000 -4.0296 0.0000
# 4 0.0000 0.0000 0.0000 21.9217 0.0000 -2.6111
# 5 -27.7790 -5.6860 -4.0296 0.0000 32.1204 0.0000
# 6 0.0000 0.0000 0.0000 -2.6111 0.0000 30.5750
#
#
#
# Elastic Compliance Matrix: (Units=1/GPa)
#
#
# Indices 1 2 3 4 5 6 
#
# 1 0.020124 -0.008561 -0.013477 0.000000 0.014198 0.000000
# 2 -0.008561 0.033686 -0.003281 0.000000 -0.001852 0.000000
# 3 -0.013477 -0.003281 0.021059 0.000000 -0.009594 0.000000
# 4 0.000000 0.000000 0.000000 0.046086 0.000000 0.003936
# 5 0.014198 -0.001852 -0.009594 0.000000 0.041880 0.000000
# 6 0.000000 0.000000 0.000000 0.003936 0.000000 0.033043
#
#
# Mechanical properties :
#
#
# Convention : Reuss Voigt Hill
#
# Bulk Modulus (GPa) = 41.26835 70.29158 55.77996
# Shear Modulus (GPa) = 19.63945 25.78883 22.71414
#
# Velocity S-wave (km/s) = 3.28427 3.76348 3.53201
# Velocity P-wave (km/s) = 6.08665 7.58226 6.87525
#
# Compressibility (1/GPa) = 0.02423165
#
# Stress axis : x y z
#
# Youngs Moduli (GPa) = 49.69257 29.68631 47.48670
#
# Poissons Ratio (x) = 0.25413 0.63998
# Poissons Ratio (y) = 0.42540 0.15578
# Poissons Ratio (z) = 0.66970 0.09739
#
# Static dielectric constant tensor:
#      x y z
#    x 1.624360 0.000000 0.007860 
#    y 0.000000 1.622680 0.000000 
#    z 0.007860 0.000000 1.653940 
# 
# From -- ./inp_files/249093.got.cif
#   From: 2010.05.17/outbox.ucp.g08.bks.cvg/sg12_125_cif.got.tgz:249093.got - 2010.06.11 11:47:21.
