data_PCOD9224369
_publ_section_title
;
Structure prediction by ZEFSAII (Michael W. Deem and Ramdas Pophale) SiO2 
 PCOD9224369
Probable space group: C 2/M
;
_chemical_formula_sum "Si O2"
_cell_formula_units_Z 32
_cell_length_a 15.000000
_cell_length_b 9.000000
_cell_length_c 27.000000
_cell_angle_alpha 90.000000
_cell_angle_beta 70.000000
_cell_angle_gamma 90.000000
_cell_volume 3425.179603
_symmetry_space_group_name_H-M "C 2/M"
_symmetry_group_IT_number 12
_symmetry_cell_setting 'monoclinic'
loop_
_space_group_symop_operation_xyz
x,y,z
-x,y,-z
-x,-y,-z
x,-y,z
1/2+x,1/2+y,z
1/2-x,1/2+y,-z
1/2-x,1/2-y,-z
1/2+x,1/2-y,z
loop_
_atom_site_type_symbol
_atom_site_label
_atom_site_fract_x
_atom_site_fract_y
_atom_site_fract_z
Si Si1 0.003405 0.824727 0.614030
Si Si2 0.215779 0.175283 0.361589
Si Si3 0.224772 0.668945 0.257228
Si Si4 0.937790 0.828619 0.185915
Si Si5 0.459300 0.177578 0.078551
Si Si6 0.160336 0.679062 0.988686
Si Si7 0.462523 0.321480 0.733227
Si Si8 0.688303 0.823567 0.553880
O O1 0.081234 0.732127 0.570842
O O2 0.897880 0.807974 0.612663
O O3 0.001607 0.773744 0.672005
O O4 0.027116 0.000000 0.608276
O O5 0.243078 0.269652 0.308724
O O6 0.269865 0.221611 0.400539
O O7 0.233887 0.000000 0.348738
O O8 0.189525 0.500000 0.266808
O O9 0.324712 0.671962 0.211542
O O10 0.145592 0.767984 0.246204
O O11 0.962202 0.738577 0.132901
O O12 0.981769 0.769451 0.228957
O O13 0.969641 0.000000 0.174558
O O14 0.369614 0.228691 0.061611
O O15 0.452759 0.000000 0.080034
O O16 0.561468 0.213732 0.035382
O O17 0.173586 0.500000 0.986009
O O18 0.250000 0.750000 0.000000
O O19 0.466072 0.500000 0.731814
O O20 0.750000 0.750000 0.500000
O O21 0.694358 0.000000 0.549529
#
# Coordination Sequence:
#
# PCOD9224369 Si02
#       8
#     8   8   8   8   8   8   8   8
#     4   9  18  36  58  76 100 136 174 212 255 305
#     4   9  20  38  57  76 103 140 175 208 256 316
#     4  10  20  34  54  80 107 136 174 217 256 300
#     4  10  21  35  52  78 112 144 174 213 259 307
#     4   9  20  37  54  76 107 140 175 216 263 313
#     4   9  19  37  58  78 102 136 178 221 265 312
#     4   9  19  36  55  76 106 143 176 207 254 314
#     4  11  23  37  54  78 105 134 171 214 261 312
#
# _framework density 9.3425759999999993
#
# number of rings (size 3 to 8) (size 9 to 14) (size 15 to 20)
#    0.000    2.500    0.000    3.000    0.000    8.000 
#    0.000    8.750    0.000    0.000    0.000    0.000 
#    0.000    0.000    0.000    0.000    0.000    0.000 
#
# Total GULP energy -178379.811469 kJ/mol
# GULP energy per Si atom -5574.369108 kJ/mol
# Density = 0.932131 g / cm^3
# Si number density = 9.342576 Si / 1000 Ang^3
#
#
#
# Elastic Constant Matrix: (Units=GPa)
#
#
# Indices 1 2 3 4 5 6 
#
# 1 39.7595 7.0298 -0.8635 0.0000 -1.4066 0.0000
# 2 7.0298 -2.8251 4.3284 0.0000 -12.3627 0.0000
# 3 -0.8635 4.3284 -6.2223 0.0000 -22.0067 0.0000
# 4 0.0000 0.0000 0.0000 30.2369 0.0000 1.0914
# 5 -1.4066 -12.3627 -22.0067 0.0000 -0.3482 0.0000
# 6 0.0000 0.0000 0.0000 1.0914 0.0000 29.6353
#
#
#
# Elastic Compliance Matrix: (Units=1/GPa)
#
#
# Indices 1 2 3 4 5 6 
#
# 1 0.022260 0.016111 -0.010557 0.000000 0.005280 0.000000
# 2 0.016111 -0.091475 0.050880 0.000000 -0.033010 0.000000
# 3 -0.010557 0.050880 -0.027477 0.000000 -0.027250 0.000000
# 4 0.000000 0.000000 0.000000 0.033116 0.000000 -0.001220
# 5 0.005280 -0.033010 -0.027250 0.000000 0.001005 0.000000
# 6 0.000000 0.000000 0.000000 -0.001220 0.000000 0.033788
#
#
# Mechanical properties :
#
#
# Convention : Reuss Voigt Hill
#
# Bulk Modulus (GPa) = 61.81821 5.74460 33.78141
# Shear Modulus (GPa) = -36.69527 13.25265 -11.72131
#
# Velocity S-wave (km/s) = -4.43637 2.66608 -2.50733
# Velocity P-wave (km/s) = 2.62947 3.54379 3.12030
#
# Compressibility (1/GPa) = 0.01617646
#
# Stress axis : x y z
#
# Youngs Moduli (GPa) = 44.92314 -10.93198 -36.39424
#
# Poissons Ratio (x) = 0.17612 -0.38421
# Poissons Ratio (y) = -0.72374 1.85174
# Poissons Ratio (z) = 0.47425 0.55622
#
# Static dielectric constant tensor:
#      x y z
#    x 1.636990 0.000000 -0.004540 
#    y 0.000000 1.646810 0.000000 
#    z -0.004540 0.000000 1.665090 
# 
# From -- ./inp_files/359761.got.cif
#   From: 2010.05.17/outbox.ucp.g08.bks.cvg/sg12_180_cif.got.tgz:359761.got - 2010.06.11 11:47:21.
