data_PCOD9224903
_publ_section_title
;
Structure prediction by ZEFSAII (Michael W. Deem and Ramdas Pophale) SiO2 
 PCOD9224903
Probable space group: C 2/M
;
_chemical_formula_sum "Si O2"
_cell_formula_units_Z 28
_cell_length_a 24.000000
_cell_length_b 9.000000
_cell_length_c 15.000000
_cell_angle_alpha 90.000000
_cell_angle_beta 120.000000
_cell_angle_gamma 90.000000
_cell_volume 2805.922308
_symmetry_space_group_name_H-M "C 2/M"
_symmetry_group_IT_number 12
_symmetry_cell_setting 'monoclinic'
loop_
_space_group_symop_operation_xyz
x,y,z
-x,y,-z
-x,-y,-z
x,-y,z
1/2+x,1/2+y,z
1/2-x,1/2+y,-z
1/2-x,1/2-y,-z
1/2+x,1/2-y,z
loop_
_atom_site_type_symbol
_atom_site_label
_atom_site_fract_x
_atom_site_fract_y
_atom_site_fract_z
Si Si1 0.450014 0.326414 0.387468
Si Si2 0.171263 0.666379 0.678866
Si Si3 0.237376 0.826990 0.083916
Si Si4 0.595076 0.822803 0.215057
Si Si5 0.463901 0.177331 0.207512
Si Si6 0.777296 0.171957 0.609579
Si Si7 0.891706 0.320988 0.971829
O O1 0.500000 0.265661 0.500000
O O2 0.462237 0.500000 0.384984
O O3 0.380634 0.293268 0.372734
O O4 0.451709 0.250096 0.292559
O O5 0.142333 0.500000 0.647987
O O6 0.202360 0.677999 0.801640
O O7 0.225569 0.679004 0.647748
O O8 0.220447 0.000000 0.057600
O O9 0.250000 0.750000 0.000000
O O10 0.180220 0.739898 0.086219
O O11 0.536508 0.794685 0.234241
O O12 0.658225 0.745561 0.302047
O O13 0.605765 0.000000 0.220885
O O14 0.578361 0.777333 0.099670
O O15 0.422222 0.231983 0.089395
O O16 0.453641 0.000000 0.207345
O O17 0.750000 0.250000 0.500000
O O18 0.789489 0.000000 0.598934
O O19 0.893664 0.500000 0.977283
#
# Coordination Sequence:
#
# PCOD9224903 Si02
#       7
#     8   8   8   8   8   8   8
#     4  11  26  44  62  89 121 157 204 258 309 357
#     4  10  23  43  64  87 120 160 203 247 299 364
#     4  11  22  37  58  88 123 159 201 248 299 358
#     4  10  21  39  64  94 126 163 203 246 303 363
#     4  10  22  40  63  91 124 164 206 248 297 364
#     4  11  24  42  64  93 125 160 205 254 305 362
#     4  10  20  37  61  91 125 159 200 247 299 359
#
# _framework density 9.9788940000000004
#
# number of rings (size 3 to 8) (size 9 to 14) (size 15 to 20)
#    0.000    1.571    1.429    2.571    2.000    9.714 
#    0.000    0.000    0.000    2.571    0.000    0.000 
#    0.000    0.000    0.000    0.000    0.000    0.000 
#
# Total GULP energy -156335.002727 kJ/mol
# GULP energy per Si atom -5583.392955 kJ/mol
# Density = 0.995618 g / cm^3
# Si number density = 9.978894 Si / 1000 Ang^3
#
#
#
# Elastic Constant Matrix: (Units=GPa)
#
#
# Indices 1 2 3 4 5 6 
#
# 1 10.0441 42.4233 40.4154 0.0000 6.7203 0.0000
# 2 42.4233 -15.1226 15.8639 0.0000 1.1264 0.0000
# 3 40.4154 15.8639 88.8354 0.0000 9.3824 0.0000
# 4 0.0000 0.0000 0.0000 26.7212 0.0000 0.3684
# 5 6.7203 1.1264 9.3824 0.0000 16.5417 0.0000
# 6 0.0000 0.0000 0.0000 0.3684 0.0000 23.2967
#
#
#
# Elastic Compliance Matrix: (Units=1/GPa)
#
#
# Indices 1 2 3 4 5 6 
#
# 1 0.016511 0.032418 -0.013147 0.000000 -0.001459 0.000000
# 2 0.032418 0.008018 -0.015671 0.000000 -0.004828 0.000000
# 3 -0.013147 -0.015671 0.020593 0.000000 -0.005272 0.000000
# 4 0.000000 0.000000 0.000000 0.037432 0.000000 -0.000592
# 5 -0.001459 -0.004828 -0.005272 0.000000 0.064365 0.000000
# 6 0.000000 0.000000 0.000000 -0.000592 0.000000 0.042934
#
#
# Mechanical properties :
#
#
# Convention : Reuss Voigt Hill
#
# Bulk Modulus (GPa) = 19.11146 31.24024 25.17585
# Shear Modulus (GPa) = 24.98836 12.31551 18.65194
#
# Velocity S-wave (km/s) = 3.54229 2.48680 3.06039
# Velocity P-wave (km/s) = 5.13100 4.89211 5.01297
#
# Compressibility (1/GPa) = 0.05232462
#
# Stress axis : x y z
#
# Youngs Moduli (GPa) = 60.56531 124.71198 48.55988
#
# Poissons Ratio (x) = -4.04297 0.63841
# Poissons Ratio (y) = -1.96343 0.76097
# Poissons Ratio (z) = 0.79624 1.95432
#
# Static dielectric constant tensor:
#      x y z
#    x 1.738470 0.000000 0.001410 
#    y 0.000000 1.473740 0.000000 
#    z 0.001410 0.000000 1.697710 
# 
# From -- ./inp_files/238420.got.cif
#   From: 2010.05.17/outbox.ucp.g08.bks.cvg/sg12_120_cif.got.tgz:238420.got - 2010.06.11 11:47:21.
