data_PCOD9224158
_publ_section_title
;
Structure prediction by ZEFSAII (Michael W. Deem and Ramdas Pophale) SiO2 
 PCOD9224158
Probable space group: C 2/M
;
_chemical_formula_sum "Si O2"
_cell_formula_units_Z 28
_cell_length_a 12.000000
_cell_length_b 30.000000
_cell_length_c 15.000000
_cell_angle_alpha 90.000000
_cell_angle_beta 30.000000
_cell_angle_gamma 90.000000
_cell_volume 2700.000000
_symmetry_space_group_name_H-M "C 2/M"
_symmetry_group_IT_number 12
_symmetry_cell_setting 'monoclinic'
loop_
_space_group_symop_operation_xyz
x,y,z
-x,y,-z
-x,-y,-z
x,-y,z
1/2+x,1/2+y,z
1/2-x,1/2+y,-z
1/2-x,1/2-y,-z
1/2+x,1/2-y,z
loop_
_atom_site_type_symbol
_atom_site_label
_atom_site_fract_x
_atom_site_fract_y
_atom_site_fract_z
Si Si1 0.760714 0.758370 0.804777
Si Si2 0.006207 0.878238 0.364174
Si Si3 0.659232 0.677235 0.095376
Si Si4 0.684219 0.164247 0.716134
Si Si5 0.290200 0.167536 0.708210
Si Si6 0.261309 0.948967 0.556621
Si Si7 0.222092 0.927778 0.793452
O O1 0.847347 0.778858 0.837117
O O2 0.762301 0.793351 0.721565
O O3 0.865760 0.711813 0.706381
O O4 0.500000 0.750183 0.000000
O O5 0.819825 0.843665 0.531520
O O6 0.867345 0.921399 0.430420
O O7 0.112185 0.861317 0.199433
O O8 0.209922 0.876116 0.295226
O O9 0.446778 0.677319 0.176986
O O10 0.917845 0.669167 0.887362
O O11 0.500000 0.155500 0.500000
O O12 0.246320 0.124590 0.798413
O O13 0.203127 0.932347 0.698291
O O14 0.531176 0.946957 0.357209
O O15 0.192052 0.000000 0.601098
O O16 0.000000 0.944256 0.000000
#
# Coordination Sequence:
#
# PCOD9224158 Si02
#       7
#     8   8   8   8   8   8   8
#     4   9  21  39  55  89 127 168 215 259 301 355
#     4  10  19  39  64  94 115 162 209 251 316 377
#     4  10  21  41  61  85 127 173 209 258 308 357
#     4   9  21  38  65  89 124 168 214 251 305 370
#     4  12  23  38  59  95 128 164 216 261 302 364
#     4  11  24  43  65  95 127 156 201 262 322 382
#     4  11  23  43  63  90 128 168 209 252 308 377
#
# _framework density 10.370369999999999
#
# number of rings (size 3 to 8) (size 9 to 14) (size 15 to 20)
#    0.000    1.714    2.857    2.571    6.000    4.000 
#    5.143    1.429    0.000    1.714    0.000    0.000 
#    0.000    0.000    0.000    0.000    0.000    0.000 
#
# Total GULP energy -156193.284369 kJ/mol
# GULP energy per Si atom -5578.331585 kJ/mol
# Density = 1.034677 g / cm^3
# Si number density = 10.370370 Si / 1000 Ang^3
#
#
#
# Elastic Constant Matrix: (Units=GPa)
#
#
# Indices 1 2 3 4 5 6 
#
# 1 59.1443 18.2451 15.3900 0.0000 -21.6380 0.0000
# 2 18.2451 80.8199 24.9731 0.0000 0.1549 0.0000
# 3 15.3900 24.9731 138.9261 0.0000 -8.9208 0.0000
# 4 0.0000 0.0000 0.0000 0.0755 0.0000 5.8234
# 5 -21.6380 0.1549 -8.9208 0.0000 27.9210 0.0000
# 6 0.0000 0.0000 0.0000 5.8234 0.0000 1.3627
#
#
#
# Elastic Compliance Matrix: (Units=1/GPa)
#
#
# Indices 1 2 3 4 5 6 
#
# 1 0.026218 -0.005781 -0.000570 0.000000 0.020168 0.000000
# 2 -0.005781 0.014395 -0.002287 0.000000 -0.005291 0.000000
# 3 -0.000570 -0.002287 0.007805 0.000000 0.002065 0.000000
# 4 0.000000 0.000000 0.000000 -0.040305 0.000000 0.172245
# 5 0.020168 -0.005291 0.002065 0.000000 0.052134 0.000000
# 6 0.000000 0.000000 0.000000 0.172245 0.000000 -0.002234
#
#
# Mechanical properties :
#
#
# Convention : Reuss Voigt Hill
#
# Bulk Modulus (GPa) = 32.11141 44.01187 38.06164
# Shear Modulus (GPa) = 58.36276 20.55730 39.46003
#
# Velocity S-wave (km/s) = 5.31039 3.15168 4.36654
# Velocity P-wave (km/s) = 7.28809 5.87454 6.61916
#
# Compressibility (1/GPa) = 0.03114158
#
# Stress axis : x y z
#
# Youngs Moduli (GPa) = 38.14144 69.46812 128.12470
#
# Poissons Ratio (x) = 0.40161 0.07305
# Poissons Ratio (y) = 0.22050 0.29301
# Poissons Ratio (z) = 0.02175 0.15887
#
# Static dielectric constant tensor:
#      x y z
#    x 1.775540 0.000000 0.027860 
#    y 0.000000 1.799950 0.000000 
#    z 0.027860 0.000000 1.752620 
# 
# From -- ./inp_files/209998.got.cif
#   From: 2010.05.17/outbox.ucp.g08.bks.cvg/sg12_105_cif.got.tgz:209998.got - 2010.06.11 11:47:21.
