data_PCOD9224675
_publ_section_title
;
Structure prediction by ZEFSAII (Michael W. Deem and Ramdas Pophale) SiO2 
 PCOD9224675
Probable space group: C 2/M
;
_chemical_formula_sum "Si O2"
_cell_formula_units_Z 28
_cell_length_a 30.000000
_cell_length_b 9.000000
_cell_length_c 21.000000
_cell_angle_alpha 90.000000
_cell_angle_beta 150.000000
_cell_angle_gamma 90.000000
_cell_volume 2835.000000
_symmetry_space_group_name_H-M "C 2/M"
_symmetry_group_IT_number 12
_symmetry_cell_setting 'monoclinic'
loop_
_space_group_symop_operation_xyz
x,y,z
-x,y,-z
-x,-y,-z
x,-y,z
1/2+x,1/2+y,z
1/2-x,1/2+y,-z
1/2-x,1/2-y,-z
1/2+x,1/2-y,z
loop_
_atom_site_type_symbol
_atom_site_label
_atom_site_fract_x
_atom_site_fract_y
_atom_site_fract_z
Si Si1 0.205518 0.178070 0.351964
Si Si2 0.117058 0.321825 0.353188
Si Si3 0.701194 0.178777 0.656308
Si Si4 0.978108 0.826505 0.543921
Si Si5 0.715431 0.329434 0.112923
Si Si6 0.576135 0.172563 0.868355
Si Si7 0.868608 0.667766 0.201837
O O1 0.129773 0.258177 0.298302
O O2 0.298668 0.225034 0.500672
O O3 0.222791 0.216739 0.300380
O O4 0.195397 0.000000 0.345216
O O5 0.120154 0.500000 0.355808
O O6 0.023595 0.271777 0.266447
O O7 0.604472 0.245752 0.525342
O O8 0.730418 0.235402 0.761393
O O9 0.691133 0.000000 0.642735
O O10 0.000000 0.766930 0.500000
O O11 0.065932 0.792321 0.691858
O O12 0.958615 0.000000 0.514795
O O13 0.698683 0.500000 0.108049
O O14 0.778284 0.323966 0.129119
O O15 0.623617 0.253244 0.984234
O O16 0.634627 0.184855 0.877343
O O17 0.569886 0.000000 0.876077
O O18 0.905983 0.500000 0.260259
#
# Coordination Sequence:
#
# PCOD9224675 Si02
#       7
#     8   8   8   8   8   8   8
#     4   9  18  34  58  82 103 131 170 217 264 313
#     4   9  18  34  54  79 107 133 168 214 267 319
#     4  10  20  36  56  78 107 143 179 215 263 318
#     4  11  22  33  50  80 112 139 172 216 262 309
#     4  10  21  35  53  77 105 141 182 220 260 312
#     4  10  21  36  55  77 105 142 180 220 265 311
#     4  10  20  36  56  77 104 143 183 218 262 314
#
# _framework density 9.8765429999999999
#
# number of rings (size 3 to 8) (size 9 to 14) (size 15 to 20)
#    0.000    2.143    1.429    1.714    0.000    5.714 
#    0.000    3.571    0.000    4.286    0.000    0.000 
#    0.000    0.000    0.000    0.000    0.000    0.000 
#
# Total GULP energy -155936.776959 kJ/mol
# GULP energy per Si atom -5569.170606 kJ/mol
# Density = 0.985406 g / cm^3
# Si number density = 9.876543 Si / 1000 Ang^3
#
#
#
# Elastic Constant Matrix: (Units=GPa)
#
#
# Indices 1 2 3 4 5 6 
#
# 1 53.3150 25.8012 -6.1384 0.0000 4.3576 0.0000
# 2 25.8012 -11.2480 21.8144 0.0000 -14.1721 0.0000
# 3 -6.1384 21.8144 33.1205 0.0000 -0.5916 0.0000
# 4 0.0000 0.0000 0.0000 27.9109 0.0000 4.6339
# 5 4.3576 -14.1721 -0.5916 0.0000 -24.5209 0.0000
# 6 0.0000 0.0000 0.0000 4.6339 0.0000 22.9722
#
#
#
# Elastic Compliance Matrix: (Units=1/GPa)
#
#
# Indices 1 2 3 4 5 6 
#
# 1 0.010516 0.016155 -0.008821 0.000000 -0.007256 0.000000
# 2 0.016155 -0.031133 0.023862 0.000000 0.020289 0.000000
# 3 -0.008821 0.023862 0.012562 0.000000 -0.015662 0.000000
# 4 0.000000 0.000000 0.000000 0.037070 0.000000 -0.007478
# 5 -0.007256 0.020289 -0.015662 0.000000 -0.053419 0.000000
# 6 0.000000 0.000000 0.000000 -0.007478 0.000000 0.045039
#
#
# Mechanical properties :
#
#
# Convention : Reuss Voigt Hill
#
# Bulk Modulus (GPa) = 18.40380 17.57133 17.98756
# Shear Modulus (GPa) = -211.46681 7.51979 -101.97351
#
# Velocity S-wave (km/s) = -10.35797 1.95324 -7.19279
# Velocity P-wave (km/s) = 11.56343 3.74188 7.73664
#
# Compressibility (1/GPa) = 0.05433661
#
# Stress axis : x y z
#
# Youngs Moduli (GPa) = 95.09639 -32.12067 79.60497
#
# Poissons Ratio (x) = 0.51892 0.70221
# Poissons Ratio (y) = -1.53631 -1.89950
# Poissons Ratio (z) = 0.83886 0.76645
#
# Static dielectric constant tensor:
#      x y z
#    x 1.739640 0.000000 -0.012860 
#    y 0.000000 1.696300 0.000000 
#    z -0.012860 0.000000 1.716320 
# 
# From -- ./inp_files/237414.got.cif
#   From: 2010.05.17/outbox.ucp.g08.bks.cvg/sg12_119_cif.got.tgz:237414.got - 2010.06.11 11:47:21.
