data_PCOD9224421
_publ_section_title
;
Structure prediction by ZEFSAII (Michael W. Deem and Ramdas Pophale) SiO2 
 PCOD9224421
Probable space group: C 2/M
;
_chemical_formula_sum "Si O2"
_cell_formula_units_Z 28
_cell_length_a 30.000000
_cell_length_b 9.000000
_cell_length_c 12.000000
_cell_angle_alpha 90.000000
_cell_angle_beta 60.000000
_cell_angle_gamma 90.000000
_cell_volume 2805.922308
_symmetry_space_group_name_H-M "C 2/M"
_symmetry_group_IT_number 12
_symmetry_cell_setting 'monoclinic'
loop_
_space_group_symop_operation_xyz
x,y,z
-x,y,-z
-x,-y,-z
x,-y,z
1/2+x,1/2+y,z
1/2-x,1/2+y,-z
1/2-x,1/2-y,-z
1/2+x,1/2-y,z
loop_
_atom_site_type_symbol
_atom_site_label
_atom_site_fract_x
_atom_site_fract_y
_atom_site_fract_z
Si Si1 0.839938 0.670935 0.786167
Si Si2 0.262038 0.326784 0.720817
Si Si3 0.999096 0.830884 0.365781
Si Si4 0.855000 0.671895 0.167402
Si Si5 0.599658 0.832828 0.509141
Si Si6 0.896848 0.174261 0.906545
Si Si7 0.823150 0.173018 0.437258
O O1 0.831564 0.500000 0.826729
O O2 0.793008 0.733089 0.772030
O O3 0.887391 0.677729 0.638294
O O4 0.853226 0.763277 0.878352
O O5 0.278113 0.500000 0.707138
O O6 0.201702 0.319300 0.816305
O O7 0.275060 0.276343 0.576777
O O8 0.050833 0.805038 0.230611
O O9 0.000000 0.829818 0.500000
O O10 0.958553 0.702980 0.389519
O O11 0.981946 0.000000 0.358217
O O12 0.868755 0.500000 0.166714
O O13 0.843930 0.746095 0.301061
O O14 0.893348 0.747283 0.031226
O O15 0.632276 0.706367 0.528639
O O16 0.615362 0.000000 0.523921
O O17 0.889654 0.000000 0.933270
O O18 0.815739 0.000000 0.420439
#
# Coordination Sequence:
#
# PCOD9224421 Si02
#       7
#     8   8   8   8   8   8   8
#     4  10  20  34  55  85 116 146 184 232 280 330
#     4   9  20  37  59  84 111 148 189 231 277 330
#     4  10  20  36  59  85 112 146 186 229 277 334
#     4  11  23  39  57  81 115 150 188 233 281 329
#     4  10  20  34  57  88 117 144 181 232 284 328
#     4  11  23  38  57  81 114 152 189 227 278 339
#     4  10  20  37  61  85 112 147 190 231 274 330
#
# _framework density 9.9788940000000004
#
# number of rings (size 3 to 8) (size 9 to 14) (size 15 to 20)
#    0.000    1.857    1.429    2.571    0.000    4.857 
#    0.000    0.714    0.000    4.286    0.000    0.000 
#    0.000    0.000    0.000    0.000    0.000    0.000 
#
# Total GULP energy -156047.552736 kJ/mol
# GULP energy per Si atom -5573.126883 kJ/mol
# Density = 0.995618 g / cm^3
# Si number density = 9.978894 Si / 1000 Ang^3
#
#
#
# Elastic Constant Matrix: (Units=GPa)
#
#
# Indices 1 2 3 4 5 6 
#
# 1 3.2362 2.5584 -1.3859 0.0000 -3.6271 0.0000
# 2 2.5584 46.0141 32.5118 0.0000 -11.9290 0.0000
# 3 -1.3859 32.5118 103.9639 0.0000 0.3751 0.0000
# 4 0.0000 0.0000 0.0000 32.9321 0.0000 4.4303
# 5 -3.6271 -11.9290 0.3751 0.0000 15.2940 0.0000
# 6 0.0000 0.0000 0.0000 4.4303 0.0000 23.4600
#
#
#
# Elastic Compliance Matrix: (Units=1/GPa)
#
#
# Indices 1 2 3 4 5 6 
#
# 1 0.423892 -0.002228 0.005992 0.000000 0.098645 0.000000
# 2 -0.002228 0.037951 -0.012004 0.000000 0.029367 0.000000
# 3 0.005992 -0.012004 0.013482 0.000000 -0.008272 0.000000
# 4 0.000000 0.000000 0.000000 0.031157 0.000000 -0.005884
# 5 0.098645 0.029367 -0.008272 0.000000 0.111888 0.000000
# 6 0.000000 0.000000 0.000000 -0.005884 0.000000 0.043737
#
#
# Mechanical properties :
#
#
# Convention : Reuss Voigt Hill
#
# Bulk Modulus (GPa) = 2.17939 24.50920 13.34429
# Shear Modulus (GPa) = 6.01296 22.30588 14.15942
#
# Velocity S-wave (km/s) = 1.73764 3.34676 2.66647
# Velocity P-wave (km/s) = 2.26279 5.21935 4.02255
#
# Compressibility (1/GPa) = 0.45884477
#
# Stress axis : x y z
#
# Youngs Moduli (GPa) = 2.35909 26.34972 74.17143
#
# Poissons Ratio (x) = 0.05871 -0.44440
# Poissons Ratio (y) = 0.00526 0.89034
# Poissons Ratio (z) = -0.01413 0.31630
#
# Static dielectric constant tensor:
#      x y z
#    x 1.747540 0.000000 -0.019230 
#    y 0.000000 1.691240 0.000000 
#    z -0.019230 0.000000 1.695540 
# 
# From -- ./inp_files/187260.got.cif
#   From: 2010.05.17/outbox.ucp.g08.bks.cvg/sg12_94_cif.got.tgz:187260.got - 2010.06.11 11:47:21.
