data_PCOD9224186
_publ_section_title
;
Structure prediction by ZEFSAII (Michael W. Deem and Ramdas Pophale) SiO2 
 PCOD9224186
Probable space group: C 2/M
;
_chemical_formula_sum "Si O2"
_cell_formula_units_Z 28
_cell_length_a 21.000000
_cell_length_b 21.000000
_cell_length_c 9.000000
_cell_angle_alpha 90.000000
_cell_angle_beta 130.000000
_cell_angle_gamma 90.000000
_cell_volume 3040.430395
_symmetry_space_group_name_H-M "C 2/M"
_symmetry_group_IT_number 12
_symmetry_cell_setting 'monoclinic'
loop_
_space_group_symop_operation_xyz
x,y,z
-x,y,-z
-x,-y,-z
x,-y,z
1/2+x,1/2+y,z
1/2-x,1/2+y,-z
1/2-x,1/2-y,-z
1/2+x,1/2-y,z
loop_
_atom_site_type_symbol
_atom_site_label
_atom_site_fract_x
_atom_site_fract_y
_atom_site_fract_z
Si Si1 0.869537 0.203813 0.632295
Si Si2 0.444499 0.829199 0.666489
Si Si3 0.690122 0.573223 0.364757
Si Si4 0.281929 0.760856 0.795506
Si Si5 0.372742 0.070193 0.776593
Si Si6 0.622681 0.123832 0.907760
Si Si7 0.217180 0.367795 0.767872
O O1 0.942951 0.253583 0.701796
O O2 0.873383 0.128615 0.677010
O O3 0.803487 0.210728 0.398961
O O4 0.829099 0.235044 0.719375
O O5 0.424373 0.872809 0.780061
O O6 0.530368 0.853281 0.726605
O O7 0.364460 0.845736 0.446499
O O8 0.661295 0.500000 0.330230
O O9 0.775302 0.579180 0.589441
O O10 0.724496 0.590255 0.251212
O O11 0.264304 0.698706 0.868137
O O12 0.333518 0.814300 0.954901
O O13 0.397277 0.000000 0.756268
O O14 0.383346 0.074216 0.967971
O O15 0.680166 0.101279 0.859329
#
# Coordination Sequence:
#
# PCOD9224186 Si02
#       7
#     8   8   8   8   8   8   8
#     4   9  15  31  50  71  93 121 159 210 241 274
#     4  10  20  32  47  67 100 133 161 195 241 286
#     4   9  17  33  53  69  92 130 165 199 246 288
#     4   9  16  29  48  68  93 123 154 204 240 277
#     4  10  20  32  47  69  96 128 165 199 232 280
#     4  12  19  29  47  72  97 129 162 192 237 290
#     4   9  20  32  45  67 100 127 157 198 241 286
#
# _framework density 9.2092229999999997
#
# number of rings (size 3 to 8) (size 9 to 14) (size 15 to 20)
#    0.000    2.286    2.857    3.000    0.000    1.714 
#    0.000    0.000    0.000    4.286    0.000    8.000 
#    0.000   10.286    0.000    0.000    0.000    1.000 
#
# Total GULP energy -155999.357798 kJ/mol
# GULP energy per Si atom -5571.405636 kJ/mol
# Density = 0.918826 g / cm^3
# Si number density = 9.209223 Si / 1000 Ang^3
#
#
#
# Elastic Constant Matrix: (Units=GPa)
#
#
# Indices 1 2 3 4 5 6 
#
# 1 21.6062 2.6719 -5.9518 0.0000 -6.2669 0.0000
# 2 2.6719 104.1835 8.2840 0.0000 -0.2104 0.0000
# 3 -5.9518 8.2840 24.7439 0.0000 -3.4164 0.0000
# 4 0.0000 0.0000 0.0000 14.7830 0.0000 -1.4790
# 5 -6.2669 -0.2104 -3.4164 0.0000 14.8503 0.0000
# 6 0.0000 0.0000 0.0000 -1.4790 0.0000 10.9806
#
#
#
# Elastic Compliance Matrix: (Units=1/GPa)
#
#
# Indices 1 2 3 4 5 6 
#
# 1 0.060899 -0.003079 0.019852 0.000000 0.030223 0.000000
# 2 -0.003079 0.010023 -0.004396 0.000000 -0.002169 0.000000
# 3 0.019852 -0.004396 0.049377 0.000000 0.019675 0.000000
# 4 0.000000 0.000000 0.000000 0.068569 0.000000 0.009236
# 5 0.030223 -0.002169 0.019675 0.000000 0.084589 0.000000
# 6 0.000000 0.000000 0.000000 0.009236 0.000000 0.092313
#
#
# Mechanical properties :
#
#
# Convention : Reuss Voigt Hill
#
# Bulk Modulus (GPa) = 6.89401 17.83797 12.36599
# Shear Modulus (GPa) = 12.84138 17.82476 15.33307
#
# Velocity S-wave (km/s) = 2.64332 3.11427 2.88841
# Velocity P-wave (km/s) = 3.61488 4.75788 4.22521
#
# Compressibility (1/GPa) = 0.14505342
#
# Stress axis : x y z
#
# Youngs Moduli (GPa) = 16.42069 99.77509 20.25219
#
# Poissons Ratio (x) = 0.30724 -0.40205
# Poissons Ratio (y) = 0.05056 0.08902
# Poissons Ratio (z) = -0.32599 0.43857
#
# Static dielectric constant tensor:
#      x y z
#    x 1.640620 0.000000 -0.026060 
#    y 0.000000 1.663900 0.000000 
#    z -0.026060 0.000000 1.659270 
# 
# From -- ./inp_files/89065.got.cif
#   From: 2010.05.17/outbox.ucp.g08.bks.cvg/sg12_45_cif.got.tgz:89065.got - 2010.06.11 11:47:21.
