data_PCOD9224558
_publ_section_title
;
Structure prediction by ZEFSAII (Michael W. Deem and Ramdas Pophale) SiO2 
 PCOD9224558
Probable space group: C 2/M
;
_chemical_formula_sum "Si O2"
_cell_formula_units_Z 24
_cell_length_a 18.000000
_cell_length_b 9.000000
_cell_length_c 21.000000
_cell_angle_alpha 90.000000
_cell_angle_beta 50.000000
_cell_angle_gamma 90.000000
_cell_volume 2606.083195
_symmetry_space_group_name_H-M "C 2/M"
_symmetry_group_IT_number 12
_symmetry_cell_setting 'monoclinic'
loop_
_space_group_symop_operation_xyz
x,y,z
-x,y,-z
-x,-y,-z
x,-y,z
1/2+x,1/2+y,z
1/2-x,1/2+y,-z
1/2-x,1/2-y,-z
1/2+x,1/2-y,z
loop_
_atom_site_type_symbol
_atom_site_label
_atom_site_fract_x
_atom_site_fract_y
_atom_site_fract_z
Si Si1 0.094237 0.323940 0.596254
Si Si2 0.233768 0.178477 0.751957
Si Si3 0.521819 0.319273 0.916528
Si Si4 0.895869 0.177499 0.749241
Si Si5 0.651713 0.320492 0.079860
Si Si6 0.740343 0.822977 0.410473
O O1 0.080051 0.500000 0.609360
O O2 0.177203 0.268751 0.598831
O O3 0.138640 0.291902 0.501777
O O4 0.996107 0.241916 0.667833
O O5 0.125833 0.225290 0.831894
O O6 0.310110 0.260509 0.753598
O O7 0.255603 0.209413 0.666177
O O8 0.241469 0.000000 0.756670
O O9 0.522119 0.500000 0.917550
O O10 0.436052 0.273344 0.917244
O O11 0.500000 0.267426 0.000000
O O12 0.874410 0.222985 0.833815
O O13 0.899840 0.000000 0.745266
O O14 0.659746 0.500000 0.073235
O O15 0.750000 0.250000 0.000000
O O16 0.759894 0.000000 0.408240
#
# Coordination Sequence:
#
# PCOD9224558 Si02
#       6
#     8   8   8   8   8   8
#     4  10  20  35  57  82 108 143 186 227 273 333
#     4  10  20  36  57  78 106 145 186 227 272 325
#     4   9  17  31  54  80 103 132 173 217 263 320
#     4  11  23  37  53  78 114 148 181 226 276 324
#     4  10  21  37  57  81 109 141 177 221 273 326
#     4   9  19  36  57  81 109 142 183 232 280 325
#
# _framework density 9.2092220000000005
#
# number of rings (size 3 to 8) (size 9 to 14) (size 15 to 20)
#    0.000    2.167    0.000    3.000    0.000    7.333 
#    0.000    4.167    0.000    3.000    0.000    0.000 
#    0.000    0.000    0.000    0.000    0.000    0.000 
#
# Total GULP energy -133976.543382 kJ/mol
# GULP energy per Si atom -5582.355974 kJ/mol
# Density = 0.918826 g / cm^3
# Si number density = 9.209222 Si / 1000 Ang^3
#
#
#
# Elastic Constant Matrix: (Units=GPa)
#
#
# Indices 1 2 3 4 5 6 
#
# 1 130.3234 49.8470 124.3283 0.0000 -7.0389 0.0000
# 2 49.8470 23.8992 65.1053 0.0000 1.2829 0.0001
# 3 124.3283 65.1053 219.1371 0.0000 -3.5004 0.0000
# 4 0.0000 0.0000 0.0000 21.2693 0.0000 -8.2856
# 5 -7.0389 1.2829 -3.5004 0.0000 35.0742 0.0000
# 6 0.0000 0.0001 0.0000 -8.2856 0.0000 30.3601
#
#
#
# Elastic Compliance Matrix: (Units=1/GPa)
#
#
# Indices 1 2 3 4 5 6 
#
# 1 0.052053 -0.156598 0.017278 0.000000 0.017899 0.000000
# 2 -0.156598 0.698258 -0.119706 0.000000 -0.068914 -0.000001
# 3 0.017278 -0.119706 0.030499 0.000000 0.010890 0.000000
# 4 0.000000 0.000000 0.000000 0.052609 0.000000 0.014358
# 5 0.017899 -0.068914 0.010890 0.000000 0.035711 0.000000
# 6 0.000000 -0.000001 0.000000 0.014358 0.000000 0.036856
#
#
# Mechanical properties :
#
#
# Convention : Reuss Voigt Hill
#
# Bulk Modulus (GPa) = 3.80576 94.65789 49.23183
# Shear Modulus (GPa) = 3.30770 26.27931 14.79351
#
# Velocity S-wave (km/s) = 1.34155 3.78139 2.83713
# Velocity P-wave (km/s) = 2.11434 8.40058 6.12537
#
# Compressibility (1/GPa) = 0.26275953
#
# Stress axis : x y z
#
# Youngs Moduli (GPa) = 19.21114 1.43213 32.78818
#
# Poissons Ratio (x) = 0.22427 -0.56652
# Poissons Ratio (y) = 3.00842 3.92494
# Poissons Ratio (z) = -0.33194 0.17143
#
# Static dielectric constant tensor:
#      x y z
#    x 1.605940 0.000000 0.005790 
#    y 0.000000 1.623130 0.000000 
#    z 0.005790 0.000000 1.630690 
# 
# From -- ./inp_files/313592.got.cif
#   From: 2010.05.17/outbox.ucp.g08.bks.cvg/sg12_157_cif.got.tgz:313592.got - 2010.06.11 11:47:21.
