data_PCOD9224812
_publ_section_title
;
Structure prediction by ZEFSAII (Michael W. Deem and Ramdas Pophale) SiO2 
 PCOD9224812
Probable space group: C 2/M
;
_chemical_formula_sum "Si O2"
_cell_formula_units_Z 28
_cell_length_a 21.000000
_cell_length_b 21.000000
_cell_length_c 18.000000
_cell_angle_alpha 90.000000
_cell_angle_beta 20.000000
_cell_angle_gamma 90.000000
_cell_volume 2714.955898
_symmetry_space_group_name_H-M "C 2/M"
_symmetry_group_IT_number 12
_symmetry_cell_setting 'monoclinic'
loop_
_space_group_symop_operation_xyz
x,y,z
-x,y,-z
-x,-y,-z
x,-y,z
1/2+x,1/2+y,z
1/2-x,1/2+y,-z
1/2-x,1/2-y,-z
1/2+x,1/2-y,z
loop_
_atom_site_type_symbol
_atom_site_label
_atom_site_fract_x
_atom_site_fract_y
_atom_site_fract_z
Si Si1 0.276961 0.928908 0.255946
Si Si2 0.800419 0.356637 0.377304
Si Si3 0.299911 0.849105 0.542667
Si Si4 0.288970 0.928161 0.703946
Si Si5 0.555498 0.269834 0.255977
Si Si6 0.278440 0.178358 0.134309
Si Si7 0.583816 0.310089 0.987441
O O1 0.245045 0.908078 0.375876
O O2 0.225509 0.870781 0.257011
O O3 0.201882 0.000000 0.322433
O O4 0.500000 0.932864 0.000000
O O5 0.832779 0.379103 0.426001
O O6 0.634435 0.304655 0.564313
O O7 0.004129 0.331641 0.126405
O O8 0.286043 0.899331 0.624410
O O9 0.462004 0.797656 0.382012
O O10 0.097033 0.815056 0.763302
O O11 0.500000 0.928479 0.500000
O O12 0.175900 0.878856 0.878652
O O13 0.216614 0.000000 0.786005
O O14 0.634681 0.323581 0.224916
O O15 0.750000 0.250000 0.000000
O O16 0.271149 0.254046 0.158367
O O17 0.500000 0.292230 0.000000
#
# Coordination Sequence:
#
# PCOD9224812 Si02
#       7
#     8   8   8   8   8   8   8
#     4   9  21  41  66  93 128 172 219 266 321 389
#     4  11  22  40  61  94 129 166 212 265 321 389
#     4  11  22  38  64  92 129 168 212 264 327 383
#     4  10  23  42  63  94 131 169 217 263 315 390
#     4  12  23  37  62  95 130 165 208 270 327 377
#     4  11  21  39  65  93 130 167 211 268 327 375
#     4  10  20  36  61  93 126 162 208 264 315 386
#
# _framework density 10.313243
#
# number of rings (size 3 to 8) (size 9 to 14) (size 15 to 20)
#    0.000    1.429    2.857    3.429    2.000    3.714 
#    0.000    1.429    0.000    0.857    0.000    0.000 
#    0.000    0.000    0.000    0.000    0.000    0.000 
#
# Total GULP energy -155974.408834 kJ/mol
# GULP energy per Si atom -5570.514601 kJ/mol
# Density = 1.028977 g / cm^3
# Si number density = 10.313243 Si / 1000 Ang^3
#
#
#
# Elastic Constant Matrix: (Units=GPa)
#
#
# Indices 1 2 3 4 5 6 
#
# 1 80.9991 45.8325 29.5755 -0.0159 2.0798 0.0161
# 2 45.8325 136.7892 45.1246 -0.0215 9.0610 0.0216
# 3 29.5755 45.1246 99.1984 -0.0306 -3.7136 0.0252
# 4 -0.0159 -0.0215 -0.0306 7.9699 0.0301 0.5000
# 5 2.0798 9.0610 -3.7136 0.0301 32.0458 -0.0188
# 6 0.0161 0.0216 0.0252 0.5000 -0.0188 6.7570
#
#
#
# Elastic Compliance Matrix: (Units=1/GPa)
#
#
# Indices 1 2 3 4 5 6 
#
# 1 0.015832 -0.004400 -0.002722 0.000010 -0.000099 -0.000015
# 2 -0.004400 0.010101 -0.003394 0.000018 -0.002964 -0.000019
# 3 -0.002722 -0.003394 0.012533 0.000025 0.002589 -0.000024
# 4 0.000010 0.000018 0.000025 0.126058 -0.000127 -0.009328
# 5 -0.000099 -0.002964 0.002589 -0.000127 0.032350 0.000099
# 6 -0.000015 -0.000019 -0.000024 -0.009328 0.000099 0.148685
#
#
# Mechanical properties :
#
#
# Convention : Reuss Voigt Hill
#
# Bulk Modulus (GPa) = 57.36091 62.00577 59.68334
# Shear Modulus (GPa) = 13.42634 22.45148 17.93891
#
# Velocity S-wave (km/s) = 2.55410 3.30279 2.95227
# Velocity P-wave (km/s) = 6.04711 6.68364 6.37333
#
# Compressibility (1/GPa) = 0.01743347
#
# Stress axis : x y z
#
# Youngs Moduli (GPa) = 63.16267 99.00307 79.78801
#
# Poissons Ratio (x) = 0.43562 0.21721
# Poissons Ratio (y) = 0.27792 0.27079
# Poissons Ratio (z) = 0.17195 0.33600
#
# Static dielectric constant tensor:
#      x y z
#    x 1.855950 0.000020 -0.013110 
#    y 0.000020 1.763160 0.000050 
#    z -0.013110 0.000050 1.781280 
# 
# From -- ./inp_files/286014.got.cif
#   From: 2010.05.17/outbox.ucp.g08.bks.cvg/sg12_144_cif.got.tgz:286014.got - 2010.06.11 11:47:21.
