data_PCOD9224026
_publ_section_title
;
Structure prediction by ZEFSAII (Michael W. Deem and Ramdas Pophale) SiO2 
 PCOD9224026
Probable space group: C 2/M
;
_chemical_formula_sum "Si O2"
_cell_formula_units_Z 28
_cell_length_a 18.000000
_cell_length_b 9.000000
_cell_length_c 18.000000
_cell_angle_alpha 90.000000
_cell_angle_beta 70.000000
_cell_angle_gamma 90.000000
_cell_volume 2740.143682
_symmetry_space_group_name_H-M "C 2/M"
_symmetry_group_IT_number 12
_symmetry_cell_setting 'monoclinic'
loop_
_space_group_symop_operation_xyz
x,y,z
-x,y,-z
-x,-y,-z
x,-y,z
1/2+x,1/2+y,z
1/2-x,1/2+y,-z
1/2-x,1/2-y,-z
1/2+x,1/2-y,z
loop_
_atom_site_type_symbol
_atom_site_label
_atom_site_fract_x
_atom_site_fract_y
_atom_site_fract_z
Si Si1 0.037061 0.828600 0.320264
Si Si2 0.217521 0.825785 0.437091
Si Si3 0.166488 0.173489 0.018210
Si Si4 0.706222 0.178675 0.290862
Si Si5 0.647154 0.325272 0.851083
Si Si6 0.984292 0.826765 0.847804
Si Si7 0.929797 0.334355 0.466446
O O1 0.121946 0.756447 0.308656
O O2 0.024631 0.828524 0.236714
O O3 0.968103 0.729784 0.379345
O O4 0.034344 0.000000 0.347704
O O5 0.250000 0.750000 0.500000
O O6 0.242872 0.734734 0.355928
O O7 0.125608 0.789042 0.478716
O O8 0.233179 0.000000 0.425393
O O9 0.094657 0.240664 0.090038
O O10 0.176268 0.000000 0.035050
O O11 0.250000 0.250000 0.000000
O O12 0.142686 0.183502 0.940533
O O13 0.768571 0.229519 0.207183
O O14 0.695107 0.000000 0.295371
O O15 0.648500 0.500000 0.828660
O O16 0.567832 0.258577 0.843270
O O17 0.985636 0.000000 0.874274
O O18 0.893219 0.500000 0.469806
O O19 0.000000 0.351561 0.500000
#
# Coordination Sequence:
#
# PCOD9224026 Si02
#       7
#     8   8   8   8   8   8   8
#     4  11  22  36  59  87 118 157 200 249 304 359
#     4  12  26  43  64  89 121 158 201 248 303 362
#     4  10  19  35  61  88 118 154 195 240 291 351
#     4  11  22  38  59  85 119 157 200 250 299 356
#     4   9  19  35  58  86 116 155 200 245 293 347
#     4   9  19  35  57  88 118 151 198 248 292 349
#     4  11  23  41  64  89 119 156 202 252 302 355
#
# _framework density 10.218442
#
# number of rings (size 3 to 8) (size 9 to 14) (size 15 to 20)
#    0.000    1.571    1.429    3.857    2.000    2.286 
#    0.000    1.429    0.000    5.143    0.000    0.000 
#    0.000    0.000    0.000    0.000    0.000    0.000 
#
# Total GULP energy -156181.657935 kJ/mol
# GULP energy per Si atom -5577.916355 kJ/mol
# Density = 1.019518 g / cm^3
# Si number density = 10.218442 Si / 1000 Ang^3
#
#
#
# Elastic Constant Matrix: (Units=GPa)
#
#
# Indices 1 2 3 4 5 6 
#
# 1 56.0189 7.5841 -5.2658 0.0000 6.9578 0.0000
# 2 7.5841 59.0472 -0.4626 0.0000 7.3797 -0.0001
# 3 -5.2658 -0.4626 33.2214 0.0000 -29.5337 0.0000
# 4 0.0000 0.0000 0.0000 33.0240 0.0000 -2.2153
# 5 6.9578 7.3797 -29.5337 0.0000 16.6682 0.0000
# 6 0.0000 -0.0001 0.0000 -2.2153 0.0000 24.1834
#
#
#
# Elastic Compliance Matrix: (Units=1/GPa)
#
#
# Indices 1 2 3 4 5 6 
#
# 1 0.018377 -0.002628 0.005058 0.000000 0.002454 0.000000
# 2 -0.002628 0.015975 0.009574 0.000000 0.010987 0.000000
# 3 0.005058 0.009574 -0.044144 0.000000 -0.084568 0.000000
# 4 0.000000 0.000000 0.000000 0.030468 0.000000 0.002791
# 5 0.002454 0.010987 -0.084568 0.000000 -0.095737 0.000000
# 6 0.000000 0.000000 0.000000 0.002791 0.000000 0.041606
#
#
# Mechanical properties :
#
#
# Convention : Reuss Voigt Hill
#
# Bulk Modulus (GPa) = 70.34183 16.88876 43.61530
# Shear Modulus (GPa) = -94.83362 24.53723 -35.14820
#
# Velocity S-wave (km/s) = -6.81938 3.46878 -4.15160
# Velocity P-wave (km/s) = 5.24513 4.93204 1.26222
#
# Compressibility (1/GPa) = 0.01421629
#
# Stress axis : x y z
#
# Youngs Moduli (GPa) = 54.41437 62.59824 -22.65290
#
# Poissons Ratio (x) = 0.16448 0.11458
# Poissons Ratio (y) = 0.14297 0.21687
# Poissons Ratio (z) = -0.27522 -0.59930
#
# Static dielectric constant tensor:
#      x y z
#    x 1.789580 0.000000 -0.025160 
#    y 0.000000 1.803060 0.000000 
#    z -0.025160 0.000000 1.748440 
# 
# From -- ./inp_files/275193.got.cif
#   From: 2010.05.17/outbox.ucp.g08.bks.cvg/sg12_138_cif.got.tgz:275193.got - 2010.06.11 11:47:21.
