data_PCOD9224394
_publ_section_title
;
Structure prediction by ZEFSAII (Michael W. Deem and Ramdas Pophale) SiO2 
 PCOD9224394
Probable space group: C 2/M
;
_chemical_formula_sum "Si O2"
_cell_formula_units_Z 32
_cell_length_a 12.000000
_cell_length_b 21.000000
_cell_length_c 15.000000
_cell_angle_alpha 90.000000
_cell_angle_beta 110.000000
_cell_angle_gamma 90.000000
_cell_volume 3552.038107
_symmetry_space_group_name_H-M "C 2/M"
_symmetry_group_IT_number 12
_symmetry_cell_setting 'monoclinic'
loop_
_space_group_symop_operation_xyz
x,y,z
-x,y,-z
-x,-y,-z
x,-y,z
1/2+x,1/2+y,z
1/2-x,1/2+y,-z
1/2-x,1/2-y,-z
1/2+x,1/2-y,z
loop_
_atom_site_type_symbol
_atom_site_label
_atom_site_fract_x
_atom_site_fract_y
_atom_site_fract_z
Si Si1 0.152903 0.423226 0.482724
Si Si2 0.093013 0.356377 0.641748
Si Si3 0.418579 0.271888 0.117427
Si Si4 0.136787 0.793190 0.697560
Si Si5 0.079194 0.423680 0.825119
Si Si6 0.383991 0.825622 0.849031
Si Si7 0.271369 0.846093 0.011836
Si Si8 0.621839 0.426921 0.587532
O O1 0.126127 0.500000 0.482996
O O2 0.169450 0.390406 0.584350
O O3 0.265591 0.418171 0.448112
O O4 0.041645 0.382034 0.414405
O O5 0.109543 0.278453 0.648916
O O6 0.117483 0.389148 0.743751
O O7 0.426678 0.290650 0.223069
O O8 0.535504 0.236903 0.116863
O O9 0.322138 0.214286 0.081774
O O10 0.364985 0.329861 0.046039
O O11 0.276204 0.803319 0.757237
O O12 0.108947 0.860629 0.640391
O O13 0.057722 0.500000 0.809964
O O14 0.183859 0.407907 0.924093
O O15 0.964310 0.382847 0.829461
O O16 0.333703 0.845428 0.931559
O O17 0.500000 0.430764 0.500000
O O18 0.637522 0.500000 0.632936
#
# Coordination Sequence:
#
# PCOD9224394 Si02
#       8
#     8   8   8   8   8   8   8   8
#     4  10  22  41  62  84 117 157 196 239 299 357
#     4  11  21  36  57  92 118 151 196 241 300 340
#     4   9  17  34  51  74 120 143 184 231 285 348
#     4  11  22  34  58  88 115 143 196 244 278 347
#     4  11  20  34  56  84 122 153 192 244 290 342
#     4  10  20  34  54  85 116 155 190 235 298 340
#     4   9  18  32  52  80 114 154 189 228 291 345
#     4  10  24  44  62  82 117 160 192 235 303 358
#
# _framework density 9.0089120000000005
#
# number of rings (size 3 to 8) (size 9 to 14) (size 15 to 20)
#    0.000    1.875    2.500    3.750    1.750    4.000 
#    0.000    1.875    0.000    0.000    0.000    3.500 
#    0.000    0.000    0.000    0.000    0.000    0.000 
#
# Total GULP energy -178163.310918 kJ/mol
# GULP energy per Si atom -5567.603466 kJ/mol
# Density = 0.898841 g / cm^3
# Si number density = 9.008912 Si / 1000 Ang^3
#
#
#
# Elastic Constant Matrix: (Units=GPa)
#
#
# Indices 1 2 3 4 5 6 
#
# 1 41.5934 29.6957 19.7422 0.0000 7.3122 0.0000
# 2 29.6957 166.1346 55.6939 0.0000 -2.8919 0.0000
# 3 19.7422 55.6939 84.5386 0.0000 -4.3298 0.0000
# 4 0.0000 0.0000 0.0000 36.4317 0.0000 -0.4455
# 5 7.3122 -2.8919 -4.3298 0.0000 27.2236 0.0000
# 6 0.0000 0.0000 0.0000 -0.4455 0.0000 29.9281
#
#
#
# Elastic Compliance Matrix: (Units=1/GPa)
#
#
# Indices 1 2 3 4 5 6 
#
# 1 0.030996 -0.003999 -0.005093 0.000000 -0.009560 0.000000
# 2 -0.003999 0.008241 -0.004432 0.000000 0.001245 0.000000
# 3 -0.005093 -0.004432 0.016115 0.000000 0.003460 0.000000
# 4 0.000000 0.000000 0.000000 0.027454 0.000000 0.000409
# 5 -0.009560 0.001245 0.003460 0.000000 0.039983 0.000000
# 6 0.000000 0.000000 0.000000 0.000409 0.000000 0.033419
#
#
# Mechanical properties :
#
#
# Convention : Reuss Voigt Hill
#
# Bulk Modulus (GPa) = 35.33103 55.83670 45.58386
# Shear Modulus (GPa) = 25.94811 31.19233 28.57022
#
# Velocity S-wave (km/s) = 3.79903 4.16527 3.98636
# Velocity P-wave (km/s) = 6.23659 7.36136 6.82219
#
# Compressibility (1/GPa) = 0.02830373
#
# Stress axis : x y z
#
# Youngs Moduli (GPa) = 32.26235 121.33855 62.05320
#
# Poissons Ratio (x) = 0.48527 0.31606
# Poissons Ratio (y) = 0.12903 0.27500
# Poissons Ratio (z) = 0.16432 0.53774
#
# Static dielectric constant tensor:
#      x y z
#    x 1.646740 0.000000 0.013300 
#    y 0.000000 1.622130 0.000000 
#    z 0.013300 0.000000 1.691470 
# 
# From -- ./inp_files/207712.got.cif
#   From: 2010.05.17/outbox.ucp.g08.bks.cvg/sg12_104_cif.got.tgz:207712.got - 2010.06.11 11:47:21.
