data_PCOD9224881
_publ_section_title
;
Structure prediction by ZEFSAII (Michael W. Deem and Ramdas Pophale) SiO2 
 PCOD9224881
Probable space group: C 2/M
;
_chemical_formula_sum "Si O2"
_cell_formula_units_Z 32
_cell_length_a 18.000000
_cell_length_b 21.000000
_cell_length_c 24.000000
_cell_angle_alpha 90.000000
_cell_angle_beta 20.000000
_cell_angle_gamma 90.000000
_cell_volume 3102.806740
_symmetry_space_group_name_H-M "C 2/M"
_symmetry_group_IT_number 12
_symmetry_cell_setting 'monoclinic'
loop_
_space_group_symop_operation_xyz
x,y,z
-x,y,-z
-x,-y,-z
x,-y,z
1/2+x,1/2+y,z
1/2-x,1/2+y,-z
1/2-x,1/2-y,-z
1/2+x,1/2-y,z
loop_
_atom_site_type_symbol
_atom_site_label
_atom_site_fract_x
_atom_site_fract_y
_atom_site_fract_z
Si Si1 0.164813 0.431145 0.064419
Si Si2 0.534679 0.689110 0.125094
Si Si3 0.386331 0.347783 0.639947
Si Si4 0.908924 0.311669 0.394728
Si Si5 0.167252 0.779149 0.144216
Si Si6 0.249319 0.927355 0.434151
Si Si7 0.610292 0.797926 0.362453
Si Si8 0.920542 0.605568 0.996194
O O1 0.248204 0.500000 0.025667
O O2 0.165852 0.432445 0.996271
O O3 0.923289 0.424585 0.260648
O O4 0.304429 0.370853 0.985429
O O5 0.486012 0.701887 0.225559
O O6 0.347341 0.677840 0.212164
O O7 0.634244 0.755980 0.034076
O O8 0.500000 0.345568 0.500000
O O9 0.514842 0.403517 0.580267
O O10 0.400003 0.275341 0.651332
O O11 0.136954 0.364497 0.817652
O O12 0.750000 0.250000 0.500000
O O13 0.819253 0.373505 0.427922
O O14 0.111855 0.282970 0.218055
O O15 0.984377 0.332304 0.402426
O O16 0.243784 0.837850 0.127883
O O17 0.245399 0.000000 0.457073
O O18 0.500000 0.799702 0.500000
O O19 0.000000 0.579111 0.000000
#
# Coordination Sequence:
#
# PCOD9224881 Si02
#       8
#     8   8   8   8   8   8   8   8
#     4  10  22  42  63  85 124 173 211 253 313 380
#     4  10  20  37  60  87 119 159 202 259 305 368
#     4  11  21  36  63  93 127 168 207 252 311 387
#     4  12  23  39  65  93 126 163 208 264 317 375
#     4  10  21  34  58  91 125 156 199 257 319 363
#     4  11  24  42  63  91 126 165 212 261 313 376
#     4  11  23  37  62  92 124 155 207 260 317 366
#     4  11  22  36  59  94 131 161 207 263 320 379
#
# _framework density 10.313243
#
# number of rings (size 3 to 8) (size 9 to 14) (size 15 to 20)
#    0.000    1.250    5.000    1.500    1.750    1.000 
#    0.000    0.625    0.000    2.250    0.000    0.000 
#    0.000    0.000    0.000    0.000    0.000    0.000 
#
# Total GULP energy -178190.682647 kJ/mol
# GULP energy per Si atom -5568.458833 kJ/mol
# Density = 1.028977 g / cm^3
# Si number density = 10.313243 Si / 1000 Ang^3
#
#
#
# Elastic Constant Matrix: (Units=GPa)
#
#
# Indices 1 2 3 4 5 6 
#
# 1 121.1582 44.5686 22.3833 0.1736 -8.4679 0.1704
# 2 44.5686 123.1622 21.4145 0.0313 -8.3116 0.0550
# 3 22.3833 21.4145 44.5939 0.0273 -6.1754 -0.1524
# 4 0.1736 0.0313 0.0273 -1.1271 0.0316 -26.4426
# 5 -8.4679 -8.3116 -6.1754 0.0316 20.2279 -0.0677
# 6 0.1704 0.0550 -0.1524 -26.4426 -0.0677 -44.1386
#
#
#
# Elastic Compliance Matrix: (Units=1/GPa)
#
#
# Indices 1 2 3 4 5 6 
#
# 1 0.010096 -0.002931 -0.003384 -0.000032 0.001989 0.000063
# 2 -0.002931 0.009827 -0.002985 0.000030 0.001900 -0.000010
# 3 -0.003384 -0.002985 0.026303 -0.000222 0.005387 0.000017
# 4 -0.000032 0.000030 -0.000222 0.067965 -0.000311 -0.040715
# 5 0.001989 0.001900 0.005387 -0.000311 0.052695 0.000097
# 6 0.000063 -0.000010 0.000017 -0.040715 0.000097 0.001736
#
#
# Mechanical properties :
#
#
# Convention : Reuss Voigt Hill
#
# Bulk Modulus (GPa) = 36.19819 51.73855 43.96837
# Shear Modulus (GPa) = 25.45417 8.36232 16.90825
#
# Velocity S-wave (km/s) = 3.51672 2.01568 2.86621
# Velocity P-wave (km/s) = 5.83757 5.52768 5.68474
#
# Compressibility (1/GPa) = 0.02762569
#
# Stress axis : x y z
#
# Youngs Moduli (GPa) = 99.04900 101.75907 38.01838
#
# Poissons Ratio (x) = 0.29823 0.12867
# Poissons Ratio (y) = 0.29029 0.11349
# Poissons Ratio (z) = 0.33523 0.30375
#
# Static dielectric constant tensor:
#      x y z
#    x 1.822520 0.000020 0.009950 
#    y 0.000020 1.704470 0.000120 
#    z 0.009950 0.000120 1.871630 
# 
# From -- ./inp_files/344852.got.cif
#   From: 2010.05.17/outbox.ucp.g08.bks.cvg/sg12_173_cif.got.tgz:344852.got - 2010.06.11 11:47:21.
