data_PCOD9224108
_publ_section_title
;
Structure prediction by ZEFSAII (Michael W. Deem and Ramdas Pophale) SiO2 
 PCOD9224108
Probable space group: C 2/M
;
_chemical_formula_sum "Si O2"
_cell_formula_units_Z 32
_cell_length_a 21.000000
_cell_length_b 9.000000
_cell_length_c 24.000000
_cell_angle_alpha 90.000000
_cell_angle_beta 130.000000
_cell_angle_gamma 90.000000
_cell_volume 3474.777594
_symmetry_space_group_name_H-M "C 2/M"
_symmetry_group_IT_number 12
_symmetry_cell_setting 'monoclinic'
loop_
_space_group_symop_operation_xyz
x,y,z
-x,y,-z
-x,-y,-z
x,-y,z
1/2+x,1/2+y,z
1/2-x,1/2+y,-z
1/2-x,1/2-y,-z
1/2+x,1/2-y,z
loop_
_atom_site_type_symbol
_atom_site_label
_atom_site_fract_x
_atom_site_fract_y
_atom_site_fract_z
Si Si1 0.974041 0.679412 0.168132
Si Si2 0.281315 0.823521 0.074039
Si Si3 0.401086 0.177537 0.439372
Si Si4 0.982525 0.678987 0.687623
Si Si5 0.168144 0.321138 0.479289
Si Si6 0.467596 0.180002 0.920881
Si Si7 0.712112 0.828639 0.143782
Si Si8 0.622913 0.671683 0.691721
O O1 0.982995 0.500000 0.170015
O O2 0.879198 0.712630 0.131509
O O3 0.024650 0.729100 0.251766
O O4 0.994998 0.734854 0.117249
O O5 0.232818 0.763866 0.100436
O O6 0.272682 0.000000 0.065998
O O7 0.250000 0.750000 0.000000
O O8 0.500000 0.203339 0.500000
O O9 0.356728 0.226866 0.471855
O O10 0.373399 0.255575 0.367053
O O11 0.388959 0.000000 0.427128
O O12 0.991816 0.500000 0.693709
O O13 0.060478 0.745790 0.698510
O O14 0.904771 0.716146 0.605129
O O15 0.175659 0.500000 0.485120
O O16 0.250000 0.250000 0.500000
O O17 0.370371 0.215402 0.869745
O O18 0.479320 0.000000 0.927172
O O19 0.500000 0.232012 0.000000
O O20 0.788391 0.821913 0.228686
O O21 0.700194 0.000000 0.118607
O O22 0.597151 0.500000 0.671784
#
# Coordination Sequence:
#
# PCOD9224108 Si02
#       8
#     8   8   8   8   8   8   8   8
#     4   9  18  32  56  83 103 144 197 232 272 329
#     4  11  21  34  56  83 111 144 186 234 279 332
#     4  10  20  38  61  82 110 153 200 234 275 340
#     4  10  19  37  60  81 110 151 198 237 276 342
#     4  10  22  38  59  85 115 151 188 240 289 335
#     4   9  17  32  54  79 110 145 187 234 273 326
#     4  10  21  36  55  83 115 144 181 233 288 335
#     4  11  22  34  55  88 120 147 182 242 302 337
#
# _framework density 9.2092220000000005
#
# number of rings (size 3 to 8) (size 9 to 14) (size 15 to 20)
#    0.000    2.000    2.500    1.500    0.000    4.750 
#    0.000    2.500    0.000    4.875    0.000    0.000 
#    0.000    0.000    0.000    0.000    0.000    0.000 
#
# Total GULP energy -178414.535062 kJ/mol
# GULP energy per Si atom -5575.454221 kJ/mol
# Density = 0.918826 g / cm^3
# Si number density = 9.209222 Si / 1000 Ang^3
#
#
#
# Elastic Constant Matrix: (Units=GPa)
#
#
# Indices 1 2 3 4 5 6 
#
# 1 97.6810 13.2825 35.6020 0.0000 -20.7050 0.0000
# 2 13.2825 7.5398 21.0762 0.0000 0.8050 0.0000
# 3 35.6020 21.0762 84.2261 0.0000 -27.2402 0.0000
# 4 0.0000 0.0000 0.0000 15.3602 0.0000 -3.0909
# 5 -20.7050 0.8050 -27.2402 0.0000 39.5867 0.0000
# 6 0.0000 0.0000 0.0000 -3.0909 0.0000 28.0338
#
#
#
# Elastic Compliance Matrix: (Units=1/GPa)
#
#
# Indices 1 2 3 4 5 6 
#
# 1 -0.027074 0.475648 -0.148288 0.000000 -0.125871 0.000000
# 2 0.475648 -5.714413 1.732488 0.000000 1.557124 0.000000
# 3 -0.148288 1.732488 -0.508651 0.000000 -0.462797 0.000000
# 4 0.000000 0.000000 0.000000 0.066581 0.000000 0.007341
# 5 -0.125871 1.557124 -0.462797 0.000000 -0.390694 0.000000
# 6 0.000000 0.000000 0.000000 0.007341 0.000000 0.036481
#
#
# Mechanical properties :
#
#
# Convention : Reuss Voigt Hill
#
# Bulk Modulus (GPa) = -0.46939 36.59648 18.06355
# Shear Modulus (GPa) = -0.43985 24.56189 12.06102
#
# Velocity S-wave (km/s) = -0.48921 3.65574 2.56175
# Velocity P-wave (km/s) = 0.75796 6.14263 4.31030
#
# Compressibility (1/GPa) = -2.13044311
#
# Stress axis : x y z
#
# Youngs Moduli (GPa) = -36.93630 -0.17500 -1.96599
#
# Poissons Ratio (x) = 0.08324 -0.29153
# Poissons Ratio (y) = 17.56866 3.40605
# Poissons Ratio (z) = -5.47722 0.30318
#
# Static dielectric constant tensor:
#      x y z
#    x 1.703970 0.000000 0.021670 
#    y 0.000000 1.628100 0.000000 
#    z 0.021670 0.000000 1.612170 
# 
# From -- ./inp_files/346184.got.cif
#   From: 2010.05.17/outbox.ucp.g08.bks.cvg/sg12_174_cif.got.tgz:346184.got - 2010.06.11 11:47:21.
