data_PCOD9224004
_publ_section_title
;
Structure prediction by ZEFSAII (Michael W. Deem and Ramdas Pophale) SiO2 
 PCOD9224004
Probable space group: C 2/M
;
_chemical_formula_sum "Si O2"
_cell_formula_units_Z 32
_cell_length_a 30.000000
_cell_length_b 9.000000
_cell_length_c 12.000000
_cell_angle_alpha 90.000000
_cell_angle_beta 90.000000
_cell_angle_gamma 90.000000
_cell_volume 3240.000000
_symmetry_space_group_name_H-M "C 2/M"
_symmetry_group_IT_number 12
_symmetry_cell_setting 'monoclinic'
loop_
_space_group_symop_operation_xyz
x,y,z
-x,y,-z
-x,-y,-z
x,-y,z
1/2+x,1/2+y,z
1/2-x,1/2+y,-z
1/2-x,1/2-y,-z
1/2+x,1/2-y,z
loop_
_atom_site_type_symbol
_atom_site_label
_atom_site_fract_x
_atom_site_fract_y
_atom_site_fract_z
Si Si1 0.442604 0.831255 0.549253
Si Si2 0.659218 0.179174 0.740952
Si Si3 0.625204 0.323011 0.141361
Si Si4 0.295543 0.671020 0.471040
Si Si5 0.703051 0.677804 0.957759
Si Si6 0.529626 0.324767 0.223334
Si Si7 0.654095 0.835069 0.360831
Si Si8 0.943379 0.321758 0.290924
O O1 0.455673 0.725928 0.651752
O O2 0.389798 0.844978 0.563450
O O3 0.451908 0.781775 0.422454
O O4 0.460142 0.000000 0.568638
O O5 0.679805 0.241223 0.626937
O O6 0.687350 0.248269 0.842198
O O7 0.606758 0.223205 0.743230
O O8 0.661732 0.000000 0.743281
O O9 0.628028 0.500000 0.171017
O O10 0.571361 0.291881 0.140033
O O11 0.641640 0.211171 0.236860
O O12 0.660081 0.301363 0.040242
O O13 0.291196 0.500000 0.441132
O O14 0.250000 0.750000 0.500000
O O15 0.320933 0.696616 0.586482
O O16 0.709721 0.500000 0.945986
O O17 0.750000 0.750000 0.000000
O O18 0.522190 0.500000 0.220220
O O19 0.482090 0.243622 0.212803
O O20 0.675643 0.000000 0.364410
O O21 0.944892 0.500000 0.287480
#
# Coordination Sequence:
#
# PCOD9224004 Si02
#       8
#     8   8   8   8   8   8   8   8
#     4   9  17  32  52  78 118 165 202 240 295 359
#     4  11  24  45  67  92 126 162 208 261 314 373
#     4   9  21  41  61  86 124 164 206 256 309 368
#     4  12  25  40  61  89 125 164 203 248 308 374
#     4  11  25  46  70  93 120 160 208 260 318 375
#     4  10  20  33  54  87 121 159 207 255 300 356
#     4  10  19  35  59  88 121 160 203 249 303 363
#     4  10  20  36  57  83 121 165 202 247 310 372
#
# _framework density 9.8765429999999999
#
# number of rings (size 3 to 8) (size 9 to 14) (size 15 to 20)
#    0.000    1.750    1.250    3.000    1.750    5.000 
#    0.000    0.625    0.000    3.750    0.000    0.000 
#    0.000    0.000    0.000    0.000    0.000    0.000 
#
# Total GULP energy -178368.075031 kJ/mol
# GULP energy per Si atom -5574.002345 kJ/mol
# Density = 0.985406 g / cm^3
# Si number density = 9.876543 Si / 1000 Ang^3
#
#
#
# Elastic Constant Matrix: (Units=GPa)
#
#
# Indices 1 2 3 4 5 6 
#
# 1 124.4192 43.5457 23.2571 0.0000 -1.1541 0.0000
# 2 43.5457 71.7025 26.2194 0.0000 -8.1653 0.0000
# 3 23.2571 26.2194 37.3124 0.0000 0.0782 0.0000
# 4 0.0000 0.0000 0.0000 23.6513 0.0000 -2.1005
# 5 -1.1541 -8.1653 0.0782 0.0000 19.8983 0.0000
# 6 0.0000 0.0000 0.0000 -2.1005 0.0000 33.2005
#
#
#
# Elastic Compliance Matrix: (Units=1/GPa)
#
#
# Indices 1 2 3 4 5 6 
#
# 1 0.010465 -0.005603 -0.002582 0.000000 -0.001682 0.000000
# 2 -0.005603 0.023047 -0.012722 0.000000 0.009182 0.000000
# 3 -0.002582 -0.012722 0.037362 0.000000 -0.005517 0.000000
# 4 0.000000 0.000000 0.000000 0.042520 0.000000 0.002690
# 5 -0.001682 0.009182 -0.005517 0.000000 0.053948 0.000000
# 6 0.000000 0.000000 0.000000 0.002690 0.000000 0.030290
#
#
# Mechanical properties :
#
#
# Convention : Reuss Voigt Hill
#
# Bulk Modulus (GPa) = 34.41238 46.60871 40.51054
# Shear Modulus (GPa) = 20.06960 24.71083 22.39021
#
# Velocity S-wave (km/s) = 3.19097 3.54076 3.37041
# Velocity P-wave (km/s) = 5.57095 6.35318 5.97488
#
# Compressibility (1/GPa) = 0.02905931
#
# Stress axis : x y z
#
# Youngs Moduli (GPa) = 95.55231 43.38970 26.76545
#
# Poissons Ratio (x) = 0.24311 0.06912
# Poissons Ratio (y) = 0.53538 0.34051
# Poissons Ratio (z) = 0.24676 0.55200
#
# Static dielectric constant tensor:
#      x y z
#    x 1.786830 0.000000 0.039680 
#    y 0.000000 1.657690 0.000000 
#    z 0.039680 0.000000 1.682670 
# 
# From -- ./inp_files/187590.got.cif
#   From: 2010.05.17/outbox.ucp.g08.bks.cvg/sg12_94_cif.got.tgz:187590.got - 2010.06.11 11:47:21.
