data_PCOD9224051
_publ_section_title
;
Structure prediction by ZEFSAII (Michael W. Deem and Ramdas Pophale) SiO2 
 PCOD9224051
Probable space group: C 2/M
;
_chemical_formula_sum "Si O2"
_cell_formula_units_Z 32
_cell_length_a 15.000000
_cell_length_b 9.000000
_cell_length_c 30.000000
_cell_angle_alpha 90.000000
_cell_angle_beta 60.000000
_cell_angle_gamma 90.000000
_cell_volume 3507.402885
_symmetry_space_group_name_H-M "C 2/M"
_symmetry_group_IT_number 12
_symmetry_cell_setting 'monoclinic'
loop_
_space_group_symop_operation_xyz
x,y,z
-x,y,-z
-x,-y,-z
x,-y,z
1/2+x,1/2+y,z
1/2-x,1/2+y,-z
1/2-x,1/2-y,-z
1/2+x,1/2-y,z
loop_
_atom_site_type_symbol
_atom_site_label
_atom_site_fract_x
_atom_site_fract_y
_atom_site_fract_z
Si Si1 0.398058 0.821080 0.310733
Si Si2 0.312886 0.321669 0.246454
Si Si3 0.096170 0.678374 0.946115
Si Si4 0.097790 0.321957 0.506556
Si Si5 0.032902 0.322275 0.861411
Si Si6 0.332808 0.322697 0.419745
Si Si7 0.370205 0.179997 0.772539
Si Si8 0.692288 0.822086 0.112654
O O1 0.323877 0.754218 0.291544
O O2 0.371802 0.756700 0.365523
O O3 0.513753 0.774645 0.267389
O O4 0.392805 0.000000 0.312272
O O5 0.315876 0.500000 0.249881
O O6 0.405508 0.264952 0.191850
O O7 0.209218 0.277302 0.246177
O O8 0.102275 0.500000 0.948250
O O9 0.205244 0.747837 0.931400
O O10 0.074528 0.715341 0.899825
O O11 0.000000 0.728789 0.000000
O O12 0.089430 0.500000 0.516155
O O13 0.209709 0.294193 0.456102
O O14 0.107849 0.240317 0.551637
O O15 0.000000 0.278362 0.500000
O O16 0.046057 0.500000 0.850334
O O17 0.911619 0.290817 0.888449
O O18 0.346875 0.500000 0.413515
O O19 0.330524 0.230625 0.830851
O O20 0.370825 0.000000 0.774403
O O21 0.706838 0.000000 0.110132
#
# Coordination Sequence:
#
# PCOD9224051 Si02
#       8
#     8   8   8   8   8   8   8   8
#     4  11  22  39  58  80 116 156 188 223 280 342
#     4  11  21  35  56  82 108 139 184 233 274 320
#     4  10  22  38  55  81 114 143 178 231 286 330
#     4   9  19  38  63  85 112 156 198 230 282 344
#     4  10  20  36  57  78 107 145 180 219 276 340
#     4  10  21  37  57  87 120 147 189 244 282 322
#     4   9  19  35  55  78 107 144 183 223 270 332
#     4  10  19  36  58  79 104 141 186 222 267 333
#
# _framework density 9.1235599999999994
#
# number of rings (size 3 to 8) (size 9 to 14) (size 15 to 20)
#    0.000    2.000    2.500    1.125    0.000    3.000 
#    0.000    7.500    0.000    0.000    0.000    0.000 
#    0.000    0.000    0.000    0.000    0.000    0.000 
#
# Total GULP energy -178634.291264 kJ/mol
# GULP energy per Si atom -5582.321602 kJ/mol
# Density = 0.910279 g / cm^3
# Si number density = 9.123560 Si / 1000 Ang^3
#
#
#
# Elastic Constant Matrix: (Units=GPa)
#
#
# Indices 1 2 3 4 5 6 
#
# 1 80.7384 14.7046 -15.9394 0.0000 -2.1713 0.0000
# 2 14.7046 29.8116 13.6968 0.0000 2.2231 0.0000
# 3 -15.9394 13.6968 35.1953 0.0000 -3.1868 0.0000
# 4 0.0000 0.0000 0.0000 29.5047 0.0000 -1.1973
# 5 -2.1713 2.2231 -3.1868 0.0000 17.5294 0.0000
# 6 0.0000 0.0000 0.0000 -1.1973 0.0000 27.2237
#
#
#
# Elastic Compliance Matrix: (Units=1/GPa)
#
#
# Indices 1 2 3 4 5 6 
#
# 1 0.018838 -0.017133 0.015868 0.000000 0.007391 0.000000
# 2 -0.017133 0.057626 -0.031559 0.000000 -0.015168 0.000000
# 3 0.015868 -0.031559 0.049232 0.000000 0.014918 0.000000
# 4 0.000000 0.000000 0.000000 0.033954 0.000000 0.001493
# 5 0.007391 -0.015168 0.014918 0.000000 0.062598 0.000000
# 6 0.000000 0.000000 0.000000 0.001493 0.000000 0.036798
#
#
# Mechanical properties :
#
#
# Convention : Reuss Voigt Hill
#
# Bulk Modulus (GPa) = 16.65359 18.96324 17.80842
# Shear Modulus (GPa) = 14.50500 23.73711 19.12106
#
# Velocity S-wave (km/s) = 2.82249 3.61067 3.24063
# Velocity P-wave (km/s) = 4.44617 5.27234 4.87678
#
# Compressibility (1/GPa) = 0.06004712
#
# Stress axis : x y z
#
# Youngs Moduli (GPa) = 53.08531 17.35339 20.31211
#
# Poissons Ratio (x) = 0.29732 -0.32232
# Poissons Ratio (y) = 0.90953 0.64103
# Poissons Ratio (z) = -0.84237 0.54765
#
# Static dielectric constant tensor:
#      x y z
#    x 1.624280 0.000000 -0.001040 
#    y 0.000000 1.610590 0.000000 
#    z -0.001040 0.000000 1.608880 
# 
# From -- ./inp_files/374986.got.cif
#   From: 2010.05.17/outbox.ucp.g08.bks.cvg/sg12_188_cif.got.tgz:374986.got - 2010.06.11 11:47:21.
