data_PCOD9224035
_publ_section_title
;
Structure prediction by ZEFSAII (Michael W. Deem and Ramdas Pophale) SiO2 
 PCOD9224035
Probable space group: C 2/M
;
_chemical_formula_sum "Si O2"
_cell_formula_units_Z 32
_cell_length_a 9.000000
_cell_length_b 15.000000
_cell_length_c 30.000000
_cell_angle_alpha 90.000000
_cell_angle_beta 130.000000
_cell_angle_gamma 90.000000
_cell_volume 3102.479995
_symmetry_space_group_name_H-M "C 2/M"
_symmetry_group_IT_number 12
_symmetry_cell_setting 'monoclinic'
loop_
_space_group_symop_operation_xyz
x,y,z
-x,y,-z
-x,-y,-z
x,-y,z
1/2+x,1/2+y,z
1/2-x,1/2+y,-z
1/2-x,1/2-y,-z
1/2+x,1/2-y,z
loop_
_atom_site_type_symbol
_atom_site_label
_atom_site_fract_x
_atom_site_fract_y
_atom_site_fract_z
Si Si1 0.093482 0.599176 0.115466
Si Si2 0.339741 0.776152 0.705121
Si Si3 0.215401 0.747006 0.208786
Si Si4 0.301110 0.102894 0.362706
Si Si5 0.439086 0.598549 0.118226
Si Si6 0.501651 0.400780 0.387257
Si Si7 0.344136 0.845871 0.510274
Si Si8 0.177378 0.846550 0.000770
O O1 0.123767 0.500000 0.140199
O O2 0.184615 0.674332 0.164443
O O3 0.222167 0.606693 0.095875
O O4 0.867369 0.610514 0.060102
O O5 0.566162 0.777595 0.737606
O O6 0.344748 0.801773 0.757584
O O7 0.263926 0.674694 0.685780
O O8 0.179496 0.833376 0.647355
O O9 0.077786 0.828130 0.167167
O O10 0.145470 0.117974 0.373067
O O11 0.519956 0.121390 0.423008
O O12 0.287435 0.000000 0.346663
O O13 0.513140 0.500000 0.143708
O O14 0.410091 0.607904 0.060007
O O15 0.422767 0.500000 0.367035
O O16 0.653276 0.399067 0.457692
O O17 0.500000 0.844379 0.500000
O O18 0.250000 0.750000 0.500000
O O19 0.250000 0.750000 0.000000
O O20 0.000000 0.839134 0.000000
#
# Coordination Sequence:
#
# PCOD9224035 Si02
#       8
#     8   8   8   8   8   8   8   8
#     4  11  25  46  71  98 130 172 214 263 323 383
#     4  12  24  41  65  90 126 169 218 263 316 371
#     4  12  26  43  65  94 126 172 220 265 312 372
#     4  10  21  39  65  93 123 166 213 259 317 386
#     4  11  25  46  70  98 132 170 213 265 323 382
#     4  10  21  39  64  94 125 163 211 263 317 382
#     4  10  19  35  65  93 123 160 205 260 322 381
#     4  12  25  42  71 104 135 168 210 263 326 383
#
# _framework density 10.314329000000001
#
# number of rings (size 3 to 8) (size 9 to 14) (size 15 to 20)
#    0.000    1.000    5.000    1.875    1.750    5.500 
#    0.000    0.000    0.000    0.750    0.000    0.000 
#    0.000    0.000    0.000    0.000    0.000    0.000 
#
# Total GULP energy -178517.606052 kJ/mol
# GULP energy per Si atom -5578.675189 kJ/mol
# Density = 1.029085 g / cm^3
# Si number density = 10.314329 Si / 1000 Ang^3
#
#
#
# Elastic Constant Matrix: (Units=GPa)
#
#
# Indices 1 2 3 4 5 6 
#
# 1 77.2968 39.9723 27.5550 0.0000 16.5288 0.0000
# 2 39.9723 89.0694 34.9632 0.0000 34.5714 0.0000
# 3 27.5550 34.9632 83.0434 0.0000 25.2492 0.0000
# 4 0.0000 0.0000 0.0000 4.2065 0.0000 -1.0167
# 5 16.5288 34.5714 25.2492 0.0000 33.8614 0.0000
# 6 0.0000 0.0000 0.0000 -1.0167 0.0000 16.9206
#
#
#
# Elastic Compliance Matrix: (Units=1/GPa)
#
#
# Indices 1 2 3 4 5 6 
#
# 1 0.017460 -0.006962 -0.003145 0.000000 0.000931 0.000000
# 2 -0.006962 0.021839 -0.001472 0.000000 -0.017800 0.000000
# 3 -0.003145 -0.001472 0.016529 0.000000 -0.009287 0.000000
# 4 0.000000 0.000000 0.000000 0.241228 0.000000 0.014495
# 5 0.000931 -0.017800 -0.009287 0.000000 0.054176 0.000000
# 6 0.000000 0.000000 0.000000 0.014495 0.000000 0.059971
#
#
# Mechanical properties :
#
#
# Convention : Reuss Voigt Hill
#
# Bulk Modulus (GPa) = 30.61092 50.48785 40.54939
# Shear Modulus (GPa) = 11.22963 20.79229 16.01096
#
# Velocity S-wave (km/s) = 2.33571 3.17824 2.78897
# Velocity P-wave (km/s) = 4.70588 6.16409 5.48367
#
# Compressibility (1/GPa) = 0.03266808
#
# Stress axis : x y z
#
# Youngs Moduli (GPa) = 57.27499 45.79051 60.49981
#
# Poissons Ratio (x) = 0.31880 0.19028
# Poissons Ratio (y) = 0.39876 0.08907
# Poissons Ratio (z) = 0.18014 0.06742
#
# Static dielectric constant tensor:
#      x y z
#    x 1.779450 0.000000 -0.026340 
#    y 0.000000 1.782830 0.000000 
#    z -0.026340 0.000000 1.706200 
# 
# From -- ./inp_files/372582.got.cif
#   From: 2010.05.17/outbox.ucp.g08.bks.cvg/sg12_187_cif.got.tgz:372582.got - 2010.06.11 11:47:21.
