data_PCOD9224603
_publ_section_title
;
Structure prediction by ZEFSAII (Michael W. Deem and Ramdas Pophale) SiO2 
 PCOD9224603
Probable space group: C 2/M
;
_chemical_formula_sum "Si O2"
_cell_formula_units_Z 32
_cell_length_a 24.000000
_cell_length_b 9.000000
_cell_length_c 21.000000
_cell_angle_alpha 90.000000
_cell_angle_beta 50.000000
_cell_angle_gamma 90.000000
_cell_volume 3474.777594
_symmetry_space_group_name_H-M "C 2/M"
_symmetry_group_IT_number 12
_symmetry_cell_setting 'monoclinic'
loop_
_space_group_symop_operation_xyz
x,y,z
-x,y,-z
-x,-y,-z
x,-y,z
1/2+x,1/2+y,z
1/2-x,1/2+y,-z
1/2-x,1/2-y,-z
1/2+x,1/2-y,z
loop_
_atom_site_type_symbol
_atom_site_label
_atom_site_fract_x
_atom_site_fract_y
_atom_site_fract_z
Si Si1 0.474143 0.821897 0.224856
Si Si2 0.211570 0.178662 0.258338
Si Si3 0.750794 0.178454 0.907496
Si Si4 0.556374 0.675310 0.408652
Si Si5 0.683938 0.176034 0.708447
Si Si6 0.291021 0.177966 0.529864
Si Si7 0.059488 0.174616 0.614680
Si Si8 0.127202 0.822835 0.075174
O O1 0.400818 0.788943 0.238361
O O2 0.455587 0.755556 0.307857
O O3 0.548664 0.750738 0.144060
O O4 0.482454 0.000000 0.222232
O O5 0.223019 0.235858 0.179576
O O6 0.137496 0.238030 0.344593
O O7 0.284228 0.199247 0.245059
O O8 0.200313 0.000000 0.261366
O O9 0.817730 0.206547 0.906272
O O10 0.739563 0.000000 0.914655
O O11 0.675442 0.254269 0.983120
O O12 0.500000 0.744103 0.500000
O O13 0.564500 0.500000 0.420673
O O14 0.513747 0.682240 0.373378
O O15 0.738420 0.271985 0.625404
O O16 0.693235 0.000000 0.684927
O O17 0.250000 0.250000 0.500000
O O18 0.371749 0.249460 0.470968
O O19 0.296052 0.000000 0.521054
O O20 0.076500 0.000000 0.612017
O O21 0.118620 0.000000 0.075132
#
# Coordination Sequence:
#
# PCOD9224603 Si02
#       8
#     8   8   8   8   8   8   8   8
#     4  11  22  35  53  80 112 143 180 227 276 328
#     4   9  17  33  57  82 109 144 188 231 271 325
#     4   9  18  35  59  85 110 140 181 228 276 331
#     4   9  17  30  52  82 111 141 181 226 271 321
#     4  10  21  37  57  80 108 146 189 231 273 322
#     4  12  23  36  54  77 108 147 188 231 276 325
#     4  11  21  34  56  82 109 143 183 230 281 330
#     4  10  20  35  58  85 112 140 176 225 282 338
#
# _framework density 9.2092220000000005
#
# number of rings (size 3 to 8) (size 9 to 14) (size 15 to 20)
#    0.000    1.875    1.250    3.750    0.000    5.000 
#    0.000    1.250    0.000   12.000    0.000    0.000 
#    0.000    0.000    0.000    0.000    0.000    0.000 
#
# Total GULP energy -178472.826393 kJ/mol
# GULP energy per Si atom -5577.275825 kJ/mol
# Density = 0.918826 g / cm^3
# Si number density = 9.209222 Si / 1000 Ang^3
#
#
#
# Elastic Constant Matrix: (Units=GPa)
#
#
# Indices 1 2 3 4 5 6 
#
# 1 62.9574 39.3534 65.3257 0.0000 -29.1837 -0.0001
# 2 39.3534 51.2212 26.8646 0.0003 -15.6181 -0.0005
# 3 65.3257 26.8646 125.8403 0.0000 -27.0797 0.0000
# 4 0.0000 0.0003 0.0000 27.5880 0.0000 -8.7311
# 5 -29.1837 -15.6181 -27.0797 0.0000 36.3349 0.0000
# 6 -0.0001 -0.0005 0.0000 -8.7311 0.0000 19.6716
#
#
#
# Elastic Compliance Matrix: (Units=1/GPa)
#
#
# Indices 1 2 3 4 5 6 
#
# 1 0.086318 -0.041880 -0.029565 0.000000 0.029294 -0.000001
# 2 -0.041880 0.043952 0.010939 0.000000 -0.006592 0.000001
# 3 -0.029565 0.010939 0.020081 0.000000 -0.004078 0.000000
# 4 0.000000 0.000000 0.000000 0.042171 0.000000 0.018717
# 5 0.029294 -0.006592 -0.004078 0.000000 0.045177 0.000000
# 6 -0.000001 0.000001 0.000000 0.018717 0.000000 0.059142
#
#
# Mechanical properties :
#
#
# Convention : Reuss Voigt Hill
#
# Bulk Modulus (GPa) = 34.08316 55.90071 44.99193
# Shear Modulus (GPa) = 11.69227 23.95059 17.82143
#
# Velocity S-wave (km/s) = 2.52228 3.60996 3.11398
# Velocity P-wave (km/s) = 5.19881 6.91318 6.11636
#
# Compressibility (1/GPa) = 0.02934001
#
# Stress axis : x y z
#
# Youngs Moduli (GPa) = 11.58512 22.75203 49.79761
#
# Poissons Ratio (x) = 0.95285 1.47224
# Poissons Ratio (y) = 0.48518 -0.54473
# Poissons Ratio (z) = 0.34251 -0.24888
#
# Static dielectric constant tensor:
#      x y z
#    x 1.647920 0.000000 0.039110 
#    y 0.000000 1.623740 0.000000 
#    z 0.039110 0.000000 1.665480 
# 
# From -- ./inp_files/324082.got.cif
#   From: 2010.05.17/outbox.ucp.g08.bks.cvg/sg12_163_cif.got.tgz:324082.got - 2010.06.11 11:47:21.
