data_PCOD9224821
_publ_section_title
;
Structure prediction by ZEFSAII (Michael W. Deem and Ramdas Pophale) SiO2 
 PCOD9224821
Probable space group: C 2/M
;
_chemical_formula_sum "Si O2"
_cell_formula_units_Z 28
_cell_length_a 21.000000
_cell_length_b 9.000000
_cell_length_c 30.000000
_cell_angle_alpha 90.000000
_cell_angle_beta 30.000000
_cell_angle_gamma 90.000000
_cell_volume 2835.000000
_symmetry_space_group_name_H-M "C 2/M"
_symmetry_group_IT_number 12
_symmetry_cell_setting 'monoclinic'
loop_
_space_group_symop_operation_xyz
x,y,z
-x,y,-z
-x,-y,-z
x,-y,z
1/2+x,1/2+y,z
1/2-x,1/2+y,-z
1/2-x,1/2-y,-z
1/2+x,1/2-y,z
loop_
_atom_site_type_symbol
_atom_site_label
_atom_site_fract_x
_atom_site_fract_y
_atom_site_fract_z
Si Si1 0.870768 0.321786 0.272563
Si Si2 0.605681 0.328994 0.834073
Si Si3 0.768270 0.322531 0.560370
Si Si4 0.331477 0.824069 0.910621
Si Si5 0.057696 0.825981 0.613460
Si Si6 0.634974 0.171223 0.973071
Si Si7 0.238087 0.831899 0.196819
O O1 0.860763 0.500000 0.279350
O O2 0.847074 0.254094 0.238496
O O3 0.777681 0.253045 0.365980
O O4 0.021520 0.281247 0.185597
O O5 0.573125 0.500000 0.845288
O O6 0.719562 0.305072 0.799132
O O7 0.485977 0.246255 0.929974
O O8 0.775278 0.500000 0.561742
O O9 0.896043 0.263498 0.458368
O O10 0.654286 0.286246 0.594659
O O11 0.255005 0.768385 0.914767
O O12 0.326857 0.000000 0.919581
O O13 0.250000 0.750000 0.000000
O O14 0.912933 0.811941 0.718797
O O15 0.077195 0.000000 0.591239
O O16 0.659129 0.166381 0.905683
O O17 0.641304 0.000000 0.984950
O O18 0.250858 0.000000 0.209253
#
# Coordination Sequence:
#
# PCOD9224821 Si02
#       7
#     8   8   8   8   8   8   8
#     4  11  23  39  59  84 117 157 195 234 289 350
#     4  12  25  39  57  82 116 155 197 245 289 340
#     4  10  20  36  62  93 121 149 186 236 288 343
#     4  11  22  35  56  84 116 152 190 237 287 339
#     4   9  19  38  62  89 119 152 188 232 289 347
#     4  11  22  38  60  85 116 155 196 239 290 347
#     4  10  22  40  61  83 113 155 198 239 287 345
#
# _framework density 9.8765429999999999
#
# number of rings (size 3 to 8) (size 9 to 14) (size 15 to 20)
#    0.000    1.429    1.429    4.286    0.000    6.857 
#    0.000    0.714    0.000    4.286    0.000    0.000 
#    0.000    0.000    0.000    0.000    0.000    0.000 
#
# Total GULP energy -156057.297540 kJ/mol
# GULP energy per Si atom -5573.474912 kJ/mol
# Density = 0.985406 g / cm^3
# Si number density = 9.876543 Si / 1000 Ang^3
#
#
#
# Elastic Constant Matrix: (Units=GPa)
#
#
# Indices 1 2 3 4 5 6 
#
# 1 33.8047 16.5818 15.7038 0.0005 20.0827 0.0002
# 2 16.5818 28.9806 41.5763 0.0005 19.2640 0.0045
# 3 15.7038 41.5763 108.6949 0.0000 36.3257 0.0003
# 4 0.0005 0.0005 0.0000 37.6600 -0.0001 3.7853
# 5 20.0827 19.2640 36.3257 -0.0001 26.6192 0.0004
# 6 0.0002 0.0045 0.0003 3.7853 0.0004 23.4577
#
#
#
# Elastic Compliance Matrix: (Units=1/GPa)
#
#
# Indices 1 2 3 4 5 6 
#
# 1 0.071352 -0.032656 0.022566 -0.000001 -0.060993 0.000007
# 2 -0.032656 0.105146 -0.033652 0.000001 -0.005534 -0.000020
# 3 0.022566 -0.033652 0.030082 -0.000001 -0.033722 0.000007
# 4 -0.000001 0.000001 -0.000001 0.026991 0.000001 -0.004355
# 5 -0.060993 -0.005534 -0.033722 0.000001 0.133606 0.000000
# 6 0.000007 -0.000020 0.000007 -0.004355 0.000000 0.043333
#
#
# Mechanical properties :
#
#
# Convention : Reuss Voigt Hill
#
# Bulk Modulus (GPa) = 8.39654 35.46713 21.93184
# Shear Modulus (GPa) = 9.29902 24.05526 16.67714
#
# Velocity S-wave (km/s) = 2.17206 3.49348 2.90880
# Velocity P-wave (km/s) = 3.24814 5.85378 4.73377
#
# Compressibility (1/GPa) = 0.11909662
#
# Stress axis : x y z
#
# Youngs Moduli (GPa) = 14.01510 9.51056 33.24297
#
# Poissons Ratio (x) = 0.31058 -0.75017
# Poissons Ratio (y) = 0.45768 1.11868
# Poissons Ratio (z) = -0.31627 0.32004
#
# Static dielectric constant tensor:
#      x y z
#    x 1.865750 0.000000 -0.012390 
#    y 0.000000 1.678090 0.000000 
#    z -0.012390 0.000000 1.683040 
# 
# From -- ./inp_files/237443.got.cif
#   From: 2010.05.17/outbox.ucp.g08.bks.cvg/sg12_119_cif.got.tgz:237443.got - 2010.06.11 11:47:21.
