data_PCOD9224576
_publ_section_title
;
Structure prediction by ZEFSAII (Michael W. Deem and Ramdas Pophale) SiO2 
 PCOD9224576
Probable space group: C 2/M
;
_chemical_formula_sum "Si O2"
_cell_formula_units_Z 32
_cell_length_a 18.000000
_cell_length_b 9.000000
_cell_length_c 21.000000
_cell_angle_alpha 90.000000
_cell_angle_beta 90.000000
_cell_angle_gamma 90.000000
_cell_volume 3402.000000
_symmetry_space_group_name_H-M "C 2/M"
_symmetry_group_IT_number 12
_symmetry_cell_setting 'monoclinic'
loop_
_space_group_symop_operation_xyz
x,y,z
-x,y,-z
-x,-y,-z
x,-y,z
1/2+x,1/2+y,z
1/2-x,1/2+y,-z
1/2-x,1/2-y,-z
1/2+x,1/2-y,z
loop_
_atom_site_type_symbol
_atom_site_label
_atom_site_fract_x
_atom_site_fract_y
_atom_site_fract_z
Si Si1 0.498217 0.670848 0.075852
Si Si2 0.832093 0.678728 0.630730
Si Si3 0.164893 0.176663 0.122891
Si Si4 0.575200 0.176242 0.751214
Si Si5 0.914294 0.680545 0.500608
Si Si6 0.583850 0.323777 0.252739
Si Si7 0.340588 0.177311 0.121469
Si Si8 0.169372 0.320189 0.628041
O O1 0.494526 0.500000 0.101433
O O2 0.583184 0.729805 0.093676
O O3 0.417829 0.750057 0.092208
O O4 0.500000 0.665954 0.000000
O O5 0.828069 0.500000 0.633549
O O6 0.869791 0.723591 0.563823
O O7 0.885543 0.739092 0.685967
O O8 0.749808 0.746899 0.636497
O O9 0.145192 0.198143 0.197140
O O10 0.252513 0.226919 0.108806
O O11 0.166669 0.000000 0.108282
O O12 0.498197 0.261810 0.765292
O O13 0.639342 0.197774 0.804084
O O14 0.611631 0.218551 0.684132
O O15 0.557363 0.000000 0.750559
O O16 0.917000 0.500000 0.499765
O O17 0.868383 0.725793 0.438352
O O18 0.000000 0.732422 0.500000
O O19 0.577916 0.500000 0.263792
O O20 0.342412 0.000000 0.106862
O O21 0.178160 0.500000 0.629053
#
# Coordination Sequence:
#
# PCOD9224576 Si02
#       8
#     8   8   8   8   8   8   8   8
#     4  10  21  39  61  86 119 156 194 237 285 338
#     4  11  22  35  53  80 112 143 185 239 288 336
#     4   9  19  37  59  84 116 155 192 233 289 348
#     4  10  20  35  57  84 112 144 188 240 288 338
#     4   9  18  34  55  76 102 142 186 231 285 344
#     4  11  21  36  59  82 111 151 192 232 288 350
#     4  10  20  36  59  85 117 153 192 236 286 342
#     4  10  20  36  57  79 108 148 190 229 283 351
#
# _framework density 9.4062319999999993
#
# number of rings (size 3 to 8) (size 9 to 14) (size 15 to 20)
#    0.000    2.000    1.250    2.625    0.000    5.250 
#    0.000    3.750    0.000    2.625    0.000    0.000 
#    0.000    0.000    0.000    0.000    0.000    0.000 
#
# Total GULP energy -178168.753305 kJ/mol
# GULP energy per Si atom -5567.773541 kJ/mol
# Density = 0.938482 g / cm^3
# Si number density = 9.406232 Si / 1000 Ang^3
#
#
#
# Elastic Constant Matrix: (Units=GPa)
#
#
# Indices 1 2 3 4 5 6 
#
# 1 177.5001 33.7523 24.7375 0.0000 -2.3470 0.0000
# 2 33.7523 36.9827 13.7048 0.0000 -4.8885 0.0000
# 3 24.7375 13.7048 69.2156 0.0000 0.1321 0.0000
# 4 0.0000 0.0000 0.0000 16.8143 0.0000 0.7758
# 5 -2.3470 -4.8885 0.1321 0.0000 31.0484 0.0000
# 6 0.0000 0.0000 0.0000 0.7758 0.0000 37.3793
#
#
#
# Elastic Compliance Matrix: (Units=1/GPa)
#
#
# Indices 1 2 3 4 5 6 
#
# 1 0.006932 -0.005894 -0.001310 0.000000 -0.000398 0.000000
# 2 -0.005894 0.034869 -0.004808 0.000000 0.005065 0.000000
# 3 -0.001310 -0.004808 0.015869 0.000000 -0.000923 0.000000
# 4 0.000000 0.000000 0.000000 0.059530 0.000000 -0.001236
# 5 -0.000398 0.005065 -0.000923 0.000000 0.032979 0.000000
# 6 0.000000 0.000000 0.000000 -0.001236 0.000000 0.026778
#
#
# Mechanical properties :
#
#
# Convention : Reuss Voigt Hill
#
# Bulk Modulus (GPa) = 29.71857 47.56528 38.64193
# Shear Modulus (GPa) = 23.56310 31.14865 27.35588
#
# Velocity S-wave (km/s) = 3.54294 4.07350 3.81745
# Velocity P-wave (km/s) = 5.70685 6.88936 6.32580
#
# Compressibility (1/GPa) = 0.03364899
#
# Stress axis : x y z
#
# Youngs Moduli (GPa) = 144.26382 28.67836 63.01454
#
# Poissons Ratio (x) = 0.16902 0.08253
# Poissons Ratio (y) = 0.85023 0.30294
# Poissons Ratio (z) = 0.18894 0.13787
#
# Static dielectric constant tensor:
#      x y z
#    x 1.653700 0.000000 0.008300 
#    y 0.000000 1.654450 0.000000 
#    z 0.008300 0.000000 1.684250 
# 
# From -- ./inp_files/314078.got.cif
#   From: 2010.05.17/outbox.ucp.g08.bks.cvg/sg12_158_cif.got.tgz:314078.got - 2010.06.11 11:47:21.
