data_PCOD9224829
_publ_section_title
;
Structure prediction by ZEFSAII (Michael W. Deem and Ramdas Pophale) SiO2 
 PCOD9224829
Probable space group: C 2/M
;
_chemical_formula_sum "Si O2"
_cell_formula_units_Z 20
_cell_length_a 30.000000
_cell_length_b 9.000000
_cell_length_c 9.000000
_cell_angle_alpha 90.000000
_cell_angle_beta 60.000000
_cell_angle_gamma 90.000000
_cell_volume 2104.441731
_symmetry_space_group_name_H-M "C 2/M"
_symmetry_group_IT_number 12
_symmetry_cell_setting 'monoclinic'
loop_
_space_group_symop_operation_xyz
x,y,z
-x,y,-z
-x,-y,-z
x,-y,z
1/2+x,1/2+y,z
1/2-x,1/2+y,-z
1/2-x,1/2-y,-z
1/2+x,1/2-y,z
loop_
_atom_site_type_symbol
_atom_site_label
_atom_site_fract_x
_atom_site_fract_y
_atom_site_fract_z
Si Si1 0.265196 0.822242 0.132618
Si Si2 0.068743 0.680042 0.767241
Si Si3 0.535167 0.322090 0.136102
Si Si4 0.168422 0.675931 0.410855
Si Si5 0.375135 0.824382 0.850495
O O1 0.223335 0.759683 0.318377
O O2 0.260289 0.000000 0.132002
O O3 0.250000 0.750000 0.000000
O O4 0.326361 0.789779 0.040332
O O5 0.064900 0.500000 0.782707
O O6 0.124095 0.717543 0.602781
O O7 0.020749 0.745488 0.752883
O O8 0.059212 0.753449 0.943979
O O9 0.530071 0.500000 0.133280
O O10 0.575647 0.273530 0.193618
O O11 0.178487 0.500000 0.410307
O O12 0.143886 0.697923 0.287082
O O13 0.387143 0.000000 0.848453
#
# Coordination Sequence:
#
# PCOD9224829 Si02
#       5
#     8   8   8   8   8
#     4   9  17  30  51  76 105 137 168 205 252 301
#     4  10  20  37  57  74  99 137 171 207 258 311
#     4  11  22  35  52  76 103 134 172 213 253 299
#     4   9  19  34  55  80 103 131 171 212 253 302
#     4   9  18  34  53  76 104 135 169 205 249 303
#
# _framework density 9.5037079999999996
#
# number of rings (size 3 to 8) (size 9 to 14) (size 15 to 20)
#    0.000    2.400    0.000    5.400    0.000    6.400 
#    0.000    5.000    0.000    0.000    0.000    0.000 
#    0.000    0.000    0.000    0.000    0.000    0.000 
#
# Total GULP energy -111562.407431 kJ/mol
# GULP energy per Si atom -5578.120372 kJ/mol
# Density = 0.948208 g / cm^3
# Si number density = 9.503708 Si / 1000 Ang^3
#
#
#
# Elastic Constant Matrix: (Units=GPa)
#
#
# Indices 1 2 3 4 5 6 
#
# 1 8.0876 -0.8604 -22.8081 0.0000 -2.6958 0.0000
# 2 -0.8604 64.5938 4.3280 0.0000 -3.7067 0.0000
# 3 -22.8081 4.3280 60.4414 0.0000 -25.2426 0.0000
# 4 0.0000 0.0000 0.0000 30.3272 0.0000 -7.9845
# 5 -2.6958 -3.7067 -25.2426 0.0000 21.0030 0.0000
# 6 0.0000 0.0000 0.0000 -7.9845 0.0000 32.2396
#
#
#
# Elastic Compliance Matrix: (Units=1/GPa)
#
#
# Indices 1 2 3 4 5 6 
#
# 1 -0.067431 -0.001525 -0.058353 0.000000 -0.079056 0.000000
# 2 -0.001525 0.015605 -0.001254 0.000000 0.001052 0.000000
# 3 -0.058353 -0.001254 -0.017279 0.000000 -0.028477 0.000000
# 4 0.000000 0.000000 0.000000 0.035274 0.000000 0.008736
# 5 -0.079056 0.001052 -0.028477 0.000000 0.003425 0.000000
# 6 0.000000 0.000000 0.000000 0.008736 0.000000 0.033181
#
#
# Mechanical properties :
#
#
# Convention : Reuss Voigt Hill
#
# Bulk Modulus (GPa) = -5.22553 10.49352 2.63400
# Shear Modulus (GPa) = 81.63156 26.87819 54.25487
#
# Velocity S-wave (km/s) = 6.56052 3.76452 5.34846
# Velocity P-wave (km/s) = 7.39135 4.94249 6.28730
#
# Compressibility (1/GPa) = -0.19136820
#
# Stress axis : x y z
#
# Youngs Moduli (GPa) = -14.82999 64.08043 -57.87522
#
# Poissons Ratio (x) = 0.09772 -3.37721
# Poissons Ratio (y) = -0.02262 -0.07256
# Poissons Ratio (z) = -0.86538 0.08034
#
# Static dielectric constant tensor:
#      x y z
#    x 1.689690 0.000000 0.001940 
#    y 0.000000 1.632470 0.000000 
#    z 0.001940 0.000000 1.683420 
# 
# From -- ./inp_files/101107.got.cif
#   From: 2010.05.17/outbox.ucp.g08.bks.cvg/sg12_51_cif.got.tgz:101107.got - 2010.06.11 11:47:21.
