data_PCOD9224887
_publ_section_title
;
Structure prediction by ZEFSAII (Michael W. Deem and Ramdas Pophale) SiO2 
 PCOD9224887
Probable space group: C 2/M
;
_chemical_formula_sum "Si O2"
_cell_formula_units_Z 24
_cell_length_a 18.000000
_cell_length_b 9.000000
_cell_length_c 30.000000
_cell_angle_alpha 90.000000
_cell_angle_beta 150.000000
_cell_angle_gamma 90.000000
_cell_volume 2430.000000
_symmetry_space_group_name_H-M "C 2/M"
_symmetry_group_IT_number 12
_symmetry_cell_setting 'monoclinic'
loop_
_space_group_symop_operation_xyz
x,y,z
-x,y,-z
-x,-y,-z
x,-y,z
1/2+x,1/2+y,z
1/2-x,1/2+y,-z
1/2-x,1/2-y,-z
1/2+x,1/2-y,z
loop_
_atom_site_type_symbol
_atom_site_label
_atom_site_fract_x
_atom_site_fract_y
_atom_site_fract_z
Si Si1 0.252355 0.675700 0.220454
Si Si2 0.297690 0.176553 0.435032
Si Si3 0.544620 0.325920 0.928488
Si Si4 0.369987 0.176647 0.369016
Si Si5 0.506482 0.823217 0.717768
Si Si6 0.379849 0.824143 0.125213
O O1 0.258222 0.500000 0.222161
O O2 0.284110 0.732934 0.287089
O O3 0.376393 0.745999 0.253445
O O4 0.091184 0.734512 0.122445
O O5 0.318349 0.205744 0.392788
O O6 0.453931 0.211229 0.539799
O O7 0.158296 0.268613 0.379078
O O8 0.271353 0.000000 0.426257
O O9 0.508790 0.500000 0.910237
O O10 0.567265 0.270726 0.889425
O O11 0.701649 0.304137 0.034728
O O12 0.352277 0.000000 0.351611
O O13 0.544147 0.783774 0.788772
O O14 0.518794 0.000000 0.719912
O O15 0.407347 0.000000 0.130549
#
# Coordination Sequence:
#
# PCOD9224887 Si02
#       6
#     8   8   8   8   8   8
#     4  12  25  38  54  80 114 149 188 230 274 328
#     4   9  19  37  61  87 112 141 181 227 274 328
#     4  10  20  37  61  85 112 145 182 227 277 327
#     4   9  19  38  62  85 111 144 182 225 275 329
#     4  11  23  38  56  80 113 150 186 226 275 328
#     4   9  20  38  60  86 112 143 185 228 271 326
#
# _framework density 9.8765429999999999
#
# number of rings (size 3 to 8) (size 9 to 14) (size 15 to 20)
#    0.000    2.000    0.000    4.500    0.000    7.333 
#    0.000    5.000    0.000    0.000    0.000    0.000 
#    0.000    0.000    0.000    0.000    0.000    0.000 
#
# Total GULP energy -134150.178473 kJ/mol
# GULP energy per Si atom -5589.590770 kJ/mol
# Density = 0.985406 g / cm^3
# Si number density = 9.876543 Si / 1000 Ang^3
#
#
#
# Elastic Constant Matrix: (Units=GPa)
#
#
# Indices 1 2 3 4 5 6 
#
# 1 15.3141 17.6515 8.5218 0.0000 28.5267 0.0000
# 2 17.6515 46.9210 30.6007 0.0000 20.2605 0.0000
# 3 8.5218 30.6007 58.7224 0.0001 20.5390 0.0000
# 4 0.0000 0.0000 0.0001 33.2339 0.0000 6.4490
# 5 28.5267 20.2605 20.5390 0.0000 29.9754 0.0000
# 6 0.0000 0.0000 0.0000 6.4490 0.0000 23.7804
#
#
#
# Elastic Compliance Matrix: (Units=1/GPa)
#
#
# Indices 1 2 3 4 5 6 
#
# 1 -0.067625 0.006265 -0.019044 0.000000 0.073170 0.000000
# 2 0.006265 0.036502 -0.012121 0.000000 -0.022329 0.000000
# 3 -0.019044 -0.012121 0.022233 0.000000 0.011082 0.000000
# 4 0.000000 0.000000 0.000000 0.031761 0.000000 -0.008613
# 5 0.073170 -0.022329 0.011082 0.000000 -0.028774 0.000000
# 6 0.000000 0.000000 0.000000 -0.008613 0.000000 0.044387
#
#
# Mechanical properties :
#
#
# Convention : Reuss Voigt Hill
#
# Bulk Modulus (GPa) = -17.03917 26.05618 4.50851
# Shear Modulus (GPa) = 72.75805 21.67683 47.21744
#
# Velocity S-wave (km/s) = 6.07567 3.31628 4.89446
# Velocity P-wave (km/s) = 6.36973 5.28045 5.85050
#
# Compressibility (1/GPa) = -0.05868830
#
# Stress axis : x y z
#
# Youngs Moduli (GPa) = -14.78747 27.39564 44.97769
#
# Poissons Ratio (x) = -0.17163 0.85653
# Poissons Ratio (y) = 0.09264 0.54517
# Poissons Ratio (z) = -0.28161 0.33206
#
# Static dielectric constant tensor:
#      x y z
#    x 1.687060 0.000000 0.019070 
#    y 0.000000 1.651290 0.000000 
#    z 0.019070 0.000000 1.687780 
# 
# From -- ./inp_files/274029.got.cif
#   From: 2010.05.17/outbox.ucp.g08.bks.cvg/sg12_138_cif.got.tgz:274029.got - 2010.06.11 11:47:21.
