data_PCOD9224996
_publ_section_title
;
Structure prediction by ZEFSAII (Michael W. Deem and Ramdas Pophale) SiO2 
 PCOD9224996
Probable space group: C 2/M
;
_chemical_formula_sum "Si O2"
_cell_formula_units_Z 28
_cell_length_a 21.000000
_cell_length_b 18.000000
_cell_length_c 21.000000
_cell_angle_alpha 90.000000
_cell_angle_beta 160.000000
_cell_angle_gamma 90.000000
_cell_volume 2714.955898
_symmetry_space_group_name_H-M "C 2/M"
_symmetry_group_IT_number 12
_symmetry_cell_setting 'monoclinic'
loop_
_space_group_symop_operation_xyz
x,y,z
-x,y,-z
-x,-y,-z
x,-y,z
1/2+x,1/2+y,z
1/2-x,1/2+y,-z
1/2-x,1/2-y,-z
1/2+x,1/2-y,z
loop_
_atom_site_type_symbol
_atom_site_label
_atom_site_fract_x
_atom_site_fract_y
_atom_site_fract_z
Si Si1 0.572343 0.911937 0.334015
Si Si2 0.317423 0.584669 0.090643
Si Si3 0.351183 0.585889 0.697318
Si Si4 0.279074 0.082726 0.778623
Si Si5 0.640162 0.696548 0.753100
Si Si6 0.227228 0.665277 0.353728
Si Si7 0.475519 0.290371 0.052802
O O1 0.657638 0.890265 0.482270
O O2 0.660097 0.867293 0.357561
O O3 0.616086 0.000000 0.367462
O O4 0.352417 0.903639 0.117649
O O5 0.299978 0.500000 0.100046
O O6 0.505720 0.589883 0.227642
O O7 0.311812 0.644533 0.141285
O O8 0.339005 0.500000 0.706654
O O9 0.434821 0.637917 0.830148
O O10 0.191988 0.147310 0.739755
O O11 0.246747 0.100315 0.674043
O O12 0.210852 0.000000 0.730949
O O13 0.500000 0.084186 0.000000
O O14 0.420596 0.707158 0.545714
O O15 0.760986 0.771100 0.866070
O O16 0.082205 0.720684 0.184710
O O17 0.500000 0.291502 0.000000
#
# Coordination Sequence:
#
# PCOD9224996 Si02
#       7
#     8   8   8   8   8   8   8
#     4  10  20  38  63  93 128 162 201 251 302 365
#     4  10  20  38  63  93 128 162 201 251 302 365
#     4  10  24  45  68  91 116 156 210 264 317 371
#     4  11  21  35  57  86 127 176 214 244 288 357
#     4  12  22  37  59  90 130 168 205 244 300 364
#     4  12  22  37  59  90 130 168 205 244 300 364
#     4  12  26  45  62  88 127 161 209 263 310 362
#
# _framework density 10.313243
#
# number of rings (size 3 to 8) (size 9 to 14) (size 15 to 20)
#    0.000    1.000    5.714    1.286    0.000    7.143 
#    0.000    0.000    0.000    0.000    0.000    6.000 
#    0.000    0.000    0.000    0.000    0.000    0.000 
#
# Total GULP energy -156536.698252 kJ/mol
# GULP energy per Si atom -5590.596366 kJ/mol
# Density = 1.028977 g / cm^3
# Si number density = 10.313243 Si / 1000 Ang^3
#
#
#
# Elastic Constant Matrix: (Units=GPa)
#
#
# Indices 1 2 3 4 5 6 
#
# 1 26.3897 22.9011 6.3108 -0.0352 -17.3049 0.0214
# 2 22.9011 53.7064 8.2935 -0.0783 -22.6832 0.0536
# 3 6.3108 8.2935 106.9103 -0.0920 -11.9264 0.0528
# 4 -0.0352 -0.0783 -0.0920 4.5530 -0.0254 5.8786
# 5 -17.3049 -22.6832 -11.9264 -0.0254 29.3499 0.0218
# 6 0.0214 0.0536 0.0528 5.8786 0.0218 4.7173
#
#
#
# Elastic Compliance Matrix: (Units=1/GPa)
#
#
# Indices 1 2 3 4 5 6 
#
# 1 0.073120 -0.019253 0.000340 -0.001179 0.028368 0.001222
# 2 -0.019253 0.032710 0.000158 -0.001557 0.013990 0.001590
# 3 0.000340 0.000158 0.009801 -0.000655 0.004304 0.000684
# 4 -0.001179 -0.001557 -0.000655 -0.360450 -0.002811 0.449227
# 5 0.028368 0.013990 0.004304 -0.002811 0.063354 0.002874
# 6 0.001222 0.001590 0.000684 0.449227 0.002874 -0.347875
#
#
# Mechanical properties :
#
#
# Convention : Reuss Voigt Hill
#
# Bulk Modulus (GPa) = 12.80083 29.11303 20.95693
# Shear Modulus (GPa) = -10.73446 17.69079 3.47817
#
# Velocity S-wave (km/s) = -2.28375 2.93178 1.29997
# Velocity P-wave (km/s) = 0.85704 5.06019 3.52640
#
# Compressibility (1/GPa) = 0.07811994
#
# Stress axis : x y z
#
# Youngs Moduli (GPa) = 13.67612 30.57170 102.03523
#
# Poissons Ratio (x) = 0.58861 -0.03473
# Poissons Ratio (y) = 0.26331 -0.01608
# Poissons Ratio (z) = -0.00466 -0.00482
#
# Static dielectric constant tensor:
#      x y z
#    x 1.692290 -0.000010 0.017010 
#    y -0.000010 1.734600 -0.000010 
#    z 0.017010 -0.000010 1.768570 
# 
# From -- ./inp_files/322615.got.cif
#   From: 2010.05.17/outbox.ucp.g08.bks.cvg/sg12_162_cif.got.tgz:322615.got - 2010.06.11 11:47:21.
