data_PCOD9224202
_publ_section_title
;
Structure prediction by ZEFSAII (Michael W. Deem and Ramdas Pophale) SiO2 
 PCOD9224202
Probable space group: C 2/M
;
_chemical_formula_sum "Si O2"
_cell_formula_units_Z 24
_cell_length_a 9.000000
_cell_length_b 30.000000
_cell_length_c 9.000000
_cell_angle_alpha 90.000000
_cell_angle_beta 90.000000
_cell_angle_gamma 90.000000
_cell_volume 2430.000000
_symmetry_space_group_name_H-M "C 2/M"
_symmetry_group_IT_number 12
_symmetry_cell_setting 'monoclinic'
loop_
_space_group_symop_operation_xyz
x,y,z
-x,y,-z
-x,-y,-z
x,-y,z
1/2+x,1/2+y,z
1/2-x,1/2+y,-z
1/2-x,1/2-y,-z
1/2+x,1/2-y,z
loop_
_atom_site_type_symbol
_atom_site_label
_atom_site_fract_x
_atom_site_fract_y
_atom_site_fract_z
Si Si1 0.828073 0.552215 0.527631
Si Si2 0.429663 0.551212 0.667461
Si Si3 0.391403 0.287648 0.363572
Si Si4 0.331093 0.616879 0.250354
Si Si5 0.669601 0.265277 0.200193
Si Si6 0.170520 0.326421 0.010822
O O1 0.796044 0.500000 0.561203
O O2 0.739002 0.562503 0.375239
O O3 0.776196 0.582958 0.662825
O O4 0.000000 0.557596 0.500000
O O5 0.500000 0.552159 0.500000
O O6 0.442574 0.500000 0.722636
O O7 0.516557 0.588539 0.759705
O O8 0.500000 0.280475 0.500000
O O9 0.346794 0.339282 0.354236
O O10 0.499830 0.278539 0.223423
O O11 0.258593 0.253115 0.342257
O O12 0.265850 0.636950 0.098768
O O13 0.669074 0.220377 0.101973
O O14 0.754010 0.308681 0.139168
O O15 0.000000 0.341134 0.000000
#
# Coordination Sequence:
#
# PCOD9224202 Si02
#       6
#     8   8   8   8   8   8
#     4   9  17  33  58  87 121 152 179 223 288 351
#     4   8  14  29  52  78 111 143 174 219 279 344
#     4  11  21  36  55  83 110 142 184 248 294 334
#     4  10  20  32  53  83 113 142 191 235 276 330
#     4  10  21  37  59  73 106 151 198 234 284 346
#     4  10  20  38  56  76 106 154 205 238 271 330
#
# _framework density 9.8765429999999999
#
# number of rings (size 3 to 8) (size 9 to 14) (size 15 to 20)
#    0.000    2.333    1.667    3.500    0.000    0.000 
#    6.000    1.667    0.000    2.000    0.000    9.333 
#    0.000    0.000    0.000    0.000    0.000    0.000 
#
# Total GULP energy -133692.838113 kJ/mol
# GULP energy per Si atom -5570.534921 kJ/mol
# Density = 0.985406 g / cm^3
# Si number density = 9.876543 Si / 1000 Ang^3
#
#
#
# Elastic Constant Matrix: (Units=GPa)
#
#
# Indices 1 2 3 4 5 6 
#
# 1 124.7525 57.2013 18.3104 0.0000 23.6877 0.0000
# 2 57.2013 115.8680 37.1988 0.0000 15.0980 0.0000
# 3 18.3104 37.1988 30.0562 0.0000 24.3728 0.0000
# 4 0.0000 0.0000 0.0000 -4.0046 0.0000 -9.8340
# 5 23.6877 15.0980 24.3728 0.0000 28.1843 0.0000
# 6 0.0000 0.0000 0.0000 -9.8340 0.0000 10.3078
#
#
#
# Elastic Compliance Matrix: (Units=1/GPa)
#
#
# Indices 1 2 3 4 5 6 
#
# 1 0.022141 -0.026007 0.075285 0.000000 -0.069780 0.000000
# 2 -0.026007 0.053876 -0.151150 0.000000 0.123706 0.000000
# 3 0.075285 -0.151150 0.535977 0.000000 -0.445799 0.000000
# 4 0.000000 0.000000 0.000000 -0.074702 0.000000 -0.071268
# 5 -0.069780 0.123706 -0.445799 0.000000 0.413371 0.000000
# 6 0.000000 0.000000 0.000000 -0.071268 0.000000 0.029022
#
#
# Mechanical properties :
#
#
# Convention : Reuss Voigt Hill
#
# Bulk Modulus (GPa) = 2.44949 55.12195 28.78572
# Shear Modulus (GPa) = 3.78928 17.42858 10.60893
#
# Velocity S-wave (km/s) = 1.38654 2.97361 2.32001
# Velocity P-wave (km/s) = 1.95091 6.30523 4.66701
#
# Compressibility (1/GPa) = 0.40824893
#
# Stress axis : x y z
#
# Youngs Moduli (GPa) = 45.16597 18.56109 1.86575
#
# Poissons Ratio (x) = 0.48273 -0.14046
# Poissons Ratio (y) = 1.17465 0.28201
# Poissons Ratio (z) = -3.40030 2.80550
#
# Static dielectric constant tensor:
#      x y z
#    x 1.768720 0.000000 -0.003190 
#    y 0.000000 1.657030 0.000000 
#    z -0.003190 0.000000 1.788620 
# 
# From -- ./inp_files/42220.got.cif
#   From: 2010.05.17/outbox.ucp.g08.bks.cvg/sg12_22_cif.got.tgz:42220.got - 2010.06.11 11:47:21.
