data_PCOD9224486
_publ_section_title
;
Structure prediction by ZEFSAII (Michael W. Deem and Ramdas Pophale) SiO2 
 PCOD9224486
Probable space group: C 2/M
;
_chemical_formula_sum "Si O2"
_cell_formula_units_Z 26
_cell_length_a 18.000000
_cell_length_b 12.000000
_cell_length_c 27.000000
_cell_angle_alpha 90.000000
_cell_angle_beta 30.000000
_cell_angle_gamma 90.000000
_cell_volume 2916.000000
_symmetry_space_group_name_H-M "C 2/M"
_symmetry_group_IT_number 12
_symmetry_cell_setting 'monoclinic'
loop_
_space_group_symop_operation_xyz
x,y,z
-x,y,-z
-x,-y,-z
x,-y,z
1/2+x,1/2+y,z
1/2-x,1/2+y,-z
1/2-x,1/2-y,-z
1/2+x,1/2-y,z
loop_
_atom_site_type_symbol
_atom_site_label
_atom_site_fract_x
_atom_site_fract_y
_atom_site_fract_z
Si Si1 0.743659 0.378253 0.631187
Si Si2 0.408180 0.365763 0.002928
Si Si3 0.895175 0.223282 0.381889
Si Si4 0.057419 0.367266 0.205508
Si Si5 0.634557 0.628123 0.321109
Si Si6 0.075275 0.761662 0.812468
Si Si7 0.500000 0.299359 0.500000
O O1 0.812983 0.500000 0.593351
O O2 0.654011 0.365396 0.631679
O O3 0.642937 0.358500 0.738059
O O4 0.864627 0.280572 0.562380
O O5 0.422473 0.500000 0.988477
O O6 0.472487 0.306779 0.916321
O O7 0.500000 0.335641 0.000000
O O8 0.232710 0.340405 0.110895
O O9 0.750000 0.250000 0.500000
O O10 0.961465 0.320142 0.307413
O O11 0.025725 0.181966 0.342986
O O12 0.040230 0.500000 0.213515
O O13 0.003071 0.315564 0.184328
O O14 0.665838 0.500000 0.290254
O O15 0.786287 0.696760 0.242289
O O16 0.551115 0.633372 0.422459
#
# Coordination Sequence:
#
# PCOD9224486 Si02
#       7
#     8   8   8   8   8   8   4
#     4  10  20  35  54  79 113 150 190 237 287 340
#     4  10  20  37  62  90 118 154 194 240 294 344
#     4  11  22  39  55  84 116 151 197 239 292 342
#     4  10  22  39  61  88 117 153 199 242 291 349
#     4  11  22  37  57  81 114 152 191 236 289 346
#     4  10  21  37  59  86 119 152 194 238 292 349
#     4  10  20  36  52  80 110 146 194 234 282 338
#
# _framework density 8.9163239999999995
#
# number of rings (size 3 to 8) (size 9 to 14) (size 15 to 20)
#    0.000    1.692    1.538    3.231    0.000    1.231 
#    0.000    0.769    0.000   11.077    0.000    0.000 
#    0.000    0.000    0.000    0.000    0.000    0.000 
#
# Total GULP energy -145035.472221 kJ/mol
# GULP energy per Si atom -5578.287393 kJ/mol
# Density = 0.889603 g / cm^3
# Si number density = 8.916324 Si / 1000 Ang^3
#
#
#
# Elastic Constant Matrix: (Units=GPa)
#
#
# Indices 1 2 3 4 5 6 
#
# 1 156.4554 43.7593 50.6936 0.0001 -5.7444 0.0001
# 2 43.7593 82.3359 40.2385 -0.0001 0.4110 0.0000
# 3 50.6936 40.2385 131.1435 -0.0003 12.0532 -0.0002
# 4 0.0001 -0.0001 -0.0003 8.7837 0.0000 4.9588
# 5 -5.7444 0.4110 12.0532 0.0000 38.3379 0.0001
# 6 0.0001 0.0000 -0.0002 4.9588 0.0001 13.6912
#
#
#
# Elastic Compliance Matrix: (Units=1/GPa)
#
#
# Indices 1 2 3 4 5 6 
#
# 1 0.008112 -0.003176 -0.002344 0.000000 0.001986 0.000000
# 2 -0.003176 0.015591 -0.003601 0.000000 0.000489 0.000000
# 3 -0.002344 -0.003601 0.009952 0.000000 -0.003442 0.000000
# 4 0.000000 0.000000 0.000000 0.143110 0.000000 -0.051833
# 5 0.001986 0.000489 -0.003442 0.000000 0.027458 0.000000
# 6 0.000000 0.000000 0.000000 -0.051833 0.000000 0.091813
#
#
# Mechanical properties :
#
#
# Convention : Reuss Voigt Hill
#
# Bulk Modulus (GPa) = 64.87671 71.03532 67.95601
# Shear Modulus (GPa) = 15.65355 27.84544 21.74950
#
# Velocity S-wave (km/s) = 2.96599 3.95585 3.49613
# Velocity P-wave (km/s) = 6.94185 7.79653 7.38157
#
# Compressibility (1/GPa) = 0.01541385
#
# Stress axis : x y z
#
# Youngs Moduli (GPa) = 123.27021 64.14104 100.47745
#
# Poissons Ratio (x) = 0.20370 0.23551
# Poissons Ratio (y) = 0.39149 0.36182
# Poissons Ratio (z) = 0.28894 0.23097
#
# Static dielectric constant tensor:
#      x y z
#    x 1.594430 0.000000 -0.020180 
#    y 0.000000 1.599100 0.000000 
#    z -0.020180 0.000000 1.603960 
# 
# From -- ./inp_files/363605.got.cif
#   From: 2010.05.17/outbox.ucp.g08.bks.cvg/sg12_182_cif.got.tgz:363605.got - 2010.06.11 11:47:21.
