data_PCOD9224260
_publ_section_title
;
Structure prediction by ZEFSAII (Michael W. Deem and Ramdas Pophale) SiO2 
 PCOD9224260
Probable space group: C 2/M
;
_chemical_formula_sum "Si O2"
_cell_formula_units_Z 32
_cell_length_a 30.000000
_cell_length_b 9.000000
_cell_length_c 15.000000
_cell_angle_alpha 90.000000
_cell_angle_beta 130.000000
_cell_angle_gamma 90.000000
_cell_volume 3102.479995
_symmetry_space_group_name_H-M "C 2/M"
_symmetry_group_IT_number 12
_symmetry_cell_setting 'monoclinic'
loop_
_space_group_symop_operation_xyz
x,y,z
-x,y,-z
-x,-y,-z
x,-y,z
1/2+x,1/2+y,z
1/2-x,1/2+y,-z
1/2-x,1/2-y,-z
1/2+x,1/2-y,z
loop_
_atom_site_type_symbol
_atom_site_label
_atom_site_fract_x
_atom_site_fract_y
_atom_site_fract_z
Si Si1 0.566020 0.678671 0.603330
Si Si2 0.712644 0.678345 0.084367
Si Si3 0.973180 0.330051 0.115035
Si Si4 0.120401 0.177589 0.117187
Si Si5 0.620698 0.171628 0.845893
Si Si6 0.594781 0.676465 0.280234
Si Si7 0.288772 0.323505 0.474069
Si Si8 0.687619 0.320776 0.688927
O O1 0.500000 0.731487 0.500000
O O2 0.563248 0.500000 0.606294
O O3 0.591039 0.745281 0.726132
O O4 0.618662 0.714009 0.602544
O O5 0.714448 0.500000 0.080526
O O6 0.671547 0.724681 0.116097
O O7 0.775974 0.744358 0.185706
O O8 0.678002 0.747376 0.956943
O O9 0.980487 0.500000 0.096479
O O10 0.928223 0.325258 0.139387
O O11 0.034986 0.260783 0.218002
O O12 0.940766 0.238119 0.997033
O O13 0.124429 0.223608 0.224787
O O14 0.119898 0.000000 0.113083
O O15 0.633738 0.000000 0.841741
O O16 0.582466 0.500000 0.259348
O O17 0.643588 0.700528 0.416186
O O18 0.277863 0.500000 0.462629
O O19 0.250000 0.250000 0.500000
O O20 0.282820 0.270040 0.365386
O O21 0.692967 0.500000 0.702711
#
# Coordination Sequence:
#
# PCOD9224260 Si02
#       8
#     8   8   8   8   8   8   8   8
#     4  10  23  42  66  92 119 157 204 249 296 357
#     4  10  20  37  63  90 117 155 201 246 296 359
#     4  10  21  34  51  80 114 149 191 239 294 352
#     4   9  18  33  52  79 113 150 194 241 288 344
#     4  10  22  40  61  88 122 157 194 245 305 357
#     4  10  20  33  53  78 109 151 197 242 290 349
#     4  10  22  39  59  85 118 156 197 244 296 351
#     4  10  22  40  61  90 123 156 198 251 306 353
#
# _framework density 10.314329000000001
#
# number of rings (size 3 to 8) (size 9 to 14) (size 15 to 20)
#    0.000    2.125    0.000    2.250    1.750    7.250 
#    0.000    0.000    0.000    0.000    0.000    0.000 
#    0.000    0.000    0.000    0.000    0.000    0.000 
#
# Total GULP energy -178657.001121 kJ/mol
# GULP energy per Si atom -5583.031285 kJ/mol
# Density = 1.029085 g / cm^3
# Si number density = 10.314329 Si / 1000 Ang^3
#
#
#
# Elastic Constant Matrix: (Units=GPa)
#
#
# Indices 1 2 3 4 5 6 
#
# 1 81.4185 35.2954 63.3995 0.0000 14.5981 0.0000
# 2 35.2954 -8.5824 19.0545 0.0000 3.6489 0.0000
# 3 63.3995 19.0545 100.2975 0.0000 -0.8100 0.0000
# 4 0.0000 0.0000 0.0000 25.0470 0.0000 3.7083
# 5 14.5981 3.6489 -0.8100 0.0000 30.1526 0.0000
# 6 0.0000 0.0000 0.0000 3.7083 0.0000 25.7276
#
#
#
# Elastic Compliance Matrix: (Units=1/GPa)
#
#
# Indices 1 2 3 4 5 6 
#
# 1 0.014349 0.024149 -0.013741 0.000000 -0.010238 0.000000
# 2 0.024149 -0.038207 -0.008066 0.000000 -0.007285 0.000000
# 3 -0.013741 -0.008066 0.020254 0.000000 0.008173 0.000000
# 4 0.000000 0.000000 0.000000 0.040795 0.000000 -0.005880
# 5 -0.010238 -0.007285 0.008173 0.000000 0.039223 0.000000
# 6 0.000000 0.000000 0.000000 -0.005880 0.000000 0.039716
#
#
# Mechanical properties :
#
#
# Convention : Reuss Voigt Hill
#
# Bulk Modulus (GPa) = 923.44155 45.40360 484.42257
# Shear Modulus (GPa) = 44.72082 19.87773 32.29927
#
# Velocity S-wave (km/s) = 4.66112 3.10755 3.96125
# Velocity P-wave (km/s) = 21.85383 5.91047 16.00817
#
# Compressibility (1/GPa) = 0.00108291
#
# Stress axis : x y z
#
# Youngs Moduli (GPa) = 69.69340 -26.17348 49.37245
#
# Poissons Ratio (x) = 0.63207 0.67840
# Poissons Ratio (y) = -1.68306 0.39822
# Poissons Ratio (z) = 0.95762 -0.21110
#
# Static dielectric constant tensor:
#      x y z
#    x 1.780700 0.000000 -0.035490 
#    y 0.000000 1.700470 0.000000 
#    z -0.035490 0.000000 1.722640 
# 
# From -- ./inp_files/250130.got.cif
#   From: 2010.05.17/outbox.ucp.g08.bks.cvg/sg12_126_cif.got.tgz:250130.got - 2010.06.11 11:47:21.
