data_PCOD9224748
_publ_section_title
;
Structure prediction by ZEFSAII (Michael W. Deem and Ramdas Pophale) SiO2 
 PCOD9224748
Probable space group: C 2/M
;
_chemical_formula_sum "Si O2"
_cell_formula_units_Z 32
_cell_length_a 21.000000
_cell_length_b 9.000000
_cell_length_c 18.000000
_cell_angle_alpha 90.000000
_cell_angle_beta 90.000000
_cell_angle_gamma 90.000000
_cell_volume 3402.000000
_symmetry_space_group_name_H-M "C 2/M"
_symmetry_group_IT_number 12
_symmetry_cell_setting 'monoclinic'
loop_
_space_group_symop_operation_xyz
x,y,z
-x,y,-z
-x,-y,-z
x,-y,z
1/2+x,1/2+y,z
1/2-x,1/2+y,-z
1/2-x,1/2-y,-z
1/2+x,1/2-y,z
loop_
_atom_site_type_symbol
_atom_site_label
_atom_site_fract_x
_atom_site_fract_y
_atom_site_fract_z
Si Si1 0.243286 0.823240 0.370517
Si Si2 0.427487 0.179178 0.015746
Si Si3 0.084382 0.826803 0.825653
Si Si4 0.013936 0.319793 0.691745
Si Si5 0.619450 0.819982 0.571066
Si Si6 0.267642 0.326541 0.217012
Si Si7 0.607873 0.820724 0.405083
Si Si8 0.797426 0.678972 0.939742
O O1 0.307822 0.770279 0.412991
O O2 0.252283 0.780869 0.284622
O O3 0.177853 0.744719 0.392787
O O4 0.237963 0.000000 0.381114
O O5 0.412460 0.243455 0.096277
O O6 0.427310 0.000000 0.017591
O O7 0.500000 0.227584 0.000000
O O8 0.370410 0.223407 0.959227
O O9 0.033851 0.751626 0.769896
O O10 0.156491 0.818574 0.795054
O O11 0.068531 0.000000 0.835795
O O12 0.013970 0.500000 0.698620
O O13 0.070366 0.274656 0.634955
O O14 0.946558 0.275493 0.654061
O O15 0.592657 0.778288 0.490316
O O16 0.621440 0.000000 0.573200
O O17 0.251912 0.500000 0.234763
O O18 0.228903 0.285208 0.142391
O O19 0.610953 0.000000 0.401458
O O20 0.793618 0.500000 0.946489
O O21 0.750000 0.750000 0.000000
#
# Coordination Sequence:
#
# PCOD9224748 Si02
#       8
#     8   8   8   8   8   8   8   8
#     4  11  22  36  57  85 117 150 189 239 285 336
#     4  10  22  39  60  87 117 150 189 231 279 337
#     4  11  22  37  59  86 118 150 185 235 288 339
#     4  10  20  37  61  85 112 150 196 237 279 339
#     4   9  18  35  59  85 110 147 197 238 280 335
#     4  10  21  37  57  83 114 151 193 233 281 340
#     4  10  21  37  58  83 115 152 189 237 289 340
#     4  10  20  36  59  84 112 145 186 232 275 328
#
# _framework density 9.4062319999999993
#
# number of rings (size 3 to 8) (size 9 to 14) (size 15 to 20)
#    0.000    1.875    2.500    1.500    0.000    4.250 
#    0.000    3.750    0.000    1.500    0.000    0.000 
#    0.000    0.000    0.000    0.000    0.000    0.000 
#
# Total GULP energy -178544.490543 kJ/mol
# GULP energy per Si atom -5579.515329 kJ/mol
# Density = 0.938482 g / cm^3
# Si number density = 9.406232 Si / 1000 Ang^3
#
#
#
# Elastic Constant Matrix: (Units=GPa)
#
#
# Indices 1 2 3 4 5 6 
#
# 1 93.1498 14.8683 12.2345 0.0000 29.2037 0.0000
# 2 14.8683 3.0940 4.1901 0.0000 9.5041 0.0000
# 3 12.2345 4.1901 59.0611 0.0000 33.4116 0.0000
# 4 0.0000 0.0000 0.0000 22.5159 0.0000 0.4701
# 5 29.2037 9.5041 33.4116 0.0000 41.5214 0.0000
# 6 0.0000 0.0000 0.0000 0.4701 0.0000 28.4301
#
#
#
# Elastic Compliance Matrix: (Units=1/GPa)
#
#
# Indices 1 2 3 4 5 6 
#
# 1 -0.049430 0.630155 0.050414 0.000000 -0.150042 0.000000
# 2 0.630155 -6.205308 -0.446230 0.000000 1.336237 0.000000
# 3 0.050414 -0.446230 0.000776 0.000000 0.066058 0.000000
# 4 0.000000 0.000000 0.000000 0.044428 0.000000 -0.000735
# 5 -0.150042 1.336237 0.066058 0.000000 -0.229402 0.000000
# 6 0.000000 0.000000 0.000000 -0.000735 0.000000 0.035186
#
#
# Mechanical properties :
#
#
# Convention : Reuss Voigt Hill
#
# Bulk Modulus (GPa) = -0.17285 24.21008 12.01862
# Shear Modulus (GPa) = -0.56813 26.76094 13.09641
#
# Velocity S-wave (km/s) = -0.55014 3.77571 2.64134
# Velocity P-wave (km/s) = 0.70400 5.64846 3.96292
#
# Compressibility (1/GPa) = -5.78528244
#
# Stress axis : x y z
#
# Youngs Moduli (GPa) = -20.23081 -0.16115 1288.28392
#
# Poissons Ratio (x) = 0.10155 -64.94760
# Poissons Ratio (y) = 12.74855 574.87067
# Poissons Ratio (z) = 1.01992 -0.07191
#
# Static dielectric constant tensor:
#      x y z
#    x 1.671180 0.000000 -0.021110 
#    y 0.000000 1.631550 0.000000 
#    z -0.021110 0.000000 1.659710 
# 
# From -- ./inp_files/281305.got.cif
#   From: 2010.05.17/outbox.ucp.g08.bks.cvg/sg12_141_cif.got.tgz:281305.got - 2010.06.11 11:47:21.
