data_PCOD9224055
_publ_section_title
;
Structure prediction by ZEFSAII (Michael W. Deem and Ramdas Pophale) SiO2 
 PCOD9224055
Probable space group: C 2/M
;
_chemical_formula_sum "Si O2"
_cell_formula_units_Z 24
_cell_length_a 30.000000
_cell_length_b 12.000000
_cell_length_c 21.000000
_cell_angle_alpha 90.000000
_cell_angle_beta 20.000000
_cell_angle_gamma 90.000000
_cell_volume 2585.672284
_symmetry_space_group_name_H-M "C 2/M"
_symmetry_group_IT_number 12
_symmetry_cell_setting 'monoclinic'
loop_
_space_group_symop_operation_xyz
x,y,z
-x,y,-z
-x,-y,-z
x,-y,z
1/2+x,1/2+y,z
1/2-x,1/2+y,-z
1/2-x,1/2-y,-z
1/2+x,1/2-y,z
loop_
_atom_site_type_symbol
_atom_site_label
_atom_site_fract_x
_atom_site_fract_y
_atom_site_fract_z
Si Si1 0.727512 0.630524 0.752853
Si Si2 0.448813 0.749368 0.909847
Si Si3 0.806311 0.126176 0.780589
Si Si4 0.463276 0.711458 0.454635
Si Si5 0.619009 0.187638 0.800428
Si Si6 0.412458 0.376785 0.387286
O O1 0.726743 0.500000 0.740849
O O2 0.874421 0.677834 0.566427
O O3 0.661504 0.702391 0.784325
O O4 0.641713 0.660485 0.930406
O O5 0.552500 0.790503 0.822376
O O6 0.532384 0.704153 0.739773
O O7 0.342928 0.838583 0.027309
O O8 0.873616 0.135103 0.620885
O O9 0.894669 0.210940 0.703662
O O10 0.819429 0.000000 0.787067
O O11 0.473329 0.656858 0.372688
O O12 0.756450 0.128003 0.606220
O O13 0.500000 0.133627 0.000000
O O14 0.451441 0.500000 0.316149
#
# Coordination Sequence:
#
# PCOD9224055 Si02
#       6
#     8   8   8   8   8   8
#     4   9  18  35  57  77 104 143 179 215 259 306
#     4  10  21  34  50  81 111 136 175 216 259 320
#     4  10  19  36  59  76 103 143 179 218 261 307
#     4   9  19  35  55  81 103 132 184 223 252 309
#     4   9  20  36  54  77 104 135 180 222 250 310
#     4  11  21  34  53  76 108 139 167 218 276 313
#
# _framework density 9.2819190000000003
#
# number of rings (size 3 to 8) (size 9 to 14) (size 15 to 20)
#    0.000    2.333    0.000    4.000    0.000    5.333 
#    0.000   10.833    0.000    0.000    0.000    0.000 
#    0.000    0.000    0.000    0.000    0.000    0.000 
#
# Total GULP energy -133697.030458 kJ/mol
# GULP energy per Si atom -5570.709602 kJ/mol
# Density = 0.926079 g / cm^3
# Si number density = 9.281919 Si / 1000 Ang^3
#
#
#
# Elastic Constant Matrix: (Units=GPa)
#
#
# Indices 1 2 3 4 5 6 
#
# 1 119.0112 11.3375 43.1171 0.0000 -4.2870 0.0000
# 2 11.3375 55.5925 15.7676 0.0000 -12.0070 0.0000
# 3 43.1171 15.7676 45.4536 0.0000 8.3269 0.0000
# 4 0.0000 0.0000 0.0000 13.2782 0.0000 -0.6033
# 5 -4.2870 -12.0070 8.3269 0.0000 6.2236 0.0000
# 6 0.0000 0.0000 0.0000 -0.6033 0.0000 2.8487
#
#
#
# Elastic Compliance Matrix: (Units=1/GPa)
#
#
# Indices 1 2 3 4 5 6 
#
# 1 -0.001755 -0.025597 0.026245 0.000000 -0.085706 0.000000
# 2 -0.025597 -0.028171 0.062578 0.000000 -0.155707 0.000000
# 3 0.026245 0.062578 -0.066278 0.000000 0.227484 0.000000
# 4 0.000000 0.000000 0.000000 0.076043 0.000000 0.016105
# 5 -0.085706 -0.155707 0.227484 0.000000 -0.503119 0.000000
# 6 0.000000 0.000000 0.000000 0.016105 0.000000 0.354444
#
#
# Mechanical properties :
#
#
# Convention : Reuss Voigt Hill
#
# Bulk Modulus (GPa) = 33.05824 40.05575 36.55699
# Shear Modulus (GPa) = -17.53125 14.45912 -1.53606
#
# Velocity S-wave (km/s) = -3.07640 2.79388 -0.91063
# Velocity P-wave (km/s) = 2.28637 5.65967 4.31621
#
# Compressibility (1/GPa) = 0.03024965
#
# Stress axis : x y z
#
# Youngs Moduli (GPa) = -569.89245 -35.49793 -15.08802
#
# Poissons Ratio (x) = -0.90864 0.39599
# Poissons Ratio (y) = -14.58757 0.94418
# Poissons Ratio (z) = 14.95686 2.22140
#
# Static dielectric constant tensor:
#      x y z
#    x 1.649680 0.000000 -0.005700 
#    y 0.000000 1.630950 0.000000 
#    z -0.005700 0.000000 1.624180 
# 
# From -- ./inp_files/153629.got.cif
#   From: 2010.05.17/outbox.ucp.g08.bks.cvg/sg12_77_cif.got.tgz:153629.got - 2010.06.11 11:47:21.
