data_PCOD9224451
_publ_section_title
;
Structure prediction by ZEFSAII (Michael W. Deem and Ramdas Pophale) SiO2 
 PCOD9224451
Probable space group: C 2/M
;
_chemical_formula_sum "Si O2"
_cell_formula_units_Z 24
_cell_length_a 15.000000
_cell_length_b 9.000000
_cell_length_c 18.000000
_cell_angle_alpha 90.000000
_cell_angle_beta 90.000000
_cell_angle_gamma 90.000000
_cell_volume 2430.000000
_symmetry_space_group_name_H-M "C 2/M"
_symmetry_group_IT_number 12
_symmetry_cell_setting 'monoclinic'
loop_
_space_group_symop_operation_xyz
x,y,z
-x,y,-z
-x,-y,-z
x,-y,z
1/2+x,1/2+y,z
1/2-x,1/2+y,-z
1/2-x,1/2-y,-z
1/2+x,1/2-y,z
loop_
_atom_site_type_symbol
_atom_site_label
_atom_site_fract_x
_atom_site_fract_y
_atom_site_fract_z
Si Si1 0.008648 0.821711 0.824804
Si Si2 0.833646 0.178450 0.901112
Si Si3 0.224869 0.181260 0.418772
Si Si4 0.364988 0.176958 0.061111
Si Si5 0.968169 0.327528 0.585134
Si Si6 0.619299 0.321844 0.678763
O O1 0.055773 0.760001 0.897921
O O2 0.072844 0.772882 0.756783
O O3 0.903541 0.779643 0.835543
O O4 0.010194 0.000000 0.821880
O O5 0.727787 0.208038 0.894171
O O6 0.842301 0.000000 0.912394
O O7 0.857266 0.262101 0.977551
O O8 0.250000 0.250000 0.500000
O O9 0.127381 0.250164 0.404248
O O10 0.294107 0.238155 0.355231
O O11 0.225162 0.000000 0.421857
O O12 0.378442 0.000000 0.060082
O O13 0.967433 0.500000 0.612459
O O14 0.000000 0.334821 0.500000
O O15 0.040812 0.223102 0.622980
O O16 0.635648 0.500000 0.680394
#
# Coordination Sequence:
#
# PCOD9224451 Si02
#       6
#     8   8   8   8   8   8
#     4  10  22  39  58  82 117 158 195 236 291 353
#     4   9  19  37  58  81 115 156 196 237 288 348
#     4  12  24  40  64  90 118 153 195 244 298 356
#     4  10  20  34  57  88 117 150 197 246 289 339
#     4  11  23  40  64  91 119 152 195 246 299 355
#     4  11  24  41  61  89 122 158 202 248 302 361
#
# _framework density 9.8765429999999999
#
# number of rings (size 3 to 8) (size 9 to 14) (size 15 to 20)
#    0.000    1.500    1.667    3.500    0.000    6.667 
#    0.000    1.667    0.000    0.000    0.000    0.000 
#    0.000    0.000    0.000    0.000    0.000    0.000 
#
# Total GULP energy -133878.443441 kJ/mol
# GULP energy per Si atom -5578.268477 kJ/mol
# Density = 0.985406 g / cm^3
# Si number density = 9.876543 Si / 1000 Ang^3
#
#
#
# Elastic Constant Matrix: (Units=GPa)
#
#
# Indices 1 2 3 4 5 6 
#
# 1 126.5892 10.8817 16.2140 0.0000 -44.4876 0.0000
# 2 10.8817 42.1411 3.2874 0.0000 -23.8511 0.0000
# 3 16.2140 3.2874 39.9463 0.0000 -27.6607 0.0000
# 4 0.0000 0.0000 0.0000 22.7178 0.0000 -12.3920
# 5 -44.4876 -23.8511 -27.6607 0.0000 39.8813 0.0000
# 6 0.0000 0.0000 0.0000 -12.3920 0.0000 21.7249
#
#
#
# Elastic Compliance Matrix: (Units=1/GPa)
#
#
# Indices 1 2 3 4 5 6 
#
# 1 0.029189 0.037696 0.044652 0.000000 0.086074 0.000000
# 2 0.037696 0.100190 0.090550 0.000000 0.164772 0.000000
# 3 0.044652 0.090550 0.137467 0.000000 0.199306 0.000000
# 4 0.000000 0.000000 0.000000 0.063901 0.000000 0.036449
# 5 0.086074 0.164772 0.199306 0.000000 0.357866 0.000000
# 6 0.000000 0.000000 0.000000 0.036449 0.000000 0.066821
#
#
# Mechanical properties :
#
#
# Convention : Reuss Voigt Hill
#
# Bulk Modulus (GPa) = 1.63228 29.93808 15.78518
# Shear Modulus (GPa) = 8.14528 28.75102 18.44815
#
# Velocity S-wave (km/s) = 2.03285 3.81927 3.05935
# Velocity P-wave (km/s) = 2.51756 5.88542 4.52638
#
# Compressibility (1/GPa) = 0.61264128
#
# Stress axis : x y z
#
# Youngs Moduli (GPa) = 34.25906 9.98103 7.27449
#
# Poissons Ratio (x) = -0.37624 -0.32482
# Poissons Ratio (y) = -1.29143 -0.65871
# Poissons Ratio (z) = -1.52973 -0.90378
#
# Static dielectric constant tensor:
#      x y z
#    x 1.717010 0.000000 0.005580 
#    y 0.000000 1.656570 0.000000 
#    z 0.005580 0.000000 1.689560 
# 
# From -- ./inp_files/267674.got.cif
#   From: 2010.05.17/outbox.ucp.g08.bks.cvg/sg12_134_cif.got.tgz:267674.got - 2010.06.11 11:47:21.
