data_PCOD9224904
_publ_section_title
;
Structure prediction by ZEFSAII (Michael W. Deem and Ramdas Pophale) SiO2 
 PCOD9224904
Probable space group: C 2/M
;
_chemical_formula_sum "Si O2"
_cell_formula_units_Z 24
_cell_length_a 18.000000
_cell_length_b 18.000000
_cell_length_c 21.000000
_cell_angle_alpha 90.000000
_cell_angle_beta 160.000000
_cell_angle_gamma 90.000000
_cell_volume 2327.105055
_symmetry_space_group_name_H-M "C 2/M"
_symmetry_group_IT_number 12
_symmetry_cell_setting 'monoclinic'
loop_
_space_group_symop_operation_xyz
x,y,z
-x,y,-z
-x,-y,-z
x,-y,z
1/2+x,1/2+y,z
1/2-x,1/2+y,-z
1/2-x,1/2-y,-z
1/2+x,1/2-y,z
loop_
_atom_site_type_symbol
_atom_site_label
_atom_site_fract_x
_atom_site_fract_y
_atom_site_fract_z
Si Si1 0.747760 0.084612 0.423586
Si Si2 0.320461 0.331548 0.248673
Si Si3 0.964133 0.649166 0.862204
Si Si4 0.071766 0.801445 0.895292
Si Si5 0.263147 0.656822 0.838267
Si Si6 0.202423 0.412237 0.538369
O O1 0.560924 0.101153 0.221454
O O2 0.696320 0.093373 0.456422
O O3 0.933691 0.143738 0.557148
O O4 0.824844 0.000000 0.476261
O O5 0.212201 0.365409 0.224794
O O6 0.281876 0.243045 0.216559
O O7 0.192552 0.359739 0.082761
O O8 0.937674 0.735414 0.821360
O O9 0.898428 0.857307 0.721299
O O10 0.250000 0.750000 0.000000
O O11 0.199301 0.843566 0.054807
O O12 0.044472 0.612903 0.641421
O O13 0.500000 0.634727 0.000000
O O14 0.239363 0.500000 0.584594
#
# Coordination Sequence:
#
# PCOD9224904 Si02
#       6
#     8   8   8   8   8   8
#     4  11  24  39  57  88 130 170 206 258 326 391
#     4  10  20  39  63  91 124 159 210 269 320 382
#     4  10  20  37  61  92 121 159 209 264 314 382
#     4  11  22  41  71  98 124 172 222 271 326 387
#     4  11  22  43  69  94 127 170 219 277 330 383
#     4  11  26  43  62  95 137 173 217 271 326 391
#
# _framework density 10.313243
#
# number of rings (size 3 to 8) (size 9 to 14) (size 15 to 20)
#    0.000    1.333    3.333    4.500    0.000    5.667 
#    0.000    6.667    0.000    0.000    0.000    0.000 
#    0.000    0.000    0.000    0.000    0.000    0.000 
#
# Total GULP energy -133940.824883 kJ/mol
# GULP energy per Si atom -5580.867703 kJ/mol
# Density = 1.028977 g / cm^3
# Si number density = 10.313243 Si / 1000 Ang^3
#
#
#
# Elastic Constant Matrix: (Units=GPa)
#
#
# Indices 1 2 3 4 5 6 
#
# 1 76.8944 25.8853 38.4318 0.0270 -8.6083 0.0110
# 2 25.8853 68.2429 48.4005 -0.0149 -3.3264 -0.0489
# 3 38.4318 48.4005 110.1956 0.0443 0.5276 -0.0157
# 4 0.0270 -0.0149 0.0443 32.7939 0.0026 -4.6286
# 5 -8.6083 -3.3264 0.5276 0.0026 39.6427 -0.0209
# 6 0.0110 -0.0489 -0.0157 -4.6286 -0.0209 17.5528
#
#
#
# Elastic Compliance Matrix: (Units=1/GPa)
#
#
# Indices 1 2 3 4 5 6 
#
# 1 0.016641 -0.002930 -0.004533 -0.000012 0.003428 -0.000022
# 2 -0.002930 0.021945 -0.008623 0.000033 0.001320 0.000066
# 3 -0.004533 -0.008623 0.014452 -0.000022 -0.001900 -0.000016
# 4 -0.000012 0.000033 -0.000022 0.031672 0.000003 0.008352
# 5 0.003428 0.001320 -0.001900 0.000003 0.026106 0.000032
# 6 -0.000022 0.000066 -0.000016 0.008352 0.000032 0.059173
#
#
# Mechanical properties :
#
#
# Convention : Reuss Voigt Hill
#
# Bulk Modulus (GPa) = 47.92578 53.41867 50.67222
# Shear Modulus (GPa) = 23.90997 27.50557 25.70777
#
# Velocity S-wave (km/s) = 3.40838 3.65568 3.53419
# Velocity P-wave (km/s) = 6.22695 6.61612 6.42448
#
# Compressibility (1/GPa) = 0.02086560
#
# Stress axis : x y z
#
# Youngs Moduli (GPa) = 60.09424 45.56780 69.19248
#
# Poissons Ratio (x) = 0.13351 0.31366
# Poissons Ratio (y) = 0.17607 0.59668
# Poissons Ratio (z) = 0.27241 0.39295
#
# Static dielectric constant tensor:
#      x y z
#    x 1.792420 -0.000030 0.010900 
#    y -0.000030 1.722860 -0.000040 
#    z 0.010900 -0.000040 1.744410 
# 
# From -- ./inp_files/317527.got.cif
#   From: 2010.05.17/outbox.ucp.g08.bks.cvg/sg12_159_cif.got.tgz:317527.got - 2010.06.11 11:47:21.
