data_PCOD9224343
_publ_section_title
;
Structure prediction by ZEFSAII (Michael W. Deem and Ramdas Pophale) SiO2 
 PCOD9224343
Probable space group: C 2/M
;
_chemical_formula_sum "Si O2"
_cell_formula_units_Z 24
_cell_length_a 24.000000
_cell_length_b 9.000000
_cell_length_c 15.000000
_cell_angle_alpha 90.000000
_cell_angle_beta 70.000000
_cell_angle_gamma 90.000000
_cell_volume 3044.604091
_symmetry_space_group_name_H-M "C 2/M"
_symmetry_group_IT_number 12
_symmetry_cell_setting 'monoclinic'
loop_
_space_group_symop_operation_xyz
x,y,z
-x,y,-z
-x,-y,-z
x,-y,z
1/2+x,1/2+y,z
1/2-x,1/2+y,-z
1/2-x,1/2-y,-z
1/2+x,1/2-y,z
loop_
_atom_site_type_symbol
_atom_site_label
_atom_site_fract_x
_atom_site_fract_y
_atom_site_fract_z
Si Si1 0.561804 0.179823 0.079659
Si Si2 0.744568 0.821659 0.902976
Si Si3 0.987231 0.318924 0.614833
Si Si4 0.548402 0.679877 0.755834
Si Si5 0.627751 0.679325 0.878160
Si Si6 0.121473 0.821209 0.216093
O O1 0.501731 0.250065 0.152207
O O2 0.607187 0.238342 0.130596
O O3 0.559392 0.000000 0.077615
O O4 0.581428 0.246925 0.973924
O O5 0.690786 0.747071 0.876513
O O6 0.807301 0.803136 0.815842
O O7 0.734074 0.000000 0.918542
O O8 0.750000 0.750000 0.000000
O O9 0.986252 0.500000 0.624235
O O10 0.923977 0.249775 0.685423
O O11 0.000000 0.287483 0.500000
O O12 0.034234 0.252024 0.664510
O O13 0.542179 0.500000 0.750920
O O14 0.607286 0.707390 0.785816
O O15 0.627752 0.500000 0.890233
O O16 0.109526 0.000000 0.216635
#
# Coordination Sequence:
#
# PCOD9224343 Si02
#       6
#     8   8   8   8   8   8
#     4  11  20  30  49  74 104 142 178 216 261 310
#     4  11  22  34  52  76 107 147 184 218 257 305
#     4  10  21  37  59  84 106 131 168 219 274 322
#     4  10  21  35  52  75 104 138 175 218 266 316
#     4  11  22  34  49  72 106 145 181 216 257 309
#     4  10  20  34  53  78 107 139 178 219 260 311
#
# _framework density 7.8827980000000002
#
# number of rings (size 3 to 8) (size 9 to 14) (size 15 to 20)
#    0.000    1.500    1.667    6.500    0.000    8.000 
#    0.000    0.000    0.000    1.000    0.000    0.000 
#    0.000    0.000    0.000    0.000    0.000    0.000 
#
# Total GULP energy -133687.329474 kJ/mol
# GULP energy per Si atom -5570.305395 kJ/mol
# Density = 0.786486 g / cm^3
# Si number density = 7.882798 Si / 1000 Ang^3
#
#
#
# Elastic Constant Matrix: (Units=GPa)
#
#
# Indices 1 2 3 4 5 6 
#
# 1 115.3026 41.3477 44.0044 0.0000 18.3218 0.0000
# 2 41.3477 130.7900 42.3268 0.0000 9.8222 0.0000
# 3 44.0044 42.3268 119.2211 0.0000 17.3600 0.0000
# 4 0.0000 0.0000 0.0000 33.5050 0.0000 1.7756
# 5 18.3218 9.8222 17.3600 0.0000 28.2511 0.0000
# 6 0.0000 0.0000 0.0000 1.7756 0.0000 31.5668
#
#
#
# Elastic Compliance Matrix: (Units=1/GPa)
#
#
# Indices 1 2 3 4 5 6 
#
# 1 0.011295 -0.002355 -0.002620 0.000000 -0.004897 0.000000
# 2 -0.002355 0.009168 -0.002355 0.000000 -0.000213 0.000000
# 3 -0.002620 -0.002355 0.010790 0.000000 -0.004112 0.000000
# 4 0.000000 0.000000 0.000000 0.029936 0.000000 -0.001684
# 5 -0.004897 -0.000213 -0.004112 0.000000 0.041174 0.000000
# 6 0.000000 0.000000 0.000000 -0.001684 0.000000 0.031774
#
#
# Mechanical properties :
#
#
# Convention : Reuss Voigt Hill
#
# Bulk Modulus (GPa) = 60.26391 68.96348 64.61370
# Shear Modulus (GPa) = 32.39868 34.50689 33.45279
#
# Velocity S-wave (km/s) = 4.53816 4.68348 4.61139
# Velocity P-wave (km/s) = 8.10973 8.54895 8.33224
#
# Compressibility (1/GPa) = 0.01659368
#
# Stress axis : x y z
#
# Youngs Moduli (GPa) = 88.53161 109.06921 92.68221
#
# Poissons Ratio (x) = 0.25689 0.24282
# Poissons Ratio (y) = 0.20852 0.21824
# Poissons Ratio (z) = 0.23194 0.25682
#
# Static dielectric constant tensor:
#      x y z
#    x 1.596560 0.000000 0.001280 
#    y 0.000000 1.531650 0.000000 
#    z 0.001280 0.000000 1.513080 
# 
# From -- ./inp_files/236595.got.cif
#   From: 2010.05.17/outbox.ucp.g08.bks.cvg/sg12_119_cif.got.tgz:236595.got - 2010.06.11 11:47:21.
