data_PCOD9224010
_publ_section_title
;
Structure prediction by ZEFSAII (Michael W. Deem and Ramdas Pophale) SiO2 
 PCOD9224010
Probable space group: C 2/M
;
_chemical_formula_sum "Si O2"
_cell_formula_units_Z 28
_cell_length_a 27.000000
_cell_length_b 18.000000
_cell_length_c 9.000000
_cell_angle_alpha 90.000000
_cell_angle_beta 40.000000
_cell_angle_gamma 90.000000
_cell_volume 2811.553005
_symmetry_space_group_name_H-M "C 2/M"
_symmetry_group_IT_number 12
_symmetry_cell_setting 'monoclinic'
loop_
_space_group_symop_operation_xyz
x,y,z
-x,y,-z
-x,-y,-z
x,-y,z
1/2+x,1/2+y,z
1/2-x,1/2+y,-z
1/2-x,1/2-y,-z
1/2+x,1/2-y,z
loop_
_atom_site_type_symbol
_atom_site_label
_atom_site_fract_x
_atom_site_fract_y
_atom_site_fract_z
Si Si1 0.797295 0.910665 0.600956
Si Si2 0.529058 0.860678 0.100583
Si Si3 0.123544 0.414076 0.431065
Si Si4 0.549885 0.282816 0.235715
Si Si5 0.184948 0.411584 0.613514
Si Si6 0.522233 0.586498 0.776563
Si Si7 0.806893 0.301073 0.963993
O O1 0.767621 0.895740 0.499376
O O2 0.886368 0.894922 0.435221
O O3 0.785059 0.000000 0.654090
O O4 0.744656 0.856504 0.819048
O O5 0.468532 0.911297 0.328385
O O6 0.521313 0.779714 0.187242
O O7 0.500000 0.861915 0.000000
O O8 0.617995 0.883934 0.879891
O O9 0.145855 0.500000 0.348403
O O10 0.165869 0.387788 0.488074
O O11 0.144526 0.356203 0.254499
O O12 0.500000 0.280047 0.500000
O O13 0.531353 0.361153 0.200693
O O14 0.635588 0.254761 0.080980
O O15 0.176255 0.500000 0.627104
O O16 0.513333 0.500000 0.754074
O O17 0.500000 0.593878 0.000000
O O18 0.750000 0.250000 0.000000
#
# Coordination Sequence:
#
# PCOD9224010 Si02
#       7
#     8   8   8   8   8   8   8
#     4  10  21  41  67  93 123 161 209 265 318 374
#     4  10  19  35  59  92 129 165 203 251 305 370
#     4  10  21  38  60  89 128 172 210 251 308 380
#     4  12  23  41  62  94 129 167 209 252 309 378
#     4   9  18  35  62  95 128 162 207 256 310 370
#     4  10  24  47  72  94 119 161 217 271 318 373
#     4  12  25  41  58  90 131 167 206 260 317 375
#
# _framework density 9.9589090000000002
#
# number of rings (size 3 to 8) (size 9 to 14) (size 15 to 20)
#    0.000    1.571    2.857    2.143    0.000    3.143 
#    0.000    5.000    0.000    0.000    0.000    0.000 
#    0.000    0.000    0.000    0.000    0.000    0.000 
#
# Total GULP energy -156209.965972 kJ/mol
# GULP energy per Si atom -5578.927356 kJ/mol
# Density = 0.993624 g / cm^3
# Si number density = 9.958909 Si / 1000 Ang^3
#
#
#
# Elastic Constant Matrix: (Units=GPa)
#
#
# Indices 1 2 3 4 5 6 
#
# 1 68.7352 54.4268 38.3259 0.0000 -33.8101 0.0000
# 2 54.4268 84.0184 39.4586 0.0000 -15.8344 0.0000
# 3 38.3259 39.4586 72.8509 0.0000 -7.6276 0.0000
# 4 0.0000 0.0000 0.0000 17.1719 0.0000 -2.3936
# 5 -33.8101 -15.8344 -7.6276 0.0000 14.4270 0.0000
# 6 0.0000 0.0000 0.0000 -2.3936 0.0000 33.3217
#
#
#
# Elastic Compliance Matrix: (Units=1/GPa)
#
#
# Indices 1 2 3 4 5 6 
#
# 1 -0.056123 0.008622 0.012783 0.000000 -0.115303 0.000000
# 2 0.008622 0.017688 -0.010552 0.000000 0.034041 0.000000
# 3 0.012783 -0.010552 0.015499 0.000000 0.026570 0.000000
# 4 0.000000 0.000000 0.000000 0.058824 0.000000 0.004225
# 5 -0.115303 0.034041 0.026570 0.000000 -0.149492 0.000000
# 6 0.000000 0.000000 0.000000 0.004225 0.000000 0.030314
#
#
# Mechanical properties :
#
#
# Convention : Reuss Voigt Hill
#
# Bulk Modulus (GPa) = -813.02910 54.44746 -379.29082
# Shear Modulus (GPa) = -47.43580 19.21033 -14.11273
#
# Velocity S-wave (km/s) = -4.88543 3.10898 -2.66474
# Velocity P-wave (km/s) = 20.99765 6.34689 14.15306
#
# Compressibility (1/GPa) = -0.00122997
#
# Stress axis : x y z
#
# Youngs Moduli (GPa) = -17.81807 56.53561 64.51949
#
# Poissons Ratio (x) = -0.48747 -0.82474
# Poissons Ratio (y) = 0.15363 0.68083
# Poissons Ratio (z) = 0.22777 0.59658
#
# Static dielectric constant tensor:
#      x y z
#    x 1.728470 0.000000 -0.005380 
#    y 0.000000 1.673310 0.000000 
#    z -0.005380 0.000000 1.716880 
# 
# From -- ./inp_files/105968.got.cif
#   From: 2010.05.17/outbox.ucp.g08.bks.cvg/sg12_53_cif.got.tgz:105968.got - 2010.06.11 11:47:21.
