data_PCOD9224744
_publ_section_title
;
Structure prediction by ZEFSAII (Michael W. Deem and Ramdas Pophale) SiO2 
 PCOD9224744
Probable space group: C 2/M
;
_chemical_formula_sum "Si O2"
_cell_formula_units_Z 20
_cell_length_a 18.000000
_cell_length_b 9.000000
_cell_length_c 21.000000
_cell_angle_alpha 90.000000
_cell_angle_beta 40.000000
_cell_angle_gamma 90.000000
_cell_volume 2186.763448
_symmetry_space_group_name_H-M "C 2/M"
_symmetry_group_IT_number 12
_symmetry_cell_setting 'monoclinic'
loop_
_space_group_symop_operation_xyz
x,y,z
-x,y,-z
-x,-y,-z
x,-y,z
1/2+x,1/2+y,z
1/2-x,1/2+y,-z
1/2-x,1/2-y,-z
1/2+x,1/2-y,z
loop_
_atom_site_type_symbol
_atom_site_label
_atom_site_fract_x
_atom_site_fract_y
_atom_site_fract_z
Si Si1 0.165774 0.680352 0.668863
Si Si2 0.307917 0.179794 0.089949
Si Si3 0.548048 0.179986 0.876327
Si Si4 0.935376 0.822594 0.474862
Si Si5 0.554309 0.820957 0.276192
O O1 0.171786 0.500000 0.666130
O O2 0.118321 0.732270 0.768600
O O3 0.298955 0.727456 0.566321
O O4 0.059273 0.719395 0.691877
O O5 0.373140 0.214867 0.113950
O O6 0.179603 0.252652 0.172799
O O7 0.293645 0.000000 0.095087
O O8 0.412297 0.226011 0.972378
O O9 0.542543 0.000000 0.877548
O O10 0.000000 0.803510 0.500000
O O11 0.013814 0.739033 0.371503
O O12 0.935144 0.000000 0.460731
O O13 0.565427 0.000000 0.268077
#
# Coordination Sequence:
#
# PCOD9224744 Si02
#       5
#     8   8   8   8   8
#     4   9  18  32  50  75 105 133 164 207 257 301
#     4   9  17  32  56  79  98 129 175 217 246 283
#     4   8  15  31  55  78  98 127 173 220 250 280
#     4  10  20  36  59  78  93 125 175 219 248 287
#     4  11  22  33  48  74 110 141 160 195 256 313
#
# _framework density 9.145937
#
# number of rings (size 3 to 8) (size 9 to 14) (size 15 to 20)
#    0.000    2.600    0.000    3.600    0.000    4.400 
#    0.000    3.000    0.000    4.800    0.000    0.000 
#    0.000    0.000    0.000    0.000    0.000    0.000 
#
# Total GULP energy -111357.998701 kJ/mol
# GULP energy per Si atom -5567.899935 kJ/mol
# Density = 0.912512 g / cm^3
# Si number density = 9.145937 Si / 1000 Ang^3
#
#
#
# Elastic Constant Matrix: (Units=GPa)
#
#
# Indices 1 2 3 4 5 6 
#
# 1 62.5257 15.3728 23.1171 0.0000 -31.5800 0.0000
# 2 15.3728 27.0518 16.0832 0.0001 -10.4018 -0.0001
# 3 23.1171 16.0832 115.1165 0.0000 -39.7199 0.0000
# 4 0.0000 0.0001 0.0000 26.0115 0.0000 -13.6214
# 5 -31.5800 -10.4018 -39.7199 0.0000 47.4586 0.0000
# 6 0.0000 -0.0001 0.0000 -13.6214 0.0000 21.8105
#
#
#
# Elastic Compliance Matrix: (Units=1/GPa)
#
#
# Indices 1 2 3 4 5 6 
#
# 1 0.026177 -0.009501 0.001915 0.000000 0.016939 0.000000
# 2 -0.009501 0.044930 -0.004433 0.000000 -0.000185 0.000000
# 3 0.001915 -0.004433 0.012691 0.000000 0.010925 0.000000
# 4 0.000000 0.000000 0.000000 0.057128 0.000000 0.035679
# 5 0.016939 -0.000185 0.010925 0.000000 0.041446 0.000000
# 6 0.000000 0.000000 0.000000 0.035679 0.000000 0.068132
#
#
# Mechanical properties :
#
#
# Convention : Reuss Voigt Hill
#
# Bulk Modulus (GPa) = 16.73345 34.87112 25.80228
# Shear Modulus (GPa) = 16.98019 29.06416 23.02217
#
# Velocity S-wave (km/s) = 3.05009 3.99044 3.55153
# Velocity P-wave (km/s) = 4.64456 6.35111 5.56366
#
# Compressibility (1/GPa) = 0.05976053
#
# Stress axis : x y z
#
# Youngs Moduli (GPa) = 38.20177 22.25691 78.79621
#
# Poissons Ratio (x) = 0.21146 -0.15093
# Poissons Ratio (y) = 0.36295 0.34931
# Poissons Ratio (z) = -0.07318 0.09867
#
# Static dielectric constant tensor:
#      x y z
#    x 1.658110 0.000000 0.034120 
#    y 0.000000 1.616730 0.000000 
#    z 0.034120 0.000000 1.651590 
# 
# From -- ./inp_files/151639.got.cif
#   From: 2010.05.17/outbox.ucp.g08.bks.cvg/sg12_76_cif.got.tgz:151639.got - 2010.06.11 11:47:21.
