data_PCOD9224936
_publ_section_title
;
Structure prediction by ZEFSAII (Michael W. Deem and Ramdas Pophale) SiO2 
 PCOD9224936
Probable space group: C 2/M
;
_chemical_formula_sum "Si O2"
_cell_formula_units_Z 30
_cell_length_a 15.000000
_cell_length_b 27.000000
_cell_length_c 15.000000
_cell_angle_alpha 90.000000
_cell_angle_beta 30.000000
_cell_angle_gamma 90.000000
_cell_volume 3037.500000
_symmetry_space_group_name_H-M "C 2/M"
_symmetry_group_IT_number 12
_symmetry_cell_setting 'monoclinic'
loop_
_space_group_symop_operation_xyz
x,y,z
-x,y,-z
-x,-y,-z
x,-y,z
1/2+x,1/2+y,z
1/2-x,1/2+y,-z
1/2-x,1/2-y,-z
1/2+x,1/2-y,z
loop_
_atom_site_type_symbol
_atom_site_label
_atom_site_fract_x
_atom_site_fract_y
_atom_site_fract_z
Si Si1 0.905912 0.287176 0.258062
Si Si2 0.350235 0.188778 0.701246
Si Si3 0.864524 0.109069 0.811912
Si Si4 0.248566 0.559296 0.539492
Si Si5 0.787309 0.056130 0.704346
Si Si6 0.500000 0.258187 0.000000
Si Si7 0.481325 0.284028 0.350469
Si Si8 0.581830 0.118967 0.203682
O O1 0.010356 0.276784 0.077021
O O2 0.692831 0.295885 0.438493
O O3 0.923692 0.238603 0.305198
O O4 0.990042 0.334153 0.233896
O O5 0.500000 0.176995 0.500000
O O6 0.415742 0.239018 0.693241
O O7 0.334135 0.143355 0.781943
O O8 0.159590 0.205776 0.832808
O O9 0.766358 0.090011 0.807827
O O10 0.907066 0.166902 0.762936
O O11 0.059029 0.082661 0.650567
O O12 0.736287 0.098810 0.005989
O O13 0.261577 0.500000 0.522041
O O14 0.206838 0.571888 0.679866
O O15 0.079418 0.581644 0.635182
O O16 0.000000 0.055077 0.500000
O O17 0.731292 0.000000 0.773691
#
# Coordination Sequence:
#
# PCOD9224936 Si02
#       8
#     8   8   8   8   8   4   8   8
#     4  10  21  37  56  84 121 156 197 236 284 338
#     4  11  24  40  60  86 118 155 196 242 296 347
#     4  11  20  34  59  86 121 160 197 235 283 338
#     4  10  22  40  60  85 119 158 195 240 294 349
#     4   8  17  34  54  80 116 152 187 227 275 334
#     4  12  22  36  60  88 118 160 202 238 284 346
#     4  10  20  38  58  80 121 162 190 238 285 338
#     4  11  24  39  59  90 116 152 199 244 289 349
#
# _framework density 9.8765429999999999
#
# number of rings (size 3 to 8) (size 9 to 14) (size 15 to 20)
#    0.000    1.733    2.667    2.800    0.000    8.533 
#    2.400    1.333    0.000    0.400    0.000    1.400 
#    0.000    0.000    0.000    0.000    0.000    0.000 
#
# Total GULP energy -167446.396604 kJ/mol
# GULP energy per Si atom -5581.546553 kJ/mol
# Density = 0.985406 g / cm^3
# Si number density = 9.876543 Si / 1000 Ang^3
#
#
#
# Elastic Constant Matrix: (Units=GPa)
#
#
# Indices 1 2 3 4 5 6 
#
# 1 14.3749 12.2497 0.0272 -0.0007 -1.1412 -0.0002
# 2 12.2497 58.4766 11.8665 0.0025 -2.4672 0.0003
# 3 0.0272 11.8665 92.1051 -0.0023 2.3212 -0.0028
# 4 -0.0007 0.0025 -0.0023 -17.0365 0.0052 2.3662
# 5 -1.1412 -2.4672 2.3212 0.0052 20.4450 0.0017
# 6 -0.0002 0.0003 -0.0028 2.3662 0.0017 11.7211
#
#
#
# Elastic Compliance Matrix: (Units=1/GPa)
#
#
# Indices 1 2 3 4 5 6 
#
# 1 0.085276 -0.018226 0.002265 -0.000005 0.002303 0.000003
# 2 -0.018226 0.021572 -0.002822 0.000004 0.001906 -0.000003
# 3 0.002265 -0.002822 0.011258 -0.000002 -0.001492 0.000003
# 4 -0.000005 0.000004 -0.000002 -0.057097 0.000014 0.011526
# 5 0.002303 0.001906 -0.001492 0.000014 0.049440 -0.000010
# 6 0.000003 -0.000003 0.000003 0.011526 -0.000010 0.082989
#
#
# Mechanical properties :
#
#
# Convention : Reuss Voigt Hill
#
# Bulk Modulus (GPa) = 12.41630 23.69373 18.05501
# Shear Modulus (GPa) = 19.39108 12.41346 15.90227
#
# Velocity S-wave (km/s) = 3.13657 2.50957 2.84042
# Velocity P-wave (km/s) = 4.40645 4.51866 4.46291
#
# Compressibility (1/GPa) = 0.08053930
#
# Stress axis : x y z
#
# Youngs Moduli (GPa) = 11.72666 46.35651 88.82838
#
# Poissons Ratio (x) = 0.84490 -0.20119
# Poissons Ratio (y) = 0.21373 0.25067
# Poissons Ratio (z) = -0.02656 0.13081
#
# Static dielectric constant tensor:
#      x y z
#    x 1.752960 0.000000 -0.031860 
#    y 0.000000 1.672570 0.000000 
#    z -0.031860 0.000000 1.721200 
# 
# From -- ./inp_files/219217.got.cif
#   From: 2010.05.17/outbox.ucp.g08.bks.cvg/sg12_110_cif.got.tgz:219217.got - 2010.06.11 11:47:21.
