data_PCOD9224287
_publ_section_title
;
Structure prediction by ZEFSAII (Michael W. Deem and Ramdas Pophale) SiO2 
 PCOD9224287
Probable space group: C 2/M
;
_chemical_formula_sum "Si O2"
_cell_formula_units_Z 20
_cell_length_a 21.000000
_cell_length_b 9.000000
_cell_length_c 30.000000
_cell_angle_alpha 90.000000
_cell_angle_beta 20.000000
_cell_angle_gamma 90.000000
_cell_volume 1939.254213
_symmetry_space_group_name_H-M "C 2/M"
_symmetry_group_IT_number 12
_symmetry_cell_setting 'monoclinic'
loop_
_space_group_symop_operation_xyz
x,y,z
-x,y,-z
-x,-y,-z
x,-y,z
1/2+x,1/2+y,z
1/2-x,1/2+y,-z
1/2-x,1/2-y,-z
1/2+x,1/2-y,z
loop_
_atom_site_type_symbol
_atom_site_label
_atom_site_fract_x
_atom_site_fract_y
_atom_site_fract_z
Si Si1 0.709664 0.678121 0.872956
Si Si2 0.936274 0.827446 0.593082
Si Si3 0.165112 0.168088 0.120166
Si Si4 0.589317 0.178311 0.574496
Si Si5 0.550176 0.829636 0.811764
O O1 0.698744 0.500000 0.879305
O O2 0.783002 0.731059 0.872386
O O3 0.880365 0.721390 0.728576
O O4 0.500000 0.735324 0.000000
O O5 0.719759 0.775508 0.731453
O O6 0.000000 0.820419 0.500000
O O7 0.075816 0.737125 0.532837
O O8 0.937640 0.000000 0.606960
O O9 0.999889 0.232702 0.198423
O O10 0.121486 0.000000 0.162993
O O11 0.356115 0.165283 0.966045
O O12 0.750000 0.250000 0.500000
O O13 0.608949 0.000000 0.563372
O O14 0.597241 0.000000 0.767623
#
# Coordination Sequence:
#
# PCOD9224287 Si02
#       5
#     8   8   8   8   8
#     4  10  22  40  62  86 117 159 204 249 304 362
#     4  10  22  40  63  88 118 159 204 248 299 359
#     4  10  20  33  56  88 118 153 196 247 299 354
#     4  11  25  43  64  91 126 164 204 254 308 367
#     4   9  19  36  56  83 121 158 195 242 299 359
#
# _framework density 10.313243
#
# number of rings (size 3 to 8) (size 9 to 14) (size 15 to 20)
#    0.000    2.000    0.000    2.400    2.800    4.000 
#    0.000    0.000    0.000    0.000    0.000    0.000 
#    0.000    0.000    0.000    0.000    0.000    0.000 
#
# Total GULP energy -111608.352315 kJ/mol
# GULP energy per Si atom -5580.417616 kJ/mol
# Density = 1.028977 g / cm^3
# Si number density = 10.313243 Si / 1000 Ang^3
#
#
#
# Elastic Constant Matrix: (Units=GPa)
#
#
# Indices 1 2 3 4 5 6 
#
# 1 121.8283 16.0681 39.1664 0.0033 -34.1440 0.0066
# 2 16.0681 4.5987 37.1093 0.0053 -14.0995 -0.0036
# 3 39.1664 37.1093 70.3239 -0.0237 -20.6057 -0.0086
# 4 0.0033 0.0053 -0.0237 22.0610 -0.0050 -10.3698
# 5 -34.1440 -14.0995 -20.6057 -0.0050 36.2647 0.0033
# 6 0.0066 -0.0036 -0.0086 -10.3698 0.0033 24.4093
#
#
#
# Elastic Compliance Matrix: (Units=1/GPa)
#
#
# Indices 1 2 3 4 5 6 
#
# 1 0.011597 -0.005311 -0.001274 -0.000003 0.008130 -0.000007
# 2 -0.005311 -0.062809 0.032970 0.000064 -0.010686 0.000032
# 3 -0.001274 0.032970 0.001123 -0.000002 0.012257 0.000003
# 4 -0.000003 0.000064 -0.000002 0.056639 0.000026 0.024062
# 5 0.008130 -0.010686 0.012257 0.000026 0.038039 0.000007
# 6 -0.000007 0.000032 0.000003 0.024062 0.000007 0.051190
#
#
# Mechanical properties :
#
#
# Convention : Reuss Voigt Hill
#
# Bulk Modulus (GPa) = 372.89075 42.38206 207.63640
# Shear Modulus (GPa) = 113.88783 23.50748 68.69765
#
# Velocity S-wave (km/s) = 7.43870 3.37957 5.77736
# Velocity P-wave (km/s) = 15.96728 5.98504 12.05767
#
# Compressibility (1/GPa) = 0.00268175
#
# Stress axis : x y z
#
# Youngs Moduli (GPa) = 86.23010 -15.92130 890.52168
#
# Poissons Ratio (x) = -0.08455 1.13483
# Poissons Ratio (y) = 0.45793 -29.36076
# Poissons Ratio (z) = 0.10989 0.52493
#
# Static dielectric constant tensor:
#      x y z
#    x 1.738870 0.000000 0.066710 
#    y 0.000000 1.712400 0.000030 
#    z 0.066710 0.000030 1.852370 
# 
# From -- ./inp_files/230623.got.cif
#   From: 2010.05.17/outbox.ucp.g08.bks.cvg/sg12_116_cif.got.tgz:230623.got - 2010.06.11 11:47:21.
