data_PCOD9224823
_publ_section_title
;
Structure prediction by ZEFSAII (Michael W. Deem and Ramdas Pophale) SiO2 
 PCOD9224823
Probable space group: C 2/M
;
_chemical_formula_sum "Si O2"
_cell_formula_units_Z 32
_cell_length_a 15.000000
_cell_length_b 9.000000
_cell_length_c 30.000000
_cell_angle_alpha 90.000000
_cell_angle_beta 130.000000
_cell_angle_gamma 90.000000
_cell_volume 3102.479995
_symmetry_space_group_name_H-M "C 2/M"
_symmetry_group_IT_number 12
_symmetry_cell_setting 'monoclinic'
loop_
_space_group_symop_operation_xyz
x,y,z
-x,y,-z
-x,-y,-z
x,-y,z
1/2+x,1/2+y,z
1/2-x,1/2+y,-z
1/2-x,1/2-y,-z
1/2+x,1/2-y,z
loop_
_atom_site_type_symbol
_atom_site_label
_atom_site_fract_x
_atom_site_fract_y
_atom_site_fract_z
Si Si1 0.862391 0.176493 0.057946
Si Si2 0.571075 0.176730 0.634317
Si Si3 0.156835 0.676311 0.853850
Si Si4 0.880757 0.823073 0.871631
Si Si5 0.629456 0.326457 0.561243
Si Si6 0.645705 0.676828 0.394459
Si Si7 0.268709 0.827332 0.749814
Si Si8 0.553205 0.172953 0.276011
O O1 0.872753 0.230986 0.112144
O O2 0.986018 0.216311 0.075185
O O3 0.848959 0.000000 0.051630
O O4 0.750000 0.250000 0.000000
O O5 0.626526 0.238949 0.606790
O O6 0.446284 0.253356 0.600933
O O7 0.656212 0.230380 0.701219
O O8 0.561562 0.000000 0.630429
O O9 0.139852 0.500000 0.857508
O O10 0.289336 0.701670 0.881733
O O11 0.071420 0.713095 0.785274
O O12 0.834311 0.734030 0.814048
O O13 0.877328 0.000000 0.860002
O O14 0.500000 0.318025 0.500000
O O15 0.341315 0.500000 0.421820
O O16 0.727504 0.251561 0.562228
O O17 0.651815 0.500000 0.400860
O O18 0.595626 0.724795 0.329806
O O19 0.356914 0.818692 0.736285
O O20 0.235511 0.000000 0.744820
O O21 0.549079 0.000000 0.290024
#
# Coordination Sequence:
#
# PCOD9224823 Si02
#       8
#     8   8   8   8   8   8   8   8
#     4  11  24  41  61  86 117 157 204 255 303 362
#     4  12  25  42  66  94 129 170 211 258 310 371
#     4  10  21  40  63  88 119 158 198 246 304 363
#     4  10  22  39  62  90 122 160 204 249 305 370
#     4  11  25  46  69  93 125 165 212 265 316 372
#     4  12  25  41  66  97 130 168 210 259 314 375
#     4  11  21  36  63  96 129 162 202 252 308 371
#     4  10  20  36  62  93 129 165 199 248 311 374
#
# _framework density 10.314329000000001
#
# number of rings (size 3 to 8) (size 9 to 14) (size 15 to 20)
#    0.000    1.125    2.500    4.125    0.000    5.000 
#    0.000    2.500    0.000    0.000    0.000    0.000 
#    0.000    0.000    0.000    0.000    0.000    0.000 
#
# Total GULP energy -179070.057206 kJ/mol
# GULP energy per Si atom -5595.939288 kJ/mol
# Density = 1.029085 g / cm^3
# Si number density = 10.314329 Si / 1000 Ang^3
#
#
#
# Elastic Constant Matrix: (Units=GPa)
#
#
# Indices 1 2 3 4 5 6 
#
# 1 94.5078 37.1101 7.9387 0.0000 35.3309 0.0000
# 2 37.1101 111.9425 17.0401 0.0000 22.9473 0.0000
# 3 7.9387 17.0401 54.0395 0.0000 30.7278 0.0000
# 4 0.0000 0.0000 0.0000 33.4161 0.0000 3.1761
# 5 35.3309 22.9473 30.7278 0.0000 33.7474 0.0000
# 6 0.0000 0.0000 0.0000 3.1761 0.0000 28.0670
#
#
#
# Elastic Compliance Matrix: (Units=1/GPa)
#
#
# Indices 1 2 3 4 5 6 
#
# 1 0.029371 -0.002914 0.026878 0.000000 -0.053240 0.000000
# 2 -0.002914 0.010731 -0.001123 0.000000 -0.003223 0.000000
# 3 0.026878 -0.001123 0.063196 0.000000 -0.084916 0.000000
# 4 0.000000 0.000000 0.000000 0.030251 0.000000 -0.003423
# 5 -0.053240 -0.003223 -0.084916 0.000000 0.164880 0.000000
# 6 0.000000 0.000000 0.000000 -0.003423 0.000000 0.036016
#
#
# Mechanical properties :
#
#
# Convention : Reuss Voigt Hill
#
# Bulk Modulus (GPa) = 6.71238 42.74084 24.72661
# Shear Modulus (GPa) = 14.77436 32.27283 23.52359
#
# Velocity S-wave (km/s) = 2.67911 3.95962 3.38055
# Velocity P-wave (km/s) = 3.58205 6.45515 5.22016
#
# Compressibility (1/GPa) = 0.14897844
#
# Stress axis : x y z
#
# Youngs Moduli (GPa) = 34.04696 93.18829 15.82391
#
# Poissons Ratio (x) = 0.27159 -0.42531
# Poissons Ratio (y) = 0.09923 0.01777
# Poissons Ratio (z) = -0.91510 0.10463
#
# Static dielectric constant tensor:
#      x y z
#    x 1.761670 0.000000 0.019390 
#    y 0.000000 1.689010 0.000000 
#    z 0.019390 0.000000 1.727940 
# 
# From -- ./inp_files/375656.got.cif
#   From: 2010.05.17/outbox.ucp.g08.bks.cvg/sg12_188_cif.got.tgz:375656.got - 2010.06.11 11:47:21.
