data_PCOD9224553
_publ_section_title
;
Structure prediction by ZEFSAII (Michael W. Deem and Ramdas Pophale) SiO2 
 PCOD9224553
Probable space group: C 2/M
;
_chemical_formula_sum "Si O2"
_cell_formula_units_Z 28
_cell_length_a 21.000000
_cell_length_b 9.000000
_cell_length_c 30.000000
_cell_angle_alpha 90.000000
_cell_angle_beta 30.000000
_cell_angle_gamma 90.000000
_cell_volume 2835.000000
_symmetry_space_group_name_H-M "C 2/M"
_symmetry_group_IT_number 12
_symmetry_cell_setting 'monoclinic'
loop_
_space_group_symop_operation_xyz
x,y,z
-x,y,-z
-x,-y,-z
x,-y,z
1/2+x,1/2+y,z
1/2-x,1/2+y,-z
1/2-x,1/2-y,-z
1/2+x,1/2-y,z
loop_
_atom_site_type_symbol
_atom_site_label
_atom_site_fract_x
_atom_site_fract_y
_atom_site_fract_z
Si Si1 0.079109 0.676489 0.559908
Si Si2 0.571143 0.675099 0.176519
Si Si3 0.857110 0.179457 0.241561
Si Si4 0.869895 0.174957 0.378230
Si Si5 0.106262 0.180052 0.880266
Si Si6 0.312133 0.679160 0.075072
Si Si7 0.103889 0.169500 0.398174
O O1 0.062527 0.500000 0.566949
O O2 0.082590 0.729808 0.608860
O O3 0.223140 0.714607 0.456013
O O4 0.967186 0.752962 0.600101
O O5 0.598590 0.500000 0.154486
O O6 0.491233 0.727599 0.181811
O O7 0.466757 0.692686 0.278972
O O8 0.700789 0.754429 0.112455
O O9 0.847560 0.225785 0.195909
O O10 0.729242 0.246050 0.339306
O O11 0.853866 0.000000 0.247157
O O12 0.868240 0.000000 0.391881
O O13 0.190807 0.228511 0.871109
O O14 0.107537 0.000000 0.881130
O O15 0.957088 0.221126 0.974337
O O16 0.302920 0.500000 0.078552
O O17 0.000000 0.170130 0.500000
O O18 0.137230 0.000000 0.366874
#
# Coordination Sequence:
#
# PCOD9224553 Si02
#       7
#     8   8   8   8   8   8   8
#     4  10  20  35  57  80 103 144 193 233 277 331
#     4  10  21  35  53  81 115 148 181 233 287 330
#     4  10  21  38  59  82 112 150 195 234 276 335
#     4   9  19  35  52  76 112 145 181 231 285 332
#     4   8  17  36  59  83 110 144 187 235 279 331
#     4   9  18  35  59  83 111 146 187 232 280 337
#     4  11  24  39  55  79 114 150 185 231 284 330
#
# _framework density 9.8765429999999999
#
# number of rings (size 3 to 8) (size 9 to 14) (size 15 to 20)
#    0.000    2.429    0.000    2.571    2.000    4.571 
#    0.000    2.143    0.000    0.000    0.000    0.000 
#    0.000    0.000    0.000    0.000    0.000    0.000 
#
# Total GULP energy -156179.492064 kJ/mol
# GULP energy per Si atom -5577.839002 kJ/mol
# Density = 0.985406 g / cm^3
# Si number density = 9.876543 Si / 1000 Ang^3
#
#
#
# Elastic Constant Matrix: (Units=GPa)
#
#
# Indices 1 2 3 4 5 6 
#
# 1 103.1383 30.1425 13.4663 0.0005 -24.5057 -0.0067
# 2 30.1425 26.0931 10.3948 -0.0003 -5.3055 -0.0081
# 3 13.4663 10.3948 26.0190 0.0010 -9.3782 0.0008
# 4 0.0005 -0.0003 0.0010 17.4991 0.0000 -11.3417
# 5 -24.5057 -5.3055 -9.3782 0.0000 32.0656 0.0011
# 6 -0.0067 -0.0081 0.0008 -11.3417 0.0011 28.2535
#
#
#
# Elastic Compliance Matrix: (Units=1/GPa)
#
#
# Indices 1 2 3 4 5 6 
#
# 1 0.017539 -0.019015 0.002478 -0.000003 0.010982 -0.000003
# 2 -0.019015 0.066370 -0.020069 0.000017 -0.009420 0.000022
# 3 0.002478 -0.020069 0.049917 -0.000011 0.013172 -0.000011
# 4 -0.000003 0.000017 -0.000011 0.077242 -0.000003 0.031007
# 5 0.010982 -0.009420 0.013172 -0.000003 0.041873 -0.000004
# 6 -0.000003 0.000022 -0.000011 0.031007 -0.000004 0.047841
#
#
# Mechanical properties :
#
#
# Convention : Reuss Voigt Hill
#
# Bulk Modulus (GPa) = 16.49827 29.25085 22.87456
# Shear Modulus (GPa) = 12.68398 22.31342 17.49870
#
# Velocity S-wave (km/s) = 2.53677 3.36462 2.97959
# Velocity P-wave (km/s) = 4.11712 5.47126 4.84176
#
# Compressibility (1/GPa) = 0.06061240
#
# Stress axis : x y z
#
# Youngs Moduli (GPa) = 57.01687 15.06713 20.03333
#
# Poissons Ratio (x) = 0.28649 -0.04963
# Poissons Ratio (y) = 1.08415 0.40206
# Poissons Ratio (z) = -0.14127 0.30239
#
# Static dielectric constant tensor:
#      x y z
#    x 1.701270 0.000000 0.039980 
#    y 0.000000 1.670660 0.000000 
#    z 0.039980 0.000000 1.725920 
# 
# From -- ./inp_files/280922.got.cif
#   From: 2010.05.17/outbox.ucp.g08.bks.cvg/sg12_141_cif.got.tgz:280922.got - 2010.06.11 11:47:21.
