data_PCOD9224449
_publ_section_title
;
Structure prediction by ZEFSAII (Michael W. Deem and Ramdas Pophale) SiO2 
 PCOD9224449
Probable space group: C 2/M
;
_chemical_formula_sum "Si O2"
_cell_formula_units_Z 20
_cell_length_a 30.000000
_cell_length_b 9.000000
_cell_length_c 24.000000
_cell_angle_alpha 90.000000
_cell_angle_beta 20.000000
_cell_angle_gamma 90.000000
_cell_volume 2216.290529
_symmetry_space_group_name_H-M "C 2/M"
_symmetry_group_IT_number 12
_symmetry_cell_setting 'monoclinic'
loop_
_space_group_symop_operation_xyz
x,y,z
-x,y,-z
-x,-y,-z
x,-y,z
1/2+x,1/2+y,z
1/2-x,1/2+y,-z
1/2-x,1/2-y,-z
1/2+x,1/2-y,z
loop_
_atom_site_type_symbol
_atom_site_label
_atom_site_fract_x
_atom_site_fract_y
_atom_site_fract_z
Si Si1 0.605731 0.175175 0.221025
Si Si2 0.645127 0.180393 0.668693
Si Si3 0.353249 0.179743 0.197640
Si Si4 0.594535 0.823118 0.442523
Si Si5 0.406542 0.322084 0.883342
O O1 0.500315 0.195904 0.392961
O O2 0.570271 0.268597 0.207662
O O3 0.608780 0.000000 0.201782
O O4 0.751533 0.211518 0.072350
O O5 0.750000 0.250000 0.500000
O O6 0.658870 0.218002 0.720197
O O7 0.505291 0.239418 0.809412
O O8 0.652620 0.000000 0.656184
O O9 0.233621 0.248216 0.299774
O O10 0.342430 0.000000 0.207393
O O11 0.500000 0.217921 0.000000
O O12 0.500000 0.776427 0.500000
O O13 0.620617 0.000000 0.403150
O O14 0.425255 0.500000 0.866256
#
# Coordination Sequence:
#
# PCOD9224449 Si02
#       5
#     8   8   8   8   8
#     4   9  19  36  56  83 120 155 194 242 292 351
#     4  11  23  39  61  87 119 156 200 249 299 358
#     4  10  24  44  62  87 123 161 203 248 298 360
#     4  10  22  39  61  88 118 154 198 246 295 352
#     4  10  20  34  57  87 117 152 194 243 297 352
#
# _framework density 9.0240880000000008
#
# number of rings (size 3 to 8) (size 9 to 14) (size 15 to 20)
#    0.000    2.000    0.000    2.400    2.800    7.200 
#    0.000    0.000    0.000    0.000    0.000    0.000 
#    0.000    0.000    0.000    0.000    0.000    0.000 
#
# Total GULP energy -111405.775650 kJ/mol
# GULP energy per Si atom -5570.288783 kJ/mol
# Density = 0.900355 g / cm^3
# Si number density = 9.024088 Si / 1000 Ang^3
#
#
#
# Elastic Constant Matrix: (Units=GPa)
#
#
# Indices 1 2 3 4 5 6 
#
# 1 152.3537 43.7072 59.6066 0.0000 -24.5195 0.0000
# 2 43.7072 67.5920 33.8162 0.0011 -8.7270 0.0004
# 3 59.6066 33.8162 116.3762 0.0003 -10.8070 0.0002
# 4 0.0000 0.0011 0.0003 34.0808 -0.0001 -9.1896
# 5 -24.5195 -8.7270 -10.8070 -0.0001 39.4175 -0.0001
# 6 0.0000 0.0004 0.0002 -9.1896 -0.0001 40.6493
#
#
#
# Elastic Compliance Matrix: (Units=1/GPa)
#
#
# Indices 1 2 3 4 5 6 
#
# 1 0.009743 -0.004042 -0.003423 0.000000 0.004227 0.000000
# 2 -0.004042 0.019235 -0.003445 -0.000001 0.000800 0.000000
# 3 -0.003423 -0.003445 0.011368 0.000000 0.000225 0.000000
# 4 0.000000 -0.000001 0.000000 0.031247 0.000000 0.007064
# 5 0.004227 0.000800 0.000225 0.000000 0.028238 0.000000
# 6 0.000000 0.000000 0.000000 0.007064 0.000000 0.026198
#
#
# Mechanical properties :
#
#
# Convention : Reuss Voigt Hill
#
# Bulk Modulus (GPa) = 53.97723 67.84241 60.90982
# Shear Modulus (GPa) = 32.46287 36.10897 34.28592
#
# Velocity S-wave (km/s) = 4.24568 4.47777 4.36327
# Velocity P-wave (km/s) = 7.34892 8.02528 7.69454
#
# Compressibility (1/GPa) = 0.01852633
#
# Stress axis : x y z
#
# Youngs Moduli (GPa) = 102.64103 51.98905 87.96629
#
# Poissons Ratio (x) = 0.21012 0.30112
# Poissons Ratio (y) = 0.41483 0.30303
# Poissons Ratio (z) = 0.35136 0.17909
#
# Static dielectric constant tensor:
#      x y z
#    x 1.625660 0.000000 0.001590 
#    y 0.000000 1.623080 0.000000 
#    z 0.001590 0.000000 1.656080 
# 
# From -- ./inp_files/352954.got.cif
#   From: 2010.05.17/outbox.ucp.g08.bks.cvg/sg12_177_cif.got.tgz:352954.got - 2010.06.11 11:47:21.
