data_PCOD9224009
_publ_section_title
;
Structure prediction by ZEFSAII (Michael W. Deem and Ramdas Pophale) SiO2 
 PCOD9224009
Probable space group: C 2/M
;
_chemical_formula_sum "Si O2"
_cell_formula_units_Z 32
_cell_length_a 18.000000
_cell_length_b 24.000000
_cell_length_c 21.000000
_cell_angle_alpha 90.000000
_cell_angle_beta 20.000000
_cell_angle_gamma 90.000000
_cell_volume 3102.806740
_symmetry_space_group_name_H-M "C 2/M"
_symmetry_group_IT_number 12
_symmetry_cell_setting 'monoclinic'
loop_
_space_group_symop_operation_xyz
x,y,z
-x,y,-z
-x,-y,-z
x,-y,z
1/2+x,1/2+y,z
1/2-x,1/2+y,-z
1/2-x,1/2-y,-z
1/2+x,1/2-y,z
loop_
_atom_site_type_symbol
_atom_site_label
_atom_site_fract_x
_atom_site_fract_y
_atom_site_fract_z
Si Si1 0.409821 0.597762 0.407577
Si Si2 0.748452 0.734895 0.922849
Si Si3 0.455702 0.797327 0.624294
Si Si4 0.208274 0.716500 0.598019
Si Si5 0.876670 0.645080 0.033975
Si Si6 0.041207 0.562891 0.797979
Si Si7 0.449749 0.435212 0.848944
Si Si8 0.837848 0.840155 0.256089
O O1 0.284416 0.655655 0.518295
O O2 0.661971 0.608742 0.223929
O O3 0.252743 0.562840 0.581454
O O4 0.442910 0.579980 0.306854
O O5 0.830079 0.706488 0.791046
O O6 0.706559 0.799062 0.935348
O O7 0.945443 0.722020 0.813613
O O8 0.530500 0.702343 0.115645
O O9 0.614047 0.741604 0.494667
O O10 0.648109 0.841643 0.461952
O O11 0.284203 0.814861 0.707668
O O12 0.250000 0.750000 0.500000
O O13 0.000000 0.660464 0.000000
O O14 0.032008 0.609412 0.861380
O O15 0.020701 0.500000 0.841450
O O16 0.811367 0.574299 0.946768
O O17 0.485661 0.500000 0.830587
O O18 0.548855 0.399568 0.827021
#
# Coordination Sequence:
#
# PCOD9224009 Si02
#       8
#     8   8   8   8   8   8   8   8
#     4  11  21  41  65  89 129 165 209 271 324 369
#     4  11  22  38  63  90 131 170 210 255 323 388
#     4  10  22  38  55  93 134 164 213 254 315 395
#     4  10  19  35  59  91 125 161 209 255 304 394
#     4  11  24  39  61  95 128 166 206 258 321 397
#     4  10  24  43  65  93 120 163 221 269 318 379
#     4  10  22  42  66  93 123 166 228 273 310 374
#     4  11  23  37  63  90 130 180 203 262 331 370
#
# _framework density 10.313243
#
# number of rings (size 3 to 8) (size 9 to 14) (size 15 to 20)
#    0.000    1.500    2.500    3.750    3.500    1.750 
#    0.000    1.875    0.000    1.500    0.000    0.000 
#    0.000    0.000    0.000    0.000    0.000    0.000 
#
# Total GULP energy -178237.060150 kJ/mol
# GULP energy per Si atom -5569.908130 kJ/mol
# Density = 1.028977 g / cm^3
# Si number density = 10.313243 Si / 1000 Ang^3
#
#
#
# Elastic Constant Matrix: (Units=GPa)
#
#
# Indices 1 2 3 4 5 6 
#
# 1 109.6853 45.6458 42.4486 -0.1094 -6.8068 0.0377
# 2 45.6458 95.3017 13.6380 -0.2268 -10.5343 -0.1327
# 3 42.4486 13.6380 119.3239 0.0835 -13.6098 0.0433
# 4 -0.1094 -0.2268 0.0835 30.1681 0.0494 1.4893
# 5 -6.8068 -10.5343 -13.6098 0.0494 26.1426 -0.0552
# 6 0.0377 -0.1327 0.0433 1.4893 -0.0552 21.5007
#
#
#
# Elastic Compliance Matrix: (Units=1/GPa)
#
#
# Indices 1 2 3 4 5 6 
#
# 1 0.013042 -0.005778 -0.004101 0.000020 -0.001068 -0.000054
# 2 -0.005778 0.013614 0.001014 0.000066 0.004509 0.000099
# 3 -0.004101 0.001014 0.010258 -0.000044 0.004681 0.000008
# 4 0.000020 0.000066 -0.000044 0.033262 -0.000059 -0.002304
# 5 -0.001068 0.004509 0.004681 -0.000059 0.042228 0.000133
# 6 -0.000054 0.000099 0.000008 -0.002304 0.000133 0.046671
#
#
# Mechanical properties :
#
#
# Convention : Reuss Voigt Hill
#
# Bulk Modulus (GPa) = 52.12878 58.64176 55.38527
# Shear Modulus (GPa) = 27.29256 30.40085 28.84670
#
# Velocity S-wave (km/s) = 3.64150 3.84327 3.74375
# Velocity P-wave (km/s) = 6.55807 6.94164 6.75258
#
# Compressibility (1/GPa) = 0.01918326
#
# Stress axis : x y z
#
# Youngs Moduli (GPa) = 76.67273 73.45334 97.48927
#
# Poissons Ratio (x) = 0.42441 0.39982
# Poissons Ratio (y) = 0.44301 -0.09882
# Poissons Ratio (z) = 0.31444 -0.07446
#
# Static dielectric constant tensor:
#      x y z
#    x 1.800240 0.000970 0.028380 
#    y 0.000970 1.879860 0.001000 
#    z 0.028380 0.001000 1.811270 
# 
# From -- ./inp_files/318345.got.cif
#   From: 2010.05.17/outbox.ucp.g08.bks.cvg/sg12_160_cif.got.tgz:318345.got - 2010.06.11 11:47:21.
