data_PCOD9224374
_publ_section_title
;
Structure prediction by ZEFSAII (Michael W. Deem and Ramdas Pophale) SiO2 
 PCOD9224374
Probable space group: C 2/M
;
_chemical_formula_sum "Si O2"
_cell_formula_units_Z 20
_cell_length_a 30.000000
_cell_length_b 9.000000
_cell_length_c 24.000000
_cell_angle_alpha 90.000000
_cell_angle_beta 20.000000
_cell_angle_gamma 90.000000
_cell_volume 2216.290529
_symmetry_space_group_name_H-M "C 2/M"
_symmetry_group_IT_number 12
_symmetry_cell_setting 'monoclinic'
loop_
_space_group_symop_operation_xyz
x,y,z
-x,y,-z
-x,-y,-z
x,-y,z
1/2+x,1/2+y,z
1/2-x,1/2+y,-z
1/2-x,1/2-y,-z
1/2+x,1/2-y,z
loop_
_atom_site_type_symbol
_atom_site_label
_atom_site_fract_x
_atom_site_fract_y
_atom_site_fract_z
Si Si1 0.573719 0.820683 0.855395
Si Si2 0.881257 0.820873 0.491897
Si Si3 0.385630 0.675680 0.861268
Si Si4 0.568795 0.168628 0.360137
Si Si5 0.631836 0.676251 0.987411
O O1 0.727840 0.771511 0.671996
O O2 0.575002 0.000000 0.849344
O O3 0.500000 0.782289 0.000000
O O4 0.478162 0.755231 0.920327
O O5 0.977975 0.775479 0.327450
O O6 0.969060 0.761681 0.439776
O O7 0.875980 0.000000 0.499795
O O8 0.371568 0.500000 0.865964
O O9 0.250000 0.750000 0.000000
O O10 0.398551 0.696100 0.911910
O O11 0.500000 0.158285 0.500000
O O12 0.716370 0.227674 0.195726
O O13 0.582617 0.000000 0.320077
O O14 0.630760 0.500000 0.974913
#
# Coordination Sequence:
#
# PCOD9224374 Si02
#       5
#     8   8   8   8   8
#     4  10  22  39  56  79 113 148 184 226 272 326
#     4  10  21  36  56  81 109 144 185 228 272 323
#     4  10  20  36  57  82 112 142 181 230 276 326
#     4  10  20  34  54  81 110 142 184 229 273 325
#     4  10  21  36  55  81 111 143 182 228 275 325
#
# _framework density 9.0240880000000008
#
# number of rings (size 3 to 8) (size 9 to 14) (size 15 to 20)
#    0.000    2.000    2.000    1.200    0.000    4.000 
#    0.000    0.000    0.000    0.000    0.000    0.000 
#    0.000    0.000    0.000    0.000    0.000    0.000 
#
# Total GULP energy -111407.295813 kJ/mol
# GULP energy per Si atom -5570.364791 kJ/mol
# Density = 0.900355 g / cm^3
# Si number density = 9.024088 Si / 1000 Ang^3
#
#
#
# Elastic Constant Matrix: (Units=GPa)
#
#
# Indices 1 2 3 4 5 6 
#
# 1 100.4293 29.4654 80.4606 0.0000 -24.9199 -0.0001
# 2 29.4654 13.5419 34.1802 -0.0010 -6.6495 0.0008
# 3 80.4606 34.1802 212.2621 -0.0004 -26.2086 0.0004
# 4 0.0000 -0.0010 -0.0004 26.6256 0.0001 -21.2269
# 5 -24.9199 -6.6495 -26.2086 0.0001 40.6984 0.0000
# 6 -0.0001 0.0008 0.0004 -21.2269 0.0000 -6.9216
#
#
#
# Elastic Compliance Matrix: (Units=1/GPa)
#
#
# Indices 1 2 3 4 5 6 
#
# 1 0.030029 -0.059206 -0.000840 -0.000002 0.008173 0.000000
# 2 -0.059206 0.243631 -0.017762 0.000009 -0.007885 0.000000
# 3 -0.000840 -0.017762 0.008113 -0.000001 0.001808 0.000000
# 4 -0.000002 0.000009 -0.000001 0.010902 0.000000 -0.033435
# 5 0.008173 -0.007885 0.001808 0.000000 0.029451 0.000000
# 6 0.000000 0.000000 0.000000 -0.033435 0.000000 -0.041939
#
#
# Mechanical properties :
#
#
# Convention : Reuss Voigt Hill
#
# Bulk Modulus (GPa) = 7.92666 68.27176 38.09921
# Shear Modulus (GPa) = 10.46340 24.22229 17.34284
#
# Velocity S-wave (km/s) = 2.41041 3.66743 3.10323
# Velocity P-wave (km/s) = 3.48543 7.47282 5.83058
#
# Compressibility (1/GPa) = 0.12615651
#
# Stress axis : x y z
#
# Youngs Moduli (GPa) = 33.30150 4.10457 123.25894
#
# Poissons Ratio (x) = 0.24301 0.10351
# Poissons Ratio (y) = 1.97165 2.18936
# Poissons Ratio (z) = 0.02797 0.07291
#
# Static dielectric constant tensor:
#      x y z
#    x 1.623180 0.000000 0.041580 
#    y 0.000000 1.642720 0.000000 
#    z 0.041580 0.000000 1.641500 
# 
# From -- ./inp_files/83480.got.cif
#   From: 2010.05.17/outbox.ucp.g08.bks.cvg/sg12_42_cif.got.tgz:83480.got - 2010.06.11 11:47:21.
