data_PCOD9224499
_publ_section_title
;
Structure prediction by ZEFSAII (Michael W. Deem and Ramdas Pophale) SiO2 
 PCOD9224499
Probable space group: C 2/M
;
_chemical_formula_sum "Si O2"
_cell_formula_units_Z 20
_cell_length_a 15.000000
_cell_length_b 9.000000
_cell_length_c 30.000000
_cell_angle_alpha 90.000000
_cell_angle_beta 30.000000
_cell_angle_gamma 90.000000
_cell_volume 2025.000000
_symmetry_space_group_name_H-M "C 2/M"
_symmetry_group_IT_number 12
_symmetry_cell_setting 'monoclinic'
loop_
_space_group_symop_operation_xyz
x,y,z
-x,y,-z
-x,-y,-z
x,-y,z
1/2+x,1/2+y,z
1/2-x,1/2+y,-z
1/2-x,1/2-y,-z
1/2+x,1/2-y,z
loop_
_atom_site_type_symbol
_atom_site_label
_atom_site_fract_x
_atom_site_fract_y
_atom_site_fract_z
Si Si1 0.637313 0.326670 0.206470
Si Si2 0.919254 0.679474 0.486011
Si Si3 0.466810 0.177967 0.365862
Si Si4 0.389259 0.175483 0.873589
Si Si5 0.965423 0.673420 0.939452
O O1 0.587947 0.500000 0.230727
O O2 0.581809 0.245929 0.276042
O O3 0.561368 0.258408 0.193541
O O4 0.851871 0.314910 0.112825
O O5 0.897428 0.500000 0.496544
O O6 0.729607 0.757759 0.560121
O O7 0.017936 0.714501 0.395646
O O8 0.000000 0.721230 0.500000
O O9 0.465800 0.000000 0.363020
O O10 0.494159 0.209085 0.874341
O O11 0.399250 0.000000 0.861234
O O12 0.188989 0.224765 0.973856
O O13 0.905835 0.500000 0.966992
#
# Coordination Sequence:
#
# PCOD9224499 Si02
#       5
#     8   8   8   8   8
#     4  11  22  36  54  76 108 145 178 217 266 316
#     4   9  19  38  61  82 107 140 174 211 261 318
#     4  10  21  36  55  82 111 137 174 219 261 313
#     4  10  20  35  55  79 106 138 181 227 267 312
#     4   9  20  37  54  75 106 144 181 218 266 320
#
# _framework density 9.8765429999999999
#
# number of rings (size 3 to 8) (size 9 to 14) (size 15 to 20)
#    0.000    2.200    0.000    2.400    0.000    7.600 
#    0.000    4.000    0.000    0.000    0.000    0.000 
#    0.000    0.000    0.000    0.000    0.000    0.000 
#
# Total GULP energy -111547.167271 kJ/mol
# GULP energy per Si atom -5577.358364 kJ/mol
# Density = 0.985406 g / cm^3
# Si number density = 9.876543 Si / 1000 Ang^3
#
#
#
# Elastic Constant Matrix: (Units=GPa)
#
#
# Indices 1 2 3 4 5 6 
#
# 1 140.8913 42.6090 16.6821 0.0003 37.4927 0.0000
# 2 42.6090 45.7743 13.2061 -0.0001 15.5769 -0.0001
# 3 16.6821 13.2061 39.7816 -0.0010 24.9024 0.0000
# 4 0.0003 -0.0001 -0.0010 33.4605 -0.0003 8.5628
# 5 37.4927 15.5769 24.9024 -0.0003 34.1794 0.0000
# 6 0.0000 -0.0001 0.0000 8.5628 0.0000 29.7651
#
#
#
# Elastic Compliance Matrix: (Units=1/GPa)
#
#
# Indices 1 2 3 4 5 6 
#
# 1 0.013090 -0.008984 0.007204 0.000000 -0.015513 0.000000
# 2 -0.008984 0.032129 -0.007173 0.000000 0.000438 0.000000
# 3 0.007204 -0.007173 0.050370 0.000001 -0.041332 0.000000
# 4 0.000000 0.000000 0.000001 0.032261 0.000000 -0.009281
# 5 -0.015513 0.000438 -0.041332 0.000000 0.076188 0.000000
# 6 0.000000 0.000000 0.000000 -0.009281 0.000000 0.036266
#
#
# Mechanical properties :
#
#
# Convention : Reuss Voigt Hill
#
# Bulk Modulus (GPa) = 12.87261 41.27130 27.07196
# Shear Modulus (GPa) = 17.59908 29.74432 23.67170
#
# Velocity S-wave (km/s) = 2.98812 3.88468 3.46552
# Velocity P-wave (km/s) = 4.29373 6.40780 5.45417
#
# Compressibility (1/GPa) = 0.07768430
#
# Stress axis : x y z
#
# Youngs Moduli (GPa) = 76.39484 31.12411 19.85294
#
# Poissons Ratio (x) = 0.27962 -0.14302
# Poissons Ratio (y) = 0.68634 0.14240
# Poissons Ratio (z) = -0.55036 0.22325
#
# Static dielectric constant tensor:
#      x y z
#    x 1.699690 0.000000 0.022370 
#    y 0.000000 1.663460 0.000000 
#    z 0.022370 0.000000 1.727940 
# 
# From -- ./inp_files/211208.got.cif
#   From: 2010.05.17/outbox.ucp.g08.bks.cvg/sg12_106_cif.got.tgz:211208.got - 2010.06.11 11:47:21.
