data_PCOD9224222
_publ_section_title
;
Structure prediction by ZEFSAII (Michael W. Deem and Ramdas Pophale) SiO2 
 PCOD9224222
Probable space group: C 2/M
;
_chemical_formula_sum "Si O2"
_cell_formula_units_Z 24
_cell_length_a 21.000000
_cell_length_b 9.000000
_cell_length_c 27.000000
_cell_angle_alpha 90.000000
_cell_angle_beta 150.000000
_cell_angle_gamma 90.000000
_cell_volume 2551.500000
_symmetry_space_group_name_H-M "C 2/M"
_symmetry_group_IT_number 12
_symmetry_cell_setting 'monoclinic'
loop_
_space_group_symop_operation_xyz
x,y,z
-x,y,-z
-x,-y,-z
x,-y,z
1/2+x,1/2+y,z
1/2-x,1/2+y,-z
1/2-x,1/2-y,-z
1/2+x,1/2-y,z
loop_
_atom_site_type_symbol
_atom_site_label
_atom_site_fract_x
_atom_site_fract_y
_atom_site_fract_z
Si Si1 0.187360 0.175746 0.028853
Si Si2 0.272010 0.172214 0.274218
Si Si3 0.848851 0.664540 0.896217
Si Si4 0.017911 0.168600 0.451936
Si Si5 0.560247 0.176783 0.857567
Si Si6 0.782504 0.676609 0.659076
O O1 0.190170 0.225228 0.086830
O O2 0.319534 0.227534 0.093214
O O3 0.176626 0.000000 0.017286
O O4 0.074720 0.249144 0.921024
O O5 0.192670 0.272831 0.183961
O O6 0.419753 0.213736 0.364838
O O7 0.241650 0.223793 0.309201
O O8 0.246355 0.000000 0.249719
O O9 0.795729 0.500000 0.869120
O O10 0.000000 0.656008 0.000000
O O11 0.166228 0.202198 0.543558
O O12 0.000000 0.169384 0.500000
O O13 0.987773 0.000000 0.415452
O O14 0.426788 0.206894 0.741234
O O15 0.570213 0.000000 0.871288
O O16 0.773859 0.500000 0.666687
#
# Coordination Sequence:
#
# PCOD9224222 Si02
#       6
#     8   8   8   8   8   8
#     4  10  20  33  50  74 101 127 159 200 242 282
#     4  11  21  31  47  73 103 129 156 199 247 285
#     4  11  23  37  52  69  94 130 166 197 235 288
#     4   8  15  29  48  69  95 128 163 196 234 283
#     4   9  18  33  52  73  99 130 161 195 237 285
#     4   9  17  31  51  73  98 130 165 196 232 284
#
# _framework density 9.4062319999999993
#
# number of rings (size 3 to 8) (size 9 to 14) (size 15 to 20)
#    0.000    2.333    0.000    4.500    0.000    9.667 
#    0.000    0.000    0.000    1.000    0.000    0.000 
#    0.000    0.000    0.000    0.000    0.000    0.000 
#
# Total GULP energy -133698.799372 kJ/mol
# GULP energy per Si atom -5570.783307 kJ/mol
# Density = 0.938482 g / cm^3
# Si number density = 9.406232 Si / 1000 Ang^3
#
#
#
# Elastic Constant Matrix: (Units=GPa)
#
#
# Indices 1 2 3 4 5 6 
#
# 1 22.4652 -3.4120 2.5341 0.0000 8.3361 0.0000
# 2 -3.4120 -7.5461 22.8256 0.0000 9.8414 0.0000
# 3 2.5341 22.8256 68.7658 0.0000 22.1692 0.0000
# 4 0.0000 0.0000 0.0000 17.6474 0.0000 -15.8942
# 5 8.3361 9.8414 22.1692 0.0000 19.4162 0.0000
# 6 0.0000 0.0000 0.0000 -15.8942 0.0000 25.5189
#
#
#
# Elastic Compliance Matrix: (Units=1/GPa)
#
#
# Indices 1 2 3 4 5 6 
#
# 1 0.050257 -0.018574 0.013031 0.000000 -0.027041 0.000000
# 2 -0.018574 -0.057136 0.012253 0.000000 0.022944 0.000000
# 3 0.013031 0.012253 0.021840 0.000000 -0.036741 0.000000
# 4 0.000000 0.000000 0.000000 0.129067 0.000000 0.080388
# 5 -0.027041 0.022944 -0.036741 0.000000 0.093434 0.000000
# 6 0.000000 0.000000 0.000000 0.080388 0.000000 0.089255
#
#
# Mechanical properties :
#
#
# Convention : Reuss Voigt Hill
#
# Bulk Modulus (GPa) = 35.23581 14.17559 24.70570
# Shear Modulus (GPa) = 15.49147 16.63233 16.06190
#
# Velocity S-wave (km/s) = 2.87273 2.97663 2.92514
# Velocity P-wave (km/s) = 5.45657 4.40061 4.95678
#
# Compressibility (1/GPa) = 0.02838022
#
# Stress axis : x y z
#
# Youngs Moduli (GPa) = 19.89792 -17.50224 45.78787
#
# Poissons Ratio (x) = -0.32508 -0.59666
# Poissons Ratio (y) = 0.36958 -0.56102
# Poissons Ratio (z) = -0.25929 0.21445
#
# Static dielectric constant tensor:
#      x y z
#    x 1.667260 0.000000 0.039180 
#    y 0.000000 1.634730 0.000000 
#    z 0.039180 0.000000 1.715600 
# 
# From -- ./inp_files/365558.got.cif
#   From: 2010.05.17/outbox.ucp.g08.bks.cvg/sg12_183_cif.got.tgz:365558.got - 2010.06.11 11:47:21.
