data_PCOD9224592
_publ_section_title
;
Structure prediction by ZEFSAII (Michael W. Deem and Ramdas Pophale) SiO2 
 PCOD9224592
Probable space group: C 2/M
;
_chemical_formula_sum "Si O2"
_cell_formula_units_Z 32
_cell_length_a 30.000000
_cell_length_b 9.000000
_cell_length_c 18.000000
_cell_angle_alpha 90.000000
_cell_angle_beta 40.000000
_cell_angle_gamma 90.000000
_cell_volume 3123.947783
_symmetry_space_group_name_H-M "C 2/M"
_symmetry_group_IT_number 12
_symmetry_cell_setting 'monoclinic'
loop_
_space_group_symop_operation_xyz
x,y,z
-x,y,-z
-x,-y,-z
x,-y,z
1/2+x,1/2+y,z
1/2-x,1/2+y,-z
1/2-x,1/2-y,-z
1/2+x,1/2-y,z
loop_
_atom_site_type_symbol
_atom_site_label
_atom_site_fract_x
_atom_site_fract_y
_atom_site_fract_z
Si Si1 0.423258 0.679344 0.564417
Si Si2 0.611028 0.178397 0.720287
Si Si3 0.083566 0.175217 0.601072
Si Si4 0.307321 0.324948 0.975469
Si Si5 0.952842 0.668796 0.968501
Si Si6 0.556740 0.832248 0.191861
Si Si7 0.169766 0.178390 0.784966
Si Si8 0.779377 0.323829 0.766161
O O1 0.500000 0.725920 0.500000
O O2 0.422689 0.500000 0.570259
O O3 0.410385 0.720415 0.493438
O O4 0.352377 0.743799 0.690679
O O5 0.618903 0.241606 0.626361
O O6 0.533770 0.214396 0.853710
O O7 0.664231 0.247220 0.711163
O O8 0.614289 0.000000 0.712870
O O9 0.003875 0.216542 0.717824
O O10 0.097595 0.000000 0.588744
O O11 0.316841 0.500000 0.951706
O O12 0.278653 0.304888 0.095801
O O13 0.250000 0.250000 0.000000
O O14 0.374691 0.236376 0.864067
O O15 0.949612 0.500000 0.002986
O O16 0.928843 0.661448 0.914263
O O17 0.899546 0.770000 0.081723
O O18 0.538844 0.000000 0.239331
O O19 0.238567 0.224667 0.743219
O O20 0.169560 0.000000 0.779676
O O21 0.793933 0.500000 0.741718
#
# Coordination Sequence:
#
# PCOD9224592 Si02
#       8
#     8   8   8   8   8   8   8   8
#     4  10  24  45  68  93 118 153 202 254 309 366
#     4  10  21  36  56  87 122 160 207 250 298 362
#     4  10  21  39  62  89 122 158 202 255 306 358
#     4  11  23  39  58  87 124 161 202 248 304 366
#     4   9  18  32  51  79 119 161 200 241 287 350
#     4  10  20  35  57  87 121 161 200 242 300 361
#     4  11  21  35  56  85 121 160 203 249 302 361
#     4  10  24  43  62  90 124 160 205 253 303 364
#
# _framework density 10.243449
#
# number of rings (size 3 to 8) (size 9 to 14) (size 15 to 20)
#    0.000    1.875    1.250    3.000    1.750    7.250 
#    0.000    0.625    0.000    0.000    0.000    0.000 
#    0.000    0.000    0.000    0.000    0.000    0.000 
#
# Total GULP energy -178375.458020 kJ/mol
# GULP energy per Si atom -5574.233063 kJ/mol
# Density = 1.022013 g / cm^3
# Si number density = 10.243449 Si / 1000 Ang^3
#
#
#
# Elastic Constant Matrix: (Units=GPa)
#
#
# Indices 1 2 3 4 5 6 
#
# 1 91.9080 21.1671 -3.4309 0.0033 -1.5056 0.0003
# 2 21.1671 23.6926 8.9276 0.0168 0.1983 -0.0009
# 3 -3.4309 8.9276 11.5295 0.0099 9.1252 -0.0015
# 4 0.0033 0.0168 0.0099 20.2954 -0.0031 -1.2157
# 5 -1.5056 0.1983 9.1252 -0.0031 19.6878 0.0001
# 6 0.0003 -0.0009 -0.0015 -1.2157 0.0001 26.7038
#
#
#
# Elastic Compliance Matrix: (Units=1/GPa)
#
#
# Indices 1 2 3 4 5 6 
#
# 1 0.022412 -0.042233 0.059508 -0.000002 -0.025442 0.000002
# 2 -0.042233 0.156530 -0.205269 -0.000008 0.090335 -0.000006
# 3 0.059508 -0.205269 0.407715 -0.000067 -0.182356 0.000012
# 4 -0.000002 -0.000008 -0.000067 0.049407 0.000039 0.002249
# 5 -0.025442 0.090335 -0.182356 0.000039 0.132459 -0.000005
# 6 0.000002 -0.000006 0.000012 0.002249 -0.000005 0.037550
#
#
# Mechanical properties :
#
#
# Convention : Reuss Voigt Hill
#
# Bulk Modulus (GPa) = 4.74682 20.05084 12.39883
# Shear Modulus (GPa) = 3.99270 20.03513 12.01392
#
# Velocity S-wave (km/s) = 1.39755 3.13061 2.42424
# Velocity P-wave (km/s) = 2.21951 4.78289 3.72842
#
# Compressibility (1/GPa) = 0.21066752
#
# Stress axis : x y z
#
# Youngs Moduli (GPa) = 44.61976 6.38856 2.45269
#
# Poissons Ratio (x) = 0.26981 -0.14595
# Poissons Ratio (y) = 1.88442 0.50346
# Poissons Ratio (z) = -2.65522 1.31138
#
# Static dielectric constant tensor:
#      x y z
#    x 1.783140 0.000000 0.023650 
#    y 0.000000 1.700940 0.000000 
#    z 0.023650 0.000000 1.786680 
# 
# From -- ./inp_files/295605.got.cif
#   From: 2010.05.17/outbox.ucp.g08.bks.cvg/sg12_148_cif.got.tgz:295605.got - 2010.06.11 11:47:21.
