data_PCOD9224682
_publ_section_title
;
Structure prediction by ZEFSAII (Michael W. Deem and Ramdas Pophale) SiO2 
 PCOD9224682
Probable space group: C 2/M
;
_chemical_formula_sum "Si O2"
_cell_formula_units_Z 28
_cell_length_a 30.000000
_cell_length_b 9.000000
_cell_length_c 15.000000
_cell_angle_alpha 90.000000
_cell_angle_beta 120.000000
_cell_angle_gamma 90.000000
_cell_volume 3507.402885
_symmetry_space_group_name_H-M "C 2/M"
_symmetry_group_IT_number 12
_symmetry_cell_setting 'monoclinic'
loop_
_space_group_symop_operation_xyz
x,y,z
-x,y,-z
-x,-y,-z
x,-y,z
1/2+x,1/2+y,z
1/2-x,1/2+y,-z
1/2-x,1/2-y,-z
1/2+x,1/2-y,z
loop_
_atom_site_type_symbol
_atom_site_label
_atom_site_fract_x
_atom_site_fract_y
_atom_site_fract_z
Si Si1 0.055696 0.819582 0.105576
Si Si2 0.583518 0.678083 0.838254
Si Si3 0.747182 0.679011 0.098121
Si Si4 0.448944 0.821062 0.505295
Si Si5 0.636068 0.822713 0.723465
Si Si6 0.029654 0.680884 0.269613
Si Si7 0.142686 0.680337 0.062864
O O1 0.054255 0.751119 0.204305
O O2 0.104243 0.748363 0.100300
O O3 0.060378 0.000000 0.112522
O O4 0.000000 0.787425 0.000000
O O5 0.581994 0.500000 0.851119
O O6 0.609339 0.721326 0.770995
O O7 0.527360 0.750299 0.785551
O O8 0.616254 0.761396 0.946059
O O9 0.738413 0.500000 0.080699
O O10 0.802416 0.699804 0.203355
O O11 0.700771 0.753841 0.108896
O O12 0.750000 0.750000 0.000000
O O13 0.500000 0.767556 0.500000
O O14 0.395843 0.788080 0.399086
O O15 0.448340 0.777754 0.609541
O O16 0.453736 0.000000 0.511220
O O17 0.627094 0.000000 0.732644
O O18 0.028970 0.500000 0.261644
O O19 0.143781 0.500000 0.069494
#
# Coordination Sequence:
#
# PCOD9224682 Si02
#       7
#     8   8   8   8   8   8   8
#     4  11  23  38  57  82 114 146 181 228 281 333
#     4  12  22  32  51  81 117 149 184 228 274 329
#     4  11  22  35  56  83 115 150 188 229 278 330
#     4   9  17  32  56  84 112 146 188 229 269 324
#     4  10  20  36  56  80 112 153 190 224 272 331
#     4  11  21  35  57  82 113 150 189 227 272 330
#     4  12  24  38  57  80 111 149 190 230 278 334
#
# _framework density 7.9831149999999997
#
# number of rings (size 3 to 8) (size 9 to 14) (size 15 to 20)
#    0.000    1.143    4.286    3.857    0.000    1.143 
#    0.000    2.143    0.000    0.857    0.000    0.000 
#    0.000    0.000    0.000    0.000    0.000    0.000 
#
# Total GULP energy -156139.534624 kJ/mol
# GULP energy per Si atom -5576.411951 kJ/mol
# Density = 0.796494 g / cm^3
# Si number density = 7.983115 Si / 1000 Ang^3
#
#
#
# Elastic Constant Matrix: (Units=GPa)
#
#
# Indices 1 2 3 4 5 6 
#
# 1 114.9265 44.7935 38.2909 0.0000 -3.9762 0.0000
# 2 44.7935 106.7896 26.8440 0.0000 -2.4812 0.0000
# 3 38.2909 26.8440 106.7735 0.0000 -4.1027 0.0000
# 4 0.0000 0.0000 0.0000 19.6867 0.0000 -1.7708
# 5 -3.9762 -2.4812 -4.1027 0.0000 33.1833 0.0000
# 6 0.0000 0.0000 0.0000 -1.7708 0.0000 34.0093
#
#
#
# Elastic Compliance Matrix: (Units=1/GPa)
#
#
# Indices 1 2 3 4 5 6 
#
# 1 0.011272 -0.003953 -0.003023 0.000000 0.000681 0.000000
# 2 -0.003953 0.011388 -0.001438 0.000000 0.000200 0.000000
# 3 -0.003023 -0.001438 0.010845 0.000000 0.000871 0.000000
# 4 0.000000 0.000000 0.000000 0.051035 0.000000 0.002657
# 5 0.000681 0.000200 0.000871 0.000000 0.030340 0.000000
# 6 0.000000 0.000000 0.000000 0.002657 0.000000 0.029542
#
#
# Mechanical properties :
#
#
# Convention : Reuss Voigt Hill
#
# Bulk Modulus (GPa) = 59.95597 60.92737 60.44167
# Shear Modulus (GPa) = 29.97457 31.94661 30.96059
#
# Velocity S-wave (km/s) = 4.33757 4.47798 4.40833
# Velocity P-wave (km/s) = 7.91955 8.06098 7.99058
#
# Compressibility (1/GPa) = 0.01667891
#
# Stress axis : x y z
#
# Youngs Moduli (GPa) = 88.71213 87.80956 92.21220
#
# Poissons Ratio (x) = 0.34708 0.27872
# Poissons Ratio (y) = 0.35065 0.13260
# Poissons Ratio (z) = 0.26814 0.12627
#
# Static dielectric constant tensor:
#      x y z
#    x 1.547070 0.000000 0.003090 
#    y 0.000000 1.533050 0.000000 
#    z 0.003090 0.000000 1.554430 
# 
# From -- ./inp_files/248590.got.cif
#   From: 2010.05.17/outbox.ucp.g08.bks.cvg/sg12_125_cif.got.tgz:248590.got - 2010.06.11 11:47:21.
