data_PCOD9224031
_publ_section_title
;
Structure prediction by ZEFSAII (Michael W. Deem and Ramdas Pophale) SiO2 
 PCOD9224031
Probable space group: C 2/M
;
_chemical_formula_sum "Si O2"
_cell_formula_units_Z 32
_cell_length_a 18.000000
_cell_length_b 21.000000
_cell_length_c 24.000000
_cell_angle_alpha 90.000000
_cell_angle_beta 160.000000
_cell_angle_gamma 90.000000
_cell_volume 3102.806740
_symmetry_space_group_name_H-M "C 2/M"
_symmetry_group_IT_number 12
_symmetry_cell_setting 'monoclinic'
loop_
_space_group_symop_operation_xyz
x,y,z
-x,y,-z
-x,-y,-z
x,-y,z
1/2+x,1/2+y,z
1/2-x,1/2+y,-z
1/2-x,1/2-y,-z
1/2+x,1/2-y,z
loop_
_atom_site_type_symbol
_atom_site_label
_atom_site_fract_x
_atom_site_fract_y
_atom_site_fract_z
Si Si1 0.636834 0.119673 0.911323
Si Si2 0.879636 0.184112 0.303161
Si Si3 0.100650 0.298847 0.343360
Si Si4 0.265942 0.570331 0.304321
Si Si5 0.937236 0.157350 0.224310
Si Si6 0.851768 0.332487 0.284171
Si Si7 0.283874 0.926311 0.417491
Si Si8 0.455000 0.573296 0.870154
O O1 0.519503 0.174195 0.794464
O O2 0.442440 0.078455 0.801795
O O3 0.778243 0.150555 0.060180
O O4 0.803838 0.086028 0.985450
O O5 0.784981 0.131954 0.278236
O O6 0.806502 0.163827 0.189577
O O7 0.822355 0.257476 0.278376
O O8 0.145466 0.181986 0.484123
O O9 0.079275 0.222344 0.324894
O O10 0.963595 0.325166 0.300720
O O11 0.500000 0.570175 0.500000
O O12 0.245657 0.500000 0.262682
O O13 0.095960 0.096776 0.327970
O O14 0.636384 0.374093 0.150032
O O15 0.029928 0.374107 0.442950
O O16 0.191010 0.923069 0.289276
O O17 0.349861 0.000000 0.474329
O O18 0.441766 0.500000 0.881967
#
# Coordination Sequence:
#
# PCOD9224031 Si02
#       8
#     8   8   8   8   8   8   8   8
#     4  11  24  43  66  93 128 171 212 268 327 381
#     4  11  22  42  68  96 129 169 216 269 317 371
#     4  11  21  41  65  96 132 171 215 263 318 377
#     4  11  25  45  68  95 125 167 221 271 326 391
#     4  10  21  40  65  96 133 166 209 267 319 379
#     4  11  21  38  65  95 133 168 213 262 312 380
#     4  10  19  35  61  94 131 173 214 257 312 379
#     4  10  23  41  61  94 135 171 209 261 324 383
#
# _framework density 10.313243
#
# number of rings (size 3 to 8) (size 9 to 14) (size 15 to 20)
#    0.000    1.375    3.750    2.250    0.000    7.000 
#    0.000    6.250    0.000    0.000    0.000    0.000 
#    0.000    0.000    0.000    0.000    0.000    0.000 
#
# Total GULP energy -178501.560427 kJ/mol
# GULP energy per Si atom -5578.173763 kJ/mol
# Density = 1.028977 g / cm^3
# Si number density = 10.313243 Si / 1000 Ang^3
#
#
#
# Elastic Constant Matrix: (Units=GPa)
#
#
# Indices 1 2 3 4 5 6 
#
# 1 89.5526 71.1852 35.3814 0.0187 28.9226 0.0076
# 2 71.1852 155.5489 21.1378 0.1174 14.7748 -0.0135
# 3 35.3814 21.1378 67.4241 0.0059 12.9062 -0.0533
# 4 0.0187 0.1174 0.0059 -0.5119 -0.0869 -1.7632
# 5 28.9226 14.7748 12.9062 -0.0869 35.0198 -0.0383
# 6 0.0076 -0.0135 -0.0533 -1.7632 -0.0383 29.0097
#
#
#
# Elastic Compliance Matrix: (Units=1/GPa)
#
#
# Indices 1 2 3 4 5 6 
#
# 1 0.027215 -0.009883 -0.008262 0.001146 -0.015259 0.000023
# 2 -0.009883 0.010466 0.001278 0.001197 0.003279 0.000087
# 3 -0.008262 0.001278 0.018897 0.000164 -0.000679 0.000047
# 4 0.001146 0.001197 0.000164 -1.614157 -0.005626 -0.098117
# 5 -0.015259 0.003279 -0.000679 -0.005626 0.040010 -0.000285
# 6 0.000023 0.000087 0.000047 -0.098117 -0.000285 0.028507
#
#
# Mechanical properties :
#
#
# Convention : Reuss Voigt Hill
#
# Bulk Modulus (GPa) = 43.77950 63.10381 53.44166
# Shear Modulus (GPa) = -3.45373 25.02492 10.78560
#
# Velocity S-wave (km/s) = -1.29540 3.48694 2.28918
# Velocity P-wave (km/s) = 4.36275 6.84629 5.74044
#
# Compressibility (1/GPa) = 0.02284174
#
# Stress axis : x y z
#
# Youngs Moduli (GPa) = 36.74403 95.54829 52.91956
#
# Poissons Ratio (x) = 0.94435 0.43723
# Poissons Ratio (y) = 0.36316 -0.06761
# Poissons Ratio (z) = 0.30358 -0.12207
#
# Static dielectric constant tensor:
#      x y z
#    x 1.748650 0.000010 0.010080 
#    y 0.000010 1.714520 -0.000070 
#    z 0.010080 -0.000070 1.789290 
# 
# From -- ./inp_files/344892.got.cif
#   From: 2010.05.17/outbox.ucp.g08.bks.cvg/sg12_173_cif.got.tgz:344892.got - 2010.06.11 11:47:21.
