data_PCOD9224847
_publ_section_title
;
Structure prediction by ZEFSAII (Michael W. Deem and Ramdas Pophale) SiO2 
 PCOD9224847
Probable space group: C 2/M
;
_chemical_formula_sum "Si O2"
_cell_formula_units_Z 28
_cell_length_a 30.000000
_cell_length_b 9.000000
_cell_length_c 12.000000
_cell_angle_alpha 90.000000
_cell_angle_beta 70.000000
_cell_angle_gamma 90.000000
_cell_volume 3044.604091
_symmetry_space_group_name_H-M "C 2/M"
_symmetry_group_IT_number 12
_symmetry_cell_setting 'monoclinic'
loop_
_space_group_symop_operation_xyz
x,y,z
-x,y,-z
-x,-y,-z
x,-y,z
1/2+x,1/2+y,z
1/2-x,1/2+y,-z
1/2-x,1/2-y,-z
1/2+x,1/2-y,z
loop_
_atom_site_type_symbol
_atom_site_label
_atom_site_fract_x
_atom_site_fract_y
_atom_site_fract_z
Si Si1 0.125912 0.321331 0.463636
Si Si2 0.480676 0.178456 0.833927
Si Si3 0.088070 0.679839 0.739555
Si Si4 0.822835 0.678929 0.182094
Si Si5 0.073277 0.828881 0.305350
Si Si6 0.614154 0.328642 0.038172
Si Si7 0.262509 0.179386 0.609410
O O1 0.122009 0.500000 0.455770
O O2 0.103674 0.278306 0.601678
O O3 0.095699 0.242685 0.394232
O O4 0.182209 0.285640 0.412015
O O5 0.534376 0.228028 0.814008
O O6 0.468126 0.232895 0.718694
O O7 0.477459 0.000000 0.845836
O O8 0.437319 0.250904 0.941400
O O9 0.086598 0.500000 0.745420
O O10 0.131772 0.724491 0.780390
O O11 0.818193 0.500000 0.187947
O O12 0.841567 0.739199 0.048057
O O13 0.775290 0.753247 0.270756
O O14 0.058386 0.000000 0.334471
O O15 0.113076 0.828339 0.173474
O O16 0.614297 0.500000 0.000114
O O17 0.250000 0.250000 0.500000
O O18 0.258029 0.000000 0.608287
#
# Coordination Sequence:
#
# PCOD9224847 Si02
#       7
#     8   8   8   8   8   8   8
#     4  10  20  37  59  81 111 147 188 228 271 331
#     4   9  17  34  58  80 109 150 190 225 275 328
#     4   9  19  34  54  85 114 145 188 232 272 328
#     4  11  21  37  60  84 113 147 190 231 277 334
#     4   9  20  37  55  79 114 147 183 233 279 325
#     4   9  20  38  55  79 115 148 185 233 280 325
#     4  11  22  38  59  85 116 148 183 229 280 331
#
# _framework density 9.1965979999999998
#
# number of rings (size 3 to 8) (size 9 to 14) (size 15 to 20)
#    0.857    1.429    1.429    1.714    0.000    2.286 
#    0.000   10.714    0.000    0.000    0.000    0.000 
#    0.000    0.000    0.000    0.000    0.000    0.000 
#
# Total GULP energy -155989.781309 kJ/mol
# GULP energy per Si atom -5571.063618 kJ/mol
# Density = 0.917567 g / cm^3
# Si number density = 9.196598 Si / 1000 Ang^3
#
#
#
# Elastic Constant Matrix: (Units=GPa)
#
#
# Indices 1 2 3 4 5 6 
#
# 1 24.9398 3.1204 -17.1453 0.0000 -7.4939 0.0000
# 2 3.1204 63.0398 1.5929 0.0000 -5.5192 0.0000
# 3 -17.1453 1.5929 23.9219 0.0000 -7.1100 0.0000
# 4 0.0000 0.0000 0.0000 28.1672 0.0000 -5.2390
# 5 -7.4939 -5.5192 -7.1100 0.0000 39.3635 0.0000
# 6 0.0000 0.0000 0.0000 -5.2390 0.0000 24.7327
#
#
#
# Elastic Compliance Matrix: (Units=1/GPa)
#
#
# Indices 1 2 3 4 5 6 
#
# 1 0.120606 -0.004953 0.098686 0.000000 0.040091 0.000000
# 2 -0.004953 0.016268 -0.004476 0.000000 0.000529 0.000000
# 3 0.098686 -0.004476 0.124935 0.000000 0.040726 0.000000
# 4 0.000000 0.000000 0.000000 0.036958 0.000000 0.007829
# 5 0.040091 0.000529 0.040726 0.000000 0.040467 0.000000
# 6 0.000000 0.000000 0.000000 0.007829 0.000000 0.042091
#
#
# Mechanical properties :
#
#
# Convention : Reuss Voigt Hill
#
# Bulk Modulus (GPa) = 2.27106 9.67084 5.97095
# Shear Modulus (GPa) = 14.30263 26.74157 20.52210
#
# Velocity S-wave (km/s) = 2.79158 3.81712 3.34390
# Velocity P-wave (km/s) = 3.40998 4.96955 4.26171
#
# Compressibility (1/GPa) = 0.44032270
#
# Stress axis : x y z
#
# Youngs Moduli (GPa) = 8.29144 61.47172 8.00414
#
# Poissons Ratio (x) = 0.30450 -0.78990
# Poissons Ratio (y) = 0.04107 0.03583
# Poissons Ratio (z) = -0.81825 0.27515
#
# Static dielectric constant tensor:
#      x y z
#    x 1.618690 0.000000 0.013870 
#    y 0.000000 1.624900 0.000000 
#    z 0.013870 0.000000 1.667080 
# 
# From -- ./inp_files/186459.got.cif
#   From: 2010.05.17/outbox.ucp.g08.bks.cvg/sg12_94_cif.got.tgz:186459.got - 2010.06.11 11:47:21.
