data_PCOD9224970
_publ_section_title
;
Structure prediction by ZEFSAII (Michael W. Deem and Ramdas Pophale) SiO2 
 PCOD9224970
Probable space group: C 2/M
;
_chemical_formula_sum "Si O2"
_cell_formula_units_Z 24
_cell_length_a 21.000000
_cell_length_b 18.000000
_cell_length_c 18.000000
_cell_angle_alpha 90.000000
_cell_angle_beta 20.000000
_cell_angle_gamma 90.000000
_cell_volume 2327.105055
_symmetry_space_group_name_H-M "C 2/M"
_symmetry_group_IT_number 12
_symmetry_cell_setting 'monoclinic'
loop_
_space_group_symop_operation_xyz
x,y,z
-x,y,-z
-x,-y,-z
x,-y,z
1/2+x,1/2+y,z
1/2-x,1/2+y,-z
1/2-x,1/2-y,-z
1/2+x,1/2-y,z
loop_
_atom_site_type_symbol
_atom_site_label
_atom_site_fract_x
_atom_site_fract_y
_atom_site_fract_z
Si Si1 0.284402 0.836087 0.726267
Si Si2 0.466768 0.837471 0.233914
Si Si3 0.462025 0.687937 0.333669
Si Si4 0.694266 0.082734 0.451045
Si Si5 0.604746 0.417885 0.063994
Si Si6 0.164644 0.820257 0.264667
O O1 0.500000 0.851512 0.500000
O O2 0.253895 0.864483 0.675807
O O3 0.258965 0.748880 0.770485
O O4 0.187733 0.878407 0.900426
O O5 0.483796 0.755513 0.251612
O O6 0.258422 0.835487 0.423720
O O7 0.447534 0.887601 0.330333
O O8 0.643122 0.853178 0.985032
O O9 0.597817 0.626189 0.148679
O O10 0.543791 0.706008 0.325193
O O11 0.886649 0.077035 0.284217
O O12 0.643628 0.000000 0.479125
O O13 0.684781 0.500000 0.983881
O O14 0.000000 0.855925 0.500000
#
# Coordination Sequence:
#
# PCOD9224970 Si02
#       6
#     8   8   8   8   8   8
#     4  11  22  35  52  88 126 158 192 235 295 362
#     4  10  20  38  62  85 114 161 206 242 297 355
#     4  10  21  38  60  86 116 158 206 250 293 350
#     4  10  22  39  60  88 123 159 197 243 297 364
#     4  10  21  38  59  85 121 163 200 242 297 360
#     4  11  23  38  58  87 119 155 198 256 297 345
#
# _framework density 10.313243
#
# number of rings (size 3 to 8) (size 9 to 14) (size 15 to 20)
#    0.000    1.667    1.667    3.500    2.333    3.333 
#    6.000    0.000    0.000    2.000    0.000    4.667 
#    0.000    0.000    0.000    0.000    0.000    0.000 
#
# Total GULP energy -133667.613763 kJ/mol
# GULP energy per Si atom -5569.483907 kJ/mol
# Density = 1.028977 g / cm^3
# Si number density = 10.313243 Si / 1000 Ang^3
#
#
#
# Elastic Constant Matrix: (Units=GPa)
#
#
# Indices 1 2 3 4 5 6 
#
# 1 65.0196 16.4082 5.5772 -0.0058 24.1241 -0.0080
# 2 16.4082 48.7309 14.9157 -0.0290 18.0466 -0.0007
# 3 5.5772 14.9157 155.9686 -0.0465 38.3385 0.0053
# 4 -0.0058 -0.0290 -0.0465 5.6082 0.0159 -3.4973
# 5 24.1241 18.0466 38.3385 0.0159 41.6630 -0.0014
# 6 -0.0080 -0.0007 0.0053 -3.4973 -0.0014 6.8495
#
#
#
# Elastic Compliance Matrix: (Units=1/GPa)
#
#
# Indices 1 2 3 4 5 6 
#
# 1 0.020851 -0.002920 0.002831 0.000117 -0.013414 0.000079
# 2 -0.002920 0.024865 -0.000054 0.000219 -0.009031 0.000109
# 3 0.002831 -0.000054 0.008675 0.000145 -0.009599 0.000068
# 4 0.000117 0.000219 0.000145 0.261616 -0.000391 0.133580
# 5 -0.013414 -0.009031 -0.009599 -0.000391 0.044513 -0.000200
# 6 0.000079 0.000109 0.000068 0.133580 -0.000200 0.214201
#
#
# Mechanical properties :
#
#
# Convention : Reuss Voigt Hill
#
# Bulk Modulus (GPa) = 18.48239 38.16905 28.32572
# Shear Modulus (GPa) = 8.43112 26.34535 17.38823
#
# Velocity S-wave (km/s) = 2.02396 3.57775 2.90661
# Velocity P-wave (km/s) = 3.80024 5.96759 5.00270
#
# Compressibility (1/GPa) = 0.05410556
#
# Stress axis : x y z
#
# Youngs Moduli (GPa) = 47.95991 40.21757 115.27474
#
# Poissons Ratio (x) = 0.11742 -0.32632
# Poissons Ratio (y) = 0.14002 0.00618
# Poissons Ratio (z) = -0.13577 0.00216
#
# Static dielectric constant tensor:
#      x y z
#    x 1.797420 -0.000010 0.005490 
#    y -0.000010 1.836330 0.000010 
#    z 0.005490 0.000010 1.805850 
# 
# From -- ./inp_files/98934.got.cif
#   From: 2010.05.17/outbox.ucp.g08.bks.cvg/sg12_50_cif.got.tgz:98934.got - 2010.06.11 11:47:21.
