data_PCOD9224874
_publ_section_title
;
Structure prediction by ZEFSAII (Michael W. Deem and Ramdas Pophale) SiO2 
 PCOD9224874
Probable space group: C 2/M
;
_chemical_formula_sum "Si O2"
_cell_formula_units_Z 24
_cell_length_a 27.000000
_cell_length_b 9.000000
_cell_length_c 21.000000
_cell_angle_alpha 90.000000
_cell_angle_beta 30.000000
_cell_angle_gamma 90.000000
_cell_volume 2551.500000
_symmetry_space_group_name_H-M "C 2/M"
_symmetry_group_IT_number 12
_symmetry_cell_setting 'monoclinic'
loop_
_space_group_symop_operation_xyz
x,y,z
-x,y,-z
-x,-y,-z
x,-y,z
1/2+x,1/2+y,z
1/2-x,1/2+y,-z
1/2-x,1/2-y,-z
1/2+x,1/2-y,z
loop_
_atom_site_type_symbol
_atom_site_label
_atom_site_fract_x
_atom_site_fract_y
_atom_site_fract_z
Si Si1 0.839688 0.178642 0.221820
Si Si2 0.717696 0.677976 0.855894
Si Si3 0.220428 0.173290 0.466680
Si Si4 0.487289 0.173491 0.894000
Si Si5 0.318154 0.825211 0.871050
Si Si6 0.033147 0.330745 0.693784
O O1 0.791202 0.227084 0.208347
O O2 0.768549 0.233728 0.356737
O O3 0.942166 0.255109 0.130784
O O4 0.852882 0.000000 0.206394
O O5 0.725052 0.500000 0.844370
O O6 0.796357 0.728741 0.822635
O O7 0.612550 0.732614 0.998899
O O8 0.250000 0.250000 0.500000
O O9 0.104069 0.201149 0.591534
O O10 0.248209 0.000000 0.433700
O O11 0.528756 0.178540 0.775671
O O12 0.469001 0.000000 0.929276
O O13 0.428853 0.812605 0.774650
O O14 0.293564 0.000000 0.898122
O O15 0.250000 0.750000 0.000000
O O16 0.069166 0.500000 0.639230
#
# Coordination Sequence:
#
# PCOD9224874 Si02
#       6
#     8   8   8   8   8   8
#     4  11  23  39  58  83 117 156 193 236 285 341
#     4  10  22  38  58  85 118 155 194 234 285 340
#     4  12  24  39  61  86 113 150 191 238 287 339
#     4  11  21  34  57  88 120 153 188 234 288 342
#     4  10  20  37  60  85 115 150 191 235 280 334
#     4  10  21  37  58  87 118 149 189 235 283 337
#
# _framework density 9.4062319999999993
#
# number of rings (size 3 to 8) (size 9 to 14) (size 15 to 20)
#    0.000    1.333    3.333    3.000    0.000    4.667 
#    0.000    0.833    0.000    5.000    0.000    0.000 
#    0.000    0.000    0.000    0.000    0.000    0.000 
#
# Total GULP energy -133770.745389 kJ/mol
# GULP energy per Si atom -5573.781058 kJ/mol
# Density = 0.938482 g / cm^3
# Si number density = 9.406232 Si / 1000 Ang^3
#
#
#
# Elastic Constant Matrix: (Units=GPa)
#
#
# Indices 1 2 3 4 5 6 
#
# 1 159.9515 18.2602 17.9809 -0.0004 -1.7149 -0.0004
# 2 18.2602 -30.9512 -19.5199 -0.0033 -8.3138 0.0004
# 3 17.9809 -19.5199 21.0797 -0.0011 -0.8656 -0.0005
# 4 -0.0004 -0.0033 -0.0011 26.4911 -0.0003 0.0704
# 5 -1.7149 -8.3138 -0.8656 -0.0003 14.8010 0.0001
# 6 -0.0004 0.0004 -0.0005 0.0704 0.0001 23.5903
#
#
#
# Elastic Compliance Matrix: (Units=1/GPa)
#
#
# Indices 1 2 3 4 5 6 
#
# 1 0.006021 0.003780 -0.001524 0.000001 0.002731 0.000000
# 2 0.003780 -0.015924 -0.018363 -0.000003 -0.009581 0.000000
# 3 -0.001524 -0.018363 0.031379 -0.000001 -0.008656 0.000001
# 4 0.000001 -0.000003 -0.000001 0.037749 -0.000001 -0.000113
# 5 0.002731 -0.009581 -0.008656 -0.000001 0.061992 0.000000
# 6 0.000000 0.000000 0.000001 -0.000113 0.000000 0.042391
#
#
# Mechanical properties :
#
#
# Convention : Reuss Voigt Hill
#
# Bulk Modulus (GPa) = -93.10980 20.39137 -36.35922
# Shear Modulus (GPa) = 26.00889 21.86707 23.93798
#
# Velocity S-wave (km/s) = 3.72228 3.41306 3.57102
# Velocity P-wave (km/s) = 5.57919 5.13758 1.53827
#
# Compressibility (1/GPa) = -0.01074001
#
# Stress axis : x y z
#
# Youngs Moduli (GPa) = 166.08515 -62.79681 31.86861
#
# Poissons Ratio (x) = 0.23734 0.04856
# Poissons Ratio (y) = -0.62773 0.58522
# Poissons Ratio (z) = 0.25309 -1.15316
#
# Static dielectric constant tensor:
#      x y z
#    x 1.673730 0.000000 -0.013870 
#    y 0.000000 1.641410 0.000000 
#    z -0.013870 0.000000 1.724850 
# 
# From -- ./inp_files/327174.got.cif
#   From: 2010.05.17/outbox.ucp.g08.bks.cvg/sg12_164_cif.got.tgz:327174.got - 2010.06.11 11:47:21.
