data_PCOD9224064
_publ_section_title
;
Structure prediction by ZEFSAII (Michael W. Deem and Ramdas Pophale) SiO2 
 PCOD9224064
Probable space group: C 2/M
;
_chemical_formula_sum "Si O2"
_cell_formula_units_Z 32
_cell_length_a 18.000000
_cell_length_b 9.000000
_cell_length_c 30.000000
_cell_angle_alpha 90.000000
_cell_angle_beta 40.000000
_cell_angle_gamma 90.000000
_cell_volume 3123.947783
_symmetry_space_group_name_H-M "C 2/M"
_symmetry_group_IT_number 12
_symmetry_cell_setting 'monoclinic'
loop_
_space_group_symop_operation_xyz
x,y,z
-x,y,-z
-x,-y,-z
x,-y,z
1/2+x,1/2+y,z
1/2-x,1/2+y,-z
1/2-x,1/2-y,-z
1/2+x,1/2-y,z
loop_
_atom_site_type_symbol
_atom_site_label
_atom_site_fract_x
_atom_site_fract_y
_atom_site_fract_z
Si Si1 0.265398 0.333108 0.352191
Si Si2 0.250261 0.335095 0.724162
Si Si3 0.024075 0.823949 0.857135
Si Si4 0.487926 0.674957 0.728808
Si Si5 0.079767 0.326714 0.504526
Si Si6 0.428417 0.824399 0.987815
Si Si7 0.013254 0.830179 0.624946
Si Si8 0.168074 0.818059 0.125396
O O1 0.231486 0.500000 0.352744
O O2 0.221221 0.209520 0.339408
O O3 0.402855 0.324856 0.288777
O O4 0.209266 0.315206 0.426254
O O5 0.201891 0.500000 0.749654
O O6 0.152870 0.225989 0.786094
O O7 0.373600 0.330282 0.690495
O O8 0.990218 0.761662 0.920328
O O9 0.925994 0.769036 0.867623
O O10 0.018776 0.000000 0.858791
O O11 0.465741 0.500000 0.729118
O O12 0.535974 0.746008 0.661758
O O13 0.377801 0.734675 0.805360
O O14 0.052446 0.500000 0.523369
O O15 0.000000 0.273122 0.500000
O O16 0.058135 0.246749 0.560399
O O17 0.425148 0.000000 0.978442
O O18 0.500000 0.807280 0.000000
O O19 0.296920 0.771657 0.054750
O O20 0.056320 0.000000 0.603978
O O21 0.167298 0.000000 0.127135
#
# Coordination Sequence:
#
# PCOD9224064 Si02
#       8
#     8   8   8   8   8   8   8   8
#     4  10  19  36  60  81 107 149 191 228 276 335
#     4  11  22  35  56  86 114 142 187 240 283 326
#     4  11  22  38  61  84 112 153 192 228 273 331
#     4   9  18  35  58  82 110 145 189 229 274 335
#     4  10  20  34  55  81 112 148 186 229 280 340
#     4  10  22  38  60  89 119 149 183 229 280 328
#     4  10  22  36  56  83 112 147 185 234 285 332
#     4   9  18  35  61  85 109 149 190 225 271 331
#
# _framework density 10.243449
#
# number of rings (size 3 to 8) (size 9 to 14) (size 15 to 20)
#    0.000    2.000    2.500    1.125    1.750    2.000 
#    0.000    1.250    0.000    0.000    0.000    0.000 
#    0.000    0.000    0.000    0.000    0.000    0.000 
#
# Total GULP energy -178284.734836 kJ/mol
# GULP energy per Si atom -5571.397964 kJ/mol
# Density = 1.022013 g / cm^3
# Si number density = 10.243449 Si / 1000 Ang^3
#
#
#
# Elastic Constant Matrix: (Units=GPa)
#
#
# Indices 1 2 3 4 5 6 
#
# 1 10.7436 29.6682 2.2735 0.0004 2.3250 0.0008
# 2 29.6682 10.3565 29.0997 0.0007 9.4904 0.0011
# 3 2.2735 29.0997 96.7895 0.0001 1.0975 0.0003
# 4 0.0004 0.0007 0.0001 6.7352 0.0000 -23.9250
# 5 2.3250 9.4904 1.0975 0.0000 21.3977 0.0000
# 6 0.0008 0.0011 0.0003 -23.9250 0.0000 -19.3800
#
#
#
# Elastic Compliance Matrix: (Units=1/GPa)
#
#
# Indices 1 2 3 4 5 6 
#
# 1 0.002866 0.034646 -0.010312 0.000001 -0.015149 0.000001
# 2 0.034646 -0.012922 0.003051 0.000000 0.001810 0.000000
# 3 -0.010312 0.003051 0.009665 0.000000 -0.000728 0.000000
# 4 0.000001 0.000000 0.000000 0.027570 0.000000 -0.034036
# 5 -0.015149 0.001810 -0.000728 0.000000 0.047614 0.000000
# 6 0.000001 0.000000 0.000000 -0.034036 0.000000 -0.009582
#
#
# Mechanical properties :
#
#
# Convention : Reuss Voigt Hill
#
# Bulk Modulus (GPa) = 18.38973 26.66361 22.52667
# Shear Modulus (GPa) = 175.01343 5.54047 90.27695
#
# Velocity S-wave (km/s) = 9.25270 1.64629 6.64540
# Velocity P-wave (km/s) = 11.09711 4.08129 8.36070
#
# Compressibility (1/GPa) = 0.05437819
#
# Stress axis : x y z
#
# Youngs Moduli (GPa) = 348.93083 -77.38906 103.46605
#
# Poissons Ratio (x) = 2.68119 1.06691
# Poissons Ratio (y) = -12.08893 -0.31563
# Poissons Ratio (z) = 3.59808 0.23608
#
# Static dielectric constant tensor:
#      x y z
#    x 1.798420 0.000000 0.007780 
#    y 0.000000 1.696240 0.000000 
#    z 0.007780 0.000000 1.740370 
# 
# From -- ./inp_files/378040.got.cif
#   From: 2010.05.17/outbox.ucp.g08.bks.cvg/sg12_190_cif.got.tgz:378040.got - 2010.06.11 11:47:21.
