data_PCOD9224611
_publ_section_title
;
Structure prediction by ZEFSAII (Michael W. Deem and Ramdas Pophale) SiO2 
 PCOD9224611
Probable space group: C 2/M
;
_chemical_formula_sum "Si O2"
_cell_formula_units_Z 32
_cell_length_a 30.000000
_cell_length_b 9.000000
_cell_length_c 18.000000
_cell_angle_alpha 90.000000
_cell_angle_beta 40.000000
_cell_angle_gamma 90.000000
_cell_volume 3123.947783
_symmetry_space_group_name_H-M "C 2/M"
_symmetry_group_IT_number 12
_symmetry_cell_setting 'monoclinic'
loop_
_space_group_symop_operation_xyz
x,y,z
-x,y,-z
-x,-y,-z
x,-y,z
1/2+x,1/2+y,z
1/2-x,1/2+y,-z
1/2-x,1/2-y,-z
1/2+x,1/2-y,z
loop_
_atom_site_type_symbol
_atom_site_label
_atom_site_fract_x
_atom_site_fract_y
_atom_site_fract_z
Si Si1 0.042366 0.174333 0.023074
Si Si2 0.214485 0.177987 0.973969
Si Si3 0.826131 0.676443 0.211918
Si Si4 0.210100 0.676938 0.275711
Si Si5 0.965123 0.677630 0.260584
Si Si6 0.821877 0.323050 0.388538
Si Si7 0.428382 0.323021 0.778292
Si Si8 0.080641 0.824175 0.380677
O O1 0.117339 0.243372 0.911323
O O2 0.048783 0.000000 0.032714
O O3 0.000000 0.189902 0.000000
O O4 0.003402 0.255981 0.139477
O O5 0.250396 0.222103 0.851386
O O6 0.220510 0.000000 0.972286
O O7 0.250000 0.250000 0.000000
O O8 0.133395 0.214909 0.085885
O O9 0.828844 0.500000 0.197156
O O10 0.751040 0.740478 0.288122
O O11 0.841823 0.709357 0.277814
O O12 0.214983 0.500000 0.278110
O O13 0.131724 0.729736 0.366027
O O14 0.968116 0.500000 0.253082
O O15 0.885384 0.726200 0.358581
O O16 0.003940 0.737483 0.282881
O O17 0.814591 0.500000 0.404233
O O18 0.750000 0.250000 0.500000
O O19 0.440412 0.500000 0.765588
O O20 0.406600 0.286562 0.722192
O O21 0.000000 0.799071 0.500000
O O22 0.094923 0.000000 0.372545
#
# Coordination Sequence:
#
# PCOD9224611 Si02
#       8
#     8   8   8   8   8   8   8   8
#     4  11  22  37  62  94 125 159 197 244 304 364
#     4  10  20  35  58  86 118 152 191 238 291 355
#     4  11  23  41  64  90 124 163 203 247 300 362
#     4  11  23  38  60  92 124 155 200 250 302 363
#     4  11  23  40  62  90 123 159 202 249 301 363
#     4  10  24  43  63  88 119 158 207 254 299 355
#     4  10  21  38  60  88 121 156 198 248 299 359
#     4  10  22  41  63  86 117 160 208 252 300 359
#
# _framework density 10.243449
#
# number of rings (size 3 to 8) (size 9 to 14) (size 15 to 20)
#    0.000    1.500    2.500    2.250    0.000    6.250 
#    0.000    3.750    0.000    0.000    0.000    0.000 
#    0.000    0.000    0.000    0.000    0.000    0.000 
#
# Total GULP energy -178895.713357 kJ/mol
# GULP energy per Si atom -5590.491042 kJ/mol
# Density = 1.022013 g / cm^3
# Si number density = 10.243449 Si / 1000 Ang^3
#
#
#
# Elastic Constant Matrix: (Units=GPa)
#
#
# Indices 1 2 3 4 5 6 
#
# 1 92.1662 38.2486 -3.6276 -0.0023 -32.6543 0.0003
# 2 38.2486 16.1024 6.1773 -0.0083 -10.1312 0.0077
# 3 -3.6276 6.1773 38.0514 -0.0072 -22.8874 0.0046
# 4 -0.0023 -0.0083 -0.0072 27.6963 0.0028 -3.1981
# 5 -32.6543 -10.1312 -22.8874 0.0028 22.8502 -0.0020
# 6 0.0003 0.0077 0.0046 -3.1981 -0.0020 35.3129
#
#
#
# Elastic Compliance Matrix: (Units=1/GPa)
#
#
# Indices 1 2 3 4 5 6 
#
# 1 -0.016408 0.022098 -0.033612 0.000001 -0.047316 -0.000003
# 2 0.022098 0.064860 0.070105 0.000025 0.130555 -0.000014
# 3 -0.033612 0.070105 0.003772 0.000019 -0.013173 -0.000015
# 4 0.000001 0.000025 0.000019 0.036487 0.000027 0.003305
# 5 -0.047316 0.130555 -0.013173 0.000027 0.020836 -0.000023
# 6 -0.000003 -0.000014 -0.000015 0.003305 -0.000023 0.028618
#
#
# Mechanical properties :
#
#
# Convention : Reuss Voigt Hill
#
# Bulk Modulus (GPa) = 5.90299 25.32409 15.61354
# Shear Modulus (GPa) = 64.55630 24.20665 44.38148
#
# Velocity S-wave (km/s) = 5.61956 3.44112 4.65944
# Velocity P-wave (km/s) = 6.70772 5.30814 6.04855
#
# Compressibility (1/GPa) = 0.16940560
#
# Stress axis : x y z
#
# Youngs Moduli (GPa) = -60.94712 15.41788 265.13019
#
# Poissons Ratio (x) = -0.34071 8.91150
# Poissons Ratio (y) = 1.34682 -18.58683
# Poissons Ratio (z) = -2.04854 -1.08086
#
# Static dielectric constant tensor:
#      x y z
#    x 1.745650 0.000000 -0.012290 
#    y 0.000000 1.676200 0.000000 
#    z -0.012290 0.000000 1.726070 
# 
# From -- ./inp_files/295501.got.cif
#   From: 2010.05.17/outbox.ucp.g08.bks.cvg/sg12_148_cif.got.tgz:295501.got - 2010.06.11 11:47:21.
