data_PCOD9224641
_publ_section_title
;
Structure prediction by ZEFSAII (Michael W. Deem and Ramdas Pophale) SiO2 
 PCOD9224641
Probable space group: C 2/M
;
_chemical_formula_sum "Si O2"
_cell_formula_units_Z 32
_cell_length_a 15.000000
_cell_length_b 9.000000
_cell_length_c 27.000000
_cell_angle_alpha 90.000000
_cell_angle_beta 110.000000
_cell_angle_gamma 90.000000
_cell_volume 3425.179603
_symmetry_space_group_name_H-M "C 2/M"
_symmetry_group_IT_number 12
_symmetry_cell_setting 'monoclinic'
loop_
_space_group_symop_operation_xyz
x,y,z
-x,y,-z
-x,-y,-z
x,-y,z
1/2+x,1/2+y,z
1/2-x,1/2+y,-z
1/2-x,1/2-y,-z
1/2+x,1/2-y,z
loop_
_atom_site_type_symbol
_atom_site_label
_atom_site_fract_x
_atom_site_fract_y
_atom_site_fract_z
Si Si1 0.766653 0.170694 0.246003
Si Si2 0.739170 0.179095 0.943149
Si Si3 0.719324 0.178282 0.644866
Si Si4 0.985918 0.829468 0.255783
Si Si5 0.653120 0.177543 0.126154
Si Si6 0.537665 0.176396 0.854731
Si Si7 0.897763 0.321232 0.633202
Si Si8 0.984312 0.319704 0.440042
O O1 0.760352 0.261654 0.295727
O O2 0.710411 0.226169 0.186740
O O3 0.876178 0.168431 0.251015
O O4 0.734593 0.000000 0.249447
O O5 0.814930 0.239779 0.917459
O O6 0.638166 0.218848 0.898073
O O7 0.744215 0.000000 0.948231
O O8 0.750000 0.250000 0.000000
O O9 0.796215 0.249601 0.623363
O O10 0.616347 0.221789 0.603844
O O11 0.725149 0.000000 0.646615
O O12 0.039694 0.737744 0.308572
O O13 0.988137 0.759749 0.201223
O O14 0.021401 0.000000 0.261531
O O15 0.544081 0.200283 0.120220
O O16 0.670822 0.000000 0.123461
O O17 0.540647 0.000000 0.843925
O O18 0.895103 0.500000 0.634643
O O19 0.939515 0.275603 0.587543
O O20 0.986166 0.500000 0.442572
O O21 0.000000 0.267469 0.500000
#
# Coordination Sequence:
#
# PCOD9224641 Si02
#       8
#     8   8   8   8   8   8   8   8
#     4  10  20  35  59  89 122 155 187 234 297 356
#     4  11  24  41  61  86 116 155 199 244 289 342
#     4  11  22  37  60  89 118 153 197 244 291 349
#     4  11  21  35  60  92 122 152 191 240 291 349
#     4  10  21  40  62  86 116 152 190 236 291 347
#     4  10  22  39  62  89 119 156 196 236 291 354
#     4  11  22  38  60  86 118 157 194 237 295 352
#     4   9  20  39  60  82 113 155 200 244 294 351
#
# _framework density 9.3425759999999993
#
# number of rings (size 3 to 8) (size 9 to 14) (size 15 to 20)
#    0.000    1.625    2.500    2.250    0.000    4.000 
#    0.000    2.500    0.000    5.250    0.000    0.000 
#    0.000    0.000    0.000    0.000    0.000    0.000 
#
# Total GULP energy -178676.995925 kJ/mol
# GULP energy per Si atom -5583.656123 kJ/mol
# Density = 0.932131 g / cm^3
# Si number density = 9.342576 Si / 1000 Ang^3
#
#
#
# Elastic Constant Matrix: (Units=GPa)
#
#
# Indices 1 2 3 4 5 6 
#
# 1 96.3614 27.5453 41.6273 0.0000 -29.4066 0.0000
# 2 27.5453 64.4313 43.1322 0.0000 -18.1995 0.0000
# 3 41.6273 43.1322 136.9970 0.0000 -40.2633 0.0000
# 4 0.0000 0.0000 0.0000 28.2916 0.0000 -4.0337
# 5 -29.4066 -18.1995 -40.2633 0.0000 28.6122 0.0000
# 6 0.0000 0.0000 0.0000 -4.0337 0.0000 26.4441
#
#
#
# Elastic Compliance Matrix: (Units=1/GPa)
#
#
# Indices 1 2 3 4 5 6 
#
# 1 0.015489 -0.002776 0.000558 0.000000 0.014938 0.000000
# 2 -0.002776 0.020892 -0.004548 0.000000 0.004036 0.000000
# 3 0.000558 -0.004548 0.013438 0.000000 0.016590 0.000000
# 4 0.000000 0.000000 0.000000 0.036132 0.000000 0.005511
# 5 0.014938 0.004036 0.016590 0.000000 0.076216 0.000000
# 6 0.000000 0.000000 0.000000 0.005511 0.000000 0.038656
#
#
# Mechanical properties :
#
#
# Convention : Reuss Voigt Hill
#
# Bulk Modulus (GPa) = 27.55836 58.04437 42.80137
# Shear Modulus (GPa) = 22.08001 29.03522 25.55762
#
# Velocity S-wave (km/s) = 3.44130 3.94626 3.70240
# Velocity P-wave (km/s) = 5.52909 7.20387 6.42132
#
# Compressibility (1/GPa) = 0.03628662
#
# Stress axis : x y z
#
# Youngs Moduli (GPa) = 64.56295 47.86623 74.41823
#
# Poissons Ratio (x) = 0.13286 -0.04152
# Poissons Ratio (y) = 0.17920 0.33845
# Poissons Ratio (z) = -0.03602 0.21769
#
# Static dielectric constant tensor:
#      x y z
#    x 1.678170 0.000000 0.021870 
#    y 0.000000 1.646050 0.000000 
#    z 0.021870 0.000000 1.613490 
# 
# From -- ./inp_files/360002.got.cif
#   From: 2010.05.17/outbox.ucp.g08.bks.cvg/sg12_181_cif.got.tgz:360002.got - 2010.06.11 11:47:21.
