data_PCOD9224325
_publ_section_title
;
Structure prediction by ZEFSAII (Michael W. Deem and Ramdas Pophale) SiO2 
 PCOD9224325
Probable space group: C 2/M
;
_chemical_formula_sum "Si O2"
_cell_formula_units_Z 28
_cell_length_a 30.000000
_cell_length_b 9.000000
_cell_length_c 21.000000
_cell_angle_alpha 90.000000
_cell_angle_beta 150.000000
_cell_angle_gamma 90.000000
_cell_volume 2835.000000
_symmetry_space_group_name_H-M "C 2/M"
_symmetry_group_IT_number 12
_symmetry_cell_setting 'monoclinic'
loop_
_space_group_symop_operation_xyz
x,y,z
-x,y,-z
-x,-y,-z
x,-y,z
1/2+x,1/2+y,z
1/2-x,1/2+y,-z
1/2-x,1/2-y,-z
1/2+x,1/2-y,z
loop_
_atom_site_type_symbol
_atom_site_label
_atom_site_fract_x
_atom_site_fract_y
_atom_site_fract_z
Si Si1 0.829708 0.677107 0.057481
Si Si2 0.551674 0.679427 0.153516
Si Si3 0.656583 0.679635 0.408132
Si Si4 0.261669 0.322552 0.184915
Si Si5 0.546574 0.668844 0.625273
Si Si6 0.358584 0.320497 0.863561
Si Si7 0.972149 0.321840 0.651748
O O1 0.823837 0.500000 0.060961
O O2 0.930660 0.722993 0.198793
O O3 0.750000 0.750000 0.000000
O O4 0.810071 0.706090 0.959238
O O5 0.549530 0.500000 0.147320
O O6 0.586549 0.720392 0.265563
O O7 0.621670 0.725530 0.184997
O O8 0.451195 0.726864 0.012875
O O9 0.664687 0.500000 0.422309
O O10 0.750000 0.750000 0.500000
O O11 0.610984 0.745765 0.415239
O O12 0.271013 0.500000 0.206438
O O13 0.354926 0.270319 0.269159
O O14 0.225485 0.248533 0.204341
O O15 0.500000 0.658504 0.500000
O O16 0.556078 0.500000 0.663601
O O17 0.486492 0.766229 0.597570
O O18 0.351545 0.500000 0.857349
O O19 0.962993 0.500000 0.644314
#
# Coordination Sequence:
#
# PCOD9224325 Si02
#       7
#     8   8   8   8   8   8   8
#     4  10  20  34  56  84 115 148 187 234 285 342
#     4   8  17  35  57  82 110 142 183 232 282 333
#     4  11  23  40  61  84 114 153 195 239 287 342
#     4  10  20  34  52  81 116 145 181 230 281 334
#     4  10  22  40  59  79 111 155 195 231 280 345
#     4   9  17  33  58  83 108 141 183 228 280 341
#     4  11  23  39  60  88 117 148 191 243 294 347
#
# _framework density 9.8765429999999999
#
# number of rings (size 3 to 8) (size 9 to 14) (size 15 to 20)
#    0.000    2.143    1.429    2.571    0.000    3.143 
#    0.000    6.429    0.000    0.000    0.000    0.000 
#    0.000    0.000    0.000    0.000    0.000    0.000 
#
# Total GULP energy -156201.889035 kJ/mol
# GULP energy per Si atom -5578.638894 kJ/mol
# Density = 0.985406 g / cm^3
# Si number density = 9.876543 Si / 1000 Ang^3
#
#
#
# Elastic Constant Matrix: (Units=GPa)
#
#
# Indices 1 2 3 4 5 6 
#
# 1 160.2825 44.5319 19.4994 0.0000 22.7144 0.0000
# 2 44.5319 46.6720 12.6688 0.0000 9.2878 0.0000
# 3 19.4994 12.6688 34.9034 0.0000 4.7388 0.0000
# 4 0.0000 0.0000 0.0000 19.3139 0.0000 10.4720
# 5 22.7144 9.2878 4.7388 0.0000 30.7214 0.0000
# 6 0.0000 0.0000 0.0000 10.4720 0.0000 34.2078
#
#
#
# Elastic Compliance Matrix: (Units=1/GPa)
#
#
# Indices 1 2 3 4 5 6 
#
# 1 0.009103 -0.007343 -0.001846 0.000000 -0.004225 0.000000
# 2 -0.007343 0.030818 -0.006696 0.000000 -0.002855 0.000000
# 3 -0.001846 -0.006696 0.032329 0.000000 -0.001597 0.000000
# 4 0.000000 0.000000 0.000000 0.062080 0.000000 -0.019005
# 5 -0.004225 -0.002855 -0.001597 0.000000 0.036784 0.000000
# 6 0.000000 0.000000 0.000000 -0.019005 0.000000 0.035051
#
#
# Mechanical properties :
#
#
# Convention : Reuss Voigt Hill
#
# Bulk Modulus (GPa) = 24.70411 43.91758 34.31084
# Shear Modulus (GPa) = 19.88626 27.85912 23.87269
#
# Velocity S-wave (km/s) = 3.17636 3.75956 3.48020
# Velocity P-wave (km/s) = 5.09764 6.41305 5.79281
#
# Compressibility (1/GPa) = 0.04047910
#
# Stress axis : x y z
#
# Youngs Moduli (GPa) = 109.85904 32.44824 30.93174
#
# Poissons Ratio (x) = 0.23827 0.05711
# Poissons Ratio (y) = 0.80671 0.20712
# Poissons Ratio (z) = 0.20283 0.21727
#
# Static dielectric constant tensor:
#      x y z
#    x 1.690620 0.000000 -0.028180 
#    y 0.000000 1.680420 0.000000 
#    z -0.028180 0.000000 1.741670 
# 
# From -- ./inp_files/329706.got.cif
#   From: 2010.05.17/outbox.ucp.g08.bks.cvg/sg12_165_cif.got.tgz:329706.got - 2010.06.11 11:47:21.
