data_PCOD9224509
_publ_section_title
;
Structure prediction by ZEFSAII (Michael W. Deem and Ramdas Pophale) SiO2 
 PCOD9224509
Probable space group: C 2/M
;
_chemical_formula_sum "Si O2"
_cell_formula_units_Z 20
_cell_length_a 15.000000
_cell_length_b 9.000000
_cell_length_c 30.000000
_cell_angle_alpha 90.000000
_cell_angle_beta 30.000000
_cell_angle_gamma 90.000000
_cell_volume 2025.000000
_symmetry_space_group_name_H-M "C 2/M"
_symmetry_group_IT_number 12
_symmetry_cell_setting 'monoclinic'
loop_
_space_group_symop_operation_xyz
x,y,z
-x,y,-z
-x,-y,-z
x,-y,z
1/2+x,1/2+y,z
1/2-x,1/2+y,-z
1/2-x,1/2-y,-z
1/2+x,1/2-y,z
loop_
_atom_site_type_symbol
_atom_site_label
_atom_site_fract_x
_atom_site_fract_y
_atom_site_fract_z
Si Si1 0.828065 0.178170 0.100404
Si Si2 0.387059 0.173804 0.407931
Si Si3 0.288840 0.829386 0.594227
Si Si4 0.489787 0.328619 0.209480
Si Si5 0.774559 0.180392 0.221672
O O1 0.642407 0.221781 0.159362
O O2 0.813624 0.239405 0.156283
O O3 0.843185 0.000000 0.096127
O O4 0.000000 0.235498 0.000000
O O5 0.250000 0.250000 0.500000
O O6 0.312707 0.210171 0.391461
O O7 0.587105 0.235496 0.322190
O O8 0.390682 0.000000 0.416076
O O9 0.500000 0.804497 0.500000
O O10 0.194533 0.820914 0.682799
O O11 0.258917 0.000000 0.590855
O O12 0.549805 0.500000 0.187028
O O13 0.438202 0.289133 0.182178
O O14 0.755490 0.000000 0.227883
#
# Coordination Sequence:
#
# PCOD9224509 Si02
#       5
#     8   8   8   8   8
#     4  10  21  39  61  84 114 151 192 240 292 342
#     4  11  21  35  56  81 115 154 194 236 284 344
#     4  10  20  35  55  81 115 153 194 237 287 343
#     4  10  20  36  59  83 113 151 192 236 283 343
#     4   9  19  37  58  81 114 154 187 229 293 347
#
# _framework density 9.8765429999999999
#
# number of rings (size 3 to 8) (size 9 to 14) (size 15 to 20)
#    0.000    2.000    2.000    1.800    0.000    4.800 
#    0.000    5.000    0.000    0.000    0.000    0.000 
#    0.000    0.000    0.000    0.000    0.000    0.000 
#
# Total GULP energy -111433.195809 kJ/mol
# GULP energy per Si atom -5571.659790 kJ/mol
# Density = 0.985406 g / cm^3
# Si number density = 9.876543 Si / 1000 Ang^3
#
#
#
# Elastic Constant Matrix: (Units=GPa)
#
#
# Indices 1 2 3 4 5 6 
#
# 1 7.9188 -7.6214 36.3118 0.0000 12.2797 -0.0002
# 2 -7.6214 -5.1313 9.2849 0.0001 12.4403 -0.0001
# 3 36.3118 9.2849 94.9853 0.0000 13.9319 0.0000
# 4 0.0000 0.0001 0.0000 18.3660 0.0000 -8.0388
# 5 12.2797 12.4403 13.9319 0.0000 -3.1423 0.0000
# 6 -0.0002 -0.0001 0.0000 -8.0388 0.0000 23.9525
#
#
#
# Elastic Compliance Matrix: (Units=1/GPa)
#
#
# Indices 1 2 3 4 5 6 
#
# 1 0.385894 -0.080655 -0.190263 0.000001 0.345148 0.000004
# 2 -0.080655 0.073585 0.016447 0.000000 0.049049 0.000000
# 3 -0.190263 0.016447 0.109775 0.000000 -0.191709 -0.000002
# 4 0.000001 0.000000 0.000000 0.063824 0.000001 0.021420
# 5 0.345148 0.049049 -0.191709 0.000001 0.374765 0.000004
# 6 0.000004 0.000000 -0.000002 0.021420 0.000004 0.048938
#
#
# Mechanical properties :
#
#
# Convention : Reuss Voigt Hill
#
# Bulk Modulus (GPa) = 16.58120 19.30261 17.94190
# Shear Modulus (GPa) = 3.15293 11.82173 7.48733
#
# Velocity S-wave (km/s) = 1.26477 2.44903 1.94902
# Velocity P-wave (km/s) = 3.24735 4.21784 3.76400
#
# Compressibility (1/GPa) = 0.06030927
#
# Stress axis : x y z
#
# Youngs Moduli (GPa) = 2.59138 13.58979 9.10957
#
# Poissons Ratio (x) = 1.09609 1.73322
# Poissons Ratio (y) = 0.20901 -0.14982
# Poissons Ratio (z) = 0.49305 -0.22350
#
# Static dielectric constant tensor:
#      x y z
#    x 1.757310 0.000000 0.101140 
#    y 0.000000 1.673540 0.000000 
#    z 0.101140 0.000000 1.765820 
# 
# From -- ./inp_files/140403.got.cif
#   From: 2010.05.17/outbox.ucp.g08.bks.cvg/sg12_71_cif.got.tgz:140403.got - 2010.06.11 11:47:21.
