data_PCOD9224168
_publ_section_title
;
Structure prediction by ZEFSAII (Michael W. Deem and Ramdas Pophale) SiO2 
 PCOD9224168
Probable space group: C 2/M
;
_chemical_formula_sum "Si O2"
_cell_formula_units_Z 21
_cell_length_a 15.000000
_cell_length_b 18.000000
_cell_length_c 9.000000
_cell_angle_alpha 90.000000
_cell_angle_beta 120.000000
_cell_angle_gamma 90.000000
_cell_volume 2104.441731
_symmetry_space_group_name_H-M "C 2/M"
_symmetry_group_IT_number 12
_symmetry_cell_setting 'monoclinic'
loop_
_space_group_symop_operation_xyz
x,y,z
-x,y,-z
-x,-y,-z
x,-y,z
1/2+x,1/2+y,z
1/2-x,1/2+y,-z
1/2-x,1/2-y,-z
1/2+x,1/2-y,z
loop_
_atom_site_type_symbol
_atom_site_label
_atom_site_fract_x
_atom_site_fract_y
_atom_site_fract_z
Si Si1 0.799170 0.219195 0.695248
Si Si2 0.378112 0.626296 0.276445
Si Si3 0.642129 0.858807 0.051897
Si Si4 0.090218 0.699154 0.688547
Si Si5 0.000000 0.500000 0.000000
Si Si6 0.087711 0.917493 0.351727
O O1 0.750000 0.250000 0.500000
O O2 0.852361 0.287524 0.830243
O O3 0.702864 0.188787 0.710343
O O4 0.871829 0.150400 0.713665
O O5 0.262416 0.624146 0.122168
O O6 0.416303 0.711644 0.303470
O O7 0.379077 0.599460 0.449027
O O8 0.463928 0.583165 0.256276
O O9 0.588326 0.932716 0.068628
O O10 0.588693 0.835932 0.851310
O O11 0.000000 0.674160 0.500000
O O12 0.124547 0.000000 0.340069
#
# Coordination Sequence:
#
# PCOD9224168 Si02
#       6
#     8   8   8   8   2   8
#     4  11  21  43  72 104 138 184 234 286 347 426
#     4  10  19  40  69  97 139 178 226 280 348 408
#     4  11  27  45  69 101 139 187 237 288 351 431
#     4  11  22  44  71  99 134 188 240 286 349 414
#     4  12  32  44  74 106 136 188 240 294 348 438
#     4  11  22  36  69 109 137 178 226 291 348 414
#
# _framework density 9.9788940000000004
#
# number of rings (size 3 to 8) (size 9 to 14) (size 15 to 20)
#    0.000    1.143    5.714    3.429    8.000    0.000 
#    1.714    0.476    0.000    4.571    0.000    0.000 
#    0.000    0.000    0.000    0.000    0.000    0.000 
#
# Total GULP energy -117059.342301 kJ/mol
# GULP energy per Si atom -5574.254395 kJ/mol
# Density = 0.995618 g / cm^3
# Si number density = 9.978894 Si / 1000 Ang^3
#
#
#
# Elastic Constant Matrix: (Units=GPa)
#
#
# Indices 1 2 3 4 5 6 
#
# 1 93.4114 69.9115 32.5820 0.0000 5.8057 0.0000
# 2 69.9115 164.7734 53.1243 0.0000 0.2522 0.0000
# 3 32.5820 53.1243 120.7919 0.0000 11.2513 0.0000
# 4 0.0000 0.0000 0.0000 8.8965 0.0000 -3.5436
# 5 5.8057 0.2522 11.2513 0.0000 31.6936 0.0000
# 6 0.0000 0.0000 0.0000 -3.5436 0.0000 13.7940
#
#
#
# Elastic Compliance Matrix: (Units=1/GPa)
#
#
# Indices 1 2 3 4 5 6 
#
# 1 0.016109 -0.006413 -0.001298 0.000000 -0.002439 0.000000
# 2 -0.006413 0.009661 -0.002711 0.000000 0.002060 0.000000
# 3 -0.001298 -0.002711 0.010132 0.000000 -0.003338 0.000000
# 4 0.000000 0.000000 0.000000 0.125216 0.000000 0.032168
# 5 -0.002439 0.002060 -0.003338 0.000000 0.033167 0.000000
# 6 0.000000 0.000000 0.000000 0.032168 0.000000 0.080759
#
#
# Mechanical properties :
#
#
# Convention : Reuss Voigt Hill
#
# Bulk Modulus (GPa) = 66.40590 76.69026 71.54808
# Shear Modulus (GPa) = 16.61645 25.76743 21.19194
#
# Velocity S-wave (km/s) = 2.88858 3.59708 3.26212
# Velocity P-wave (km/s) = 6.66863 7.46737 7.07927
#
# Compressibility (1/GPa) = 0.01505890
#
# Stress axis : x y z
#
# Youngs Moduli (GPa) = 62.07695 103.51244 98.69849
#
# Poissons Ratio (x) = 0.66380 0.12808
# Poissons Ratio (y) = 0.39809 0.26756
# Poissons Ratio (z) = 0.08055 0.28061
#
# Static dielectric constant tensor:
#      x y z
#    x 1.753800 0.000000 0.008190 
#    y 0.000000 1.668080 0.000000 
#    z 0.008190 0.000000 1.716060 
# 
# From -- ./inp_files/61843.got.cif
#   From: 2010.05.17/outbox.ucp.g08.bks.cvg/sg12_31_cif.got.tgz:61843.got - 2010.06.11 11:47:21.
