data_PCOD9224236
_publ_section_title
;
Structure prediction by ZEFSAII (Michael W. Deem and Ramdas Pophale) SiO2 
 PCOD9224236
Probable space group: C 2/M
;
_chemical_formula_sum "Si O2"
_cell_formula_units_Z 28
_cell_length_a 15.000000
_cell_length_b 9.000000
_cell_length_c 24.000000
_cell_angle_alpha 90.000000
_cell_angle_beta 70.000000
_cell_angle_gamma 90.000000
_cell_volume 3044.604091
_symmetry_space_group_name_H-M "C 2/M"
_symmetry_group_IT_number 12
_symmetry_cell_setting 'monoclinic'
loop_
_space_group_symop_operation_xyz
x,y,z
-x,y,-z
-x,-y,-z
x,-y,z
1/2+x,1/2+y,z
1/2-x,1/2+y,-z
1/2-x,1/2-y,-z
1/2+x,1/2-y,z
loop_
_atom_site_type_symbol
_atom_site_label
_atom_site_fract_x
_atom_site_fract_y
_atom_site_fract_z
Si Si1 0.646649 0.179282 0.854528
Si Si2 0.341427 0.821843 0.548691
Si Si3 0.847750 0.821488 0.756281
Si Si4 0.539496 0.321612 0.160880
Si Si5 0.350817 0.178741 0.417401
Si Si6 0.242437 0.178081 0.061482
Si Si7 0.057304 0.321282 0.364511
O O1 0.742550 0.217721 0.800015
O O2 0.552571 0.248375 0.847460
O O3 0.676569 0.225379 0.911221
O O4 0.636867 0.000000 0.856222
O O5 0.356639 0.776615 0.481543
O O6 0.240633 0.755805 0.588218
O O7 0.419574 0.777464 0.576926
O O8 0.337607 0.000000 0.549211
O O9 0.929389 0.774707 0.783190
O O10 0.869105 0.750177 0.692845
O O11 0.851179 0.000000 0.752866
O O12 0.526153 0.500000 0.163720
O O13 0.637031 0.288711 0.106965
O O14 0.451087 0.222753 0.370504
O O15 0.340686 0.000000 0.417061
O O16 0.249575 0.000000 0.056135
O O17 0.250000 0.250000 0.000000
O O18 0.062353 0.500000 0.360939
#
# Coordination Sequence:
#
# PCOD9224236 Si02
#       7
#     8   8   8   8   8   8   8
#     4   9  19  36  55  74 100 135 170 204 245 291
#     4   9  18  33  51  71  97 128 161 199 245 297
#     4   9  20  37  52  70 100 133 165 205 249 292
#     4   9  19  36  55  74 100 135 170 204 245 291
#     4   9  18  33  51  71  97 128 161 199 245 297
#     4   9  19  35  53  77 108 136 165 203 245 290
#     4  10  20  33  51  74  98 127 164 204 247 295
#
# _framework density 9.1965979999999998
#
# number of rings (size 3 to 8) (size 9 to 14) (size 15 to 20)
#    0.000    2.857    0.000    2.143    0.000    6.857 
#    0.000   11.429    0.000    4.286    0.000    0.000 
#    0.000    0.000    0.000    0.000    0.000    0.000 
#
# Total GULP energy -155959.514185 kJ/mol
# GULP energy per Si atom -5569.982649 kJ/mol
# Density = 0.917567 g / cm^3
# Si number density = 9.196598 Si / 1000 Ang^3
#
#
#
# Elastic Constant Matrix: (Units=GPa)
#
#
# Indices 1 2 3 4 5 6 
#
# 1 117.6811 22.5955 7.5075 0.0000 7.8976 0.0000
# 2 22.5955 -2.8935 9.5622 0.0000 -0.1950 0.0000
# 3 7.5075 9.5622 41.6334 0.0000 1.4658 0.0000
# 4 0.0000 0.0000 0.0000 25.3632 0.0000 1.4440
# 5 7.8976 -0.1950 1.4658 0.0000 10.5278 0.0000
# 6 0.0000 0.0000 0.0000 1.4440 0.0000 34.5474
#
#
#
# Elastic Compliance Matrix: (Units=1/GPa)
#
#
# Indices 1 2 3 4 5 6 
#
# 1 0.005023 0.020869 -0.005607 0.000000 -0.002601 0.000000
# 2 0.020869 -0.108734 0.021940 0.000000 -0.020724 0.000000
# 3 -0.005607 0.021940 0.019926 0.000000 0.001838 0.000000
# 4 0.000000 0.000000 0.000000 0.039521 0.000000 -0.001652
# 5 -0.002601 -0.020724 0.001838 0.000000 0.096298 0.000000
# 6 0.000000 0.000000 0.000000 -0.001652 0.000000 0.029015
#
#
# Mechanical properties :
#
#
# Convention : Reuss Voigt Hill
#
# Bulk Modulus (GPa) = -106.59419 26.19460 -40.19980
# Shear Modulus (GPa) = 1421.06123 21.87139 721.46631
#
# Velocity S-wave (km/s) = 27.82587 3.45208 19.82669
# Velocity P-wave (km/s) = 31.21367 5.49195 22.41043
#
# Compressibility (1/GPa) = -0.00938137
#
# Stress axis : x y z
#
# Youngs Moduli (GPa) = 199.09013 -9.19674 50.18464
#
# Poissons Ratio (x) = 0.19192 0.28140
# Poissons Ratio (y) = -4.15477 -1.10106
# Poissons Ratio (z) = 1.11635 0.20178
#
# Static dielectric constant tensor:
#      x y z
#    x 1.651170 0.000000 -0.021370 
#    y 0.000000 1.612670 0.000000 
#    z -0.021370 0.000000 1.681190 
# 
# From -- ./inp_files/337910.got.cif
#   From: 2010.05.17/outbox.ucp.g08.bks.cvg/sg12_169_cif.got.tgz:337910.got - 2010.06.11 11:47:21.
