data_PCOD9224264
_publ_section_title
;
Structure prediction by ZEFSAII (Michael W. Deem and Ramdas Pophale) SiO2 
 PCOD9224264
Probable space group: C 2/M
;
_chemical_formula_sum "Si O2"
_cell_formula_units_Z 28
_cell_length_a 27.000000
_cell_length_b 9.000000
_cell_length_c 18.000000
_cell_angle_alpha 90.000000
_cell_angle_beta 40.000000
_cell_angle_gamma 90.000000
_cell_volume 2811.553005
_symmetry_space_group_name_H-M "C 2/M"
_symmetry_group_IT_number 12
_symmetry_cell_setting 'monoclinic'
loop_
_space_group_symop_operation_xyz
x,y,z
-x,y,-z
-x,-y,-z
x,-y,z
1/2+x,1/2+y,z
1/2-x,1/2+y,-z
1/2-x,1/2-y,-z
1/2+x,1/2-y,z
loop_
_atom_site_type_symbol
_atom_site_label
_atom_site_fract_x
_atom_site_fract_y
_atom_site_fract_z
Si Si1 0.371569 0.178163 0.915825
Si Si2 0.435714 0.332833 0.454373
Si Si3 0.187400 0.825352 0.625129
Si Si4 0.475592 0.329435 0.233006
Si Si5 0.244350 0.170156 0.322124
Si Si6 0.232929 0.170399 0.169772
Si Si7 0.413680 0.825550 0.697800
O O1 0.446745 0.240423 0.869930
O O2 0.385681 0.216463 0.813671
O O3 0.369772 0.000000 0.924075
O O4 0.292060 0.236175 0.041966
O O5 0.446931 0.500000 0.470033
O O6 0.455362 0.331127 0.344064
O O7 0.346639 0.296417 0.566163
O O8 0.500268 0.228696 0.414434
O O9 0.250000 0.750000 0.500000
O O10 0.101536 0.764321 0.713393
O O11 0.212564 0.789476 0.678825
O O12 0.185181 0.000000 0.610744
O O13 0.486853 0.500000 0.196590
O O14 0.271062 0.171595 0.206695
O O15 0.254142 0.000000 0.339312
O O16 0.152271 0.250639 0.273698
O O17 0.215759 0.000000 0.168719
O O18 0.410733 0.000000 0.694260
#
# Coordination Sequence:
#
# PCOD9224264 Si02
#       7
#     8   8   8   8   8   8   8
#     4   9  19  35  55  80 105 137 182 225 264 311
#     4   9  17  33  53  75 105 137 175 216 263 320
#     4  11  21  35  57  84 111 139 176 218 265 319
#     4   9  18  33  54  80 106 135 173 217 263 314
#     4  10  21  37  55  78 108 143 181 219 265 321
#     4  10  21  37  55  75 106 145 182 220 266 320
#     4  10  20  33  53  80 107 135 179 227 269 315
#
# _framework density 9.9589090000000002
#
# number of rings (size 3 to 8) (size 9 to 14) (size 15 to 20)
#    0.000    2.286    1.429    1.286    0.000    4.000 
#    0.000    3.571    0.000    4.286    0.000    0.000 
#    0.000    0.000    0.000    0.000    0.000    0.000 
#
# Total GULP energy -156063.086048 kJ/mol
# GULP energy per Si atom -5573.681645 kJ/mol
# Density = 0.993624 g / cm^3
# Si number density = 9.958909 Si / 1000 Ang^3
#
#
#
# Elastic Constant Matrix: (Units=GPa)
#
#
# Indices 1 2 3 4 5 6 
#
# 1 39.7820 39.0058 0.2861 0.0031 -10.2696 -0.0028
# 2 39.0058 -21.8669 3.4468 0.0053 7.1210 -0.0052
# 3 0.2861 3.4468 -18.3113 -0.0014 -9.9958 -0.0029
# 4 0.0031 0.0053 -0.0014 19.0058 -0.0022 -7.4950
# 5 -10.2696 7.1210 -9.9958 -0.0022 11.7053 0.0023
# 6 -0.0028 -0.0052 -0.0029 -7.4950 0.0023 27.0685
#
#
#
# Elastic Compliance Matrix: (Units=1/GPa)
#
#
# Indices 1 2 3 4 5 6 
#
# 1 0.008956 0.016580 0.003054 -0.000005 0.000379 0.000003
# 2 0.016580 -0.013130 -0.009899 0.000001 0.014081 -0.000003
# 3 0.003054 -0.009899 -0.041726 -0.000006 -0.026930 -0.000005
# 4 -0.000005 0.000001 -0.000006 0.059065 -0.000002 0.016355
# 5 0.000379 0.014081 -0.026930 -0.000002 0.054200 -0.000005
# 6 0.000003 -0.000003 -0.000005 0.016355 -0.000005 0.041472
#
#
# Mechanical properties :
#
#
# Convention : Reuss Voigt Hill
#
# Bulk Modulus (GPa) = -37.83632 9.45346 -14.19143
# Shear Modulus (GPa) = 62.06870 8.68028 35.37449
#
# Velocity S-wave (km/s) = 5.58839 2.08986 4.21886
# Velocity P-wave (km/s) = 4.75422 3.25267 4.07324
#
# Compressibility (1/GPa) = -0.02642963
#
# Stress axis : x y z
#
# Youngs Moduli (GPa) = 111.65698 -76.15942 -23.96595
#
# Poissons Ratio (x) = 1.26275 0.07319
# Poissons Ratio (y) = -1.85131 -0.23724
# Poissons Ratio (z) = -0.34101 -0.75391
#
# Static dielectric constant tensor:
#      x y z
#    x 1.844670 0.000000 -0.023910 
#    y 0.000000 1.661760 0.000000 
#    z -0.023910 0.000000 1.742570 
# 
# From -- ./inp_files/238431.got.cif
#   From: 2010.05.17/outbox.ucp.g08.bks.cvg/sg12_120_cif.got.tgz:238431.got - 2010.06.11 11:47:21.
