data_PCOD9224218
_publ_section_title
;
Structure prediction by ZEFSAII (Michael W. Deem and Ramdas Pophale) SiO2 
 PCOD9224218
Probable space group: C 2/M
;
_chemical_formula_sum "Si O2"
_cell_formula_units_Z 28
_cell_length_a 27.000000
_cell_length_b 9.000000
_cell_length_c 15.000000
_cell_angle_alpha 90.000000
_cell_angle_beta 60.000000
_cell_angle_gamma 90.000000
_cell_volume 3156.662597
_symmetry_space_group_name_H-M "C 2/M"
_symmetry_group_IT_number 12
_symmetry_cell_setting 'monoclinic'
loop_
_space_group_symop_operation_xyz
x,y,z
-x,y,-z
-x,-y,-z
x,-y,z
1/2+x,1/2+y,z
1/2-x,1/2+y,-z
1/2-x,1/2-y,-z
1/2+x,1/2-y,z
loop_
_atom_site_type_symbol
_atom_site_label
_atom_site_fract_x
_atom_site_fract_y
_atom_site_fract_z
Si Si1 0.108907 0.176166 0.617608
Si Si2 0.179865 0.176183 0.992812
Si Si3 0.177806 0.179597 0.372543
Si Si4 0.723955 0.322798 0.611974
Si Si5 0.187206 0.677695 0.173382
Si Si6 0.415573 0.178612 0.032419
Si Si7 0.030987 0.677883 0.825547
O O1 0.135613 0.222054 0.495626
O O2 0.157288 0.200262 0.650894
O O3 0.053888 0.251686 0.712967
O O4 0.099442 0.000000 0.618307
O O5 0.164061 0.256600 0.100570
O O6 0.139239 0.236048 0.952327
O O7 0.174442 0.000000 0.010474
O O8 0.244825 0.206060 0.902346
O O9 0.240811 0.242463 0.342027
O O10 0.165547 0.246395 0.285037
O O11 0.178633 0.000000 0.368751
O O12 0.734170 0.500000 0.607556
O O13 0.750000 0.250000 0.500000
O O14 0.177989 0.500000 0.186673
O O15 0.466843 0.213478 0.916558
O O16 0.407563 0.000000 0.037876
O O17 0.433023 0.219312 0.117644
O O18 0.035061 0.500000 0.812635
#
# Coordination Sequence:
#
# PCOD9224218 Si02
#       7
#     8   8   8   8   8   8   8
#     4   9  19  32  47  71 104 136 170 212 255 301
#     4  10  21  36  55  79 104 134 172 213 260 309
#     4  10  20  33  49  72 103 139 173 211 257 307
#     4   9  17  29  43  65  98 134 171 208 247 299
#     4  10  21  36  54  78 106 136 172 213 255 308
#     4   9  19  36  54  76 105 136 172 215 259 304
#     4   9  19  34  53  77 104 137 176 211 253 309
#
# _framework density 8.8701279999999993
#
# number of rings (size 3 to 8) (size 9 to 14) (size 15 to 20)
#    0.000    2.571    0.000    3.429    2.000    6.286 
#    0.000    1.429    0.000    0.857    0.000    6.000 
#    0.000    0.000    0.000    0.000    0.000    0.000 
#
# Total GULP energy -155906.678494 kJ/mol
# GULP energy per Si atom -5568.095661 kJ/mol
# Density = 0.884994 g / cm^3
# Si number density = 8.870128 Si / 1000 Ang^3
#
#
#
# Elastic Constant Matrix: (Units=GPa)
#
#
# Indices 1 2 3 4 5 6 
#
# 1 26.2504 5.4134 -6.0036 0.0000 1.4926 0.0000
# 2 5.4134 30.7427 28.5710 0.0000 -6.2252 0.0000
# 3 -6.0036 28.5710 104.0765 0.0000 0.8119 0.0000
# 4 0.0000 0.0000 0.0000 33.9651 0.0000 4.0557
# 5 1.4926 -6.2252 0.8119 0.0000 18.3465 0.0000
# 6 0.0000 0.0000 0.0000 4.0557 0.0000 23.2492
#
#
#
# Elastic Compliance Matrix: (Units=1/GPa)
#
#
# Indices 1 2 3 4 5 6 
#
# 1 0.043529 -0.016040 0.006987 0.000000 -0.009293 0.000000
# 2 -0.016040 0.054378 -0.016013 0.000000 0.020465 0.000000
# 3 0.006987 -0.016013 0.014459 0.000000 -0.006642 0.000000
# 4 0.000000 0.000000 0.000000 0.030068 0.000000 -0.005245
# 5 -0.009293 0.020465 -0.006642 0.000000 0.062500 0.000000
# 6 0.000000 0.000000 0.000000 -0.005245 0.000000 0.043927
#
#
# Mechanical properties :
#
#
# Convention : Reuss Voigt Hill
#
# Bulk Modulus (GPa) = 16.06839 24.11458 20.09148
# Shear Modulus (GPa) = 15.63786 23.98476 19.81131
#
# Velocity S-wave (km/s) = 2.97221 3.68094 3.34540
# Velocity P-wave (km/s) = 4.56683 5.62925 5.12564
#
# Compressibility (1/GPa) = 0.06223401
#
# Stress axis : x y z
#
# Youngs Moduli (GPa) = 22.97341 18.38985 69.16155
#
# Poissons Ratio (x) = 0.29497 -0.48320
# Poissons Ratio (y) = 0.36848 1.10746
# Poissons Ratio (z) = -0.16051 0.29447
#
# Static dielectric constant tensor:
#      x y z
#    x 1.640200 0.000000 -0.017890 
#    y 0.000000 1.594490 0.000000 
#    z -0.017890 0.000000 1.607870 
# 
# From -- ./inp_files/242979.got.cif
#   From: 2010.05.17/outbox.ucp.g08.bks.cvg/sg12_122_cif.got.tgz:242979.got - 2010.06.11 11:47:21.
