data_PCOD9224405
_publ_section_title
;
Structure prediction by ZEFSAII (Michael W. Deem and Ramdas Pophale) SiO2 
 PCOD9224405
Probable space group: C 2/M
;
_chemical_formula_sum "Si O2"
_cell_formula_units_Z 28
_cell_length_a 15.000000
_cell_length_b 9.000000
_cell_length_c 24.000000
_cell_angle_alpha 90.000000
_cell_angle_beta 60.000000
_cell_angle_gamma 90.000000
_cell_volume 2805.922308
_symmetry_space_group_name_H-M "C 2/M"
_symmetry_group_IT_number 12
_symmetry_cell_setting 'monoclinic'
loop_
_space_group_symop_operation_xyz
x,y,z
-x,y,-z
-x,-y,-z
x,-y,z
1/2+x,1/2+y,z
1/2-x,1/2+y,-z
1/2-x,1/2-y,-z
1/2+x,1/2-y,z
loop_
_atom_site_type_symbol
_atom_site_label
_atom_site_fract_x
_atom_site_fract_y
_atom_site_fract_z
Si Si1 0.618250 0.678773 0.852822
Si Si2 0.775586 0.822539 0.627365
Si Si3 0.858002 0.822723 0.484632
Si Si4 0.674406 0.821363 0.271944
Si Si5 0.328736 0.823021 0.051272
Si Si6 0.893431 0.178247 0.914647
Si Si7 0.448293 0.821051 0.353425
O O1 0.623139 0.500000 0.852790
O O2 0.724679 0.734821 0.792481
O O3 0.615409 0.742546 0.915759
O O4 0.508565 0.718675 0.858797
O O5 0.855342 0.796298 0.551604
O O6 0.807776 0.731449 0.670783
O O7 0.658144 0.781664 0.645241
O O8 0.775708 0.000000 0.638412
O O9 0.750000 0.750000 0.500000
O O10 0.939868 0.750452 0.417581
O O11 0.856468 0.000000 0.476700
O O12 0.557589 0.775349 0.292152
O O13 0.676352 0.000000 0.268011
O O14 0.205649 0.789246 0.092601
O O15 0.343001 0.000000 0.049475
O O16 0.369223 0.761291 0.979977
O O17 0.891831 0.000000 0.925097
O O18 0.447119 0.000000 0.359230
#
# Coordination Sequence:
#
# PCOD9224405 Si02
#       7
#     8   8   8   8   8   8   8
#     4  10  21  37  54  74 105 143 176 209 255 308
#     4   9  19  35  53  74 103 134 167 213 264 308
#     4   9  17  31  53  79 104 133 170 214 265 315
#     4  10  22  37  53  75 103 139 181 214 249 307
#     4  10  20  34  55  83 108 132 170 217 259 303
#     4   9  19  36  56  78 107 139 169 207 259 312
#     4   9  19  36  54  75 105 137 170 214 264 311
#
# _framework density 9.9788940000000004
#
# number of rings (size 3 to 8) (size 9 to 14) (size 15 to 20)
#    0.000    2.571    0.000    2.143    0.000    8.571 
#    0.000    2.857    0.000    0.000    0.000    0.000 
#    0.000    0.000    0.000    0.000    0.000    0.000 
#
# Total GULP energy -156100.029483 kJ/mol
# GULP energy per Si atom -5575.001053 kJ/mol
# Density = 0.995618 g / cm^3
# Si number density = 9.978894 Si / 1000 Ang^3
#
#
#
# Elastic Constant Matrix: (Units=GPa)
#
#
# Indices 1 2 3 4 5 6 
#
# 1 73.9831 0.8285 7.7659 0.0000 -26.5431 0.0000
# 2 0.8285 -10.2265 -5.2848 0.0000 -6.8612 0.0000
# 3 7.7659 -5.2848 29.6916 0.0000 -22.3476 0.0000
# 4 0.0000 0.0000 0.0000 22.5180 0.0000 0.7898
# 5 -26.5431 -6.8612 -22.3476 0.0000 35.1456 0.0000
# 6 0.0000 0.0000 0.0000 0.7898 0.0000 24.3495
#
#
#
# Elastic Compliance Matrix: (Units=1/GPa)
#
#
# Indices 1 2 3 4 5 6 
#
# 1 0.018417 -0.010510 0.004290 0.000000 0.014585 0.000000
# 2 -0.010510 -0.050892 -0.037899 0.000000 -0.041971 0.000000
# 3 0.004290 -0.037899 0.043500 0.000000 0.023501 0.000000
# 4 0.000000 0.000000 0.000000 0.044460 0.000000 -0.001442
# 5 0.014585 -0.041971 0.023501 0.000000 0.046217 0.000000
# 6 0.000000 0.000000 0.000000 -0.001442 0.000000 0.041115
#
#
# Mechanical properties :
#
#
# Convention : Reuss Voigt Hill
#
# Bulk Modulus (GPa) = -12.95097 11.11861 -0.91618
# Shear Modulus (GPa) = 24.35245 22.41185 23.38215
#
# Velocity S-wave (km/s) = 3.49692 3.35470 3.42655
# Velocity P-wave (km/s) = 3.13071 4.53745 3.89807
#
# Compressibility (1/GPa) = -0.07721427
#
# Stress axis : x y z
#
# Youngs Moduli (GPa) = 54.29869 -19.64955 22.98859
#
# Poissons Ratio (x) = -0.20652 -0.09862
# Poissons Ratio (y) = 0.57068 0.87125
# Poissons Ratio (z) = -0.23293 -0.74470
#
# Static dielectric constant tensor:
#      x y z
#    x 1.723350 0.000000 -0.031890 
#    y 0.000000 1.656570 0.000000 
#    z -0.031890 0.000000 1.717060 
# 
# From -- ./inp_files/338463.got.cif
#   From: 2010.05.17/outbox.ucp.g08.bks.cvg/sg12_170_cif.got.tgz:338463.got - 2010.06.11 11:47:21.
