data_PCOD9224038
_publ_section_title
;
Structure prediction by ZEFSAII (Michael W. Deem and Ramdas Pophale) SiO2 
 PCOD9224038
Probable space group: C 2/M
;
_chemical_formula_sum "Si O2"
_cell_formula_units_Z 29
_cell_length_a 21.000000
_cell_length_b 15.000000
_cell_length_c 30.000000
_cell_angle_alpha 90.000000
_cell_angle_beta 20.000000
_cell_angle_gamma 90.000000
_cell_volume 3232.090354
_symmetry_space_group_name_H-M "C 2/M"
_symmetry_group_IT_number 12
_symmetry_cell_setting 'monoclinic'
loop_
_space_group_symop_operation_xyz
x,y,z
-x,y,-z
-x,-y,-z
x,-y,z
1/2+x,1/2+y,z
1/2-x,1/2+y,-z
1/2-x,1/2-y,-z
1/2+x,1/2-y,z
loop_
_atom_site_type_symbol
_atom_site_label
_atom_site_fract_x
_atom_site_fract_y
_atom_site_fract_z
Si Si1 0.500000 0.000000 0.500000
Si Si2 0.968827 0.699543 0.071839
Si Si3 0.149224 0.897091 0.338433
Si Si4 0.482668 0.398246 0.089526
Si Si5 0.237351 0.168408 0.375423
Si Si6 0.384651 0.103786 0.862420
Si Si7 0.330722 0.366349 0.289481
Si Si8 0.240592 0.893168 0.054849
O O1 0.650479 0.924470 0.417851
O O2 0.794998 0.650640 0.209987
O O3 0.930695 0.806486 0.099252
O O4 0.000000 0.674277 0.000000
O O5 0.150086 0.666410 0.980974
O O6 0.226685 0.893283 0.338300
O O7 0.949342 0.848375 0.473993
O O8 0.123854 0.000000 0.342385
O O9 0.440992 0.500000 0.100315
O O10 0.393757 0.391341 0.197596
O O11 0.704843 0.389796 0.949842
O O12 0.427416 0.149831 0.276550
O O13 0.262911 0.265886 0.338523
O O14 0.426582 0.000000 0.839366
O O15 0.324023 0.135326 0.951709
O O16 0.517183 0.380892 0.196616
O O17 0.275782 0.000000 0.038267
#
# Coordination Sequence:
#
# PCOD9224038 Si02
#       8
#     2   8   8   8   8   8   8   8
#     4  12  20  32  52  96 122 144 174 220 304 388
#     4  12  25  39  58  81 113 164 213 244 275 335
#     4  11  22  35  52  83 119 152 191 239 292 347
#     4  10  20  37  57  85 117 149 197 247 301 345
#     4  11  19  31  55  86 120 149 175 233 306 355
#     4   9  16  30  57  86 112 144 178 236 302 361
#     4  11  20  33  58  90 123 151 179 237 304 368
#     4  10  19  36  55  85 120 152 193 238 294 350
#
# _framework density 8.9725210000000004
#
# number of rings (size 3 to 8) (size 9 to 14) (size 15 to 20)
#    0.000    1.379    4.138    4.552    0.000    3.586 
#    0.000    0.000    0.000    3.310    0.000    1.931 
#    0.000    0.000    0.000    0.000    0.000    0.000 
#
# Total GULP energy -161444.173395 kJ/mol
# GULP energy per Si atom -5567.040462 kJ/mol
# Density = 0.895210 g / cm^3
# Si number density = 8.972521 Si / 1000 Ang^3
#
#
#
# Elastic Constant Matrix: (Units=GPa)
#
#
# Indices 1 2 3 4 5 6 
#
# 1 24.3863 2.5278 24.0122 0.0110 8.3219 0.0287
# 2 2.5278 102.4483 45.5728 0.0294 -4.7598 0.0212
# 3 24.0122 45.5728 112.9137 0.0358 -9.1495 -0.0816
# 4 0.0110 0.0294 0.0358 18.5178 0.0175 0.5830
# 5 8.3219 -4.7598 -9.1495 0.0175 22.3461 -0.0245
# 6 0.0287 0.0212 -0.0816 0.5830 -0.0245 -21.6363
#
#
#
# Elastic Compliance Matrix: (Units=1/GPa)
#
#
# Indices 1 2 3 4 5 6 
#
# 1 0.072083 0.005712 -0.020388 0.000013 -0.033975 0.000217
# 2 0.005712 0.012357 -0.006373 -0.000010 -0.002104 0.000046
# 3 -0.020388 -0.006373 0.016827 -0.000019 0.013125 -0.000112
# 4 0.000013 -0.000010 -0.000019 0.053956 -0.000055 0.001454
# 5 -0.033975 -0.002104 0.013125 -0.000055 0.062329 -0.000169
# 6 0.000217 0.000046 -0.000112 0.001454 -0.000169 -0.046178
#
#
# Mechanical properties :
#
#
# Convention : Reuss Voigt Hill
#
# Bulk Modulus (GPa) = 16.90002 42.66378 29.78190
# Shear Modulus (GPa) = 21.44129 15.02122 18.23126
#
# Velocity S-wave (km/s) = 3.46038 2.89635 3.19085
# Velocity P-wave (km/s) = 5.04021 5.91705 5.49614
#
# Compressibility (1/GPa) = 0.05917153
#
# Stress axis : x y z
#
# Youngs Moduli (GPa) = 13.87284 80.92522 59.42674
#
# Poissons Ratio (x) = -0.46225 1.21157
# Poissons Ratio (y) = -0.07924 0.37870
# Poissons Ratio (z) = 0.28283 0.51571
#
# Static dielectric constant tensor:
#      x y z
#    x 1.601630 0.000010 -0.026660 
#    y 0.000010 1.665890 0.000030 
#    z -0.026660 0.000030 1.627410 
# 
# From -- ./inp_files/381404.got.cif
#   From: 2010.05.17/outbox.ucp.g08.bks.cvg/sg12_191_cif.got.tgz:381404.got - 2010.06.11 11:47:21.
