data_PCOD9224403
_publ_section_title
;
Structure prediction by ZEFSAII (Michael W. Deem and Ramdas Pophale) SiO2 
 PCOD9224403
Probable space group: C 2/M
;
_chemical_formula_sum "Si O2"
_cell_formula_units_Z 28
_cell_length_a 18.000000
_cell_length_b 9.000000
_cell_length_c 27.000000
_cell_angle_alpha 90.000000
_cell_angle_beta 40.000000
_cell_angle_gamma 90.000000
_cell_volume 2811.553005
_symmetry_space_group_name_H-M "C 2/M"
_symmetry_group_IT_number 12
_symmetry_cell_setting 'monoclinic'
loop_
_space_group_symop_operation_xyz
x,y,z
-x,y,-z
-x,-y,-z
x,-y,z
1/2+x,1/2+y,z
1/2-x,1/2+y,-z
1/2-x,1/2-y,-z
1/2+x,1/2-y,z
loop_
_atom_site_type_symbol
_atom_site_label
_atom_site_fract_x
_atom_site_fract_y
_atom_site_fract_z
Si Si1 0.554418 0.332397 0.527964
Si Si2 0.694415 0.168678 0.074645
Si Si3 0.366556 0.337115 0.078855
Si Si4 0.702487 0.332438 0.222102
Si Si5 0.979228 0.678562 0.754873
Si Si6 0.338579 0.834780 0.666085
Si Si7 0.725778 0.670721 0.614856
O O1 0.500000 0.339087 0.500000
O O2 0.546091 0.500000 0.552493
O O3 0.472268 0.213070 0.595762
O O4 0.684415 0.272686 0.460999
O O5 0.793065 0.166193 0.066274
O O6 0.582219 0.227903 0.161886
O O7 0.667506 0.000000 0.073570
O O8 0.750000 0.250000 0.000000
O O9 0.343575 0.500000 0.114135
O O10 0.321931 0.203958 0.134653
O O11 0.500000 0.326802 0.000000
O O12 0.665184 0.500000 0.234537
O O13 0.608917 0.227067 0.243337
O O14 0.717425 0.288375 0.271027
O O15 0.989596 0.500000 0.750677
O O16 0.100628 0.756687 0.683383
O O17 0.283078 0.833189 0.640299
O O18 0.325392 0.000000 0.693203
O O19 0.720215 0.500000 0.599783
#
# Coordination Sequence:
#
# PCOD9224403 Si02
#       7
#     8   8   8   8   8   8   8
#     4   9  17  31  52  78 108 140 175 218 265 310
#     4   9  19  34  53  76 102 134 170 211 259 310
#     4   9  19  37  57  76 102 138 177 216 263 315
#     4  11  22  36  55  79 108 141 179 221 266 316
#     4  10  21  38  56  76 107 144 178 216 267 319
#     4  10  20  35  55  79 109 143 179 219 263 314
#     4  10  20  34  55  82 108 139 179 219 262 314
#
# _framework density 9.9589090000000002
#
# number of rings (size 3 to 8) (size 9 to 14) (size 15 to 20)
#    0.000    2.286    0.000    3.857    0.000    7.714 
#    0.000    5.000    0.000    0.000    0.000    0.000 
#    0.000    0.000    0.000    0.000    0.000    0.000 
#
# Total GULP energy -156063.749520 kJ/mol
# GULP energy per Si atom -5573.705340 kJ/mol
# Density = 0.993624 g / cm^3
# Si number density = 9.958909 Si / 1000 Ang^3
#
#
#
# Elastic Constant Matrix: (Units=GPa)
#
#
# Indices 1 2 3 4 5 6 
#
# 1 1.3399 8.9423 10.3718 0.0000 -16.6318 0.0000
# 2 8.9423 62.1168 10.2047 0.0000 -12.6998 0.0001
# 3 10.3718 10.2047 26.0492 0.0000 -19.9398 0.0000
# 4 0.0000 0.0000 0.0000 27.9030 0.0000 -1.8483
# 5 -16.6318 -12.6998 -19.9398 0.0000 31.9682 0.0000
# 6 0.0000 0.0001 0.0000 -1.8483 0.0000 18.3962
#
#
#
# Elastic Compliance Matrix: (Units=1/GPa)
#
#
# Indices 1 2 3 4 5 6 
#
# 1 -0.134968 0.005560 -0.000954 0.000000 -0.068605 0.000000
# 2 0.005560 0.017411 -0.002920 0.000000 0.007989 0.000000
# 3 -0.000954 -0.002920 0.073954 0.000000 0.044472 0.000000
# 4 0.000000 0.000000 0.000000 0.036079 0.000000 0.003625
# 5 -0.068605 0.007989 0.044472 0.000000 0.026501 0.000000
# 6 0.000000 0.000000 0.000000 0.003625 0.000000 0.054723
#
#
# Mechanical properties :
#
#
# Convention : Reuss Voigt Hill
#
# Bulk Modulus (GPa) = -24.85758 16.50482 -4.17638
# Shear Modulus (GPa) = 87.84504 19.65262 53.74883
#
# Velocity S-wave (km/s) = 6.64827 3.14456 5.20037
# Velocity P-wave (km/s) = 6.81363 4.63560 5.82728
#
# Compressibility (1/GPa) = -0.04022918
#
# Stress axis : x y z
#
# Youngs Moduli (GPa) = -7.40919 57.43445 13.52185
#
# Poissons Ratio (x) = -0.31936 0.01290
# Poissons Ratio (y) = 0.04120 0.03948
# Poissons Ratio (z) = -0.00707 0.16769
#
# Static dielectric constant tensor:
#      x y z
#    x 1.672600 0.000000 0.030640 
#    y 0.000000 1.703300 0.000000 
#    z 0.030640 0.000000 1.772180 
# 
# From -- ./inp_files/363008.got.cif
#   From: 2010.05.17/outbox.ucp.g08.bks.cvg/sg12_182_cif.got.tgz:363008.got - 2010.06.11 11:47:21.
