data_PCOD9224470
_publ_section_title
;
Structure prediction by ZEFSAII (Michael W. Deem and Ramdas Pophale) SiO2 
 PCOD9224470
Probable space group: C 2/M
;
_chemical_formula_sum "Si O2"
_cell_formula_units_Z 28
_cell_length_a 21.000000
_cell_length_b 9.000000
_cell_length_c 15.000000
_cell_angle_alpha 90.000000
_cell_angle_beta 90.000000
_cell_angle_gamma 90.000000
_cell_volume 2835.000000
_symmetry_space_group_name_H-M "C 2/M"
_symmetry_group_IT_number 12
_symmetry_cell_setting 'monoclinic'
loop_
_space_group_symop_operation_xyz
x,y,z
-x,y,-z
-x,-y,-z
x,-y,z
1/2+x,1/2+y,z
1/2-x,1/2+y,-z
1/2-x,1/2-y,-z
1/2+x,1/2-y,z
loop_
_atom_site_type_symbol
_atom_site_label
_atom_site_fract_x
_atom_site_fract_y
_atom_site_fract_z
Si Si1 0.925562 0.319868 0.494979
Si Si2 0.914178 0.327685 0.963770
Si Si3 0.126310 0.320555 0.312997
Si Si4 0.401611 0.179129 0.296663
Si Si5 0.712294 0.167701 0.157848
Si Si6 0.518684 0.676232 0.192425
Si Si7 0.166385 0.323166 0.874183
O O1 0.926585 0.500000 0.494047
O O2 0.885190 0.280608 0.583346
O O3 0.898701 0.270084 0.399040
O O4 0.000000 0.271992 0.500000
O O5 0.933147 0.500000 0.975061
O O6 0.886637 0.264189 0.056778
O O7 0.033360 0.242066 0.094249
O O8 0.852240 0.329414 0.899438
O O9 0.113062 0.500000 0.303763
O O10 0.192282 0.295456 0.259962
O O11 0.076903 0.224409 0.256171
O O12 0.460720 0.247361 0.243743
O O13 0.345127 0.216974 0.229165
O O14 0.408829 0.000000 0.298143
O O15 0.762636 0.271104 0.109659
O O16 0.737710 0.000000 0.156639
O O17 0.511712 0.500000 0.187804
O O18 0.162252 0.500000 0.883156
#
# Coordination Sequence:
#
# PCOD9224470 Si02
#       7
#     8   8   8   8   8   8   8
#     4   9  15  28  56  81  97 130 175 211 242 296
#     4   9  19  36  55  75  99 135 176 211 252 303
#     4   9  17  33  55  79 103 133 173 211 249 301
#     4  10  20  35  53  75 104 138 173 209 252 304
#     4   9  18  32  53  75 101 134 170 213 255 301
#     4  11  21  32  50  79 107 133 165 213 263 304
#     4  10  21  35  53  75 102 136 175 216 252 295
#
# _framework density 9.8765429999999999
#
# number of rings (size 3 to 8) (size 9 to 14) (size 15 to 20)
#    0.000    2.429    1.429    2.571    0.000    4.000 
#    0.000    5.000    0.000    0.000    0.000    0.000 
#    0.000    0.000    0.000    0.000    0.000    0.000 
#
# Total GULP energy -155976.652593 kJ/mol
# GULP energy per Si atom -5570.594735 kJ/mol
# Density = 0.985406 g / cm^3
# Si number density = 9.876543 Si / 1000 Ang^3
#
#
#
# Elastic Constant Matrix: (Units=GPa)
#
#
# Indices 1 2 3 4 5 6 
#
# 1 50.5493 -14.2116 28.5803 0.0000 -2.6036 0.0000
# 2 -14.2116 -37.8928 8.1732 0.0000 14.8238 0.0000
# 3 28.5803 8.1732 158.3216 0.0000 -18.1039 0.0000
# 4 0.0000 0.0000 0.0000 13.7698 0.0000 -11.3300
# 5 -2.6036 14.8238 -18.1039 0.0000 13.2923 0.0000
# 6 0.0000 0.0000 0.0000 -11.3300 0.0000 8.4747
#
#
#
# Elastic Compliance Matrix: (Units=1/GPa)
#
#
# Indices 1 2 3 4 5 6 
#
# 1 0.020032 -0.005508 -0.002583 0.000000 0.006549 0.000000
# 2 -0.005508 -0.015030 0.004221 0.000000 0.021432 0.000000
# 3 -0.002583 0.004221 0.007070 0.000000 0.004415 0.000000
# 4 0.000000 0.000000 0.000000 -0.725940 0.000000 -0.970525
# 5 0.006549 0.021432 0.004415 0.000000 0.058627 0.000000
# 6 0.000000 0.000000 0.000000 -0.970525 0.000000 -1.179519
#
#
# Mechanical properties :
#
#
# Convention : Reuss Voigt Hill
#
# Bulk Modulus (GPa) = 230.89102 24.00689 127.44896
# Shear Modulus (GPa) = -2.73886 17.00310 7.13212
#
# Velocity S-wave (km/s) = -1.17880 2.93709 1.90223
# Velocity P-wave (km/s) = 10.73730 4.86640 8.33581
#
# Compressibility (1/GPa) = 0.00433105
#
# Stress axis : x y z
#
# Youngs Moduli (GPa) = 49.92069 -66.53416 141.45200
#
# Poissons Ratio (x) = -0.36648 0.36537
# Poissons Ratio (y) = 0.27497 -0.59706
# Poissons Ratio (z) = 0.12894 0.28084
#
# Static dielectric constant tensor:
#      x y z
#    x 1.741190 0.000000 0.042480 
#    y 0.000000 1.664590 0.000000 
#    z 0.042480 0.000000 1.745620 
# 
# From -- ./inp_files/231029.got.cif
#   From: 2010.05.17/outbox.ucp.g08.bks.cvg/sg12_116_cif.got.tgz:231029.got - 2010.06.11 11:47:21.
