data_PCOD9224754
_publ_section_title
;
Structure prediction by ZEFSAII (Michael W. Deem and Ramdas Pophale) SiO2 
 PCOD9224754
Probable space group: C 2/M
;
_chemical_formula_sum "Si O2"
_cell_formula_units_Z 24
_cell_length_a 27.000000
_cell_length_b 9.000000
_cell_length_c 15.000000
_cell_angle_alpha 90.000000
_cell_angle_beta 140.000000
_cell_angle_gamma 90.000000
_cell_volume 2342.960837
_symmetry_space_group_name_H-M "C 2/M"
_symmetry_group_IT_number 12
_symmetry_cell_setting 'monoclinic'
loop_
_space_group_symop_operation_xyz
x,y,z
-x,y,-z
-x,-y,-z
x,-y,z
1/2+x,1/2+y,z
1/2-x,1/2+y,-z
1/2-x,1/2-y,-z
1/2+x,1/2-y,z
loop_
_atom_site_type_symbol
_atom_site_label
_atom_site_fract_x
_atom_site_fract_y
_atom_site_fract_z
Si Si1 0.363539 0.678773 0.320438
Si Si2 0.408503 0.672183 0.861180
Si Si3 0.614292 0.678889 0.850714
Si Si4 0.690454 0.822986 0.121633
Si Si5 0.937339 0.177254 0.595532
Si Si6 0.168370 0.324960 0.407220
O O1 0.368380 0.500000 0.319125
O O2 0.370529 0.731414 0.229247
O O3 0.281086 0.712787 0.250736
O O4 0.428652 0.722771 0.480393
O O5 0.387690 0.500000 0.813785
O O6 0.360863 0.731193 0.879886
O O7 0.385800 0.776992 0.748777
O O8 0.500000 0.678006 0.000000
O O9 0.629325 0.500000 0.878951
O O10 0.524045 0.702305 0.747192
O O11 0.664031 0.772563 0.987597
O O12 0.680665 0.000000 0.121705
O O13 0.873659 0.260913 0.564341
O O14 0.922877 0.000000 0.581970
O O15 0.177765 0.500000 0.426095
O O16 0.250000 0.250000 0.500000
#
# Coordination Sequence:
#
# PCOD9224754 Si02
#       6
#     8   8   8   8   8   8
#     4   9  19  36  58  84 113 150 195 238 284 340
#     4  11  24  42  63  87 117 155 199 245 295 353
#     4  10  20  36  59  85 115 152 193 238 288 344
#     4  11  22  36  57  85 118 154 192 238 290 346
#     4  10  20  37  61  86 113 149 195 243 289 340
#     4  12  25  41  62  88 120 156 196 243 295 352
#
# _framework density 10.243449
#
# number of rings (size 3 to 8) (size 9 to 14) (size 15 to 20)
#    0.000    1.500    0.000    5.500    0.000    9.333 
#    0.000    2.500    0.000    2.000    0.000    0.000 
#    0.000    0.000    0.000    0.000    0.000    0.000 
#
# Total GULP energy -134121.960809 kJ/mol
# GULP energy per Si atom -5588.415034 kJ/mol
# Density = 1.022013 g / cm^3
# Si number density = 10.243449 Si / 1000 Ang^3
#
#
#
# Elastic Constant Matrix: (Units=GPa)
#
#
# Indices 1 2 3 4 5 6 
#
# 1 83.6782 28.1241 -3.3535 0.0000 -16.1225 0.0000
# 2 28.1241 60.9793 14.9816 0.0000 11.1547 0.0000
# 3 -3.3535 14.9816 64.4244 0.0000 -10.3159 0.0000
# 4 0.0000 0.0000 0.0000 21.6731 0.0000 7.2896
# 5 -16.1225 11.1547 -10.3159 0.0000 27.2179 0.0000
# 6 0.0000 0.0000 0.0000 7.2896 0.0000 -15.7756
#
#
#
# Elastic Compliance Matrix: (Units=1/GPa)
#
#
# Indices 1 2 3 4 5 6 
#
# 1 0.022551 -0.016915 0.008896 0.000000 0.023662 0.000000
# 2 -0.016915 0.032564 -0.012982 0.000000 -0.028286 0.000000
# 3 0.008896 -0.012982 0.022037 0.000000 0.018943 0.000000
# 4 0.000000 0.000000 0.000000 0.039934 0.000000 0.018453
# 5 0.023662 -0.028286 0.018943 0.000000 0.069529 0.000000
# 6 0.000000 0.000000 0.000000 0.018453 0.000000 -0.054863
#
#
# Mechanical properties :
#
#
# Convention : Reuss Voigt Hill
#
# Bulk Modulus (GPa) = 28.44903 32.06515 30.25709
# Shear Modulus (GPa) = 26.95838 17.91174 22.43506
#
# Velocity S-wave (km/s) = 3.63145 2.96007 3.31281
# Velocity P-wave (km/s) = 5.61247 5.23146 5.42531
#
# Compressibility (1/GPa) = 0.03515058
#
# Stress axis : x y z
#
# Youngs Moduli (GPa) = 44.34355 30.70875 45.37764
#
# Poissons Ratio (x) = 0.51943 -0.40369
# Poissons Ratio (y) = 0.75007 0.58911
# Poissons Ratio (z) = -0.39449 0.39867
#
# Static dielectric constant tensor:
#      x y z
#    x 1.715290 0.000000 -0.036040 
#    y 0.000000 1.689770 0.000000 
#    z -0.036040 0.000000 1.754270 
# 
# From -- ./inp_files/244683.got.cif
#   From: 2010.05.17/outbox.ucp.g08.bks.cvg/sg12_123_cif.got.tgz:244683.got - 2010.06.11 11:47:21.
