data_PCOD9224971
_publ_section_title
;
Structure prediction by ZEFSAII (Michael W. Deem and Ramdas Pophale) SiO2 
 PCOD9224971
Probable space group: C 2/M
;
_chemical_formula_sum "Si O2"
_cell_formula_units_Z 24
_cell_length_a 15.000000
_cell_length_b 9.000000
_cell_length_c 27.000000
_cell_angle_alpha 90.000000
_cell_angle_beta 140.000000
_cell_angle_gamma 90.000000
_cell_volume 2342.960837
_symmetry_space_group_name_H-M "C 2/M"
_symmetry_group_IT_number 12
_symmetry_cell_setting 'monoclinic'
loop_
_space_group_symop_operation_xyz
x,y,z
-x,y,-z
-x,-y,-z
x,-y,z
1/2+x,1/2+y,z
1/2-x,1/2+y,-z
1/2-x,1/2-y,-z
1/2+x,1/2-y,z
loop_
_atom_site_type_symbol
_atom_site_label
_atom_site_fract_x
_atom_site_fract_y
_atom_site_fract_z
Si Si1 0.579070 0.821384 0.301085
Si Si2 0.898014 0.321168 0.575184
Si Si3 0.364164 0.331445 0.829378
Si Si4 0.202743 0.669215 0.861553
Si Si5 0.635289 0.823604 0.985906
Si Si6 0.187575 0.320815 0.657823
O O1 0.556487 0.785706 0.349072
O O2 0.453774 0.769289 0.211345
O O3 0.726129 0.753365 0.348980
O O4 0.580511 0.000000 0.297013
O O5 0.885013 0.500000 0.566230
O O6 0.750000 0.250000 0.500000
O O7 0.027824 0.274708 0.596180
O O8 0.417286 0.500000 0.842755
O O9 0.256708 0.340398 0.828709
O O10 0.489647 0.231540 0.902050
O O11 0.277794 0.281125 0.745055
O O12 0.197704 0.500000 0.880020
O O13 0.315741 0.761927 0.939989
O O14 0.640268 0.000000 0.988166
O O15 0.750000 0.750000 0.000000
O O16 0.189666 0.500000 0.654510
#
# Coordination Sequence:
#
# PCOD9224971 Si02
#       6
#     8   8   8   8   8   8
#     4  10  21  39  63  90 121 158 200 246 295 354
#     4  10  22  42  64  89 122 157 195 242 299 360
#     4  10  20  38  62  85 115 158 200 243 299 357
#     4  10  20  38  62  85 115 158 200 243 299 357
#     4  12  25  38  53  81 119 157 201 253 298 349
#     4  10  21  39  63  90 121 158 200 246 295 354
#
# _framework density 10.243449
#
# number of rings (size 3 to 8) (size 9 to 14) (size 15 to 20)
#    0.000    1.667    1.667    3.000    0.000    8.667 
#    0.000    3.333    0.000    0.000    0.000    0.000 
#    0.000    0.000    0.000    0.000    0.000    0.000 
#
# Total GULP energy -133991.024596 kJ/mol
# GULP energy per Si atom -5582.959358 kJ/mol
# Density = 1.022013 g / cm^3
# Si number density = 10.243449 Si / 1000 Ang^3
#
#
#
# Elastic Constant Matrix: (Units=GPa)
#
#
# Indices 1 2 3 4 5 6 
#
# 1 61.2332 9.4021 -4.9355 0.0000 26.0376 0.0000
# 2 9.4021 49.7296 33.9673 0.0000 15.2877 0.0000
# 3 -4.9355 33.9673 77.9495 0.0000 33.1124 0.0000
# 4 0.0000 0.0000 0.0000 29.7034 0.0000 6.1434
# 5 26.0376 15.2877 33.1124 0.0000 35.6934 0.0000
# 6 0.0000 0.0000 0.0000 6.1434 0.0000 26.0567
#
#
#
# Elastic Compliance Matrix: (Units=1/GPa)
#
#
# Indices 1 2 3 4 5 6 
#
# 1 0.047167 -0.014106 0.034959 0.000000 -0.060797 0.000000
# 2 -0.014106 0.032877 -0.022460 0.000000 0.017045 0.000000
# 3 0.034959 -0.022460 0.052113 0.000000 -0.064227 0.000000
# 4 0.000000 0.000000 0.000000 0.035392 0.000000 -0.008344
# 5 -0.060797 0.017045 -0.064227 0.000000 0.124649 0.000000
# 6 0.000000 0.000000 0.000000 -0.008344 0.000000 0.040345
#
#
# Mechanical properties :
#
#
# Convention : Reuss Voigt Hill
#
# Bulk Modulus (GPa) = 7.75540 29.53113 18.64326
# Shear Modulus (GPa) = 13.20177 28.32258 20.76217
#
# Velocity S-wave (km/s) = 2.54126 3.72220 3.18691
# Velocity P-wave (km/s) = 3.52199 5.73750 4.76043
#
# Compressibility (1/GPa) = 0.12894248
#
# Stress axis : x y z
#
# Youngs Moduli (GPa) = 21.20137 30.41628 19.18921
#
# Poissons Ratio (x) = 0.42906 -0.67084
# Poissons Ratio (y) = 0.29907 0.43099
# Poissons Ratio (z) = -0.74119 0.68316
#
# Static dielectric constant tensor:
#      x y z
#    x 1.789580 0.000000 -0.022640 
#    y 0.000000 1.707540 0.000000 
#    z -0.022640 0.000000 1.773880 
# 
# From -- ./inp_files/295340.got.cif
#   From: 2010.05.17/outbox.ucp.g08.bks.cvg/sg12_148_cif.got.tgz:295340.got - 2010.06.11 11:47:21.
