data_PCOD9224424
_publ_section_title
;
Structure prediction by ZEFSAII (Michael W. Deem and Ramdas Pophale) SiO2 
 PCOD9224424
Probable space group: C 2/M
;
_chemical_formula_sum "Si O2"
_cell_formula_units_Z 32
_cell_length_a 21.000000
_cell_length_b 15.000000
_cell_length_c 30.000000
_cell_angle_alpha 90.000000
_cell_angle_beta 160.000000
_cell_angle_gamma 90.000000
_cell_volume 3232.090354
_symmetry_space_group_name_H-M "C 2/M"
_symmetry_group_IT_number 12
_symmetry_cell_setting 'monoclinic'
loop_
_space_group_symop_operation_xyz
x,y,z
-x,y,-z
-x,-y,-z
x,-y,z
1/2+x,1/2+y,z
1/2-x,1/2+y,-z
1/2-x,1/2-y,-z
1/2+x,1/2-y,z
loop_
_atom_site_type_symbol
_atom_site_label
_atom_site_fract_x
_atom_site_fract_y
_atom_site_fract_z
Si Si1 0.216300 0.106525 0.437156
Si Si2 0.412286 0.292811 0.824791
Si Si3 0.484545 0.107436 0.691352
Si Si4 0.292111 0.896954 0.076918
Si Si5 0.277926 0.603762 0.158841
Si Si6 0.201436 0.394141 0.609027
Si Si7 0.042507 0.600194 0.912589
Si Si8 0.802178 0.212862 0.849009
O O1 0.307600 0.136945 0.544403
O O2 0.293532 0.137749 0.439493
O O3 0.995395 0.120696 0.292467
O O4 0.246903 0.000000 0.456459
O O5 0.338593 0.339509 0.731672
O O6 0.411829 0.185748 0.822213
O O7 0.296975 0.312653 0.793721
O O8 0.621540 0.329267 0.971388
O O9 0.532102 0.126194 0.774994
O O10 0.650123 0.156858 0.775040
O O11 0.492422 0.000000 0.693294
O O12 0.341466 0.896076 0.057117
O O13 0.236760 0.000000 0.051341
O O14 0.254035 0.500000 0.158269
O O15 0.219243 0.680986 0.154757
O O16 0.165744 0.612368 0.038444
O O17 0.252934 0.500000 0.643244
O O18 0.000000 0.386458 0.500000
O O19 0.960008 0.500000 0.860775
O O20 0.000000 0.187945 0.000000
#
# Coordination Sequence:
#
# PCOD9224424 Si02
#       8
#     8   8   8   8   8   8   8   8
#     4   9  19  38  62  87 114 151 196 235 286 347
#     4  12  22  36  57  81 116 149 189 239 288 339
#     4  10  21  37  57  84 121 153 183 231 287 349
#     4  10  20  34  55  86 116 149 186 228 293 352
#     4  10  21  39  61  83 111 151 198 252 291 323
#     4  10  21  38  61  90 119 149 188 233 286 349
#     4  10  21  37  58  83 111 145 191 241 291 342
#     4  12  23  37  52  84 116 150 198 233 282 350
#
# _framework density 9.9007129999999997
#
# number of rings (size 3 to 8) (size 9 to 14) (size 15 to 20)
#    0.000    1.625    2.500    2.250    0.000    6.500 
#    0.000    1.250    0.000    0.375    0.000    0.000 
#    0.000    0.000    0.000    0.000    0.000    0.000 
#
# Total GULP energy -178499.169591 kJ/mol
# GULP energy per Si atom -5578.099050 kJ/mol
# Density = 0.987818 g / cm^3
# Si number density = 9.900713 Si / 1000 Ang^3
#
#
#
# Elastic Constant Matrix: (Units=GPa)
#
#
# Indices 1 2 3 4 5 6 
#
# 1 64.1729 -5.7502 10.1777 -0.0112 -21.3125 -0.0013
# 2 -5.7502 29.9838 13.5650 0.0319 -11.9869 -0.0095
# 3 10.1777 13.5650 78.8452 0.1198 -23.7931 -0.0054
# 4 -0.0112 0.0319 0.1198 20.7429 -0.0081 9.8241
# 5 -21.3125 -11.9869 -23.7931 -0.0081 26.2355 -0.0124
# 6 -0.0013 -0.0095 -0.0054 9.8241 -0.0124 22.5868
#
#
#
# Elastic Compliance Matrix: (Units=1/GPa)
#
#
# Indices 1 2 3 4 5 6 
#
# 1 0.027702 0.017109 0.003622 -0.000041 0.033606 0.000046
# 2 0.017109 0.051583 0.000307 -0.000098 0.037746 0.000086
# 3 0.003622 0.000307 0.018027 -0.000129 0.019431 0.000071
# 4 -0.000041 -0.000098 -0.000129 0.060718 -0.000189 -0.026409
# 5 0.033606 0.037746 0.019431 -0.000189 0.100284 0.000160
# 6 0.000046 0.000086 0.000071 -0.026409 0.000160 0.055761
#
#
# Mechanical properties :
#
#
# Convention : Reuss Voigt Hill
#
# Bulk Modulus (GPa) = 7.17417 23.22076 15.19746
# Shear Modulus (GPa) = 15.70050 24.24701 19.97375
#
# Velocity S-wave (km/s) = 2.81890 3.50309 3.17945
# Velocity P-wave (km/s) = 3.77172 5.30231 4.60110
#
# Compressibility (1/GPa) = 0.13938900
#
# Stress axis : x y z
#
# Youngs Moduli (GPa) = 36.09790 19.38607 55.47373
#
# Poissons Ratio (x) = -0.33168 -0.20091
# Poissons Ratio (y) = -0.61760 -0.01705
# Poissons Ratio (z) = -0.13074 -0.00596
#
# Static dielectric constant tensor:
#      x y z
#    x 1.714440 -0.000010 -0.009150 
#    y -0.000010 1.717310 -0.000020 
#    z -0.009150 -0.000020 1.712870 
# 
# From -- ./inp_files/381518.got.cif
#   From: 2010.05.17/outbox.ucp.g08.bks.cvg/sg12_191_cif.got.tgz:381518.got - 2010.06.11 11:47:21.
