data_PCOD9224803
_publ_section_title
;
Structure prediction by ZEFSAII (Michael W. Deem and Ramdas Pophale) SiO2 
 PCOD9224803
Probable space group: C 2/M
;
_chemical_formula_sum "Si O2"
_cell_formula_units_Z 32
_cell_length_a 15.000000
_cell_length_b 18.000000
_cell_length_c 15.000000
_cell_angle_alpha 90.000000
_cell_angle_beta 120.000000
_cell_angle_gamma 90.000000
_cell_volume 3507.402885
_symmetry_space_group_name_H-M "C 2/M"
_symmetry_group_IT_number 12
_symmetry_cell_setting 'monoclinic'
loop_
_space_group_symop_operation_xyz
x,y,z
-x,y,-z
-x,-y,-z
x,-y,z
1/2+x,1/2+y,z
1/2-x,1/2+y,-z
1/2-x,1/2-y,-z
1/2+x,1/2-y,z
loop_
_atom_site_type_symbol
_atom_site_label
_atom_site_fract_x
_atom_site_fract_y
_atom_site_fract_z
Si Si1 0.800286 0.867457 0.871865
Si Si2 0.925401 0.412879 0.647824
Si Si3 0.867384 0.412189 0.348840
Si Si4 0.329683 0.195310 0.930409
Si Si5 0.434668 0.646927 0.762701
Si Si6 0.243780 0.667560 0.544115
Si Si7 0.155170 0.084390 0.906464
Si Si8 0.018419 0.313818 0.157760
O O1 0.695807 0.898184 0.775073
O O2 0.794897 0.780108 0.894958
O O3 0.878832 0.875700 0.827836
O O4 0.837186 0.905332 0.981910
O O5 0.916657 0.500000 0.658581
O O6 0.816665 0.380646 0.559728
O O7 0.965688 0.372995 0.756820
O O8 0.013146 0.401636 0.615864
O O9 0.851551 0.500000 0.368090
O O10 0.824328 0.352780 0.400060
O O11 0.234479 0.142226 0.902548
O O12 0.396791 0.173831 0.877276
O O13 0.408286 0.189613 0.053292
O O14 0.356124 0.643427 0.639308
O O15 0.540770 0.602053 0.813597
O O16 0.462026 0.733366 0.789471
O O17 0.250000 0.750000 0.500000
O O18 0.183788 0.000000 0.899523
#
# Coordination Sequence:
#
# PCOD9224803 Si02
#       8
#     8   8   8   8   8   8   8   8
#     4  10  20  36  61  87 121 160 201 242 298 362
#     4  11  23  39  63  90 119 155 200 259 315 353
#     4  10  22  38  61  96 128 150 191 258 315 351
#     4  10  22  37  61  88 121 158 200 250 292 357
#     4  10  22  38  57  86 118 156 203 241 294 358
#     4  11  22  39  62  86 121 156 201 242 295 366
#     4  12  24  36  56  90 128 162 197 239 301 368
#     4  10  20  40  62  86 116 156 204 248 301 355
#
# _framework density 9.1235599999999994
#
# number of rings (size 3 to 8) (size 9 to 14) (size 15 to 20)
#    0.000    1.500    2.500    2.625    1.750    6.500 
#    0.000    1.250    0.000    0.000    0.000    1.750 
#    0.000    0.000    0.000    0.000    0.000    0.000 
#
# Total GULP energy -178573.383692 kJ/mol
# GULP energy per Si atom -5580.418240 kJ/mol
# Density = 0.910279 g / cm^3
# Si number density = 9.123560 Si / 1000 Ang^3
#
#
#
# Elastic Constant Matrix: (Units=GPa)
#
#
# Indices 1 2 3 4 5 6 
#
# 1 64.0402 35.3529 18.2688 0.0000 14.3924 0.0000
# 2 35.3529 67.3488 24.1539 0.0000 -0.5376 0.0000
# 3 18.2688 24.1539 94.8093 0.0000 8.0011 0.0000
# 4 0.0000 0.0000 0.0000 30.3549 0.0000 -1.0417
# 5 14.3924 -0.5376 8.0011 0.0000 31.8548 0.0000
# 6 0.0000 0.0000 0.0000 -1.0417 0.0000 22.5711
#
#
#
# Elastic Compliance Matrix: (Units=1/GPa)
#
#
# Indices 1 2 3 4 5 6 
#
# 1 0.025851 -0.013464 -0.000558 0.000000 -0.011767 0.000000
# 2 -0.013464 0.023410 -0.004001 0.000000 0.007483 0.000000
# 3 -0.000558 -0.004001 0.011911 0.000000 -0.002807 0.000000
# 4 0.000000 0.000000 0.000000 0.032996 0.000000 0.001523
# 5 -0.011767 0.007483 -0.002807 0.000000 0.037540 0.000000
# 6 0.000000 0.000000 0.000000 0.001523 0.000000 0.044375
#
#
# Mechanical properties :
#
#
# Convention : Reuss Voigt Hill
#
# Bulk Modulus (GPa) = 39.79848 42.41663 41.10756
# Shear Modulus (GPa) = 22.67513 26.85100 24.76306
#
# Velocity S-wave (km/s) = 3.52898 3.84020 3.68787
# Velocity P-wave (km/s) = 6.20186 6.55431 6.38052
#
# Compressibility (1/GPa) = 0.02512659
#
# Stress axis : x y z
#
# Youngs Moduli (GPa) = 38.68248 42.71637 83.95375
#
# Poissons Ratio (x) = 0.57512 0.04687
# Poissons Ratio (y) = 0.52081 0.33592
# Poissons Ratio (z) = 0.02159 0.17092
#
# Static dielectric constant tensor:
#      x y z
#    x 1.646070 0.000000 0.009990 
#    y 0.000000 1.613440 0.000000 
#    z 0.009990 0.000000 1.633100 
# 
# From -- ./inp_files/216380.got.cif
#   From: 2010.05.17/outbox.ucp.g08.bks.cvg/sg12_109_cif.got.tgz:216380.got - 2010.06.11 11:47:21.
