data_PCOD9224722
_publ_section_title
;
Structure prediction by ZEFSAII (Michael W. Deem and Ramdas Pophale) SiO2 
 PCOD9224722
Probable space group: C 2/M
;
_chemical_formula_sum "Si O2"
_cell_formula_units_Z 24
_cell_length_a 30.000000
_cell_length_b 18.000000
_cell_length_c 9.000000
_cell_angle_alpha 90.000000
_cell_angle_beta 30.000000
_cell_angle_gamma 90.000000
_cell_volume 2430.000000
_symmetry_space_group_name_H-M "C 2/M"
_symmetry_group_IT_number 12
_symmetry_cell_setting 'monoclinic'
loop_
_space_group_symop_operation_xyz
x,y,z
-x,y,-z
-x,-y,-z
x,-y,z
1/2+x,1/2+y,z
1/2-x,1/2+y,-z
1/2-x,1/2-y,-z
1/2+x,1/2-y,z
loop_
_atom_site_type_symbol
_atom_site_label
_atom_site_fract_x
_atom_site_fract_y
_atom_site_fract_z
Si Si1 0.474155 0.359364 0.745880
Si Si2 0.945287 0.720386 0.006564
Si Si3 0.791781 0.135361 0.143971
Si Si4 0.850733 0.915646 0.648762
Si Si5 0.342326 0.912159 0.233994
Si Si6 0.272220 0.699882 0.640146
O O1 0.500000 0.364220 0.500000
O O2 0.541874 0.407917 0.646645
O O3 0.486699 0.275455 0.766489
O O4 0.370947 0.381398 0.033514
O O5 0.932228 0.636570 0.988174
O O6 0.851120 0.761260 0.317041
O O7 0.000000 0.721061 0.000000
O O8 0.705004 0.099688 0.469219
O O9 0.782553 0.225530 0.154915
O O10 0.813495 0.100411 0.921955
O O11 0.814872 0.849706 0.647717
O O12 0.827843 0.000000 0.668035
O O13 0.285168 0.860423 0.285833
O O14 0.348523 0.000000 0.181358
#
# Coordination Sequence:
#
# PCOD9224722 Si02
#       6
#     8   8   8   8   8   8
#     4  10  20  36  58  81 109 151 181 218 275 331
#     4  11  20  39  58  80 109 145 195 225 263 335
#     4  10  20  38  58  80 112 149 190 216 267 340
#     4  11  23  35  54  89 118 141 178 228 283 323
#     4  11  22  36  59  84 111 145 182 235 279 310
#     4  11  20  37  60  81 110 151 184 223 274 329
#
# _framework density 9.8765429999999999
#
# number of rings (size 3 to 8) (size 9 to 14) (size 15 to 20)
#    0.000    1.333    5.000    2.500    0.000    4.000 
#    0.000    0.833    0.000    0.500    0.000    0.000 
#    0.000    0.000    0.000    0.000    0.000    0.000 
#
# Total GULP energy -133796.166931 kJ/mol
# GULP energy per Si atom -5574.840289 kJ/mol
# Density = 0.985406 g / cm^3
# Si number density = 9.876543 Si / 1000 Ang^3
#
#
#
# Elastic Constant Matrix: (Units=GPa)
#
#
# Indices 1 2 3 4 5 6 
#
# 1 59.1254 -0.5405 -18.4957 0.0000 -6.3652 0.0000
# 2 -0.5405 124.4538 -3.0262 0.0000 -2.1913 0.0000
# 3 -18.4957 -3.0262 8.1223 0.0000 -2.3098 0.0000
# 4 0.0000 0.0000 0.0000 25.3240 0.0000 -2.6741
# 5 -6.3652 -2.1913 -2.3098 0.0000 12.8428 0.0000
# 6 0.0000 0.0000 0.0000 -2.6741 0.0000 27.9476
#
#
#
# Elastic Compliance Matrix: (Units=1/GPa)
#
#
# Indices 1 2 3 4 5 6 
#
# 1 0.198194 0.016725 0.512506 0.000000 0.193259 0.000000
# 2 0.016725 0.009571 0.046871 0.000000 0.018352 0.000000
# 3 0.512506 0.046871 1.456640 0.000000 0.523988 0.000000
# 4 0.000000 0.000000 0.000000 0.039891 0.000000 0.003817
# 5 0.193259 0.018352 0.523988 0.000000 0.271020 0.000000
# 6 0.000000 0.000000 0.000000 0.003817 0.000000 0.036147
#
#
# Mechanical properties :
#
#
# Convention : Reuss Voigt Hill
#
# Bulk Modulus (GPa) = 0.35504 16.39743 8.37623
# Shear Modulus (GPa) = 2.78067 27.47378 15.12723
#
# Velocity S-wave (km/s) = 1.18776 3.73347 2.77034
# Velocity P-wave (km/s) = 1.43567 5.18693 3.80562
#
# Compressibility (1/GPa) = 2.81661022
#
# Stress axis : x y z
#
# Youngs Moduli (GPa) = 5.04556 104.48679 0.68651
#
# Poissons Ratio (x) = -1.74759 -0.35184
# Poissons Ratio (y) = -0.08439 -0.03218
# Poissons Ratio (z) = -2.58588 -4.89740
#
# Static dielectric constant tensor:
#      x y z
#    x 1.733000 0.000000 -0.043830 
#    y 0.000000 1.685000 0.000000 
#    z -0.043830 0.000000 1.778150 
# 
# From -- ./inp_files/74601.got.cif
#   From: 2010.05.17/outbox.ucp.g08.bks.cvg/sg12_38_cif.got.tgz:74601.got - 2010.06.11 11:47:21.
