data_PCOD9224918
_publ_section_title
;
Structure prediction by ZEFSAII (Michael W. Deem and Ramdas Pophale) SiO2 
 PCOD9224918
Probable space group: C 2/M
;
_chemical_formula_sum "Si O2"
_cell_formula_units_Z 32
_cell_length_a 30.000000
_cell_length_b 9.000000
_cell_length_c 15.000000
_cell_angle_alpha 90.000000
_cell_angle_beta 130.000000
_cell_angle_gamma 90.000000
_cell_volume 3102.479995
_symmetry_space_group_name_H-M "C 2/M"
_symmetry_group_IT_number 12
_symmetry_cell_setting 'monoclinic'
loop_
_space_group_symop_operation_xyz
x,y,z
-x,y,-z
-x,-y,-z
x,-y,z
1/2+x,1/2+y,z
1/2-x,1/2+y,-z
1/2-x,1/2-y,-z
1/2+x,1/2-y,z
loop_
_atom_site_type_symbol
_atom_site_label
_atom_site_fract_x
_atom_site_fract_y
_atom_site_fract_z
Si Si1 0.371490 0.174241 0.402051
Si Si2 0.194101 0.179954 0.976411
Si Si3 0.620894 0.674033 0.395797
Si Si4 0.735774 0.673636 0.222554
Si Si5 0.831970 0.322813 0.716134
Si Si6 0.514678 0.325782 0.786208
Si Si7 0.585293 0.821043 0.732538
Si Si8 0.941288 0.675548 0.981880
O O1 0.376467 0.260309 0.501246
O O2 0.303800 0.186532 0.286135
O O3 0.409305 0.222430 0.364789
O O4 0.383899 0.000000 0.434789
O O5 0.138342 0.247663 0.855695
O O6 0.194756 0.000000 0.970900
O O7 0.250000 0.250000 0.000000
O O8 0.199291 0.219537 0.088172
O O9 0.635053 0.500000 0.416245
O O10 0.660075 0.753286 0.371306
O O11 0.553459 0.691896 0.279832
O O12 0.723566 0.500000 0.224660
O O13 0.721292 0.764343 0.292846
O O14 0.830401 0.500000 0.705839
O O15 0.887616 0.280648 0.849737
O O16 0.527115 0.500000 0.788948
O O17 0.529671 0.236973 0.715280
O O18 0.551306 0.264099 0.916771
O O19 0.589219 0.000000 0.741394
O O20 0.935250 0.500000 0.995185
O O21 0.000000 0.694942 0.000000
#
# Coordination Sequence:
#
# PCOD9224918 Si02
#       8
#     8   8   8   8   8   8   8   8
#     4  10  23  44  65  86 117 160 208 254 301 357
#     4  11  21  37  63  94 129 165 201 247 304 364
#     4  11  25  43  63  88 120 159 204 254 306 362
#     4  10  22  41  62  89 125 160 199 248 300 358
#     4  11  23  39  63  93 122 158 202 247 301 361
#     4  11  24  40  61  92 126 161 199 247 310 369
#     4  11  23  41  64  92 124 161 206 252 304 363
#     4  10  20  37  62  91 123 159 200 246 296 359
#
# _framework density 10.314329000000001
#
# number of rings (size 3 to 8) (size 9 to 14) (size 15 to 20)
#    0.000    1.375    2.500    2.625    0.000    8.250 
#    0.000    2.500    0.000    0.000    0.000    0.000 
#    0.000    0.000    0.000    0.000    0.000    0.000 
#
# Total GULP energy -178952.371660 kJ/mol
# GULP energy per Si atom -5592.261614 kJ/mol
# Density = 1.029085 g / cm^3
# Si number density = 10.314329 Si / 1000 Ang^3
#
#
#
# Elastic Constant Matrix: (Units=GPa)
#
#
# Indices 1 2 3 4 5 6 
#
# 1 96.3446 43.5972 5.3795 0.0000 -41.6885 0.0000
# 2 43.5972 71.2263 28.7519 0.0000 -29.2875 0.0000
# 3 5.3795 28.7519 58.3181 0.0000 -38.6601 0.0000
# 4 0.0000 0.0000 0.0000 31.7492 0.0000 -5.5013
# 5 -41.6885 -29.2875 -38.6601 0.0000 44.8564 0.0000
# 6 0.0000 0.0000 0.0000 -5.5013 0.0000 36.0110
#
#
#
# Elastic Compliance Matrix: (Units=1/GPa)
#
#
# Indices 1 2 3 4 5 6 
#
# 1 0.083412 -0.033402 0.106627 0.000000 0.147610 0.000000
# 2 -0.033402 0.032752 -0.045419 0.000000 -0.048804 0.000000
# 3 0.106627 -0.045419 0.176688 0.000000 0.221723 0.000000
# 4 0.000000 0.000000 0.000000 0.032353 0.000000 0.004943
# 5 0.147610 -0.048804 0.221723 0.000000 0.318708 0.000000
# 6 0.000000 0.000000 0.000000 0.004943 0.000000 0.028524
#
#
# Mechanical properties :
#
#
# Convention : Reuss Voigt Hill
#
# Bulk Modulus (GPa) = 2.86975 42.37180 22.62077
# Shear Modulus (GPa) = 6.82147 32.40069 19.61108
#
# Velocity S-wave (km/s) = 1.82043 3.96746 3.08664
# Velocity P-wave (km/s) = 2.41097 6.44767 4.86751
#
# Compressibility (1/GPa) = 0.34846271
#
# Stress axis : x y z
#
# Youngs Moduli (GPa) = 11.98869 30.53293 5.65970
#
# Poissons Ratio (x) = 1.01987 -0.60348
# Poissons Ratio (y) = 0.40045 0.25706
# Poissons Ratio (z) = -1.27832 1.38678
#
# Static dielectric constant tensor:
#      x y z
#    x 1.752300 0.000000 0.034050 
#    y 0.000000 1.694520 0.000000 
#    z 0.034050 0.000000 1.734510 
# 
# From -- ./inp_files/250072.got.cif
#   From: 2010.05.17/outbox.ucp.g08.bks.cvg/sg12_126_cif.got.tgz:250072.got - 2010.06.11 11:47:21.
