data_PCOD9224440
_publ_section_title
;
Structure prediction by ZEFSAII (Michael W. Deem and Ramdas Pophale) SiO2 
 PCOD9224440
Probable space group: C 2/M
;
_chemical_formula_sum "Si O2"
_cell_formula_units_Z 32
_cell_length_a 18.000000
_cell_length_b 9.000000
_cell_length_c 30.000000
_cell_angle_alpha 90.000000
_cell_angle_beta 140.000000
_cell_angle_gamma 90.000000
_cell_volume 3123.947783
_symmetry_space_group_name_H-M "C 2/M"
_symmetry_group_IT_number 12
_symmetry_cell_setting 'monoclinic'
loop_
_space_group_symop_operation_xyz
x,y,z
-x,y,-z
-x,-y,-z
x,-y,z
1/2+x,1/2+y,z
1/2-x,1/2+y,-z
1/2-x,1/2-y,-z
1/2+x,1/2-y,z
loop_
_atom_site_type_symbol
_atom_site_label
_atom_site_fract_x
_atom_site_fract_y
_atom_site_fract_z
Si Si1 0.599611 0.161581 0.827548
Si Si2 0.641279 0.670999 0.929977
Si Si3 0.492441 0.333381 0.632609
Si Si4 0.879360 0.822178 0.825142
Si Si5 0.324705 0.168790 0.710245
Si Si6 0.029466 0.329878 0.465321
Si Si7 0.198143 0.833837 0.795765
Si Si8 0.708968 0.327970 0.395766
O O1 0.641136 0.292821 0.877988
O O2 0.461877 0.160984 0.763077
O O3 0.649438 0.202511 0.803369
O O4 0.638304 0.000000 0.861883
O O5 0.649158 0.500000 0.943531
O O6 0.514059 0.720899 0.886205
O O7 0.750000 0.750000 0.000000
O O8 0.451819 0.500000 0.602625
O O9 0.519036 0.250608 0.599529
O O10 0.607892 0.341612 0.714031
O O11 0.391654 0.267963 0.618188
O O12 0.820725 0.773932 0.751430
O O13 0.820038 0.721849 0.834720
O O14 0.868481 0.000000 0.826208
O O15 0.274592 0.239530 0.642522
O O16 0.283633 0.000000 0.700277
O O17 0.987664 0.500000 0.446829
O O18 0.167919 0.328312 0.523690
O O19 0.000000 0.263884 0.500000
O O20 0.201654 0.000000 0.817058
O O21 0.677569 0.500000 0.370110
#
# Coordination Sequence:
#
# PCOD9224440 Si02
#       8
#     8   8   8   8   8   8   8   8
#     4  10  20  36  59  88 120 154 193 235 282 340
#     4  10  21  39  64  91 121 158 196 236 281 335
#     4  10  22  38  57  80 109 149 192 238 292 348
#     4  10  22  38  58  85 120 157 191 233 287 338
#     4  10  20  34  56  86 113 146 192 237 283 341
#     4  10  23  39  55  79 109 145 192 243 295 354
#     4  11  22  37  58  87 121 152 192 243 294 344
#     4  10  20  37  57  78 110 149 190 236 292 350
#
# _framework density 10.243449
#
# number of rings (size 3 to 8) (size 9 to 14) (size 15 to 20)
#    0.000    1.875    1.250    2.250    1.750    4.750 
#    0.000    0.625    0.000    3.750    0.000    0.000 
#    0.000    0.000    0.000    0.000    0.000    0.000 
#
# Total GULP energy -178378.633424 kJ/mol
# GULP energy per Si atom -5574.332294 kJ/mol
# Density = 1.022013 g / cm^3
# Si number density = 10.243449 Si / 1000 Ang^3
#
#
#
# Elastic Constant Matrix: (Units=GPa)
#
#
# Indices 1 2 3 4 5 6 
#
# 1 22.9622 24.4479 18.1409 0.0000 13.7279 0.0000
# 2 24.4479 -0.0461 -6.3692 0.0000 21.1949 0.0000
# 3 18.1409 -6.3692 35.1929 0.0000 13.5752 0.0000
# 4 0.0000 0.0000 0.0000 21.1435 0.0000 5.0032
# 5 13.7279 21.1949 13.5752 0.0000 -1.1474 0.0000
# 6 0.0000 0.0000 0.0000 5.0032 0.0000 50.0221
#
#
#
# Elastic Compliance Matrix: (Units=1/GPa)
#
#
# Indices 1 2 3 4 5 6 
#
# 1 -0.087828 0.053518 0.014191 0.000000 0.105689 0.000000
# 2 0.053518 -0.021042 -0.023088 0.000000 -0.021535 0.000000
# 3 0.014191 -0.023088 0.020839 0.000000 -0.010156 0.000000
# 4 0.000000 0.000000 0.000000 0.048442 0.000000 -0.004845
# 5 0.105689 -0.021535 -0.010156 0.000000 -0.125009 0.000000
# 6 0.000000 0.000000 0.000000 -0.004845 0.000000 0.020476
#
#
# Mechanical properties :
#
#
# Convention : Reuss Voigt Hill
#
# Bulk Modulus (GPa) = 825.86062 14.50534 420.18298
# Shear Modulus (GPa) = -21.46310 15.46293 -3.00009
#
# Velocity S-wave (km/s) = -3.24025 2.75029 -1.21143
# Velocity P-wave (km/s) = 19.74823 4.14501 14.26839
#
# Compressibility (1/GPa) = 0.00121086
#
# Stress axis : x y z
#
# Youngs Moduli (GPa) = -11.38592 -47.52505 47.98657
#
# Poissons Ratio (x) = 2.54346 -0.68096
# Poissons Ratio (y) = 0.60935 1.10793
# Poissons Ratio (z) = 0.16157 -1.09728
#
# Static dielectric constant tensor:
#      x y z
#    x 1.775240 0.000000 -0.031760 
#    y 0.000000 1.744340 0.000000 
#    z -0.031760 0.000000 1.936190 
# 
# From -- ./inp_files/378385.got.cif
#   From: 2010.05.17/outbox.ucp.g08.bks.cvg/sg12_190_cif.got.tgz:378385.got - 2010.06.11 11:47:21.
