data_PCOD9224024
_publ_section_title
;
Structure prediction by ZEFSAII (Michael W. Deem and Ramdas Pophale) SiO2 
 PCOD9224024
Probable space group: C 2/M
;
_chemical_formula_sum "Si O2"
_cell_formula_units_Z 24
_cell_length_a 21.000000
_cell_length_b 9.000000
_cell_length_c 15.000000
_cell_angle_alpha 90.000000
_cell_angle_beta 110.000000
_cell_angle_gamma 90.000000
_cell_volume 2664.028580
_symmetry_space_group_name_H-M "C 2/M"
_symmetry_group_IT_number 12
_symmetry_cell_setting 'monoclinic'
loop_
_space_group_symop_operation_xyz
x,y,z
-x,y,-z
-x,-y,-z
x,-y,z
1/2+x,1/2+y,z
1/2-x,1/2+y,-z
1/2-x,1/2-y,-z
1/2+x,1/2-y,z
loop_
_atom_site_type_symbol
_atom_site_label
_atom_site_fract_x
_atom_site_fract_y
_atom_site_fract_z
Si Si1 0.579850 0.322697 0.311416
Si Si2 0.423067 0.825227 0.980408
Si Si3 0.679763 0.678964 0.203547
Si Si4 0.059963 0.675264 0.807081
Si Si5 0.333799 0.819053 0.291208
Si Si6 0.924771 0.678777 0.499552
O O1 0.576664 0.500000 0.315306
O O2 0.641714 0.280549 0.276754
O O3 0.510120 0.261385 0.236756
O O4 0.587124 0.253233 0.411855
O O5 0.366656 0.742227 0.897110
O O6 0.421984 0.000000 0.955163
O O7 0.500000 0.770921 0.000000
O O8 0.411670 0.811267 0.080093
O O9 0.680377 0.500000 0.197332
O O10 0.757170 0.732694 0.240746
O O11 0.045868 0.500000 0.783485
O O12 0.115123 0.727488 0.762295
O O13 0.368528 0.775599 0.400651
O O14 0.332345 0.000000 0.289223
O O15 0.923079 0.500000 0.507921
O O16 0.000000 0.717157 0.500000
#
# Coordination Sequence:
#
# PCOD9224024 Si02
#       6
#     8   8   8   8   8   8
#     4  11  22  34  53  83 115 143 177 225 279 326
#     4  10  20  34  57  85 110 140 185 234 270 314
#     4  10  22  38  55  79 115 150 177 220 280 333
#     4  10  19  36  60  81 105 144 190 228 266 320
#     4   9  19  37  58  80 108 144 187 225 267 328
#     4  10  19  35  61  84 103 143 192 225 262 322
#
# _framework density 9.0089120000000005
#
# number of rings (size 3 to 8) (size 9 to 14) (size 15 to 20)
#    0.000    2.000    3.333    0.500    0.000    3.333 
#    0.000    1.667    0.000    0.000    0.000    0.000 
#    0.000    0.000    0.000    0.000    0.000    0.000 
#
# Total GULP energy -133933.748541 kJ/mol
# GULP energy per Si atom -5580.572856 kJ/mol
# Density = 0.898841 g / cm^3
# Si number density = 9.008912 Si / 1000 Ang^3
#
#
#
# Elastic Constant Matrix: (Units=GPa)
#
#
# Indices 1 2 3 4 5 6 
#
# 1 53.1182 13.4743 6.2158 0.0000 14.5472 0.0000
# 2 13.4743 5.7390 14.7217 0.0000 -1.8414 0.0000
# 3 6.2158 14.7217 50.1530 0.0000 11.9955 0.0000
# 4 0.0000 0.0000 0.0000 26.5104 0.0000 3.3419
# 5 14.5472 -1.8414 11.9955 0.0000 30.2568 0.0000
# 6 0.0000 0.0000 0.0000 3.3419 0.0000 10.4571
#
#
#
# Elastic Compliance Matrix: (Units=1/GPa)
#
#
# Indices 1 2 3 4 5 6 
#
# 1 -0.001988 0.076842 -0.026135 0.000000 0.015994 0.000000
# 2 0.076842 -0.249447 0.084145 0.000000 -0.085486 0.000000
# 3 -0.026135 0.084145 -0.006354 0.000000 0.020206 0.000000
# 4 0.000000 0.000000 0.000000 0.039304 0.000000 -0.012561
# 5 0.015994 -0.085486 0.020206 0.000000 0.012147 0.000000
# 6 0.000000 0.000000 0.000000 -0.012561 0.000000 0.099643
#
#
# Mechanical properties :
#
#
# Convention : Reuss Voigt Hill
#
# Bulk Modulus (GPa) = 83.93672 19.75933 51.84802
# Shear Modulus (GPa) = -13.42542 18.41808 2.49633
#
# Velocity S-wave (km/s) = -2.73265 3.20068 1.17834
# Velocity P-wave (km/s) = 6.06053 4.96482 5.53983
#
# Compressibility (1/GPa) = 0.01191374
#
# Stress axis : x y z
#
# Youngs Moduli (GPa) = -502.96143 -4.00886 -157.37230
#
# Poissons Ratio (x) = 0.30805 -4.11291
# Poissons Ratio (y) = 38.64848 13.24208
# Poissons Ratio (z) = -13.14484 0.33733
#
# Static dielectric constant tensor:
#      x y z
#    x 1.604880 0.000000 -0.016270 
#    y 0.000000 1.613890 0.000000 
#    z -0.016270 0.000000 1.602870 
# 
# From -- ./inp_files/229833.got.cif
#   From: 2010.05.17/outbox.ucp.g08.bks.cvg/sg12_115_cif.got.tgz:229833.got - 2010.06.11 11:47:21.
