data_PCOD9224297
_publ_section_title
;
Structure prediction by ZEFSAII (Michael W. Deem and Ramdas Pophale) SiO2 
 PCOD9224297
Probable space group: C 2/M
;
_chemical_formula_sum "Si O2"
_cell_formula_units_Z 32
_cell_length_a 15.000000
_cell_length_b 9.000000
_cell_length_c 27.000000
_cell_angle_alpha 90.000000
_cell_angle_beta 70.000000
_cell_angle_gamma 90.000000
_cell_volume 3425.179603
_symmetry_space_group_name_H-M "C 2/M"
_symmetry_group_IT_number 12
_symmetry_cell_setting 'monoclinic'
loop_
_space_group_symop_operation_xyz
x,y,z
-x,y,-z
-x,-y,-z
x,-y,z
1/2+x,1/2+y,z
1/2-x,1/2+y,-z
1/2-x,1/2-y,-z
1/2+x,1/2-y,z
loop_
_atom_site_type_symbol
_atom_site_label
_atom_site_fract_x
_atom_site_fract_y
_atom_site_fract_z
Si Si1 0.538837 0.821442 0.135928
Si Si2 0.690876 0.827125 0.681471
Si Si3 0.476753 0.828692 0.748742
Si Si4 0.766671 0.820928 0.880886
Si Si5 0.792705 0.824493 0.424002
Si Si6 0.408082 0.177731 0.484718
Si Si7 0.211780 0.177594 0.236416
Si Si8 0.436762 0.181182 0.056988
O O1 0.506236 0.781575 0.197437
O O2 0.643130 0.755487 0.112596
O O3 0.475133 0.768581 0.102870
O O4 0.540742 0.000000 0.133364
O O5 0.577425 0.824739 0.704201
O O6 0.718514 0.730849 0.629594
O O7 0.730705 0.770724 0.726570
O O8 0.720962 0.000000 0.669706
O O9 0.396988 0.727842 0.739635
O O10 0.442213 0.000000 0.756024
O O11 0.757369 0.773923 0.824712
O O12 0.672103 0.777968 0.927158
O O13 0.777650 0.000000 0.879147
O O14 0.690032 0.790833 0.467653
O O15 0.880673 0.748586 0.436699
O O16 0.807241 0.000000 0.423870
O O17 0.500000 0.227225 0.500000
O O18 0.418159 0.000000 0.476328
O O19 0.221014 0.000000 0.234408
O O20 0.440364 0.000000 0.056525
O O21 0.500000 0.235281 0.000000
#
# Coordination Sequence:
#
# PCOD9224297 Si02
#       8
#     8   8   8   8   8   8   8   8
#     4   9  17  31  50  70  93 123 162 203 241 288
#     4  10  20  34  51  71 101 136 164 196 242 293
#     4   9  18  32  50  71  95 128 166 200 239 291
#     4   9  17  31  50  70  94 125 162 202 244 291
#     4  10  21  35  53  80 107 130 164 207 246 284
#     4   9  19  38  60  77  99 135 172 203 240 288
#     4   9  18  32  50  72  97 128 165 203 243 289
#     4   9  17  29  47  70  94 124 162 200 242 297
#
# _framework density 9.3425759999999993
#
# number of rings (size 3 to 8) (size 9 to 14) (size 15 to 20)
#    0.000    2.750    0.000    1.125    0.000    6.250 
#    0.000    4.375    0.000    6.750    0.000    0.000 
#    0.000    0.000    0.000    0.000    0.000    0.000 
#
# Total GULP energy -178189.035145 kJ/mol
# GULP energy per Si atom -5568.407348 kJ/mol
# Density = 0.932131 g / cm^3
# Si number density = 9.342576 Si / 1000 Ang^3
#
#
#
# Elastic Constant Matrix: (Units=GPa)
#
#
# Indices 1 2 3 4 5 6 
#
# 1 43.3158 14.7478 -2.4144 0.0000 -3.4696 0.0000
# 2 14.7478 -36.2697 -4.6052 0.0000 -7.4034 0.0000
# 3 -2.4144 -4.6052 -24.1780 0.0000 -24.6903 0.0000
# 4 0.0000 0.0000 0.0000 14.3385 0.0000 0.1482
# 5 -3.4696 -7.4034 -24.6903 0.0000 2.6432 0.0000
# 6 0.0000 0.0000 0.0000 0.1482 0.0000 25.1036
#
#
#
# Elastic Compliance Matrix: (Units=1/GPa)
#
#
# Indices 1 2 3 4 5 6 
#
# 1 0.020030 0.008489 -0.005195 0.000000 0.001545 0.000000
# 2 0.008489 -0.024450 0.005917 0.000000 -0.002064 0.000000
# 3 -0.005195 0.005917 -0.004927 0.000000 -0.036272 0.000000
# 4 0.000000 0.000000 0.000000 0.069747 0.000000 -0.000412
# 5 0.001545 -0.002064 -0.036272 0.000000 0.035753 0.000000
# 6 0.000000 0.000000 0.000000 -0.000412 0.000000 0.039837
#
#
# Mechanical properties :
#
#
# Convention : Reuss Voigt Hill
#
# Bulk Modulus (GPa) = 110.18003 -0.18616 54.99694
# Shear Modulus (GPa) = 41.46171 6.75974 24.11072
#
# Velocity S-wave (km/s) = 4.71570 1.90409 3.59607
# Velocity P-wave (km/s) = 9.42046 2.17583 6.83664
#
# Compressibility (1/GPa) = 0.00907605
#
# Stress axis : x y z
#
# Youngs Moduli (GPa) = 49.92450 -40.90063 -202.94431
#
# Poissons Ratio (x) = 0.34720 -1.05424
# Poissons Ratio (y) = -0.42380 1.20088
# Poissons Ratio (z) = 0.25934 0.24202
#
# Static dielectric constant tensor:
#      x y z
#    x 1.638970 0.000000 -0.009240 
#    y 0.000000 1.632250 0.000000 
#    z -0.009240 0.000000 1.679160 
# 
# From -- ./inp_files/335176.got.cif
#   From: 2010.05.17/outbox.ucp.g08.bks.cvg/sg12_168_cif.got.tgz:335176.got - 2010.06.11 11:47:21.
