data_PCOD9224630
_publ_section_title
;
Structure prediction by ZEFSAII (Michael W. Deem and Ramdas Pophale) SiO2 
 PCOD9224630
Probable space group: C 2/M
;
_chemical_formula_sum "Si O2"
_cell_formula_units_Z 32
_cell_length_a 30.000000
_cell_length_b 15.000000
_cell_length_c 21.000000
_cell_angle_alpha 90.000000
_cell_angle_beta 160.000000
_cell_angle_gamma 90.000000
_cell_volume 3232.090354
_symmetry_space_group_name_H-M "C 2/M"
_symmetry_group_IT_number 12
_symmetry_cell_setting 'monoclinic'
loop_
_space_group_symop_operation_xyz
x,y,z
-x,y,-z
-x,-y,-z
x,-y,z
1/2+x,1/2+y,z
1/2-x,1/2+y,-z
1/2-x,1/2-y,-z
1/2+x,1/2-y,z
loop_
_atom_site_type_symbol
_atom_site_label
_atom_site_fract_x
_atom_site_fract_y
_atom_site_fract_z
Si Si1 0.152963 0.896321 0.025345
Si Si2 0.420548 0.901492 0.960112
Si Si3 0.020122 0.399908 0.815226
Si Si4 0.173233 0.099435 0.807598
Si Si5 0.003405 0.901931 0.309975
Si Si6 0.127788 0.201749 0.125234
Si Si7 0.906930 0.709090 0.551174
Si Si8 0.091795 0.297366 0.679755
O O1 0.038457 0.894910 0.819485
O O2 0.188405 0.000000 0.083721
O O3 0.115554 0.850175 0.041848
O O4 0.270665 0.844085 0.148564
O O5 0.494454 0.892054 0.127744
O O6 0.354900 0.000000 0.877314
O O7 0.500000 0.904815 0.000000
O O8 0.350430 0.806609 0.861619
O O9 0.977136 0.500000 0.739862
O O10 0.947192 0.328926 0.673785
O O11 0.173399 0.393507 0.001856
O O12 0.111556 0.190500 0.698812
O O13 0.125455 0.101531 0.817350
O O14 0.132818 0.000000 0.729749
O O15 0.089324 0.816748 0.441878
O O16 0.062915 0.000000 0.401004
O O17 0.264404 0.174027 0.340837
O O18 0.000000 0.192764 0.000000
O O19 0.017791 0.684567 0.647179
O O20 0.000000 0.329634 0.500000
#
# Coordination Sequence:
#
# PCOD9224630 Si02
#       8
#     8   8   8   8   8   8   8   8
#     4  11  23  41  62  84 120 163 203 245 294 352
#     4   9  19  38  63  88 114 147 190 244 302 357
#     4  10  20  35  59  87 117 155 199 246 297 352
#     4   9  18  33  56  88 125 158 189 235 299 367
#     4   9  19  36  59  87 119 157 196 240 298 357
#     4  11  24  42  61  85 119 160 203 246 300 356
#     4  11  22  37  60  90 123 154 197 253 293 352
#     4  11  21  35  56  91 126 157 198 241 297 355
#
# _framework density 9.9007129999999997
#
# number of rings (size 3 to 8) (size 9 to 14) (size 15 to 20)
#    0.000    1.875    1.250    3.000    0.000    5.250 
#    0.000    5.625    0.000    6.000    0.000    0.000 
#    0.000    0.000    0.000    0.000    0.000    0.000 
#
# Total GULP energy -178343.386627 kJ/mol
# GULP energy per Si atom -5573.230832 kJ/mol
# Density = 0.987818 g / cm^3
# Si number density = 9.900713 Si / 1000 Ang^3
#
#
#
# Elastic Constant Matrix: (Units=GPa)
#
#
# Indices 1 2 3 4 5 6 
#
# 1 118.5933 47.3164 36.2764 0.0000 -9.0160 0.0000
# 2 47.3164 95.5287 19.0049 0.0000 -0.6995 0.0000
# 3 36.2764 19.0049 45.9565 0.0000 1.0634 0.0000
# 4 0.0000 0.0000 0.0000 -18.6418 0.0000 -7.9644
# 5 -9.0160 -0.6995 1.0634 0.0000 22.5333 0.0000
# 6 0.0000 0.0000 0.0000 -7.9644 0.0000 36.3496
#
#
#
# Elastic Compliance Matrix: (Units=1/GPa)
#
#
# Indices 1 2 3 4 5 6 
#
# 1 0.013497 -0.004901 -0.008758 0.000000 0.005662 0.000000
# 2 -0.004901 0.013194 -0.001553 0.000000 -0.001478 0.000000
# 3 -0.008758 -0.001553 0.029430 0.000000 -0.004941 0.000000
# 4 0.000000 0.000000 0.000000 -0.049051 0.000000 -0.010747
# 5 0.005662 -0.001478 -0.004941 0.000000 0.046831 0.000000
# 6 0.000000 0.000000 0.000000 -0.010747 0.000000 0.025156
#
#
# Mechanical properties :
#
#
# Convention : Reuss Voigt Hill
#
# Bulk Modulus (GPa) = 38.91738 51.69709 45.30724
# Shear Modulus (GPa) = 42.35581 18.54694 30.45138
#
# Velocity S-wave (km/s) = 4.62998 3.06379 3.92578
# Velocity P-wave (km/s) = 6.94829 6.21934 6.59390
#
# Compressibility (1/GPa) = 0.02569546
#
# Stress axis : x y z
#
# Youngs Moduli (GPa) = 74.08911 75.79241 33.97920
#
# Poissons Ratio (x) = 0.37149 0.29760
# Poissons Ratio (y) = 0.36314 0.05277
# Poissons Ratio (z) = 0.64890 0.11770
#
# Static dielectric constant tensor:
#      x y z
#    x 1.678840 0.000000 -0.001370 
#    y 0.000000 1.726890 0.000000 
#    z -0.001370 0.000000 1.735460 
# 
# From -- ./inp_files/330401.got.cif
#   From: 2010.05.17/outbox.ucp.g08.bks.cvg/sg12_166_cif.got.tgz:330401.got - 2010.06.11 11:47:21.
