data_PCOD9224147
_publ_section_title
;
Structure prediction by ZEFSAII (Michael W. Deem and Ramdas Pophale) SiO2 
 PCOD9224147
Probable space group: C 2/M
;
_chemical_formula_sum "Si O2"
_cell_formula_units_Z 32
_cell_length_a 18.000000
_cell_length_b 9.000000
_cell_length_c 30.000000
_cell_angle_alpha 90.000000
_cell_angle_beta 40.000000
_cell_angle_gamma 90.000000
_cell_volume 3123.947783
_symmetry_space_group_name_H-M "C 2/M"
_symmetry_group_IT_number 12
_symmetry_cell_setting 'monoclinic'
loop_
_space_group_symop_operation_xyz
x,y,z
-x,y,-z
-x,-y,-z
x,-y,z
1/2+x,1/2+y,z
1/2-x,1/2+y,-z
1/2-x,1/2-y,-z
1/2+x,1/2-y,z
loop_
_atom_site_type_symbol
_atom_site_label
_atom_site_fract_x
_atom_site_fract_y
_atom_site_fract_z
Si Si1 0.450686 0.319615 0.569358
Si Si2 0.530544 0.676347 0.936042
Si Si3 0.128289 0.820672 0.565339
Si Si4 0.372220 0.177490 0.935376
Si Si5 0.299214 0.172292 0.283672
Si Si6 0.952758 0.173925 0.713196
Si Si7 0.548219 0.831118 0.198873
Si Si8 0.741048 0.328868 0.781653
O O1 0.500000 0.264112 0.500000
O O2 0.449752 0.500000 0.568364
O O3 0.537411 0.277325 0.568798
O O4 0.318721 0.276712 0.639238
O O5 0.505484 0.500000 0.942993
O O6 0.456631 0.765722 0.934646
O O7 0.663067 0.696998 0.860782
O O8 0.500000 0.720942 0.000000
O O9 0.250000 0.750000 0.500000
O O10 0.072288 0.769323 0.637703
O O11 0.137451 0.000000 0.560978
O O12 0.412826 0.220264 0.867301
O O13 0.367059 0.000000 0.938850
O O14 0.250000 0.250000 0.000000
O O15 0.409486 0.171447 0.264520
O O16 0.329662 0.281453 0.229243
O O17 0.287362 0.000000 0.273334
O O18 0.913013 0.233827 0.778428
O O19 0.851210 0.224650 0.727556
O O20 0.960877 0.000000 0.710848
O O21 0.588989 0.000000 0.186281
O O22 0.775333 0.500000 0.764692
#
# Coordination Sequence:
#
# PCOD9224147 Si02
#       8
#     8   8   8   8   8   8   8   8
#     4   9  18  34  59  86 112 149 194 239 290 348
#     4  10  23  42  63  89 122 159 199 249 303 357
#     4  10  22  39  59  85 120 157 197 246 297 357
#     4  11  24  42  63  89 123 160 202 250 300 358
#     4  10  19  38  63  86 117 152 196 248 296 353
#     4  11  24  41  61  87 123 162 201 249 301 357
#     4  10  23  40  62  90 119 157 202 248 297 357
#     4  11  22  38  63  90 119 155 199 250 303 355
#
# _framework density 10.243449
#
# number of rings (size 3 to 8) (size 9 to 14) (size 15 to 20)
#    0.000    1.750    2.500    1.125    3.500    3.250 
#    0.000    0.000    0.000    0.750    0.000    0.000 
#    0.000    0.000    0.000    0.000    0.000    0.000 
#
# Total GULP energy -178414.128708 kJ/mol
# GULP energy per Si atom -5575.441522 kJ/mol
# Density = 1.022013 g / cm^3
# Si number density = 10.243449 Si / 1000 Ang^3
#
#
#
# Elastic Constant Matrix: (Units=GPa)
#
#
# Indices 1 2 3 4 5 6 
#
# 1 61.2468 36.4865 54.7201 -0.0001 6.8469 0.0000
# 2 36.4865 -49.4167 19.4597 -0.0005 23.7199 -0.0009
# 3 54.7201 19.4597 104.3114 -0.0001 20.5823 -0.0003
# 4 -0.0001 -0.0005 -0.0001 19.9036 0.0000 6.9402
# 5 6.8469 23.7199 20.5823 0.0000 25.5821 0.0000
# 6 0.0000 -0.0009 -0.0003 6.9402 0.0000 13.5067
#
#
#
# Elastic Compliance Matrix: (Units=1/GPa)
#
#
# Indices 1 2 3 4 5 6 
#
# 1 0.022544 0.009448 -0.012683 0.000000 -0.004589 0.000000
# 2 0.009448 -0.010044 -0.005255 0.000000 0.011012 -0.000001
# 3 -0.012683 -0.005255 0.018531 0.000000 -0.006642 0.000000
# 4 0.000000 0.000000 0.000000 0.061209 0.000000 -0.031451
# 5 -0.004589 0.011012 -0.006642 0.000000 0.035451 0.000001
# 6 0.000000 -0.000001 0.000000 -0.031451 0.000001 0.090198
#
#
# Mechanical properties :
#
#
# Convention : Reuss Voigt Hill
#
# Bulk Modulus (GPa) = 71.17744 37.49711 54.33727
# Shear Modulus (GPa) = 20.87223 12.16350 16.51786
#
# Velocity S-wave (km/s) = 3.19534 2.43928 2.84256
# Velocity P-wave (km/s) = 6.95931 5.12603 6.11180
#
# Compressibility (1/GPa) = 0.01404940
#
# Stress axis : x y z
#
# Youngs Moduli (GPa) = 44.35847 -99.56216 53.96386
#
# Poissons Ratio (x) = 0.94063 0.68442
# Poissons Ratio (y) = -0.41908 0.28359
# Poissons Ratio (z) = 0.56260 -0.52323
#
# Static dielectric constant tensor:
#      x y z
#    x 1.734350 0.000000 -0.020750 
#    y 0.000000 1.691450 0.000000 
#    z -0.020750 0.000000 1.738030 
# 
# From -- ./inp_files/377994.got.cif
#   From: 2010.05.17/outbox.ucp.g08.bks.cvg/sg12_189_cif.got.tgz:377994.got - 2010.06.11 11:47:21.
