data_PCOD9224846
_publ_section_title
;
Structure prediction by ZEFSAII (Michael W. Deem and Ramdas Pophale) SiO2 
 PCOD9224846
Probable space group: C 2/M
;
_chemical_formula_sum "Si O2"
_cell_formula_units_Z 32
_cell_length_a 24.000000
_cell_length_b 18.000000
_cell_length_c 21.000000
_cell_angle_alpha 90.000000
_cell_angle_beta 160.000000
_cell_angle_gamma 90.000000
_cell_volume 3102.806740
_symmetry_space_group_name_H-M "C 2/M"
_symmetry_group_IT_number 12
_symmetry_cell_setting 'monoclinic'
loop_
_space_group_symop_operation_xyz
x,y,z
-x,y,-z
-x,-y,-z
x,-y,z
1/2+x,1/2+y,z
1/2-x,1/2+y,-z
1/2-x,1/2-y,-z
1/2+x,1/2-y,z
loop_
_atom_site_type_symbol
_atom_site_label
_atom_site_fract_x
_atom_site_fract_y
_atom_site_fract_z
Si Si1 0.695871 0.325963 0.211161
Si Si2 0.683950 0.324353 0.824756
Si Si3 0.323339 0.841869 0.840813
Si Si4 0.868792 0.085673 0.109698
Si Si5 0.148268 0.913396 0.548336
Si Si6 0.238820 0.414790 0.459827
Si Si7 0.812092 0.351704 0.195875
Si Si8 0.852502 0.411253 0.496844
O O1 0.741400 0.238703 0.253404
O O2 0.777162 0.359067 0.233802
O O3 0.749606 0.365216 0.334104
O O4 0.500000 0.330301 0.000000
O O5 0.807131 0.344606 0.899575
O O6 0.716038 0.360095 0.929037
O O7 0.511761 0.363001 0.624618
O O8 0.670014 0.235143 0.804867
O O9 0.220632 0.904766 0.695890
O O10 0.500000 0.847834 0.000000
O O11 0.064301 0.087506 0.324795
O O12 0.815502 0.000000 0.061733
O O13 0.833762 0.114443 0.001592
O O14 0.275110 0.886738 0.628577
O O15 0.109919 0.000000 0.494514
O O16 0.179591 0.500000 0.395090
O O17 0.171478 0.384396 0.455104
O O18 0.966497 0.396170 0.334719
O O19 0.814733 0.500000 0.454694
#
# Coordination Sequence:
#
# PCOD9224846 Si02
#       8
#     8   8   8   8   8   8   8   8
#     4  10  22  40  58  77 108 149 187 223 269 329
#     4  10  21  38  58  80 111 149 185 220 267 330
#     4  10  22  38  56  82 113 143 181 230 278 322
#     4  10  20  37  59  81 108 143 186 227 266 322
#     4  10  20  37  60  82 109 147 188 224 265 323
#     4   8  18  36  55  78 108 143 181 222 268 322
#     4  11  22  36  56  83 114 144 178 225 279 326
#     4  11  22  36  56  83 113 142 180 230 278 321
#
# _framework density 10.313243
#
# number of rings (size 3 to 8) (size 9 to 14) (size 15 to 20)
#    0.000    2.000    0.000    4.125    0.000    6.500 
#    0.000    8.125    0.000    0.000    0.000    0.000 
#    0.000    0.000    0.000    0.000    0.000    0.000 
#
# Total GULP energy -178367.320842 kJ/mol
# GULP energy per Si atom -5573.978776 kJ/mol
# Density = 1.028977 g / cm^3
# Si number density = 10.313243 Si / 1000 Ang^3
#
#
#
# Elastic Constant Matrix: (Units=GPa)
#
#
# Indices 1 2 3 4 5 6 
#
# 1 117.7285 -0.0287 -9.6610 0.8922 21.4274 -0.9883
# 2 -0.0287 44.2193 -1.0663 0.0807 4.5523 -0.0591
# 3 -9.6610 -1.0663 22.0609 -0.1682 1.3277 0.2130
# 4 0.8922 0.0807 -0.1682 746.8642 -0.3256 -828.9233
# 5 21.4274 4.5523 1.3277 -0.3256 24.0977 0.3782
# 6 -0.9883 -0.0591 0.2130 -828.9233 0.3782 978.7315
#
#
#
# Elastic Compliance Matrix: (Units=1/GPa)
#
#
# Indices 1 2 3 4 5 6 
#
# 1 0.010774 0.001177 0.005383 -0.000017 -0.010100 0.000000
# 2 0.001177 0.023234 0.001972 -0.000019 -0.005544 -0.000011
# 3 0.005383 0.001972 0.048252 -0.000022 -0.007817 -0.000021
# 4 -0.000017 -0.000019 -0.000022 0.022312 0.000024 0.018897
# 5 -0.010100 -0.005544 -0.007817 0.000024 0.051957 -0.000008
# 6 0.000000 -0.000011 -0.000021 0.018897 -0.000008 0.017026
#
#
# Mechanical properties :
#
#
# Convention : Reuss Voigt Hill
#
# Bulk Modulus (GPa) = 10.06818 18.05520 14.06169
# Shear Modulus (GPa) = 26.37130 362.92299 194.64714
#
# Velocity S-wave (km/s) = 3.57951 13.27900 9.72484
# Velocity P-wave (km/s) = 4.68782 15.61671 11.52947
#
# Compressibility (1/GPa) = 0.09932280
#
# Stress axis : x y z
#
# Youngs Moduli (GPa) = 92.81213 43.04106 20.72449
#
# Poissons Ratio (x) = -0.05064 -0.11156
# Poissons Ratio (y) = -0.10920 -0.04087
# Poissons Ratio (z) = -0.49960 -0.08487
#
# Static dielectric constant tensor:
#      x y z
#    x 1.745130 0.000000 -0.047300 
#    y 0.000000 1.720180 -0.000010 
#    z -0.047300 -0.000010 1.847590 
# 
# From -- ./inp_files/326159.got.cif
#   From: 2010.05.17/outbox.ucp.g08.bks.cvg/sg12_164_cif.got.tgz:326159.got - 2010.06.11 11:47:21.
