data_PCOD9224759
_publ_section_title
;
Structure prediction by ZEFSAII (Michael W. Deem and Ramdas Pophale) SiO2 
 PCOD9224759
Probable space group: C 2/M
;
_chemical_formula_sum "Si O2"
_cell_formula_units_Z 28
_cell_length_a 9.000000
_cell_length_b 18.000000
_cell_length_c 27.000000
_cell_angle_alpha 90.000000
_cell_angle_beta 140.000000
_cell_angle_gamma 90.000000
_cell_volume 2811.553005
_symmetry_space_group_name_H-M "C 2/M"
_symmetry_group_IT_number 12
_symmetry_cell_setting 'monoclinic'
loop_
_space_group_symop_operation_xyz
x,y,z
-x,y,-z
-x,-y,-z
x,-y,z
1/2+x,1/2+y,z
1/2-x,1/2+y,-z
1/2-x,1/2-y,-z
1/2+x,1/2-y,z
loop_
_atom_site_type_symbol
_atom_site_label
_atom_site_fract_x
_atom_site_fract_y
_atom_site_fract_z
Si Si1 0.903660 0.334599 0.784808
Si Si2 0.873200 0.084155 0.915433
Si Si3 0.304062 0.913931 0.485516
Si Si4 0.569963 0.914850 0.656014
Si Si5 0.970357 0.176695 0.225000
Si Si6 0.712569 0.587661 0.645400
Si Si7 0.768296 0.088591 0.080710
O O1 0.156086 0.362361 0.864453
O O2 0.941401 0.258530 0.765098
O O3 0.723048 0.322245 0.782344
O O4 0.800901 0.397170 0.722628
O O5 0.059388 0.104459 0.920976
O O6 0.792263 0.000000 0.883215
O O7 0.000000 0.082737 0.000000
O O8 0.500000 0.879590 0.500000
O O9 0.411561 0.916025 0.567191
O O10 0.047479 0.880590 0.423386
O O11 0.271887 0.000000 0.459476
O O12 0.409338 0.882231 0.658629
O O13 0.802882 0.871060 0.704624
O O14 0.633016 0.000000 0.685332
O O15 0.854817 0.137695 0.148048
O O16 0.696227 0.500000 0.628998
O O17 0.784896 0.000000 0.095991
O O18 0.500000 0.103815 0.000000
#
# Coordination Sequence:
#
# PCOD9224759 Si02
#       7
#     8   8   8   8   8   8   8
#     4  12  25  40  58  82 115 153 193 235 283 338
#     4  10  21  39  63  90 118 148 186 232 281 334
#     4   9  17  31  54  85 116 147 188 235 281 331
#     4  10  20  36  59  86 116 150 189 234 284 337
#     4  12  25  40  58  82 115 153 193 235 283 338
#     4  10  20  36  59  86 116 150 189 234 284 337
#     4  10  21  39  63  90 118 148 186 232 281 334
#
# _framework density 9.9589090000000002
#
# number of rings (size 3 to 8) (size 9 to 14) (size 15 to 20)
#    0.000    1.571    0.000    5.571    0.000    9.143 
#    0.000    3.571    0.000    0.000    0.000    0.000 
#    0.000    0.000    0.000    0.000    0.000    0.000 
#
# Total GULP energy -156315.549339 kJ/mol
# GULP energy per Si atom -5582.698191 kJ/mol
# Density = 0.993624 g / cm^3
# Si number density = 9.958909 Si / 1000 Ang^3
#
#
#
# Elastic Constant Matrix: (Units=GPa)
#
#
# Indices 1 2 3 4 5 6 
#
# 1 179.7853 29.9839 24.3931 0.0005 19.1782 -0.0003
# 2 29.9839 21.6657 13.1540 0.0006 18.6850 -0.0003
# 3 24.3931 13.1540 65.9768 0.0035 24.0626 -0.0016
# 4 0.0005 0.0006 0.0035 -50.8614 0.0007 26.1082
# 5 19.1782 18.6850 24.0626 0.0007 40.0133 -0.0003
# 6 -0.0003 -0.0003 -0.0016 26.1082 -0.0003 4.0788
#
#
#
# Elastic Compliance Matrix: (Units=1/GPa)
#
#
# Indices 1 2 3 4 5 6 
#
# 1 0.007431 -0.011866 -0.001414 0.000000 0.002830 0.000000
# 2 -0.011866 0.096654 -0.000636 0.000001 -0.039065 0.000000
# 3 -0.001414 -0.000636 0.019792 0.000001 -0.010928 0.000000
# 4 0.000000 0.000001 0.000001 -0.004588 -0.000001 0.029365
# 5 0.002830 -0.039065 -0.010928 -0.000001 0.048449 0.000000
# 6 0.000000 0.000000 0.000000 0.029365 0.000000 0.057206
#
#
# Mechanical properties :
#
#
# Convention : Reuss Voigt Hill
#
# Bulk Modulus (GPa) = 10.41163 44.72108 27.56636
# Shear Modulus (GPa) = 17.55673 11.97259 14.76466
#
# Velocity S-wave (km/s) = 2.97216 2.45439 2.72560
# Velocity P-wave (km/s) = 4.12516 5.52572 4.87599
#
# Compressibility (1/GPa) = 0.09604642
#
# Stress axis : x y z
#
# Youngs Moduli (GPa) = 134.56846 10.34614 50.52630
#
# Poissons Ratio (x) = 0.12277 0.07143
# Poissons Ratio (y) = 1.59682 0.03211
# Poissons Ratio (z) = 0.19023 0.00658
#
# Static dielectric constant tensor:
#      x y z
#    x 1.731030 0.000000 0.018620 
#    y 0.000000 1.714830 0.000000 
#    z 0.018620 0.000000 1.694440 
# 
# From -- ./inp_files/257132.got.cif
#   From: 2010.05.17/outbox.ucp.g08.bks.cvg/sg12_129_cif.got.tgz:257132.got - 2010.06.11 11:47:21.
