data_PCOD9224332
_publ_section_title
;
Structure prediction by ZEFSAII (Michael W. Deem and Ramdas Pophale) SiO2 
 PCOD9224332
Probable space group: C 2/M
;
_chemical_formula_sum "Si O2"
_cell_formula_units_Z 28
_cell_length_a 21.000000
_cell_length_b 9.000000
_cell_length_c 21.000000
_cell_angle_alpha 90.000000
_cell_angle_beta 50.000000
_cell_angle_gamma 90.000000
_cell_volume 3040.430395
_symmetry_space_group_name_H-M "C 2/M"
_symmetry_group_IT_number 12
_symmetry_cell_setting 'monoclinic'
loop_
_space_group_symop_operation_xyz
x,y,z
-x,y,-z
-x,-y,-z
x,-y,z
1/2+x,1/2+y,z
1/2-x,1/2+y,-z
1/2-x,1/2-y,-z
1/2+x,1/2-y,z
loop_
_atom_site_type_symbol
_atom_site_label
_atom_site_fract_x
_atom_site_fract_y
_atom_site_fract_z
Si Si1 0.593281 0.323309 0.441864
Si Si2 0.184309 0.333164 0.129261
Si Si3 0.309708 0.830113 0.726013
Si Si4 0.746716 0.319550 0.431497
Si Si5 0.645449 0.327133 0.747488
Si Si6 0.993367 0.326363 0.076984
Si Si7 0.632835 0.664061 0.049282
O O1 0.500000 0.261138 0.500000
O O2 0.588088 0.500000 0.453080
O O3 0.633541 0.282347 0.348788
O O4 0.659495 0.273073 0.453078
O O5 0.147758 0.500000 0.145676
O O6 0.192797 0.300101 0.197857
O O7 0.136368 0.208574 0.120796
O O8 0.275396 0.339329 0.039242
O O9 0.219660 0.821990 0.751591
O O10 0.339742 0.000000 0.697326
O O11 0.750844 0.500000 0.431478
O O12 0.750000 0.250000 0.500000
O O13 0.819275 0.257842 0.337682
O O14 0.629384 0.500000 0.742014
O O15 0.568674 0.254364 0.834190
O O16 0.971778 0.500000 0.088457
O O17 0.083666 0.294411 0.046864
O O18 0.000000 0.268939 0.000000
O O19 0.595698 0.500000 0.063182
#
# Coordination Sequence:
#
# PCOD9224332 Si02
#       7
#     8   8   8   8   8   8   8
#     4   9  19  36  56  80 109 140 179 230 276 326
#     4   9  18  34  53  75 106 140 177 220 269 321
#     4   9  18  33  55  80 105 137 175 219 268 320
#     4  10  20  37  60  84 113 151 191 233 288 343
#     4  10  20  36  58  83 111 143 185 230 273 332
#     4  11  23  37  54  79 111 145 182 227 277 327
#     4  10  20  34  53  76 104 142 182 222 267 318
#
# _framework density 9.2092220000000005
#
# number of rings (size 3 to 8) (size 9 to 14) (size 15 to 20)
#    0.000    2.286    0.000    2.571    0.000    4.857 
#    2.571    0.000    0.000    0.000    0.000    0.000 
#    0.000    0.000    0.000    0.000    0.000    0.000 
#
# Total GULP energy -155972.860392 kJ/mol
# GULP energy per Si atom -5570.459300 kJ/mol
# Density = 0.918826 g / cm^3
# Si number density = 9.209222 Si / 1000 Ang^3
#
#
#
# Elastic Constant Matrix: (Units=GPa)
#
#
# Indices 1 2 3 4 5 6 
#
# 1 44.2736 22.3270 29.9775 0.0000 24.6646 0.0000
# 2 22.3270 42.3144 35.8309 0.0001 6.0306 0.0000
# 3 29.9775 35.8309 65.8330 0.0000 27.7231 0.0000
# 4 0.0000 0.0001 0.0000 31.3842 0.0000 2.7869
# 5 24.6646 6.0306 27.7231 0.0000 33.4544 0.0000
# 6 0.0000 0.0000 0.0000 2.7869 0.0000 21.6932
#
#
#
# Elastic Compliance Matrix: (Units=1/GPa)
#
#
# Indices 1 2 3 4 5 6 
#
# 1 0.056846 -0.032889 0.011009 0.000000 -0.045105 0.000000
# 2 -0.032889 0.071534 -0.044143 0.000000 0.047933 0.000000
# 3 0.011009 -0.044143 0.052639 0.000000 -0.043781 0.000000
# 4 0.000000 0.000000 0.000000 0.032231 0.000000 -0.004141
# 5 -0.045105 0.047933 -0.043781 0.000000 0.090785 0.000000
# 6 0.000000 0.000000 0.000000 -0.004141 0.000000 0.046629
#
#
# Mechanical properties :
#
#
# Convention : Reuss Voigt Hill
#
# Bulk Modulus (GPa) = 20.41888 36.52132 28.47010
# Shear Modulus (GPa) = 10.01936 21.59205 15.80571
#
# Velocity S-wave (km/s) = 2.33488 3.42761 2.93259
# Velocity P-wave (km/s) = 4.28708 5.96124 5.19208
#
# Compressibility (1/GPa) = 0.04897428
#
# Stress axis : x y z
#
# Youngs Moduli (GPa) = 17.59151 13.97933 18.99725
#
# Poissons Ratio (x) = 0.45976 -0.20915
# Poissons Ratio (y) = 0.57856 0.83860
# Poissons Ratio (z) = -0.19367 0.61709
#
# Static dielectric constant tensor:
#      x y z
#    x 1.679870 0.000000 0.022070 
#    y 0.000000 1.647600 0.000000 
#    z 0.022070 0.000000 1.759190 
# 
# From -- ./inp_files/287914.got.cif
#   From: 2010.05.17/outbox.ucp.g08.bks.cvg/sg12_144_cif.got.tgz:287914.got - 2010.06.11 11:47:21.
