data_PCOD9224773
_publ_section_title
;
Structure prediction by ZEFSAII (Michael W. Deem and Ramdas Pophale) SiO2 
 PCOD9224773
Probable space group: C 2/M
;
_chemical_formula_sum "Si O2"
_cell_formula_units_Z 32
_cell_length_a 30.000000
_cell_length_b 9.000000
_cell_length_c 15.000000
_cell_angle_alpha 90.000000
_cell_angle_beta 50.000000
_cell_angle_gamma 90.000000
_cell_volume 3102.479995
_symmetry_space_group_name_H-M "C 2/M"
_symmetry_group_IT_number 12
_symmetry_cell_setting 'monoclinic'
loop_
_space_group_symop_operation_xyz
x,y,z
-x,y,-z
-x,-y,-z
x,-y,z
1/2+x,1/2+y,z
1/2-x,1/2+y,-z
1/2-x,1/2-y,-z
1/2+x,1/2-y,z
loop_
_atom_site_type_symbol
_atom_site_label
_atom_site_fract_x
_atom_site_fract_y
_atom_site_fract_z
Si Si1 0.383313 0.821153 0.885424
Si Si2 0.262837 0.677998 0.706468
Si Si3 0.923550 0.322235 0.218041
Si Si4 0.868731 0.319763 0.109666
Si Si5 0.168899 0.821559 0.211361
Si Si6 0.493601 0.321698 0.278686
Si Si7 0.804444 0.323319 0.480710
Si Si8 0.559412 0.680008 0.472340
O O1 0.335799 0.760080 0.876822
O O2 0.444717 0.750891 0.777170
O O3 0.384446 0.000000 0.880881
O O4 0.376192 0.773143 0.997820
O O5 0.269354 0.500000 0.686061
O O6 0.196169 0.721142 0.775688
O O7 0.277725 0.708776 0.790626
O O8 0.303249 0.756928 0.581964
O O9 0.935161 0.500000 0.204063
O O10 0.913751 0.272766 0.128437
O O11 0.972515 0.238678 0.210908
O O12 0.863278 0.295700 0.349395
O O13 0.870708 0.500000 0.106665
O O14 0.114266 0.772174 0.343672
O O15 0.165595 0.000000 0.201085
O O16 0.498657 0.500000 0.272374
O O17 0.447935 0.276332 0.415061
O O18 0.796357 0.500000 0.494763
O O19 0.750000 0.250000 0.500000
O O20 0.500000 0.724950 0.500000
O O21 0.561979 0.500000 0.468555
#
# Coordination Sequence:
#
# PCOD9224773 Si02
#       8
#     8   8   8   8   8   8   8   8
#     4  11  23  39  59  81 112 154 198 239 288 346
#     4  10  20  38  62  86 115 155 198 236 287 348
#     4  10  21  39  60  83 116 154 192 230 283 349
#     4   9  20  40  60  79 111 158 199 234 283 351
#     4  10  20  36  60  86 114 149 189 237 292 347
#     4  11  22  38  61  87 115 145 190 242 289 343
#     4  11  21  35  60  90 122 155 190 236 287 343
#     4   9  16  31  55  80 110 146 176 214 282 353
#
# _framework density 10.314329000000001
#
# number of rings (size 3 to 8) (size 9 to 14) (size 15 to 20)
#    0.000    1.875    2.500    1.875    0.000    3.500 
#    0.000    6.875    0.000    0.000    0.000    0.000 
#    0.000    0.000    0.000    0.000    0.000    0.000 
#
# Total GULP energy -178706.037004 kJ/mol
# GULP energy per Si atom -5584.563656 kJ/mol
# Density = 1.029085 g / cm^3
# Si number density = 10.314329 Si / 1000 Ang^3
#
#
#
# Elastic Constant Matrix: (Units=GPa)
#
#
# Indices 1 2 3 4 5 6 
#
# 1 102.3826 22.2673 7.6813 0.0000 34.6809 -0.0001
# 2 22.2673 35.8723 12.0814 0.0000 11.5631 -0.0004
# 3 7.6813 12.0814 55.0366 0.0000 33.7440 0.0000
# 4 0.0000 0.0000 0.0000 22.0009 0.0000 9.7616
# 5 34.6809 11.5631 33.7440 0.0000 41.1309 0.0000
# 6 -0.0001 -0.0004 0.0000 9.7616 0.0000 31.3095
#
#
#
# Elastic Compliance Matrix: (Units=1/GPa)
#
#
# Indices 1 2 3 4 5 6 
#
# 1 0.019653 -0.008795 0.015758 0.000000 -0.027026 0.000000
# 2 -0.008795 0.034823 -0.009982 0.000000 0.005815 0.000001
# 3 0.015758 -0.009982 0.049472 0.000000 -0.051068 0.000000
# 4 0.000000 0.000000 0.000000 0.052750 0.000000 -0.016446
# 5 -0.027026 0.005815 -0.051068 0.000000 0.087362 0.000000
# 6 0.000000 0.000001 0.000000 -0.016446 0.000000 0.037067
#
#
# Mechanical properties :
#
#
# Convention : Reuss Voigt Hill
#
# Bulk Modulus (GPa) = 10.21337 30.81685 20.51511
# Shear Modulus (GPa) = 15.63470 28.97236 22.30353
#
# Velocity S-wave (km/s) = 2.75601 3.75169 3.29171
# Velocity P-wave (km/s) = 3.88449 5.80846 4.94102
#
# Compressibility (1/GPa) = 0.09791090
#
# Stress axis : x y z
#
# Youngs Moduli (GPa) = 50.88384 28.71644 20.21330
#
# Poissons Ratio (x) = 0.25255 -0.31852
# Poissons Ratio (y) = 0.44750 0.20177
# Poissons Ratio (z) = -0.80183 0.28665
#
# Static dielectric constant tensor:
#      x y z
#    x 1.771390 0.000000 -0.000150 
#    y 0.000000 1.688070 0.000000 
#    z -0.000150 0.000000 1.759280 
# 
# From -- ./inp_files/249696.got.cif
#   From: 2010.05.17/outbox.ucp.g08.bks.cvg/sg12_125_cif.got.tgz:249696.got - 2010.06.11 11:47:21.
