data_PCOD9224894
_publ_section_title
;
Structure prediction by ZEFSAII (Michael W. Deem and Ramdas Pophale) SiO2 
 PCOD9224894
Probable space group: C 2/M
;
_chemical_formula_sum "Si O2"
_cell_formula_units_Z 32
_cell_length_a 24.000000
_cell_length_b 15.000000
_cell_length_c 18.000000
_cell_angle_alpha 90.000000
_cell_angle_beta 30.000000
_cell_angle_gamma 90.000000
_cell_volume 3240.000000
_symmetry_space_group_name_H-M "C 2/M"
_symmetry_group_IT_number 12
_symmetry_cell_setting 'monoclinic'
loop_
_space_group_symop_operation_xyz
x,y,z
-x,y,-z
-x,-y,-z
x,-y,z
1/2+x,1/2+y,z
1/2-x,1/2+y,-z
1/2-x,1/2-y,-z
1/2+x,1/2-y,z
loop_
_atom_site_type_symbol
_atom_site_label
_atom_site_fract_x
_atom_site_fract_y
_atom_site_fract_z
Si Si1 0.209110 0.606005 0.526848
Si Si2 0.872117 0.104669 0.212222
Si Si3 0.594719 0.608569 0.598545
Si Si4 0.549070 0.702015 0.105920
Si Si5 0.548633 0.098840 0.332720
Si Si6 0.051493 0.394959 0.162022
Si Si7 0.754727 0.648519 0.789307
Si Si8 0.915733 0.773130 0.532436
O O1 0.218811 0.500000 0.513401
O O2 0.272224 0.636727 0.381012
O O3 0.282418 0.633838 0.512253
O O4 0.080387 0.623549 0.676910
O O5 0.816351 0.106348 0.195660
O O6 0.972028 0.169941 0.124279
O O7 0.904466 0.000000 0.189904
O O8 0.580676 0.500000 0.615996
O O9 0.511520 0.658065 0.752482
O O10 0.586174 0.652043 0.527904
O O11 0.577666 0.807704 0.082310
O O12 0.668019 0.658214 0.955693
O O13 0.598905 0.110277 0.191514
O O14 0.637915 0.103056 0.296507
O O15 0.465350 0.180693 0.441498
O O16 0.494880 0.000000 0.394504
O O17 0.066783 0.500000 0.119562
O O18 0.800590 0.742165 0.703210
O O19 0.000000 0.800865 0.500000
#
# Coordination Sequence:
#
# PCOD9224894 Si02
#       8
#     8   8   8   8   8   8   8   8
#     4   8  17  33  58  88 112 147 196 243 290 344
#     4  10  21  36  57  90 125 154 193 241 302 371
#     4  10  21  39  62  88 119 161 207 249 297 357
#     4  11  23  38  61  89 122 158 197 250 305 362
#     4  10  21  39  62  88 116 153 198 245 298 354
#     4  10  20  37  61  88 117 150 199 254 296 341
#     4  11  24  37  58  87 126 161 195 241 310 362
#     4  10  22  40  59  88 119 157 202 254 294 356
#
# _framework density 9.8765429999999999
#
# number of rings (size 3 to 8) (size 9 to 14) (size 15 to 20)
#    0.000    2.000    1.250    2.625    1.750    8.000 
#    0.000    0.625    0.000    1.500    0.000    0.000 
#    0.000    0.000    0.000    0.000    0.000    0.000 
#
# Total GULP energy -178236.709242 kJ/mol
# GULP energy per Si atom -5569.897164 kJ/mol
# Density = 0.985406 g / cm^3
# Si number density = 9.876543 Si / 1000 Ang^3
#
#
#
# Elastic Constant Matrix: (Units=GPa)
#
#
# Indices 1 2 3 4 5 6 
#
# 1 108.7741 39.3621 11.2205 0.0000 12.0624 0.0000
# 2 39.3621 92.4801 1.8041 0.0000 7.5189 0.0000
# 3 11.2205 1.8041 31.6413 0.0000 -1.9637 0.0000
# 4 0.0000 0.0000 0.0000 -4.0675 0.0000 -11.4379
# 5 12.0624 7.5189 -1.9637 0.0000 5.7329 0.0000
# 6 0.0000 0.0000 0.0000 -11.4379 0.0000 14.0589
#
#
#
# Elastic Compliance Matrix: (Units=1/GPa)
#
#
# Indices 1 2 3 4 5 6 
#
# 1 0.014242 -0.003712 -0.006535 0.000000 -0.027337 0.000000
# 2 -0.003712 0.013163 -0.000021 0.000000 -0.009461 0.000000
# 3 -0.006535 -0.000021 0.035533 0.000000 0.025950 0.000000
# 4 0.000000 0.000000 0.000000 -0.074777 0.000000 -0.060836
# 5 -0.027337 -0.009461 0.025950 0.000000 0.253245 0.000000
# 6 0.000000 0.000000 0.000000 -0.060836 0.000000 0.021635
#
#
# Mechanical properties :
#
#
# Convention : Reuss Voigt Hill
#
# Bulk Modulus (GPa) = 23.58429 37.51877 30.55153
# Shear Modulus (GPa) = 16.79478 15.17878 15.98678
#
# Velocity S-wave (km/s) = 2.91904 2.77506 2.84796
# Velocity P-wave (km/s) = 4.82976 5.41323 5.12979
#
# Compressibility (1/GPa) = 0.04240111
#
# Stress axis : x y z
#
# Youngs Moduli (GPa) = 70.21395 75.97288 28.14250
#
# Poissons Ratio (x) = 0.28200 0.18392
# Poissons Ratio (y) = 0.26062 0.00060
# Poissons Ratio (z) = 0.45887 0.00162
#
# Static dielectric constant tensor:
#      x y z
#    x 1.722670 0.000000 0.011540 
#    y 0.000000 1.708120 0.000000 
#    z 0.011540 0.000000 1.755730 
# 
# From -- ./inp_files/290090.got.cif
#   From: 2010.05.17/outbox.ucp.g08.bks.cvg/sg12_146_cif.got.tgz:290090.got - 2010.06.11 11:47:21.
