data_PCOD9224249
_publ_section_title
;
Structure prediction by ZEFSAII (Michael W. Deem and Ramdas Pophale) SiO2 
 PCOD9224249
Probable space group: C 2/M
;
_chemical_formula_sum "Si O2"
_cell_formula_units_Z 20
_cell_length_a 15.000000
_cell_length_b 9.000000
_cell_length_c 30.000000
_cell_angle_alpha 90.000000
_cell_angle_beta 150.000000
_cell_angle_gamma 90.000000
_cell_volume 2025.000000
_symmetry_space_group_name_H-M "C 2/M"
_symmetry_group_IT_number 12
_symmetry_cell_setting 'monoclinic'
loop_
_space_group_symop_operation_xyz
x,y,z
-x,y,-z
-x,-y,-z
x,-y,z
1/2+x,1/2+y,z
1/2-x,1/2+y,-z
1/2-x,1/2-y,-z
1/2+x,1/2-y,z
loop_
_atom_site_type_symbol
_atom_site_label
_atom_site_fract_x
_atom_site_fract_y
_atom_site_fract_z
Si Si1 0.040464 0.321415 0.622963
Si Si2 0.753641 0.322509 0.568308
Si Si3 0.354221 0.322358 0.700548
Si Si4 0.275679 0.181495 0.876406
Si Si5 0.888061 0.817187 0.021329
O O1 0.028300 0.500000 0.614371
O O2 0.244755 0.281630 0.698483
O O3 0.945143 0.281556 0.628358
O O4 0.904759 0.249145 0.528832
O O5 0.736154 0.500000 0.560411
O O6 0.751697 0.259061 0.616698
O O7 0.338956 0.500000 0.689422
O O8 0.562978 0.288668 0.783564
O O9 0.323159 0.255482 0.944999
O O10 0.302145 0.000000 0.888264
O O11 0.404838 0.254412 0.893864
O O12 0.888128 0.000000 0.024067
O O13 0.750000 0.750000 0.000000
#
# Coordination Sequence:
#
# PCOD9224249 Si02
#       5
#     8   8   8   8   8
#     4   9  19  36  53  72 104 145 183 220 269 323
#     4  10  20  33  52  78 106 140 185 230 267 311
#     4  10  21  36  55  78 108 144 177 217 271 325
#     4  10  21  38  58  85 115 143 183 229 274 330
#     4  11  22  39  62  85 111 146 182 221 274 330
#
# _framework density 9.8765429999999999
#
# number of rings (size 3 to 8) (size 9 to 14) (size 15 to 20)
#    0.000    2.000    0.000    4.800    0.000    7.200 
#    0.000    2.000    0.000    0.000    0.000    0.000 
#    0.000    0.000    0.000    0.000    0.000    0.000 
#
# Total GULP energy -111373.516867 kJ/mol
# GULP energy per Si atom -5568.675843 kJ/mol
# Density = 0.985406 g / cm^3
# Si number density = 9.876543 Si / 1000 Ang^3
#
#
#
# Elastic Constant Matrix: (Units=GPa)
#
#
# Indices 1 2 3 4 5 6 
#
# 1 162.9838 34.3903 25.6754 0.0000 40.2160 0.0000
# 2 34.3903 58.2185 9.9778 0.0000 12.8556 0.0000
# 3 25.6754 9.9778 35.9776 0.0000 25.1382 0.0000
# 4 0.0000 0.0000 0.0000 24.7551 0.0000 6.7566
# 5 40.2160 12.8556 25.1382 0.0000 41.6905 0.0000
# 6 0.0000 0.0000 0.0000 6.7566 0.0000 38.3901
#
#
#
# Elastic Compliance Matrix: (Units=1/GPa)
#
#
# Indices 1 2 3 4 5 6 
#
# 1 0.008676 -0.003507 -0.000219 0.000000 -0.007155 0.000000
# 2 -0.003507 0.019931 -0.001891 0.000000 -0.001622 0.000000
# 3 -0.000219 -0.001891 0.048248 0.000000 -0.028298 0.000000
# 4 0.000000 0.000000 0.000000 0.042434 0.000000 -0.007468
# 5 -0.007155 -0.001622 -0.028298 0.000000 0.048451 0.000000
# 6 0.000000 0.000000 0.000000 -0.007468 0.000000 0.027363
#
#
# Mechanical properties :
#
#
# Convention : Reuss Voigt Hill
#
# Bulk Modulus (GPa) = 15.23937 44.14076 29.69007
# Shear Modulus (GPa) = 21.90957 33.44290 27.67624
#
# Velocity S-wave (km/s) = 3.33404 4.11913 3.74720
# Velocity P-wave (km/s) = 4.74897 6.70953 5.81251
#
# Compressibility (1/GPa) = 0.06561951
#
# Stress axis : x y z
#
# Youngs Moduli (GPa) = 115.26464 50.17366 20.72626
#
# Poissons Ratio (x) = 0.17597 0.00455
# Poissons Ratio (y) = 0.40426 0.03919
# Poissons Ratio (z) = 0.02528 0.09487
#
# Static dielectric constant tensor:
#      x y z
#    x 1.732440 0.000000 0.046400 
#    y 0.000000 1.658500 0.000000 
#    z 0.046400 0.000000 1.753440 
# 
# From -- ./inp_files/266709.got.cif
#   From: 2010.05.17/outbox.ucp.g08.bks.cvg/sg12_134_cif.got.tgz:266709.got - 2010.06.11 11:47:21.
