data_PCOD9224353
_publ_section_title
;
Structure prediction by ZEFSAII (Michael W. Deem and Ramdas Pophale) SiO2 
 PCOD9224353
Probable space group: C 2/M
;
_chemical_formula_sum "Si O2"
_cell_formula_units_Z 32
_cell_length_a 30.000000
_cell_length_b 9.000000
_cell_length_c 15.000000
_cell_angle_alpha 90.000000
_cell_angle_beta 50.000000
_cell_angle_gamma 90.000000
_cell_volume 3102.479995
_symmetry_space_group_name_H-M "C 2/M"
_symmetry_group_IT_number 12
_symmetry_cell_setting 'monoclinic'
loop_
_space_group_symop_operation_xyz
x,y,z
-x,y,-z
-x,-y,-z
x,-y,z
1/2+x,1/2+y,z
1/2-x,1/2+y,-z
1/2-x,1/2-y,-z
1/2+x,1/2-y,z
loop_
_atom_site_type_symbol
_atom_site_label
_atom_site_fract_x
_atom_site_fract_y
_atom_site_fract_z
Si Si1 0.036002 0.325369 0.869693
Si Si2 0.949612 0.328108 0.491940
Si Si3 0.121293 0.166797 0.026167
Si Si4 0.169617 0.823632 0.351046
Si Si5 0.236500 0.323069 0.421756
Si Si6 0.972105 0.326530 0.765623
Si Si7 0.136848 0.823772 0.813809
Si Si8 0.755780 0.331944 0.898610
O O1 0.046026 0.500000 0.871583
O O2 0.097768 0.245953 0.787544
O O3 0.000042 0.308074 0.826634
O O4 0.000000 0.264372 0.000000
O O5 0.929835 0.500000 0.502909
O O6 0.895651 0.227406 0.585726
O O7 0.000000 0.331180 0.500000
O O8 0.981733 0.267136 0.363346
O O9 0.090163 0.251247 0.145954
O O10 0.096419 0.000000 0.055767
O O11 0.115990 0.240387 0.935516
O O12 0.189663 0.156622 0.950898
O O13 0.187536 0.752563 0.423576
O O14 0.208586 0.756298 0.221616
O O15 0.176167 0.000000 0.346505
O O16 0.226008 0.500000 0.444780
O O17 0.250000 0.250000 0.500000
O O18 0.295686 0.299854 0.289565
O O19 0.964480 0.500000 0.754782
O O20 0.127757 0.000000 0.828287
O O21 0.779369 0.500000 0.877919
O O22 0.750000 0.250000 0.000000
#
# Coordination Sequence:
#
# PCOD9224353 Si02
#       8
#     8   8   8   8   8   8   8   8
#     4  10  20  34  53  84 122 157 196 247 302 366
#     4  10  24  46  68  91 125 173 221 272 331 385
#     4  10  21  39  62  90 125 163 203 258 321 376
#     4  12  26  45  69 100 134 175 223 273 333 398
#     4  11  24  44  66  94 131 172 220 273 330 397
#     4  10  22  39  60  89 123 165 213 258 315 382
#     4  10  21  38  59  85 121 163 204 251 312 376
#     4  11  24  44  68  98 132 168 211 268 332 394
#
# _framework density 10.314329000000001
#
# number of rings (size 3 to 8) (size 9 to 14) (size 15 to 20)
#    0.000    1.500    2.500    1.875    3.500    3.500 
#    0.000    0.000    0.000    0.000    0.000    0.000 
#    0.000    0.000    0.000    0.000    0.000    0.000 
#
# Total GULP energy -178568.423624 kJ/mol
# GULP energy per Si atom -5580.263238 kJ/mol
# Density = 1.029085 g / cm^3
# Si number density = 10.314329 Si / 1000 Ang^3
#
#
#
# Elastic Constant Matrix: (Units=GPa)
#
#
# Indices 1 2 3 4 5 6 
#
# 1 43.6042 37.5138 19.5595 0.0000 -14.0397 0.0000
# 2 37.5138 49.1425 29.1320 0.0000 0.4768 0.0000
# 3 19.5595 29.1320 28.0268 0.0000 -8.2605 0.0000
# 4 0.0000 0.0000 0.0000 25.3624 0.0000 0.0835
# 5 -14.0397 0.4768 -8.2605 0.0000 22.0898 0.0000
# 6 0.0000 0.0000 0.0000 0.0835 0.0000 20.8028
#
#
#
# Elastic Compliance Matrix: (Units=1/GPa)
#
#
# Indices 1 2 3 4 5 6 
#
# 1 -0.280826 0.401624 -0.310906 0.000000 -0.303419 0.000000
# 2 0.401624 -0.506278 0.364594 0.000000 0.402531 0.000000
# 3 -0.310906 0.364594 -0.210024 0.000000 -0.284012 0.000000
# 4 0.000000 0.000000 0.000000 0.039429 0.000000 -0.000158
# 5 -0.303419 0.402531 -0.284012 0.000000 -0.262471 0.000000
# 6 0.000000 0.000000 0.000000 -0.000158 0.000000 0.048071
#
#
# Mechanical properties :
#
#
# Convention : Reuss Voigt Hill
#
# Bulk Modulus (GPa) = -11.56053 32.57599 10.50773
# Shear Modulus (GPa) = -2.36792 15.95556 6.79382
#
# Velocity S-wave (km/s) = -1.07255 2.78414 1.81674
# Velocity P-wave (km/s) = 2.67397 5.11480 3.08310
#
# Compressibility (1/GPa) = -0.08650125
#
# Stress axis : x y z
#
# Youngs Moduli (GPa) = -3.56093 -1.97520 -4.76137
#
# Poissons Ratio (x) = 0.79329 -1.48034
# Poissons Ratio (y) = 1.43015 1.73597
# Poissons Ratio (z) = -1.10711 0.72015
#
# Static dielectric constant tensor:
#      x y z
#    x 1.941840 0.000000 0.067860 
#    y 0.000000 1.750700 0.000000 
#    z 0.067860 0.000000 1.798630 
# 
# From -- ./inp_files/249861.got.cif
#   From: 2010.05.17/outbox.ucp.g08.bks.cvg/sg12_125_cif.got.tgz:249861.got - 2010.06.11 11:47:21.
