data_PCOD9224583
_publ_section_title
;
Structure prediction by ZEFSAII (Michael W. Deem and Ramdas Pophale) SiO2 
 PCOD9224583
Probable space group: C 2/M
;
_chemical_formula_sum "Si O2"
_cell_formula_units_Z 32
_cell_length_a 30.000000
_cell_length_b 9.000000
_cell_length_c 18.000000
_cell_angle_alpha 90.000000
_cell_angle_beta 40.000000
_cell_angle_gamma 90.000000
_cell_volume 3123.947783
_symmetry_space_group_name_H-M "C 2/M"
_symmetry_group_IT_number 12
_symmetry_cell_setting 'monoclinic'
loop_
_space_group_symop_operation_xyz
x,y,z
-x,y,-z
-x,-y,-z
x,-y,z
1/2+x,1/2+y,z
1/2-x,1/2+y,-z
1/2-x,1/2-y,-z
1/2+x,1/2-y,z
loop_
_atom_site_type_symbol
_atom_site_label
_atom_site_fract_x
_atom_site_fract_y
_atom_site_fract_z
Si Si1 0.081432 0.676923 0.656105
Si Si2 0.646818 0.329045 0.997119
Si Si3 0.564993 0.825920 0.215929
Si Si4 0.694110 0.675551 0.427810
Si Si5 0.796003 0.671468 0.735701
Si Si6 0.577857 0.677212 0.928178
Si Si7 0.429611 0.675878 0.634609
Si Si8 0.833553 0.320847 0.311455
O O1 0.090244 0.500000 0.642781
O O2 0.121554 0.747740 0.536456
O O3 0.120224 0.735702 0.679479
O O4 0.000832 0.707789 0.752561
O O5 0.630007 0.500000 0.039422
O O6 0.727217 0.323026 0.872891
O O7 0.599713 0.291442 0.985024
O O8 0.631011 0.218949 0.083945
O O9 0.559374 0.725981 0.295323
O O10 0.563881 0.000000 0.236872
O O11 0.686846 0.500000 0.442659
O O12 0.717757 0.725069 0.317056
O O13 0.753754 0.728650 0.408545
O O14 0.805464 0.500000 0.699816
O O15 0.864670 0.731612 0.687066
O O16 0.587885 0.500000 0.905029
O O17 0.629386 0.765767 0.809762
O O18 0.500000 0.712936 0.000000
O O19 0.500000 0.708073 0.500000
O O20 0.415417 0.500000 0.646522
O O21 0.833334 0.500000 0.313679
#
# Coordination Sequence:
#
# PCOD9224583 Si02
#       8
#     8   8   8   8   8   8   8   8
#     4  10  22  39  58  85 122 163 206 254 307 363
#     4  10  22  40  61  89 124 162 204 251 304 360
#     4  11  24  41  64  92 122 160 204 250 305 364
#     4  11  22  36  58  89 122 161 207 253 306 365
#     4  11  23  41  66  92 123 163 204 252 308 366
#     4  10  20  35  57  85 119 162 210 256 303 356
#     4  11  25  45  69  96 125 157 198 250 307 368
#     4  10  21  36  55  84 121 160 205 253 304 362
#
# _framework density 10.243449
#
# number of rings (size 3 to 8) (size 9 to 14) (size 15 to 20)
#    0.000    1.500    1.250    3.375    0.000    7.250 
#    0.000    0.000    0.000    0.000    0.000    0.000 
#    0.000    0.000    0.000    0.000    0.000    0.000 
#
# Total GULP energy -178693.881972 kJ/mol
# GULP energy per Si atom -5584.183812 kJ/mol
# Density = 1.022013 g / cm^3
# Si number density = 10.243449 Si / 1000 Ang^3
#
#
#
# Elastic Constant Matrix: (Units=GPa)
#
#
# Indices 1 2 3 4 5 6 
#
# 1 68.1458 24.8721 18.6823 -0.0045 -12.8886 -0.0009
# 2 24.8721 -90.9299 -13.4919 0.0090 -5.4305 -0.0182
# 3 18.6823 -13.4919 46.6110 -0.0046 -5.5835 -0.0091
# 4 -0.0045 0.0090 -0.0046 12.0057 -0.0012 -1.5064
# 5 -12.8886 -5.4305 -5.5835 -0.0012 22.4273 0.0027
# 6 -0.0009 -0.0182 -0.0091 -1.5064 0.0027 25.4154
#
#
#
# Elastic Compliance Matrix: (Units=1/GPa)
#
#
# Indices 1 2 3 4 5 6 
#
# 1 0.015909 0.004395 -0.004001 0.000002 0.009211 0.000001
# 2 0.004395 -0.009083 -0.004485 0.000006 -0.000790 -0.000008
# 3 -0.004001 -0.004485 0.022010 0.000011 0.002094 0.000005
# 4 0.000002 0.000006 0.000011 0.083918 0.000010 0.004974
# 5 0.009211 -0.000790 0.002094 0.000010 0.050212 -0.000004
# 6 0.000001 -0.000008 0.000005 0.004974 -0.000004 0.039641
#
#
# Mechanical properties :
#
#
# Convention : Reuss Voigt Hill
#
# Bulk Modulus (GPa) = 48.41482 9.32796 28.87139
# Shear Modulus (GPa) = 22.97001 11.55397 17.26199
#
# Velocity S-wave (km/s) = 3.35207 2.37738 2.90588
# Velocity P-wave (km/s) = 6.21814 3.47835 5.03806
#
# Compressibility (1/GPa) = 0.02065483
#
# Stress axis : x y z
#
# Youngs Moduli (GPa) = 62.85666 -110.10123 45.43305
#
# Poissons Ratio (x) = 0.48392 0.18178
# Poissons Ratio (y) = -0.27627 0.20378
# Poissons Ratio (z) = 0.25149 -0.49384
#
# Static dielectric constant tensor:
#      x y z
#    x 1.963480 0.000000 -0.167460 
#    y 0.000000 1.690260 0.000000 
#    z -0.167460 0.000000 1.880060 
# 
# From -- ./inp_files/295518.got.cif
#   From: 2010.05.17/outbox.ucp.g08.bks.cvg/sg12_148_cif.got.tgz:295518.got - 2010.06.11 11:47:21.
