data_PCOD9224898
_publ_section_title
;
Structure prediction by ZEFSAII (Michael W. Deem and Ramdas Pophale) SiO2 
 PCOD9224898
Probable space group: C 2/M
;
_chemical_formula_sum "Si O2"
_cell_formula_units_Z 32
_cell_length_a 30.000000
_cell_length_b 9.000000
_cell_length_c 18.000000
_cell_angle_alpha 90.000000
_cell_angle_beta 40.000000
_cell_angle_gamma 90.000000
_cell_volume 3123.947783
_symmetry_space_group_name_H-M "C 2/M"
_symmetry_group_IT_number 12
_symmetry_cell_setting 'monoclinic'
loop_
_space_group_symop_operation_xyz
x,y,z
-x,y,-z
-x,-y,-z
x,-y,z
1/2+x,1/2+y,z
1/2-x,1/2+y,-z
1/2-x,1/2-y,-z
1/2+x,1/2-y,z
loop_
_atom_site_type_symbol
_atom_site_label
_atom_site_fract_x
_atom_site_fract_y
_atom_site_fract_z
Si Si1 0.315370 0.176469 0.955336
Si Si2 0.965443 0.680071 0.753971
Si Si3 0.069799 0.321876 0.737592
Si Si4 0.200995 0.823347 0.501197
Si Si5 0.334354 0.670046 0.086211
Si Si6 0.580963 0.668420 0.879568
Si Si7 0.048253 0.319051 0.505049
Si Si8 0.698158 0.830872 0.354161
O O1 0.327075 0.225205 0.025212
O O2 0.308521 0.000000 0.957713
O O3 0.250000 0.250000 0.000000
O O4 0.388958 0.227450 0.827968
O O5 0.964046 0.500000 0.756822
O O6 0.017147 0.727217 0.623580
O O7 0.995460 0.723094 0.796557
O O8 0.075788 0.500000 0.727373
O O9 0.125813 0.245027 0.613366
O O10 0.086102 0.265104 0.799124
O O11 0.250000 0.750000 0.500000
O O12 0.220725 0.770387 0.393868
O O13 0.201778 0.000000 0.506937
O O14 0.356408 0.500000 0.037934
O O15 0.382225 0.724725 0.092918
O O16 0.258439 0.660956 0.218065
O O17 0.608477 0.500000 0.830415
O O18 0.500000 0.658406 0.000000
O O19 0.046700 0.500000 0.503602
O O20 0.000000 0.264534 0.500000
O O21 0.128328 0.275797 0.403977
O O22 0.685577 0.000000 0.399091
#
# Coordination Sequence:
#
# PCOD9224898 Si02
#       8
#     8   8   8   8   8   8   8   8
#     4  11  24  41  63  89 120 159 203 252 302 356
#     4   9  19  36  59  88 120 153 201 249 294 357
#     4  11  21  37  61  89 120 155 200 254 303 359
#     4  12  24  38  58  86 122 162 201 243 298 360
#     4  10  22  39  60  87 119 156 200 247 298 357
#     4  10  21  37  57  85 123 164 204 249 301 361
#     4   9  17  31  58  89 114 148 195 247 296 349
#     4  10  20  37  61  88 120 156 200 249 298 356
#
# _framework density 10.243449
#
# number of rings (size 3 to 8) (size 9 to 14) (size 15 to 20)
#    0.000    1.750    1.250    3.375    1.750    2.250 
#    0.000    1.875    0.000    0.375    0.000    0.000 
#    0.000    0.000    0.000    0.000    0.000    0.000 
#
# Total GULP energy -178539.605625 kJ/mol
# GULP energy per Si atom -5579.362676 kJ/mol
# Density = 1.022013 g / cm^3
# Si number density = 10.243449 Si / 1000 Ang^3
#
#
#
# Elastic Constant Matrix: (Units=GPa)
#
#
# Indices 1 2 3 4 5 6 
#
# 1 150.2602 14.1478 17.7327 0.0029 -22.9601 0.0003
# 2 14.1478 53.5866 -0.9487 0.0266 -1.4828 -0.0068
# 3 17.7327 -0.9487 40.8607 0.0161 -16.5783 -0.0057
# 4 0.0029 0.0266 0.0161 11.1297 -0.0061 0.7297
# 5 -22.9601 -1.4828 -16.5783 -0.0061 27.9912 -0.0004
# 6 0.0003 -0.0068 -0.0057 0.7297 -0.0004 21.8672
#
#
#
# Elastic Compliance Matrix: (Units=1/GPa)
#
#
# Indices 1 2 3 4 5 6 
#
# 1 0.007835 -0.001933 -0.001157 0.000007 0.005639 -0.000001
# 2 -0.001933 0.019203 0.001388 -0.000048 0.000253 0.000008
# 3 -0.001157 0.001388 0.032450 -0.000041 0.018344 0.000011
# 4 0.000007 -0.000048 -0.000041 0.090047 -0.000001 -0.003005
# 5 0.005639 0.000253 0.018344 -0.000001 0.051229 0.000006
# 6 -0.000001 0.000008 0.000011 -0.003005 0.000006 0.045831
#
#
# Mechanical properties :
#
#
# Convention : Reuss Voigt Hill
#
# Bulk Modulus (GPa) = 17.83056 34.06346 25.94701
# Shear Modulus (GPa) = 18.60840 26.44932 22.52886
#
# Velocity S-wave (km/s) = 3.01708 3.59700 3.31973
# Velocity P-wave (km/s) = 4.56720 5.82359 5.23324
#
# Compressibility (1/GPa) = 0.05608349
#
# Stress axis : x y z
#
# Youngs Moduli (GPa) = 127.62592 52.07418 30.81634
#
# Poissons Ratio (x) = 0.10067 0.03566
# Poissons Ratio (y) = 0.24672 -0.04276
# Poissons Ratio (z) = 0.14770 -0.07226
#
# Static dielectric constant tensor:
#      x y z
#    x 1.726680 0.000000 -0.022560 
#    y 0.000000 1.727980 0.000000 
#    z -0.022560 0.000000 1.794330 
# 
# From -- ./inp_files/295571.got.cif
#   From: 2010.05.17/outbox.ucp.g08.bks.cvg/sg12_148_cif.got.tgz:295571.got - 2010.06.11 11:47:21.
