data_PCOD9224911
_publ_section_title
;
Structure prediction by ZEFSAII (Michael W. Deem and Ramdas Pophale) SiO2 
 PCOD9224911
Probable space group: C 2/M
;
_chemical_formula_sum "Si O2"
_cell_formula_units_Z 28
_cell_length_a 18.000000
_cell_length_b 9.000000
_cell_length_c 18.000000
_cell_angle_alpha 90.000000
_cell_angle_beta 70.000000
_cell_angle_gamma 90.000000
_cell_volume 2740.143682
_symmetry_space_group_name_H-M "C 2/M"
_symmetry_group_IT_number 12
_symmetry_cell_setting 'monoclinic'
loop_
_space_group_symop_operation_xyz
x,y,z
-x,y,-z
-x,-y,-z
x,-y,z
1/2+x,1/2+y,z
1/2-x,1/2+y,-z
1/2-x,1/2-y,-z
1/2+x,1/2-y,z
loop_
_atom_site_type_symbol
_atom_site_label
_atom_site_fract_x
_atom_site_fract_y
_atom_site_fract_z
Si Si1 0.858918 0.680088 0.638546
Si Si2 0.235889 0.333004 0.928648
Si Si3 0.282454 0.678285 0.212441
Si Si4 0.983857 0.678917 0.332554
Si Si5 0.664412 0.820987 0.520985
Si Si6 0.063509 0.656684 0.041546
Si Si7 0.536570 0.674687 0.816115
O O1 0.858649 0.500000 0.643537
O O2 0.774660 0.728279 0.701238
O O3 0.865704 0.718217 0.550584
O O4 0.936087 0.733445 0.655552
O O5 0.267886 0.500000 0.916714
O O6 0.256629 0.243690 0.848404
O O7 0.250000 0.250000 0.000000
O O8 0.141949 0.335737 0.967208
O O9 0.281420 0.500000 0.208240
O O10 0.374645 0.721425 0.188577
O O11 0.984208 0.500000 0.336542
O O12 0.902560 0.730018 0.398923
O O13 0.982622 0.734218 0.250012
O O14 0.750000 0.750000 0.500000
O O15 0.671754 0.000000 0.523682
O O16 0.066231 0.500000 0.084489
O O17 0.034225 0.788782 0.102962
O O18 0.000000 0.648372 0.000000
O O19 0.539933 0.500000 0.800571
#
# Coordination Sequence:
#
# PCOD9224911 Si02
#       7
#     8   8   8   8   8   8   8
#     4   9  19  37  60  84 114 152 194 235 279 339
#     4  11  24  40  60  84 115 151 192 243 291 345
#     4  10  21  38  58  82 114 154 194 237 290 344
#     4  10  21  37  60  87 115 152 196 238 283 344
#     4  10  20  37  62  89 117 151 192 236 284 341
#     4  10  21  40  62  83 111 153 198 240 287 344
#     4  11  23  37  58  87 120 152 190 245 294 340
#
# _framework density 10.218442
#
# number of rings (size 3 to 8) (size 9 to 14) (size 15 to 20)
#    0.000    1.857    1.429    2.143    2.000    5.429 
#    0.000    1.429    0.000    1.714    0.000    0.000 
#    0.000    0.000    0.000    0.000    0.000    0.000 
#
# Total GULP energy -155973.571072 kJ/mol
# GULP energy per Si atom -5570.484681 kJ/mol
# Density = 1.019518 g / cm^3
# Si number density = 10.218442 Si / 1000 Ang^3
#
#
#
# Elastic Constant Matrix: (Units=GPa)
#
#
# Indices 1 2 3 4 5 6 
#
# 1 28.3756 15.6811 -12.5946 0.0000 10.6675 0.0000
# 2 15.6811 2.6015 1.1270 0.0000 -3.8930 0.0000
# 3 -12.5946 1.1270 56.5210 0.0000 -1.9143 0.0000
# 4 0.0000 0.0000 0.0000 16.4934 0.0000 -1.2858
# 5 10.6675 -3.8930 -1.9143 0.0000 26.5650 0.0000
# 6 0.0000 0.0000 0.0000 -1.2858 0.0000 21.0253
#
#
#
# Elastic Compliance Matrix: (Units=1/GPa)
#
#
# Indices 1 2 3 4 5 6 
#
# 1 -0.007766 0.067032 -0.002635 0.000000 0.012752 0.000000
# 2 0.067032 -0.083152 0.015308 0.000000 -0.038000 0.000000
# 3 -0.002635 0.015308 0.016953 0.000000 0.004523 0.000000
# 4 0.000000 0.000000 0.000000 0.060921 0.000000 0.003726
# 5 0.012752 -0.038000 0.004523 0.000000 0.027280 0.000000
# 6 0.000000 0.000000 0.000000 0.003726 0.000000 0.047790
#
#
# Mechanical properties :
#
#
# Convention : Reuss Voigt Hill
#
# Bulk Modulus (GPa) = 11.70339 10.65835 11.18087
# Shear Modulus (GPa) = -72.56723 18.36904 -27.09909
#
# Velocity S-wave (km/s) = -5.96532 3.00128 -3.64536
# Velocity P-wave (km/s) = 6.45815 4.15173 3.49792
#
# Compressibility (1/GPa) = 0.08544530
#
# Stress axis : x y z
#
# Youngs Moduli (GPa) = -128.77087 -12.02618 58.98556
#
# Poissons Ratio (x) = 0.80614 0.15544
# Poissons Ratio (y) = 8.63179 -0.90294
# Poissons Ratio (z) = -0.33933 0.18410
#
# Static dielectric constant tensor:
#      x y z
#    x 1.735500 0.000000 0.003160 
#    y 0.000000 1.777420 0.000000 
#    z 0.003160 0.000000 1.698860 
# 
# From -- ./inp_files/274993.got.cif
#   From: 2010.05.17/outbox.ucp.g08.bks.cvg/sg12_138_cif.got.tgz:274993.got - 2010.06.11 11:47:21.
