data_PCOD9224804
_publ_section_title
;
Structure prediction by ZEFSAII (Michael W. Deem and Ramdas Pophale) SiO2 
 PCOD9224804
Probable space group: C 2/M
;
_chemical_formula_sum "Si O2"
_cell_formula_units_Z 32
_cell_length_a 24.000000
_cell_length_b 15.000000
_cell_length_c 18.000000
_cell_angle_alpha 90.000000
_cell_angle_beta 150.000000
_cell_angle_gamma 90.000000
_cell_volume 3240.000000
_symmetry_space_group_name_H-M "C 2/M"
_symmetry_group_IT_number 12
_symmetry_cell_setting 'monoclinic'
loop_
_space_group_symop_operation_xyz
x,y,z
-x,y,-z
-x,-y,-z
x,-y,z
1/2+x,1/2+y,z
1/2-x,1/2+y,-z
1/2-x,1/2-y,-z
1/2+x,1/2-y,z
loop_
_atom_site_type_symbol
_atom_site_label
_atom_site_fract_x
_atom_site_fract_y
_atom_site_fract_z
Si Si1 0.669457 0.265346 0.838814
Si Si2 0.077653 0.784863 0.396022
Si Si3 0.792272 0.609564 0.240376
Si Si4 0.158342 0.600195 0.531664
Si Si5 0.397255 0.401140 0.438103
Si Si6 0.310006 0.101890 0.904964
Si Si7 0.935019 0.220957 0.002927
Si Si8 0.113296 0.895287 0.295109
O O1 0.554228 0.292143 0.744452
O O2 0.662786 0.179024 0.773093
O O3 0.725944 0.350743 0.865385
O O4 0.750000 0.250000 0.000000
O O5 0.101006 0.679928 0.421025
O O6 0.118382 0.824609 0.520577
O O7 0.133532 0.844467 0.396451
O O8 0.786530 0.500000 0.215535
O O9 0.851983 0.613190 0.390662
O O10 0.673996 0.657021 0.123247
O O11 0.116850 0.500000 0.467529
O O12 0.285108 0.604474 0.646612
O O13 0.500000 0.380215 0.500000
O O14 0.425688 0.500000 0.502054
O O15 0.276348 0.407423 0.262151
O O16 0.348049 0.000000 0.967667
O O17 0.400055 0.179730 0.990766
O O18 0.016645 0.166453 0.150627
O O19 0.000000 0.228425 0.000000
O O20 0.083565 0.000000 0.272387
#
# Coordination Sequence:
#
# PCOD9224804 Si02
#       8
#     8   8   8   8   8   8   8   8
#     4  11  24  39  58  90 123 162 204 249 311 373
#     4  12  22  38  65  89 124 161 204 253 315 366
#     4  10  21  39  62  91 123 162 207 255 308 367
#     4  10  23  41  63  91 126 164 207 256 309 368
#     4  10  20  36  61  90 116 155 206 252 302 364
#     4  10  22  40  59  86 124 159 202 255 307 367
#     4  11  21  37  64  89 119 160 207 252 304 357
#     4  11  24  41  62  93 125 162 210 259 308 364
#
# _framework density 9.8765429999999999
#
# number of rings (size 3 to 8) (size 9 to 14) (size 15 to 20)
#    0.000    1.375    2.500    4.125    0.000    2.250 
#    0.000    3.125    0.000    0.000    0.000    0.000 
#    0.000    0.000    0.000    0.000    0.000    0.000 
#
# Total GULP energy -178155.247601 kJ/mol
# GULP energy per Si atom -5567.351488 kJ/mol
# Density = 0.985406 g / cm^3
# Si number density = 9.876543 Si / 1000 Ang^3
#
#
#
# Elastic Constant Matrix: (Units=GPa)
#
#
# Indices 1 2 3 4 5 6 
#
# 1 48.2156 21.5419 1.7859 0.0000 -6.5185 0.0000
# 2 21.5419 143.7824 6.4191 0.0000 -20.4030 0.0000
# 3 1.7859 6.4191 16.6666 0.0000 -7.0221 0.0000
# 4 0.0000 0.0000 0.0000 31.8996 0.0000 1.9439
# 5 -6.5185 -20.4030 -7.0221 0.0000 18.0196 0.0000
# 6 0.0000 0.0000 0.0000 1.9439 0.0000 19.3898
#
#
#
# Elastic Compliance Matrix: (Units=1/GPa)
#
#
# Indices 1 2 3 4 5 6 
#
# 1 0.022639 -0.002645 0.000935 0.000000 0.005559 0.000000
# 2 -0.002645 0.008607 0.000803 0.000000 0.009102 0.000000
# 3 0.000935 0.000803 0.071926 0.000000 0.029277 0.000000
# 4 0.000000 0.000000 0.000000 0.031541 0.000000 -0.003162
# 5 0.005559 0.009102 0.029277 0.000000 0.079221 0.000000
# 6 0.000000 0.000000 0.000000 -0.003162 0.000000 0.051890
#
#
# Mechanical properties :
#
#
# Convention : Reuss Voigt Hill
#
# Bulk Modulus (GPa) = 9.86596 29.79539 19.83067
# Shear Modulus (GPa) = 16.58803 25.78966 21.18885
#
# Velocity S-wave (km/s) = 2.90102 3.61723 3.27874
# Velocity P-wave (km/s) = 4.02824 5.70635 4.93909
#
# Compressibility (1/GPa) = 0.10135860
#
# Stress axis : x y z
#
# Youngs Moduli (GPa) = 44.17208 116.18645 13.90326
#
# Poissons Ratio (x) = 0.30727 -0.01300
# Poissons Ratio (y) = 0.11682 -0.01117
# Poissons Ratio (z) = -0.04131 -0.09332
#
# Static dielectric constant tensor:
#      x y z
#    x 1.761420 0.000000 -0.095490 
#    y 0.000000 1.754430 0.000000 
#    z -0.095490 0.000000 1.898660 
# 
# From -- ./inp_files/290125.got.cif
#   From: 2010.05.17/outbox.ucp.g08.bks.cvg/sg12_146_cif.got.tgz:290125.got - 2010.06.11 11:47:21.
