data_PCOD9224368
_publ_section_title
;
Structure prediction by ZEFSAII (Michael W. Deem and Ramdas Pophale) SiO2 
 PCOD9224368
Probable space group: C 2/M
;
_chemical_formula_sum "Si O2"
_cell_formula_units_Z 28
_cell_length_a 18.000000
_cell_length_b 9.000000
_cell_length_c 24.000000
_cell_angle_alpha 90.000000
_cell_angle_beta 50.000000
_cell_angle_gamma 90.000000
_cell_volume 2978.380795
_symmetry_space_group_name_H-M "C 2/M"
_symmetry_group_IT_number 12
_symmetry_cell_setting 'monoclinic'
loop_
_space_group_symop_operation_xyz
x,y,z
-x,y,-z
-x,-y,-z
x,-y,z
1/2+x,1/2+y,z
1/2-x,1/2+y,-z
1/2-x,1/2-y,-z
1/2+x,1/2-y,z
loop_
_atom_site_type_symbol
_atom_site_label
_atom_site_fract_x
_atom_site_fract_y
_atom_site_fract_z
Si Si1 0.014924 0.324536 0.363723
Si Si2 0.840321 0.828949 0.929788
Si Si3 0.631354 0.825927 0.775619
Si Si4 0.328162 0.675798 0.503045
Si Si5 0.811471 0.326785 0.631520
Si Si6 0.946708 0.673910 0.782583
Si Si7 0.522729 0.674332 0.925423
O O1 0.985310 0.500000 0.376094
O O2 0.100249 0.312060 0.367683
O O3 0.042371 0.281579 0.287104
O O4 0.929718 0.222526 0.427271
O O5 0.869279 0.760742 0.856617
O O6 0.927391 0.815523 0.932587
O O7 0.818989 0.000000 0.932070
O O8 0.750000 0.750000 0.000000
O O9 0.718874 0.731958 0.709173
O O10 0.545117 0.809113 0.771453
O O11 0.599112 0.767076 0.851942
O O12 0.655029 0.000000 0.767329
O O13 0.314134 0.500000 0.511103
O O14 0.250000 0.750000 0.500000
O O15 0.323469 0.738377 0.568150
O O16 0.801267 0.500000 0.622021
O O17 0.921413 0.500000 0.794908
O O18 0.552021 0.500000 0.913820
O O19 0.500000 0.722179 0.000000
#
# Coordination Sequence:
#
# PCOD9224368 Si02
#       7
#     8   8   8   8   8   8   8
#     4  10  22  40  61  86 117 152 189 232 283 337
#     4  10  20  34  54  79 108 142 182 229 278 332
#     4  10  20  35  57  83 112 147 189 237 285 337
#     4  12  25  41  63  88 116 151 191 234 280 335
#     4  11  23  39  60  86 118 153 189 232 282 337
#     4   9  19  37  58  79 107 145 187 229 276 332
#     4   9  19  36  56  77 105 145 190 233 281 339
#
# _framework density 9.4010809999999996
#
# number of rings (size 3 to 8) (size 9 to 14) (size 15 to 20)
#    0.000    1.857    0.000    3.857    0.000    7.143 
#    0.000    5.714    0.000    0.000    0.000    0.000 
#    0.000    0.000    0.000    0.000    0.000    0.000 
#
# Total GULP energy -156307.940906 kJ/mol
# GULP energy per Si atom -5582.426461 kJ/mol
# Density = 0.937968 g / cm^3
# Si number density = 9.401081 Si / 1000 Ang^3
#
#
#
# Elastic Constant Matrix: (Units=GPa)
#
#
# Indices 1 2 3 4 5 6 
#
# 1 42.3734 70.5936 52.9148 0.0000 24.6127 0.0001
# 2 70.5936 120.0631 104.1389 0.0000 2.4462 0.0002
# 3 52.9148 104.1389 159.2461 0.0000 30.1469 0.0000
# 4 0.0000 0.0000 0.0000 27.7733 0.0000 3.8450
# 5 24.6127 2.4462 30.1469 0.0000 39.4990 0.0000
# 6 0.0001 0.0002 0.0000 3.8450 0.0000 25.5721
#
#
#
# Elastic Compliance Matrix: (Units=1/GPa)
#
#
# Indices 1 2 3 4 5 6 
#
# 1 -0.039564 0.039849 -0.020003 0.000000 0.037452 0.000000
# 2 0.039849 -0.016955 0.002745 0.000000 -0.025876 0.000000
# 3 -0.020003 0.002745 0.010290 0.000000 0.004440 0.000000
# 4 0.000000 0.000000 0.000000 0.036771 0.000000 -0.005529
# 5 0.037452 -0.025876 0.004440 0.000000 0.000193 0.000000
# 6 0.000000 0.000000 0.000000 -0.005529 0.000000 0.039936
#
#
# Mechanical properties :
#
#
# Convention : Reuss Voigt Hill
#
# Bulk Modulus (GPa) = -956.31611 86.33079 -434.99266
# Shear Modulus (GPa) = -336.49824 24.83789 -155.83017
#
# Velocity S-wave (km/s) = -13.39240 3.63852 -9.11366
# Velocity P-wave (km/s) = 27.36542 7.97915 18.50945
#
# Compressibility (1/GPa) = -0.00104568
#
# Stress axis : x y z
#
# Youngs Moduli (GPa) = -25.27574 -58.97876 97.17751
#
# Poissons Ratio (x) = 2.35027 1.94387
# Poissons Ratio (y) = 1.00722 -0.26678
# Poissons Ratio (z) = -0.50560 0.16191
#
# Static dielectric constant tensor:
#      x y z
#    x 1.700030 0.000000 -0.025630 
#    y 0.000000 1.536250 0.000000 
#    z -0.025630 0.000000 1.626900 
# 
# From -- ./inp_files/275641.got.cif
#   From: 2010.05.17/outbox.ucp.g08.bks.cvg/sg12_138_cif.got.tgz:275641.got - 2010.06.11 11:47:21.
