data_PCOD9224002
_publ_section_title
;
Structure prediction by ZEFSAII (Michael W. Deem and Ramdas Pophale) SiO2 
 PCOD9224002
Probable space group: C 2/M
;
_chemical_formula_sum "Si O2"
_cell_formula_units_Z 32
_cell_length_a 9.000000
_cell_length_b 18.000000
_cell_length_c 30.000000
_cell_angle_alpha 90.000000
_cell_angle_beta 40.000000
_cell_angle_gamma 90.000000
_cell_volume 3123.947783
_symmetry_space_group_name_H-M "C 2/M"
_symmetry_group_IT_number 12
_symmetry_cell_setting 'monoclinic'
loop_
_space_group_symop_operation_xyz
x,y,z
-x,y,-z
-x,-y,-z
x,-y,z
1/2+x,1/2+y,z
1/2-x,1/2+y,-z
1/2-x,1/2-y,-z
1/2+x,1/2-y,z
loop_
_atom_site_type_symbol
_atom_site_label
_atom_site_fract_x
_atom_site_fract_y
_atom_site_fract_z
Si Si1 0.281262 0.585768 0.333393
Si Si2 0.763031 0.341540 0.570993
Si Si3 0.737668 0.911847 0.575791
Si Si4 0.913346 0.779855 0.246455
Si Si5 0.343476 0.298386 0.616353
Si Si6 0.259054 0.586615 0.958002
Si Si7 0.748507 0.315544 0.963779
Si Si8 0.612898 0.715640 0.845190
O O1 0.308342 0.500000 0.315364
O O2 0.354248 0.603099 0.367150
O O3 0.423382 0.641378 0.269401
O O4 0.003504 0.605074 0.394499
O O5 0.605277 0.320390 0.565998
O O6 0.815908 0.266511 0.586494
O O7 0.000000 0.375923 0.500000
O O8 0.711548 0.869415 0.628155
O O9 0.000000 0.889258 0.500000
O O10 0.745372 0.000000 0.578028
O O11 0.156636 0.739061 0.182042
O O12 0.802856 0.793842 0.224329
O O13 0.756471 0.729982 0.314187
O O14 0.310110 0.500000 0.937668
O O15 0.456668 0.643742 0.894451
O O16 0.233351 0.606193 0.016004
O O17 0.000000 0.604146 0.000000
O O18 0.953770 0.289060 0.885645
O O19 0.500000 0.311459 0.000000
O O20 0.750000 0.250000 0.000000
#
# Coordination Sequence:
#
# PCOD9224002 Si02
#       8
#     8   8   8   8   8   8   8   8
#     4  10  22  39  55  78 113 148 187 236 288 338
#     4  11  21  34  57  81 105 142 187 241 295 344
#     4  10  20  36  59  83 109 144 186 237 297 352
#     4  11  22  36  55  79 110 152 193 228 271 328
#     4  11  21  36  53  79 114 144 187 237 283 335
#     4  10  21  38  61  91 122 148 182 232 284 326
#     4  10  19  35  59  86 115 146 185 233 280 322
#     4  11  20  36  59  83 111 150 195 226 265 330
#
# _framework density 10.243449
#
# number of rings (size 3 to 8) (size 9 to 14) (size 15 to 20)
#    0.000    1.500    0.000    9.000    0.000    1.500 
#    0.000    1.250    0.000    3.000    0.000    0.000 
#    0.000    0.000    0.000    0.000    0.000    0.000 
#
# Total GULP energy -178317.753380 kJ/mol
# GULP energy per Si atom -5572.429793 kJ/mol
# Density = 1.022013 g / cm^3
# Si number density = 10.243449 Si / 1000 Ang^3
#
#
#
# Elastic Constant Matrix: (Units=GPa)
#
#
# Indices 1 2 3 4 5 6 
#
# 1 73.2362 50.8033 9.4250 0.0074 9.8663 0.0007
# 2 50.8033 35.7852 19.0180 -0.0036 -20.7813 0.0020
# 3 9.4250 19.0180 48.5139 0.0080 5.4543 0.0035
# 4 0.0074 -0.0036 0.0080 25.5040 -0.0049 -6.9284
# 5 9.8663 -20.7813 5.4543 -0.0049 25.7448 -0.0008
# 6 0.0007 0.0020 0.0035 -6.9284 -0.0008 19.5392
#
#
#
# Elastic Compliance Matrix: (Units=1/GPa)
#
#
# Indices 1 2 3 4 5 6 
#
# 1 -0.002933 0.021769 -0.010312 0.000013 0.020881 0.000005
# 2 0.021769 -0.026972 0.009967 -0.000022 -0.032226 -0.000009
# 3 -0.010312 0.009967 0.017783 -0.000001 0.008230 -0.000004
# 4 0.000013 -0.000022 -0.000001 0.043389 -0.000014 0.015385
# 5 0.020881 -0.032226 0.008230 -0.000014 0.003084 -0.000004
# 6 0.000005 -0.000009 -0.000004 0.015385 -0.000004 0.056635
#
#
# Mechanical properties :
#
#
# Convention : Reuss Voigt Hill
#
# Bulk Modulus (GPa) = 32.54318 35.11421 33.82870
# Shear Modulus (GPa) = 85.64652 19.37688 52.51170
#
# Velocity S-wave (km/s) = 6.47273 3.07875 5.06828
# Velocity P-wave (km/s) = 8.47237 5.46034 7.12728
#
# Compressibility (1/GPa) = 0.03072840
#
# Stress axis : x y z
#
# Youngs Moduli (GPa) = -341.00523 -37.07539 56.23235
#
# Poissons Ratio (x) = 0.80710 0.57984
# Poissons Ratio (y) = 7.42336 -0.56048
# Poissons Ratio (z) = -3.51629 0.36954
#
# Static dielectric constant tensor:
#      x y z
#    x 1.775620 0.000000 -0.006070 
#    y 0.000000 1.717180 0.000000 
#    z -0.006070 0.000000 1.781650 
# 
# From -- ./inp_files/372934.got.cif
#   From: 2010.05.17/outbox.ucp.g08.bks.cvg/sg12_187_cif.got.tgz:372934.got - 2010.06.11 11:47:21.
