data_PCOD9224382
_publ_section_title
;
Structure prediction by ZEFSAII (Michael W. Deem and Ramdas Pophale) SiO2 
 PCOD9224382
Probable space group: C 2/M
;
_chemical_formula_sum "Si O2"
_cell_formula_units_Z 32
_cell_length_a 24.000000
_cell_length_b 9.000000
_cell_length_c 30.000000
_cell_angle_alpha 90.000000
_cell_angle_beta 30.000000
_cell_angle_gamma 90.000000
_cell_volume 3240.000000
_symmetry_space_group_name_H-M "C 2/M"
_symmetry_group_IT_number 12
_symmetry_cell_setting 'monoclinic'
loop_
_space_group_symop_operation_xyz
x,y,z
-x,y,-z
-x,-y,-z
x,-y,z
1/2+x,1/2+y,z
1/2-x,1/2+y,-z
1/2-x,1/2-y,-z
1/2+x,1/2-y,z
loop_
_atom_site_type_symbol
_atom_site_label
_atom_site_fract_x
_atom_site_fract_y
_atom_site_fract_z
Si Si1 0.129273 0.322707 0.913024
Si Si2 0.950148 0.829697 0.446709
Si Si3 0.970605 0.821304 0.338702
Si Si4 0.575641 0.678812 0.728900
Si Si5 0.192600 0.664933 0.163023
Si Si6 0.304376 0.175277 0.617036
Si Si7 0.787641 0.829592 0.721629
Si Si8 0.356802 0.166180 0.907111
O O1 0.140960 0.500000 0.910826
O O2 0.188178 0.236688 0.911967
O O3 0.200911 0.281556 0.819614
O O4 0.000000 0.286626 0.000000
O O5 0.906991 0.744625 0.519378
O O6 0.913564 0.766487 0.423778
O O7 0.083884 0.829787 0.352256
O O8 0.912231 0.000000 0.477184
O O9 0.098274 0.768844 0.249038
O O10 0.925200 0.771972 0.322288
O O11 0.967069 0.000000 0.342969
O O12 0.562334 0.500000 0.738584
O O13 0.693338 0.719751 0.667597
O O14 0.474009 0.748154 0.827243
O O15 0.186473 0.500000 0.186983
O O16 0.166572 0.655639 0.129256
O O17 0.287237 0.229990 0.678580
O O18 0.315927 0.000000 0.608057
O O19 0.759096 0.000000 0.729613
O O20 0.365953 0.000000 0.919765
O O21 0.250000 0.250000 0.000000
#
# Coordination Sequence:
#
# PCOD9224382 Si02
#       8
#     8   8   8   8   8   8   8   8
#     4  10  21  38  60  85 111 145 191 234 279 338
#     4  10  20  36  60  85 109 146 195 239 282 340
#     4   9  17  35  61  82 106 146 189 228 276 334
#     4   9  20  38  57  80 115 152 188 233 284 339
#     4  10  20  34  54  82 114 142 177 230 286 333
#     4  11  24  38  54  83 119 154 190 235 291 341
#     4  10  21  39  59  82 112 149 195 238 278 339
#     4  10  21  36  57  85 113 147 190 232 279 339
#
# _framework density 9.8765429999999999
#
# number of rings (size 3 to 8) (size 9 to 14) (size 15 to 20)
#    0.000    2.125    1.250    1.500    0.000    7.250 
#    0.000    2.500    0.000    0.000    0.000    0.000 
#    0.000    0.000    0.000    0.000    0.000    0.000 
#
# Total GULP energy -178369.660976 kJ/mol
# GULP energy per Si atom -5574.051906 kJ/mol
# Density = 0.985406 g / cm^3
# Si number density = 9.876543 Si / 1000 Ang^3
#
#
#
# Elastic Constant Matrix: (Units=GPa)
#
#
# Indices 1 2 3 4 5 6 
#
# 1 33.5092 28.9132 5.8265 -0.0056 3.1556 0.0024
# 2 28.9132 1.4050 26.5969 -0.0044 -2.7464 -0.0017
# 3 5.8265 26.5969 82.2342 -0.0026 6.0986 0.0016
# 4 -0.0056 -0.0044 -0.0026 -3.3815 0.0058 -9.3447
# 5 3.1556 -2.7464 6.0986 0.0058 0.9421 -0.0032
# 6 0.0024 -0.0017 0.0016 -9.3447 -0.0032 17.7474
#
#
#
# Elastic Compliance Matrix: (Units=1/GPa)
#
#
# Indices 1 2 3 4 5 6 
#
# 1 0.013921 0.014081 -0.009861 0.000015 0.058259 0.000019
# 2 0.014081 -0.004745 0.009735 -0.000068 -0.124024 -0.000061
# 3 -0.009861 0.009735 0.009918 -0.000005 -0.002791 -0.000002
# 4 0.000015 -0.000068 -0.000005 -0.120454 0.000307 -0.063424
# 5 0.058259 -0.124024 -0.002791 0.000307 0.522865 0.000237
# 6 0.000019 -0.000061 -0.000002 -0.063424 0.000237 0.022951
#
#
# Mechanical properties :
#
#
# Convention : Reuss Voigt Hill
#
# Bulk Modulus (GPa) = 21.27526 26.64684 23.96105
# Shear Modulus (GPa) = 11.56838 6.78237 9.17538
#
# Velocity S-wave (km/s) = 2.42264 1.85500 2.15757
# Velocity P-wave (km/s) = 4.31504 4.25527 4.28526
#
# Compressibility (1/GPa) = 0.04700296
#
# Stress axis : x y z
#
# Youngs Moduli (GPa) = 71.83480 -210.73396 100.83124
#
# Poissons Ratio (x) = 2.96741 0.99432
# Poissons Ratio (y) = -1.01153 -0.98158
# Poissons Ratio (z) = 0.70838 2.05147
#
# Static dielectric constant tensor:
#      x y z
#    x 1.752210 0.000000 0.014000 
#    y 0.000000 1.703900 0.000000 
#    z 0.014000 0.000000 1.672280 
# 
# From -- ./inp_files/382268.got.cif
#   From: 2010.05.17/outbox.ucp.g08.bks.cvg/sg12_192_cif.got.tgz:382268.got - 2010.06.11 11:47:21.
