data_PCOD9224563
_publ_section_title
;
Structure prediction by ZEFSAII (Michael W. Deem and Ramdas Pophale) SiO2 
 PCOD9224563
Probable space group: C 2/M
;
_chemical_formula_sum "Si O2"
_cell_formula_units_Z 24
_cell_length_a 15.000000
_cell_length_b 9.000000
_cell_length_c 18.000000
_cell_angle_alpha 90.000000
_cell_angle_beta 90.000000
_cell_angle_gamma 90.000000
_cell_volume 2430.000000
_symmetry_space_group_name_H-M "C 2/M"
_symmetry_group_IT_number 12
_symmetry_cell_setting 'monoclinic'
loop_
_space_group_symop_operation_xyz
x,y,z
-x,y,-z
-x,-y,-z
x,-y,z
1/2+x,1/2+y,z
1/2-x,1/2+y,-z
1/2-x,1/2-y,-z
1/2+x,1/2-y,z
loop_
_atom_site_type_symbol
_atom_site_label
_atom_site_fract_x
_atom_site_fract_y
_atom_site_fract_z
Si Si1 0.050222 0.676525 0.656918
Si Si2 0.386072 0.674480 0.191733
Si Si3 0.870895 0.827059 0.679302
Si Si4 0.285673 0.822004 0.426323
Si Si5 0.915156 0.831885 0.852701
Si Si6 0.736709 0.173712 0.078100
O O1 0.051436 0.500000 0.661954
O O2 0.092330 0.739837 0.732866
O O3 0.114614 0.726645 0.591342
O O4 0.950880 0.732337 0.646557
O O5 0.371398 0.500000 0.209711
O O6 0.478653 0.682868 0.146260
O O7 0.304438 0.730859 0.142038
O O8 0.777500 0.782919 0.643620
O O9 0.881292 0.814938 0.767811
O O10 0.886099 0.000000 0.661619
O O11 0.250000 0.750000 0.500000
O O12 0.284372 0.000000 0.433369
O O13 0.863365 0.709748 0.898103
O O14 0.891970 0.000000 0.877213
O O15 0.753940 0.000000 0.071797
O O16 0.750000 0.250000 0.000000
#
# Coordination Sequence:
#
# PCOD9224563 Si02
#       6
#     8   8   8   8   8   8
#     4  10  20  35  57  83 107 134 176 227 268 306
#     4   9  20  38  58  79 106 142 178 213 263 323
#     4   9  19  37  58  79 106 142 179 215 265 324
#     4  10  22  37  53  77 110 146 180 217 265 318
#     4   9  18  36  59  79 103 137 177 220 263 312
#     4  11  23  37  54  79 110 143 178 216 262 315
#
# _framework density 9.8765429999999999
#
# number of rings (size 3 to 8) (size 9 to 14) (size 15 to 20)
#    0.000    2.333    0.000    3.000    0.000    8.667 
#    0.000    6.667    0.000    0.000    0.000    0.000 
#    0.000    0.000    0.000    0.000    0.000    0.000 
#
# Total GULP energy -133839.290152 kJ/mol
# GULP energy per Si atom -5576.637090 kJ/mol
# Density = 0.985406 g / cm^3
# Si number density = 9.876543 Si / 1000 Ang^3
#
#
#
# Elastic Constant Matrix: (Units=GPa)
#
#
# Indices 1 2 3 4 5 6 
#
# 1 48.1266 25.6363 0.2470 0.0000 -7.2467 0.0000
# 2 25.6363 15.4332 10.6799 0.0000 -15.7115 0.0000
# 3 0.2470 10.6799 -10.6979 0.0000 -10.1256 0.0000
# 4 0.0000 0.0000 0.0000 29.1718 0.0000 0.0982
# 5 -7.2467 -15.7115 -10.1256 0.0000 1.2307 0.0000
# 6 0.0000 0.0000 0.0000 0.0982 0.0000 27.1542
#
#
#
# Elastic Compliance Matrix: (Units=1/GPa)
#
#
# Indices 1 2 3 4 5 6 
#
# 1 0.022337 0.005041 -0.020467 0.000000 0.027486 0.000000
# 2 0.005041 -0.026991 0.030865 0.000000 -0.060955 0.000000
# 3 -0.020467 0.030865 -0.036645 0.000000 -0.027988 0.000000
# 4 0.000000 0.000000 0.000000 0.034280 0.000000 -0.000124
# 5 0.027486 -0.060955 -0.027988 0.000000 -0.034052 0.000000
# 6 0.000000 0.000000 0.000000 -0.000124 0.000000 0.036827
#
#
# Mechanical properties :
#
#
# Convention : Reuss Voigt Hill
#
# Bulk Modulus (GPa) = -95.94357 13.99871 -40.97243
# Shear Modulus (GPa) = -129.55296 12.59791 -58.47752
#
# Velocity S-wave (km/s) = -8.10732 2.52815 -5.44688
# Velocity P-wave (km/s) = 11.67540 3.95276 7.76823
#
# Compressibility (1/GPa) = -0.01042279
#
# Stress axis : x y z
#
# Youngs Moduli (GPa) = 44.76855 -37.04953 -27.28857
#
# Poissons Ratio (x) = 0.18676 -0.55852
# Poissons Ratio (y) = -0.22567 0.84225
# Poissons Ratio (z) = 0.91629 1.14352
#
# Static dielectric constant tensor:
#      x y z
#    x 1.669540 0.000000 -0.020200 
#    y 0.000000 1.663050 0.000000 
#    z -0.020200 0.000000 1.685110 
# 
# From -- ./inp_files/267656.got.cif
#   From: 2010.05.17/outbox.ucp.g08.bks.cvg/sg12_134_cif.got.tgz:267656.got - 2010.06.11 11:47:21.
