data_PCOD9224832
_publ_section_title
;
Structure prediction by ZEFSAII (Michael W. Deem and Ramdas Pophale) SiO2 
 PCOD9224832
Probable space group: C 2/M
;
_chemical_formula_sum "Si O2"
_cell_formula_units_Z 32
_cell_length_a 30.000000
_cell_length_b 9.000000
_cell_length_c 18.000000
_cell_angle_alpha 90.000000
_cell_angle_beta 40.000000
_cell_angle_gamma 90.000000
_cell_volume 3123.947783
_symmetry_space_group_name_H-M "C 2/M"
_symmetry_group_IT_number 12
_symmetry_cell_setting 'monoclinic'
loop_
_space_group_symop_operation_xyz
x,y,z
-x,y,-z
-x,-y,-z
x,-y,z
1/2+x,1/2+y,z
1/2-x,1/2+y,-z
1/2-x,1/2-y,-z
1/2+x,1/2-y,z
loop_
_atom_site_type_symbol
_atom_site_label
_atom_site_fract_x
_atom_site_fract_y
_atom_site_fract_z
Si Si1 0.891844 0.825893 0.334931
Si Si2 0.716218 0.820739 0.941869
Si Si3 0.148085 0.324395 0.168616
Si Si4 0.651136 0.171242 0.872142
Si Si5 0.709802 0.321794 0.658085
Si Si6 0.082017 0.675058 0.396785
Si Si7 0.020554 0.165937 0.060197
Si Si8 0.137681 0.679488 0.483823
O O1 0.825097 0.766012 0.373656
O O2 0.907736 0.739468 0.390091
O O3 0.954642 0.816866 0.196842
O O4 0.880276 0.000000 0.367220
O O5 0.651221 0.780476 0.078356
O O6 0.729889 0.000000 0.934615
O O7 0.776559 0.715871 0.894824
O O8 0.704256 0.795790 0.870625
O O9 0.134128 0.500000 0.184640
O O10 0.102199 0.254459 0.291954
O O11 0.661569 0.273758 0.787907
O O12 0.657481 0.000000 0.842192
O O13 0.576518 0.207278 0.001357
O O14 0.711232 0.500000 0.650562
O O15 0.785506 0.270841 0.588336
O O16 0.103305 0.500000 0.369035
O O17 0.114925 0.734685 0.431344
O O18 0.000000 0.679048 0.500000
O O19 0.050252 0.000000 0.035778
O O20 0.000000 0.172546 0.000000
O O21 0.135628 0.500000 0.485603
#
# Coordination Sequence:
#
# PCOD9224832 Si02
#       8
#     8   8   8   8   8   8   8   8
#     4  10  21  37  57  78 107 146 181 222 274 320
#     4   9  19  33  50  79 112 137 168 220 277 315
#     4   9  17  33  56  76 100 140 183 217 258 319
#     4  11  22  33  52  84 115 142 176 224 277 319
#     4  10  20  37  57  78 109 148 188 222 263 325
#     4   9  18  33  54  79 106 139 178 219 266 317
#     4  10  20  38  57  73 102 146 184 214 257 318
#     4  10  21  35  56  84 108 138 185 232 268 316
#
# _framework density 10.243449
#
# number of rings (size 3 to 8) (size 9 to 14) (size 15 to 20)
#    0.000    2.250    1.250    1.500    0.000    4.750 
#    0.000    3.125    0.000    1.500    0.000    0.000 
#    0.000    0.000    0.000    0.000    0.000    0.000 
#
# Total GULP energy -178153.787355 kJ/mol
# GULP energy per Si atom -5567.305855 kJ/mol
# Density = 1.022013 g / cm^3
# Si number density = 10.243449 Si / 1000 Ang^3
#
#
#
# Elastic Constant Matrix: (Units=GPa)
#
#
# Indices 1 2 3 4 5 6 
#
# 1 15.1337 -20.9555 -9.3306 -0.0023 13.1331 -0.0009
# 2 -20.9555 -29.3302 -13.1689 -0.0056 -4.4482 0.0020
# 3 -9.3306 -13.1689 67.8201 -0.0072 22.4640 0.0002
# 4 -0.0023 -0.0056 -0.0072 10.8487 0.0009 0.6388
# 5 13.1331 -4.4482 22.4640 0.0009 12.9191 -0.0005
# 6 -0.0009 0.0020 0.0002 0.6388 -0.0005 13.2518
#
#
#
# Elastic Compliance Matrix: (Units=1/GPa)
#
#
# Indices 1 2 3 4 5 6 
#
# 1 -0.054636 0.038570 -0.053822 -0.000041 0.162407 0.000000
# 2 0.038570 -0.058587 0.032070 0.000008 -0.115145 0.000006
# 3 -0.053822 0.032070 -0.019368 -0.000016 0.099432 -0.000003
# 4 -0.000041 0.000008 -0.000016 0.092439 0.000065 -0.004456
# 5 0.162407 -0.115145 0.099432 0.000065 -0.300233 0.000011
# 6 0.000000 0.000006 -0.000003 -0.004456 0.000011 0.075676
#
#
# Mechanical properties :
#
#
# Convention : Reuss Voigt Hill
#
# Bulk Modulus (GPa) = -10.10562 -3.69850 -6.90206
# Shear Modulus (GPa) = -15.09070 13.87582 -0.60744
#
# Velocity S-wave (km/s) = -2.71699 2.60533 -0.54511
# Velocity P-wave (km/s) = 3.84527 2.69093 1.94230
#
# Compressibility (1/GPa) = -0.09895481
#
# Stress axis : x y z
#
# Youngs Moduli (GPa) = -18.30299 -17.06851 -51.63270
#
# Poissons Ratio (x) = 0.65833 -2.77896
# Poissons Ratio (y) = 0.70595 1.65584
# Poissons Ratio (z) = -0.98510 0.54738
#
# Static dielectric constant tensor:
#      x y z
#    x 1.723540 0.000000 0.007820 
#    y 0.000000 1.702680 0.000000 
#    z 0.007820 0.000000 1.960890 
# 
# From -- ./inp_files/295589.got.cif
#   From: 2010.05.17/outbox.ucp.g08.bks.cvg/sg12_148_cif.got.tgz:295589.got - 2010.06.11 11:47:21.
