data_PCOD9224464
_publ_section_title
;
Structure prediction by ZEFSAII (Michael W. Deem and Ramdas Pophale) SiO2 
 PCOD9224464
Probable space group: C 2/M
;
_chemical_formula_sum "Si O2"
_cell_formula_units_Z 32
_cell_length_a 30.000000
_cell_length_b 9.000000
_cell_length_c 18.000000
_cell_angle_alpha 90.000000
_cell_angle_beta 140.000000
_cell_angle_gamma 90.000000
_cell_volume 3123.947783
_symmetry_space_group_name_H-M "C 2/M"
_symmetry_group_IT_number 12
_symmetry_cell_setting 'monoclinic'
loop_
_space_group_symop_operation_xyz
x,y,z
-x,y,-z
-x,-y,-z
x,-y,z
1/2+x,1/2+y,z
1/2-x,1/2+y,-z
1/2-x,1/2-y,-z
1/2+x,1/2-y,z
loop_
_atom_site_type_symbol
_atom_site_label
_atom_site_fract_x
_atom_site_fract_y
_atom_site_fract_z
Si Si1 0.161133 0.823637 0.460772
Si Si2 0.319453 0.333901 0.069924
Si Si3 0.068195 0.671265 0.447310
Si Si4 0.814314 0.170407 0.889861
Si Si5 0.828364 0.171325 0.320129
Si Si6 0.933832 0.828153 0.317251
Si Si7 0.426443 0.676641 0.929373
Si Si8 0.199843 0.175058 0.344692
O O1 0.089629 0.758256 0.400387
O O2 0.174496 0.776479 0.393388
O O3 0.231991 0.766387 0.590307
O O4 0.157952 0.000000 0.460244
O O5 0.314828 0.500000 0.096943
O O6 0.389879 0.268479 0.191739
O O7 0.250000 0.250000 0.000000
O O8 0.323100 0.343810 0.987715
O O9 0.059326 0.500000 0.421481
O O10 0.135182 0.708735 0.581545
O O11 0.003328 0.735200 0.409464
O O12 0.749302 0.275969 0.792879
O O13 0.886070 0.232662 0.949585
O O14 0.801289 0.000000 0.843768
O O15 0.877760 0.177172 0.310978
O O16 0.831407 0.000000 0.351240
O O17 0.955749 0.000000 0.336158
O O18 0.438168 0.500000 0.957230
O O19 0.366438 0.692710 0.791807
O O20 0.500000 0.741925 0.000000
O O21 0.218614 0.000000 0.371227
#
# Coordination Sequence:
#
# PCOD9224464 Si02
#       8
#     8   8   8   8   8   8   8   8
#     4  10  20  35  57  83 111 148 188 232 286 348
#     4  10  20  36  58  84 115 151 191 235 280 335
#     4  12  25  38  55  82 115 149 190 242 292 346
#     4  10  20  34  59  90 117 150 194 238 281 336
#     4  11  22  38  60  83 113 151 189 234 290 352
#     4  10  22  39  57  81 114 153 191 234 287 345
#     4   9  18  33  54  83 114 145 184 232 281 329
#     4   9  18  34  58  84 112 147 188 234 282 338
#
# _framework density 10.243449
#
# number of rings (size 3 to 8) (size 9 to 14) (size 15 to 20)
#    0.000    1.875    1.250    3.000    0.000    5.500 
#    0.000    3.750    0.000    1.500    0.000    0.000 
#    0.000    0.000    0.000    0.000    0.000    0.000 
#
# Total GULP energy -178256.653550 kJ/mol
# GULP energy per Si atom -5570.520423 kJ/mol
# Density = 1.022013 g / cm^3
# Si number density = 10.243449 Si / 1000 Ang^3
#
#
#
# Elastic Constant Matrix: (Units=GPa)
#
#
# Indices 1 2 3 4 5 6 
#
# 1 139.1194 27.9386 32.0218 0.0000 21.8773 0.0000
# 2 27.9386 33.6897 0.9808 0.0000 16.8765 0.0000
# 3 32.0218 0.9808 22.0565 0.0000 8.1797 0.0000
# 4 0.0000 0.0000 0.0000 19.0678 0.0000 6.4722
# 5 21.8773 16.8765 8.1797 0.0000 28.4198 0.0000
# 6 0.0000 0.0000 0.0000 6.4722 0.0000 21.2030
#
#
#
# Elastic Compliance Matrix: (Units=1/GPa)
#
#
# Indices 1 2 3 4 5 6 
#
# 1 0.014043 -0.012267 -0.020749 0.000000 0.002446 0.000000
# 2 -0.012267 0.054374 0.026715 0.000000 -0.030535 0.000000
# 3 -0.020749 0.026715 0.083104 0.000000 -0.023810 0.000000
# 4 0.000000 0.000000 0.000000 0.058506 0.000000 -0.017859
# 5 0.002446 -0.030535 -0.023810 0.000000 0.058289 0.000000
# 6 0.000000 0.000000 0.000000 -0.017859 0.000000 0.052614
#
#
# Mechanical properties :
#
#
# Convention : Reuss Voigt Hill
#
# Bulk Modulus (GPa) = 7.19845 35.19424 21.19634
# Shear Modulus (GPa) = 13.16347 22.66641 17.91494
#
# Velocity S-wave (km/s) = 2.53757 3.32985 2.96033
# Velocity P-wave (km/s) = 3.47951 5.65686 4.69612
#
# Compressibility (1/GPa) = 0.13891884
#
# Stress axis : x y z
#
# Youngs Moduli (GPa) = 71.21062 18.39120 12.03307
#
# Poissons Ratio (x) = 0.22561 0.24968
# Poissons Ratio (y) = 0.87354 -0.32147
# Poissons Ratio (z) = 1.47757 -0.49133
#
# Static dielectric constant tensor:
#      x y z
#    x 1.798420 0.000000 -0.109120 
#    y 0.000000 1.699870 0.000000 
#    z -0.109120 0.000000 1.816450 
# 
# From -- ./inp_files/295545.got.cif
#   From: 2010.05.17/outbox.ucp.g08.bks.cvg/sg12_148_cif.got.tgz:295545.got - 2010.06.11 11:47:21.
