data_PCOD9224772
_publ_section_title
;
Structure prediction by ZEFSAII (Michael W. Deem and Ramdas Pophale) SiO2 
 PCOD9224772
Probable space group: C 2/M
;
_chemical_formula_sum "Si O2"
_cell_formula_units_Z 20
_cell_length_a 9.000000
_cell_length_b 24.000000
_cell_length_c 18.000000
_cell_angle_alpha 90.000000
_cell_angle_beta 150.000000
_cell_angle_gamma 90.000000
_cell_volume 1944.000000
_symmetry_space_group_name_H-M "C 2/M"
_symmetry_group_IT_number 12
_symmetry_cell_setting 'monoclinic'
loop_
_space_group_symop_operation_xyz
x,y,z
-x,y,-z
-x,-y,-z
x,-y,z
1/2+x,1/2+y,z
1/2-x,1/2+y,-z
1/2-x,1/2-y,-z
1/2+x,1/2-y,z
loop_
_atom_site_type_symbol
_atom_site_label
_atom_site_fract_x
_atom_site_fract_y
_atom_site_fract_z
Si Si1 0.347237 0.064016 0.140392
Si Si2 0.623233 0.278120 0.136868
Si Si3 0.743517 0.063833 0.451123
Si Si4 0.753295 0.809888 0.457136
Si Si5 0.940163 0.657737 0.059112
O O1 0.464398 0.067317 0.275292
O O2 0.464396 0.109131 0.131074
O O3 0.406349 0.000000 0.140371
O O4 0.000000 0.073302 0.000000
O O5 0.637577 0.212519 0.164688
O O6 0.936734 0.306717 0.279306
O O7 0.500000 0.279001 0.000000
O O8 0.386371 0.313537 0.081188
O O9 0.771293 0.126347 0.500888
O O10 0.000000 0.062262 0.500000
O O11 0.745606 0.000000 0.487849
O O12 0.750000 0.750000 0.500000
O O13 0.000000 0.807404 0.500000
O O14 0.000000 0.639427 0.000000
#
# Coordination Sequence:
#
# PCOD9224772 Si02
#       5
#     8   8   8   8   8
#     4  10  20  36  60  85 111 150 199 244 286 347
#     4  10  22  39  58  81 117 165 199 233 299 368
#     4   9  19  36  58  82 111 153 194 233 289 354
#     4  11  25  38  60  92 124 151 196 261 300 346
#     4  10  21  33  59  84 117 153 195 239 293 352
#
# _framework density 10.288066000000001
#
# number of rings (size 3 to 8) (size 9 to 14) (size 15 to 20)
#    0.000    2.000    0.000    3.000   14.000    1.200 
#    0.000    0.000    0.000    0.600    0.000    0.000 
#    0.000    0.000    0.000    0.000    0.000    0.000 
#
# Total GULP energy -111397.061277 kJ/mol
# GULP energy per Si atom -5569.853064 kJ/mol
# Density = 1.026465 g / cm^3
# Si number density = 10.288066 Si / 1000 Ang^3
#
#
#
# Elastic Constant Matrix: (Units=GPa)
#
#
# Indices 1 2 3 4 5 6 
#
# 1 67.1537 38.5746 -0.2571 -0.0006 1.0379 0.0007
# 2 38.5746 214.8975 -2.9474 0.0018 -8.4442 -0.0001
# 3 -0.2571 -2.9474 49.1811 -0.0551 25.9163 -0.0190
# 4 -0.0006 0.0018 -0.0551 21.1304 -0.0044 -7.0295
# 5 1.0379 -8.4442 25.9163 -0.0044 27.7897 -0.0001
# 6 0.0007 -0.0001 -0.0190 -7.0295 -0.0001 42.3153
#
#
#
# Elastic Compliance Matrix: (Units=1/GPa)
#
#
# Indices 1 2 3 4 5 6 
#
# 1 0.016720 -0.003095 0.001429 0.000004 -0.002897 0.000001
# 2 -0.003095 0.005304 -0.001197 -0.000003 0.002843 -0.000001
# 3 0.001429 -0.001197 0.040287 0.000109 -0.037988 0.000036
# 4 0.000004 -0.000003 0.000109 0.050094 -0.000095 0.008322
# 5 -0.002897 0.002843 -0.037988 -0.000095 0.072384 -0.000033
# 6 0.000001 -0.000001 0.000036 0.008322 -0.000033 0.025015
#
#
# Mechanical properties :
#
#
# Convention : Reuss Voigt Hill
#
# Bulk Modulus (GPa) = 17.67284 44.66361 31.16823
# Shear Modulus (GPa) = 21.33191 37.97124 29.65158
#
# Velocity S-wave (km/s) = 3.22332 4.30048 3.80026
# Velocity P-wave (km/s) = 4.73928 6.81267 5.86827
#
# Compressibility (1/GPa) = 0.05658401
#
# Stress axis : x y z
#
# Youngs Moduli (GPa) = 59.81014 188.52499 24.82202
#
# Poissons Ratio (x) = 0.58357 -0.03546
# Poissons Ratio (y) = 0.18514 0.02970
# Poissons Ratio (z) = -0.08545 0.22559
#
# Static dielectric constant tensor:
#      x y z
#    x 1.969400 -0.000030 0.117380 
#    y -0.000030 1.840160 -0.000030 
#    z 0.117380 -0.000030 1.761810 
# 
# From -- ./inp_files/39350.got.cif
#   From: 2010.05.17/outbox.ucp.g08.bks.cvg/sg12_20_cif.got.tgz:39350.got - 2010.06.11 11:47:21.
