data_PCOD9224930
_publ_section_title
;
Structure prediction by ZEFSAII (Michael W. Deem and Ramdas Pophale) SiO2 
 PCOD9224930
Probable space group: C 2/M
;
_chemical_formula_sum "Si O2"
_cell_formula_units_Z 32
_cell_length_a 18.000000
_cell_length_b 15.000000
_cell_length_c 12.000000
_cell_angle_alpha 90.000000
_cell_angle_beta 90.000000
_cell_angle_gamma 90.000000
_cell_volume 3240.000000
_symmetry_space_group_name_H-M "C 2/M"
_symmetry_group_IT_number 12
_symmetry_cell_setting 'monoclinic'
loop_
_space_group_symop_operation_xyz
x,y,z
-x,y,-z
-x,-y,-z
x,-y,z
1/2+x,1/2+y,z
1/2-x,1/2+y,-z
1/2-x,1/2-y,-z
1/2+x,1/2-y,z
loop_
_atom_site_type_symbol
_atom_site_label
_atom_site_fract_x
_atom_site_fract_y
_atom_site_fract_z
Si Si1 0.175795 0.898518 0.312920
Si Si2 0.830604 0.399060 0.444357
Si Si3 0.698732 0.394132 0.060571
Si Si4 0.855302 0.603013 0.935480
Si Si5 0.422183 0.730823 0.048636
Si Si6 0.413641 0.599772 0.487805
Si Si7 0.634406 0.728672 0.701354
Si Si8 0.719567 0.106616 0.300396
O O1 0.250898 0.902425 0.383537
O O2 0.192654 0.863620 0.189656
O O3 0.119074 0.855213 0.400077
O O4 0.148013 0.000000 0.294047
O O5 0.863182 0.500000 0.434902
O O6 0.867314 0.319323 0.373028
O O7 0.816041 0.380547 0.576060
O O8 0.683074 0.500000 0.054164
O O9 0.779976 0.382831 0.007714
O O10 0.641211 0.337068 0.991012
O O11 0.878499 0.500000 0.950043
O O12 0.835308 0.616740 0.805220
O O13 0.910366 0.675392 0.985384
O O14 0.408049 0.740850 0.181321
O O15 0.500000 0.695438 0.000000
O O16 0.500000 0.590513 0.500000
O O17 0.379696 0.500000 0.477448
O O18 0.401134 0.654774 0.377613
O O19 0.716308 0.681985 0.715946
O O20 0.743857 0.000000 0.295798
#
# Coordination Sequence:
#
# PCOD9224930 Si02
#       8
#     8   8   8   8   8   8   8   8
#     4   9  18  33  56  86 118 151 191 239 293 354
#     4  10  21  37  60  95 124 148 193 251 312 363
#     4  10  21  38  63  92 122 161 205 255 309 361
#     4  10  22  43  68  88 116 162 211 264 314 357
#     4  12  28  42  58  90 127 168 211 255 301 373
#     4  10  22  38  57  84 122 164 199 238 296 372
#     4  12  23  38  62  90 120 165 200 251 307 360
#     4  10  20  37  64  96 122 150 197 259 317 365
#
# _framework density 9.8765429999999999
#
# number of rings (size 3 to 8) (size 9 to 14) (size 15 to 20)
#    0.000    1.625    2.500    1.875    3.500    2.500 
#    0.000    0.000    0.000    0.375    0.000    0.000 
#    0.000    0.000    0.000    0.000    0.000    0.000 
#
# Total GULP energy -178409.618498 kJ/mol
# GULP energy per Si atom -5575.300578 kJ/mol
# Density = 0.985406 g / cm^3
# Si number density = 9.876543 Si / 1000 Ang^3
#
#
#
# Elastic Constant Matrix: (Units=GPa)
#
#
# Indices 1 2 3 4 5 6 
#
# 1 19.3819 14.4667 16.7992 0.0000 -3.0857 0.0000
# 2 14.4667 68.7926 28.4689 0.0000 -3.8541 0.0000
# 3 16.7992 28.4689 175.7297 0.0000 -20.6645 0.0000
# 4 0.0000 0.0000 0.0000 37.9690 0.0000 0.7322
# 5 -3.0857 -3.8541 -20.6645 0.0000 7.1797 0.0000
# 6 0.0000 0.0000 0.0000 0.7322 0.0000 -11.1324
#
#
#
# Elastic Compliance Matrix: (Units=1/GPa)
#
#
# Indices 1 2 3 4 5 6 
#
# 1 0.064900 -0.011767 -0.002662 0.000000 0.013916 0.000000
# 2 -0.011767 0.017728 -0.001848 0.000000 -0.000860 0.000000
# 3 -0.002662 -0.001848 0.009059 0.000000 0.023939 0.000000
# 4 0.000000 0.000000 0.000000 0.026304 0.000000 0.001730
# 5 0.013916 -0.000860 0.023939 0.000000 0.213700 0.000000
# 6 0.000000 0.000000 0.000000 0.001730 0.000000 -0.089714
#
#
# Mechanical properties :
#
#
# Convention : Reuss Voigt Hill
#
# Bulk Modulus (GPa) = 16.91095 42.59709 29.75402
# Shear Modulus (GPa) = 16.99284 20.41455 18.70370
#
# Velocity S-wave (km/s) = 2.93621 3.21828 3.08047
# Velocity P-wave (km/s) = 4.48049 5.95158 5.26764
#
# Compressibility (1/GPa) = 0.05913328
#
# Stress axis : x y z
#
# Youngs Moduli (GPa) = 15.40835 56.40904 110.38243
#
# Poissons Ratio (x) = 0.66377 0.29379
# Poissons Ratio (y) = 0.18131 0.20401
# Poissons Ratio (z) = 0.04101 0.10426
#
# Static dielectric constant tensor:
#      x y z
#    x 1.754940 0.000000 -0.008360 
#    y 0.000000 1.748140 0.000000 
#    z -0.008360 0.000000 1.689350 
# 
# From -- ./inp_files/156627.got.cif
#   From: 2010.05.17/outbox.ucp.g08.bks.cvg/sg12_79_cif.got.tgz:156627.got - 2010.06.11 11:47:21.
