data_PCOD9224494
_publ_section_title
;
Structure prediction by ZEFSAII (Michael W. Deem and Ramdas Pophale) SiO2 
 PCOD9224494
Probable space group: C 2/M
;
_chemical_formula_sum "Si O2"
_cell_formula_units_Z 28
_cell_length_a 15.000000
_cell_length_b 9.000000
_cell_length_c 30.000000
_cell_angle_alpha 90.000000
_cell_angle_beta 130.000000
_cell_angle_gamma 90.000000
_cell_volume 3102.479995
_symmetry_space_group_name_H-M "C 2/M"
_symmetry_group_IT_number 12
_symmetry_cell_setting 'monoclinic'
loop_
_space_group_symop_operation_xyz
x,y,z
-x,y,-z
-x,-y,-z
x,-y,z
1/2+x,1/2+y,z
1/2-x,1/2+y,-z
1/2-x,1/2-y,-z
1/2+x,1/2-y,z
loop_
_atom_site_type_symbol
_atom_site_label
_atom_site_fract_x
_atom_site_fract_y
_atom_site_fract_z
Si Si1 0.823870 0.318619 0.652832
Si Si2 0.186016 0.322936 0.142638
Si Si3 0.147622 0.181075 0.436965
Si Si4 0.395361 0.821353 0.362585
Si Si5 0.698477 0.323446 0.051258
Si Si6 0.570421 0.822587 0.927369
Si Si7 0.907457 0.674703 0.259312
O O1 0.812569 0.500000 0.646554
O O2 0.825586 0.244846 0.604102
O O3 0.716816 0.251539 0.648050
O O4 0.958628 0.286695 0.711372
O O5 0.194149 0.500000 0.144490
O O6 0.174680 0.259689 0.089308
O O7 0.303379 0.259623 0.201740
O O8 0.062859 0.283173 0.126830
O O9 0.250000 0.250000 0.500000
O O10 0.020794 0.242926 0.412714
O O11 0.147510 0.000000 0.437162
O O12 0.389262 0.803910 0.306752
O O13 0.399890 0.000000 0.373450
O O14 0.683549 0.500000 0.051553
O O15 0.831868 0.293970 0.078592
O O16 0.615275 0.263535 0.985408
O O17 0.573987 0.000000 0.937816
O O18 0.894227 0.500000 0.245633
#
# Coordination Sequence:
#
# PCOD9224494 Si02
#       7
#     8   8   8   8   8   8   8
#     4  10  21  39  61  85 114 151 190 232 282 332
#     4  11  22  35  54  78 106 140 178 220 270 326
#     4  11  22  38  60  88 121 154 190 234 279 328
#     4  10  21  39  61  86 115 150 190 233 281 333
#     4  10  20  35  55  77 103 136 174 218 270 326
#     4   9  20  37  53  74 105 138 172 215 268 327
#     4   9  21  39  56  78 111 144 182 230 274 323
#
# _framework density 9.0250380000000003
#
# number of rings (size 3 to 8) (size 9 to 14) (size 15 to 20)
#    0.000    2.000    0.000    4.286    0.000    8.571 
#    0.000    7.143    0.000    0.000    0.000    0.000 
#    0.000    0.000    0.000    0.000    0.000    0.000 
#
# Total GULP energy -156201.039890 kJ/mol
# GULP energy per Si atom -5578.608567 kJ/mol
# Density = 0.900450 g / cm^3
# Si number density = 9.025038 Si / 1000 Ang^3
#
#
#
# Elastic Constant Matrix: (Units=GPa)
#
#
# Indices 1 2 3 4 5 6 
#
# 1 143.7674 51.7250 33.2216 0.0000 35.7446 0.0000
# 2 51.7250 82.8837 24.4560 0.0000 18.5146 0.0000
# 3 33.2216 24.4560 37.8558 0.0000 29.1631 0.0000
# 4 0.0000 0.0000 0.0000 35.1111 0.0000 3.3072
# 5 35.7446 18.5146 29.1631 0.0000 31.0779 0.0000
# 6 0.0000 0.0000 0.0000 3.3072 0.0000 37.5050
#
#
#
# Elastic Compliance Matrix: (Units=1/GPa)
#
#
# Indices 1 2 3 4 5 6 
#
# 1 0.011281 -0.005155 0.003825 0.000000 -0.013494 0.000000
# 2 -0.005155 0.017265 -0.011814 0.000000 0.006729 0.000000
# 3 0.003825 -0.011814 0.103425 0.000000 -0.094414 0.000000
# 4 0.000000 0.000000 0.000000 0.028720 0.000000 -0.002532
# 5 -0.013494 0.006729 -0.094414 0.000000 0.132285 0.000000
# 6 0.000000 0.000000 0.000000 -0.002532 0.000000 0.026886
#
#
# Mechanical properties :
#
#
# Convention : Reuss Voigt Hill
#
# Bulk Modulus (GPa) = 9.46216 53.70135 31.58176
# Shear Modulus (GPa) = 13.11038 31.07910 22.09474
#
# Velocity S-wave (km/s) = 2.69798 4.15399 3.50248
# Velocity P-wave (km/s) = 3.86769 7.26797 5.82162
#
# Compressibility (1/GPa) = 0.10568410
#
# Stress axis : x y z
#
# Youngs Moduli (GPa) = 88.64236 57.92199 9.66882
#
# Poissons Ratio (x) = 0.29857 -0.03698
# Poissons Ratio (y) = 0.45692 0.11423
# Poissons Ratio (z) = -0.33906 0.68428
#
# Static dielectric constant tensor:
#      x y z
#    x 1.623470 0.000000 0.016110 
#    y 0.000000 1.606390 0.000000 
#    z 0.016110 0.000000 1.622970 
# 
# From -- ./inp_files/375134.got.cif
#   From: 2010.05.17/outbox.ucp.g08.bks.cvg/sg12_188_cif.got.tgz:375134.got - 2010.06.11 11:47:21.
