data_PCOD9224512
_publ_section_title
;
Structure prediction by ZEFSAII (Michael W. Deem and Ramdas Pophale) SiO2 
 PCOD9224512
Probable space group: C 2/M
;
_chemical_formula_sum "Si O2"
_cell_formula_units_Z 32
_cell_length_a 27.000000
_cell_length_b 15.000000
_cell_length_c 12.000000
_cell_angle_alpha 90.000000
_cell_angle_beta 40.000000
_cell_angle_gamma 90.000000
_cell_volume 3123.947783
_symmetry_space_group_name_H-M "C 2/M"
_symmetry_group_IT_number 12
_symmetry_cell_setting 'monoclinic'
loop_
_space_group_symop_operation_xyz
x,y,z
-x,y,-z
-x,-y,-z
x,-y,z
1/2+x,1/2+y,z
1/2-x,1/2+y,-z
1/2-x,1/2-y,-z
1/2+x,1/2-y,z
loop_
_atom_site_type_symbol
_atom_site_label
_atom_site_fract_x
_atom_site_fract_y
_atom_site_fract_z
Si Si1 0.871407 0.772265 0.484057
Si Si2 0.626950 0.103738 0.123451
Si Si3 0.721280 0.898549 0.750630
Si Si4 0.582791 0.262726 0.347787
Si Si5 0.996962 0.106644 0.139938
Si Si6 0.790580 0.896275 0.964460
Si Si7 0.783708 0.656734 0.482427
Si Si8 0.832171 0.104875 0.129867
O O1 0.793370 0.831359 0.636882
O O2 0.897058 0.739332 0.560314
O O3 0.853935 0.685922 0.438746
O O4 0.931699 0.836179 0.314857
O O5 0.577972 0.178113 0.272645
O O6 0.600094 0.000000 0.176306
O O7 0.651117 0.125442 0.954251
O O8 0.709378 0.109550 0.043993
O O9 0.698173 0.896214 0.660533
O O10 0.744750 0.000000 0.740382
O O11 0.500000 0.308878 0.500000
O O12 0.647214 0.330620 0.194298
O O13 0.986209 0.000000 0.182578
O O14 0.081684 0.142047 0.028662
O O15 0.000000 0.114620 0.000000
O O16 0.815670 0.000000 0.914595
O O17 0.783161 0.869141 0.106655
O O18 0.750000 0.750000 0.500000
O O19 0.715181 0.619532 0.676592
O O20 0.845046 0.000000 0.102721
#
# Coordination Sequence:
#
# PCOD9224512 Si02
#       8
#     8   8   8   8   8   8   8   8
#     4  11  22  37  55  90 123 155 194 239 296 357
#     4  10  22  41  65  86 111 158 210 255 297 346
#     4  10  20  37  62  87 114 151 197 251 299 348
#     4  12  25  39  60  89 125 165 198 246 303 355
#     4  10  20  35  55  81 120 163 194 228 286 359
#     4  10  21  37  61  90 120 157 198 242 298 359
#     4  10  21  33  55  86 115 147 193 245 293 344
#     4  10  20  35  55  82 117 154 191 237 289 350
#
# _framework density 10.243449
#
# number of rings (size 3 to 8) (size 9 to 14) (size 15 to 20)
#    0.000    1.625    1.250    4.125    3.500    2.000 
#    2.250    0.625    0.000    0.000    0.000    1.750 
#    0.000    0.000    0.000    0.000    0.000    0.000 
#
# Total GULP energy -178553.100580 kJ/mol
# GULP energy per Si atom -5579.784393 kJ/mol
# Density = 1.022013 g / cm^3
# Si number density = 10.243449 Si / 1000 Ang^3
#
#
#
# Elastic Constant Matrix: (Units=GPa)
#
#
# Indices 1 2 3 4 5 6 
#
# 1 51.3786 -6.4629 12.1702 0.0000 15.1610 0.0000
# 2 -6.4629 40.7507 16.8857 0.0000 -3.8135 0.0000
# 3 12.1702 16.8857 80.5265 0.0000 17.0502 0.0000
# 4 0.0000 0.0000 0.0000 29.6911 0.0000 7.3720
# 5 15.1610 -3.8135 17.0502 0.0000 26.4862 0.0000
# 6 0.0000 0.0000 0.0000 7.3720 0.0000 13.6399
#
#
#
# Elastic Compliance Matrix: (Units=1/GPa)
#
#
# Indices 1 2 3 4 5 6 
#
# 1 0.023859 0.003392 -0.001770 0.000000 -0.012029 0.000000
# 2 0.003392 0.029198 -0.008237 0.000000 0.007565 0.000000
# 3 -0.001770 -0.008237 0.016730 0.000000 -0.010942 0.000000
# 4 0.000000 0.000000 0.000000 0.038900 0.000000 -0.021024
# 5 -0.012029 0.007565 -0.010942 0.000000 0.052774 0.000000
# 6 0.000000 0.000000 0.000000 -0.021024 0.000000 0.084677
#
#
# Mechanical properties :
#
#
# Convention : Reuss Voigt Hill
#
# Bulk Modulus (GPa) = 17.68145 24.20465 20.94305
# Shear Modulus (GPa) = 17.97124 23.96764 20.96944
#
# Velocity S-wave (km/s) = 2.96498 3.42409 3.20277
# Velocity P-wave (km/s) = 4.51341 5.24146 4.89100
#
# Compressibility (1/GPa) = 0.05655646
#
# Stress axis : x y z
#
# Youngs Moduli (GPa) = 41.91298 34.24842 59.77321
#
# Poissons Ratio (x) = -0.11616 0.10580
# Poissons Ratio (y) = -0.14216 0.49235
# Poissons Ratio (z) = 0.07419 0.28211
#
# Static dielectric constant tensor:
#      x y z
#    x 1.848600 0.000000 0.029320 
#    y 0.000000 1.731180 0.000000 
#    z 0.029320 0.000000 1.674220 
# 
# From -- ./inp_files/183758.got.cif
#   From: 2010.05.17/outbox.ucp.g08.bks.cvg/sg12_92_cif.got.tgz:183758.got - 2010.06.11 11:47:21.
