data_PCOD9224349
_publ_section_title
;
Structure prediction by ZEFSAII (Michael W. Deem and Ramdas Pophale) SiO2 
 PCOD9224349
Probable space group: C 2/M
;
_chemical_formula_sum "Si O2"
_cell_formula_units_Z 24
_cell_length_a 18.000000
_cell_length_b 9.000000
_cell_length_c 30.000000
_cell_angle_alpha 90.000000
_cell_angle_beta 30.000000
_cell_angle_gamma 90.000000
_cell_volume 2430.000000
_symmetry_space_group_name_H-M "C 2/M"
_symmetry_group_IT_number 12
_symmetry_cell_setting 'monoclinic'
loop_
_space_group_symop_operation_xyz
x,y,z
-x,y,-z
-x,-y,-z
x,-y,z
1/2+x,1/2+y,z
1/2-x,1/2+y,-z
1/2-x,1/2-y,-z
1/2+x,1/2-y,z
loop_
_atom_site_type_symbol
_atom_site_label
_atom_site_fract_x
_atom_site_fract_y
_atom_site_fract_z
Si Si1 0.369905 0.178870 0.469522
Si Si2 0.747341 0.821731 0.375835
Si Si3 0.799454 0.320746 0.701743
Si Si4 0.629706 0.675956 0.968504
Si Si5 0.497882 0.822286 0.877048
Si Si6 0.574092 0.322038 0.181376
O O1 0.250000 0.250000 0.500000
O O2 0.340305 0.233098 0.535602
O O3 0.536091 0.211354 0.367050
O O4 0.354687 0.000000 0.477764
O O5 0.700366 0.775343 0.350707
O O6 0.922999 0.790062 0.286793
O O7 0.727949 0.000000 0.385508
O O8 0.770598 0.500000 0.719104
O O9 0.668120 0.232224 0.793342
O O10 0.646686 0.500000 0.967641
O O11 0.782381 0.747001 0.872161
O O12 0.500000 0.697908 0.000000
O O13 0.590127 0.757632 0.035210
O O14 0.445307 0.747800 0.857980
O O15 0.485383 0.000000 0.881144
O O16 0.589243 0.500000 0.169592
#
# Coordination Sequence:
#
# PCOD9224349 Si02
#       6
#     8   8   8   8   8   8
#     4  10  20  34  53  79 111 145 180 220 270 325
#     4   8  16  33  57  80 102 136 182 225 262 310
#     4   9  18  35  58  80 104 140 186 230 270 315
#     4  11  24  40  57  80 113 148 182 224 275 328
#     4  11  22  37  59  84 111 143 183 229 275 327
#     4  10  20  37  61  85 110 142 184 229 273 325
#
# _framework density 9.8765429999999999
#
# number of rings (size 3 to 8) (size 9 to 14) (size 15 to 20)
#    0.000    2.167    0.000    4.500    0.000    5.333 
#    0.000    7.500    0.000    5.000    0.000    0.000 
#    0.000    0.000    0.000    0.000    0.000    0.000 
#
# Total GULP energy -133993.230975 kJ/mol
# GULP energy per Si atom -5583.051291 kJ/mol
# Density = 0.985406 g / cm^3
# Si number density = 9.876543 Si / 1000 Ang^3
#
#
#
# Elastic Constant Matrix: (Units=GPa)
#
#
# Indices 1 2 3 4 5 6 
#
# 1 15.3233 12.8249 8.3604 0.0000 -27.7223 -0.0001
# 2 12.8249 69.5928 29.7533 0.0001 -23.2828 0.0001
# 3 8.3604 29.7533 63.3494 0.0001 -23.3868 0.0001
# 4 0.0000 0.0001 0.0001 24.7217 0.0000 -4.4987
# 5 -27.7223 -23.2828 -23.3868 0.0000 34.6505 0.0000
# 6 -0.0001 0.0001 0.0001 -4.4987 0.0000 24.2906
#
#
#
# Elastic Compliance Matrix: (Units=1/GPa)
#
#
# Indices 1 2 3 4 5 6 
#
# 1 -0.107993 -0.005958 -0.021741 0.000000 -0.105078 0.000000
# 2 -0.005958 0.019750 -0.007126 0.000000 0.003694 0.000000
# 3 -0.021741 -0.007126 0.018396 0.000000 -0.009766 0.000000
# 4 0.000000 0.000000 0.000000 0.041861 0.000000 0.007753
# 5 -0.105078 0.003694 -0.009766 0.000000 -0.059317 0.000000
# 6 0.000000 0.000000 0.000000 0.007753 0.000000 0.042604
#
#
# Mechanical properties :
#
#
# Convention : Reuss Voigt Hill
#
# Bulk Modulus (GPa) = -7.16862 27.79363 10.31250
# Shear Modulus (GPa) = -232.03209 23.22102 -104.40554
#
# Velocity S-wave (km/s) = -10.84994 3.43237 -7.27805
# Velocity P-wave (km/s) = 12.67275 5.45979 8.08670
#
# Compressibility (1/GPa) = -0.13949687
#
# Stress axis : x y z
#
# Youngs Moduli (GPa) = -9.25982 50.63356 54.35906
#
# Poissons Ratio (x) = 0.30167 1.18182
# Poissons Ratio (y) = -0.05517 0.38735
# Poissons Ratio (z) = -0.20132 0.36080
#
# Static dielectric constant tensor:
#      x y z
#    x 1.703140 0.000000 -0.032720 
#    y 0.000000 1.657170 0.000000 
#    z -0.032720 0.000000 1.720400 
# 
# From -- ./inp_files/274089.got.cif
#   From: 2010.05.17/outbox.ucp.g08.bks.cvg/sg12_138_cif.got.tgz:274089.got - 2010.06.11 11:47:21.
