data_PCOD9224940
_publ_section_title
;
Structure prediction by ZEFSAII (Michael W. Deem and Ramdas Pophale) SiO2 
 PCOD9224940
Probable space group: C 2/M
;
_chemical_formula_sum "Si O2"
_cell_formula_units_Z 32
_cell_length_a 30.000000
_cell_length_b 9.000000
_cell_length_c 15.000000
_cell_angle_alpha 90.000000
_cell_angle_beta 60.000000
_cell_angle_gamma 90.000000
_cell_volume 3507.402885
_symmetry_space_group_name_H-M "C 2/M"
_symmetry_group_IT_number 12
_symmetry_cell_setting 'monoclinic'
loop_
_space_group_symop_operation_xyz
x,y,z
-x,y,-z
-x,-y,-z
x,-y,z
1/2+x,1/2+y,z
1/2-x,1/2+y,-z
1/2-x,1/2-y,-z
1/2+x,1/2-y,z
loop_
_atom_site_type_symbol
_atom_site_label
_atom_site_fract_x
_atom_site_fract_y
_atom_site_fract_z
Si Si1 0.853213 0.678800 0.722026
Si Si2 0.948179 0.678296 0.107066
Si Si3 0.732090 0.324499 0.427484
Si Si4 0.385626 0.675375 0.510109
Si Si5 0.034543 0.322014 0.703310
Si Si6 0.627913 0.677417 0.948921
Si Si7 0.239470 0.178716 0.782490
Si Si8 0.583404 0.821375 0.169594
O O1 0.855987 0.500000 0.712335
O O2 0.883421 0.747993 0.608720
O O3 0.793282 0.722856 0.774418
O O4 0.878447 0.723045 0.789614
O O5 0.941752 0.500000 0.105936
O O6 0.953836 0.716025 0.205254
O O7 0.900623 0.760202 0.109429
O O8 0.000000 0.716610 0.000000
O O9 0.741673 0.500000 0.419639
O O10 0.750000 0.250000 0.500000
O O11 0.671168 0.299577 0.474352
O O12 0.760163 0.251836 0.315008
O O13 0.393206 0.500000 0.512690
O O14 0.427884 0.743035 0.402792
O O15 0.040364 0.500000 0.688376
O O16 0.975010 0.283673 0.746644
O O17 0.624269 0.500000 0.954525
O O18 0.687991 0.720453 0.886163
O O19 0.599725 0.746271 0.061822
O O20 0.239807 0.000000 0.772280
O O21 0.585449 0.000000 0.155577
#
# Coordination Sequence:
#
# PCOD9224940 Si02
#       8
#     8   8   8   8   8   8   8   8
#     4   9  19  39  64  82 107 148 190 232 276 325
#     4  10  20  38  59  79 110 149 190 234 273 325
#     4  10  21  36  55  80 109 145 186 229 275 328
#     4  10  22  38  56  82 116 146 181 229 282 336
#     4  10  21  37  58  83 112 147 189 232 274 327
#     4  11  23  36  55  85 119 149 182 229 283 336
#     4   9  20  38  56  81 114 146 183 227 276 330
#     4  10  21  39  61  84 109 145 194 236 271 326
#
# _framework density 9.1235599999999994
#
# number of rings (size 3 to 8) (size 9 to 14) (size 15 to 20)
#    0.000    2.125    1.250    1.125    1.750    5.250 
#    0.000    2.500    0.000    0.000    0.000    0.000 
#    0.000    0.000    0.000    0.000    0.000    0.000 
#
# Total GULP energy -178652.648665 kJ/mol
# GULP energy per Si atom -5582.895271 kJ/mol
# Density = 0.910279 g / cm^3
# Si number density = 9.123560 Si / 1000 Ang^3
#
#
#
# Elastic Constant Matrix: (Units=GPa)
#
#
# Indices 1 2 3 4 5 6 
#
# 1 58.8997 24.0316 16.5181 0.0000 5.6894 0.0000
# 2 24.0316 2.9475 6.2709 0.0000 -7.5381 0.0000
# 3 16.5181 6.2709 9.7586 0.0000 -28.3487 0.0000
# 4 0.0000 0.0000 0.0000 16.4457 0.0000 -3.9220
# 5 5.6894 -7.5381 -28.3487 0.0000 28.0888 0.0000
# 6 0.0000 0.0000 0.0000 -3.9220 0.0000 23.0441
#
#
#
# Elastic Compliance Matrix: (Units=1/GPa)
#
#
# Indices 1 2 3 4 5 6 
#
# 1 -0.002083 0.049001 -0.005934 0.000000 0.007583 0.000000
# 2 0.049001 -0.171711 0.070036 0.000000 0.014677 0.000000
# 3 -0.005934 0.070036 -0.065017 0.000000 -0.045622 0.000000
# 4 0.000000 0.000000 0.000000 0.063379 0.000000 0.010787
# 5 0.007583 0.014677 -0.045622 0.000000 -0.008040 0.000000
# 6 0.000000 0.000000 0.000000 0.010787 0.000000 0.045231
#
#
# Mechanical properties :
#
#
# Convention : Reuss Voigt Hill
#
# Bulk Modulus (GPa) = -79.31576 18.36078 -30.47749
# Shear Modulus (GPa) = -13.56304 15.16808 0.80252
#
# Velocity S-wave (km/s) = -2.72931 2.88628 0.66390
# Velocity P-wave (km/s) = 7.31396 4.60344 4.01886
#
# Compressibility (1/GPa) = -0.01260784
#
# Stress axis : x y z
#
# Youngs Moduli (GPa) = -480.08528 -5.82372 -15.38049
#
# Poissons Ratio (x) = 0.28537 -0.09127
# Poissons Ratio (y) = 23.52464 1.07718
# Poissons Ratio (z) = -2.84905 0.40787
#
# Static dielectric constant tensor:
#      x y z
#    x 1.643900 0.000000 -0.003950 
#    y 0.000000 1.608160 0.000000 
#    z -0.003950 0.000000 1.582600 
# 
# From -- ./inp_files/249045.got.cif
#   From: 2010.05.17/outbox.ucp.g08.bks.cvg/sg12_125_cif.got.tgz:249045.got - 2010.06.11 11:47:21.
