data_PCOD9224124
_publ_section_title
;
Structure prediction by ZEFSAII (Michael W. Deem and Ramdas Pophale) SiO2 
 PCOD9224124
Probable space group: C 2/M
;
_chemical_formula_sum "Si O2"
_cell_formula_units_Z 32
_cell_length_a 15.000000
_cell_length_b 9.000000
_cell_length_c 30.000000
_cell_angle_alpha 90.000000
_cell_angle_beta 50.000000
_cell_angle_gamma 90.000000
_cell_volume 3102.479995
_symmetry_space_group_name_H-M "C 2/M"
_symmetry_group_IT_number 12
_symmetry_cell_setting 'monoclinic'
loop_
_space_group_symop_operation_xyz
x,y,z
-x,y,-z
-x,-y,-z
x,-y,z
1/2+x,1/2+y,z
1/2-x,1/2+y,-z
1/2-x,1/2-y,-z
1/2+x,1/2-y,z
loop_
_atom_site_type_symbol
_atom_site_label
_atom_site_fract_x
_atom_site_fract_y
_atom_site_fract_z
Si Si1 0.228427 0.676372 0.163363
Si Si2 0.708112 0.677092 0.559432
Si Si3 0.311901 0.678255 0.038963
Si Si4 0.920313 0.174440 0.919885
Si Si5 0.116859 0.828824 0.433313
Si Si6 0.550627 0.679745 0.356327
Si Si7 0.005390 0.180268 0.798366
Si Si8 0.285054 0.821404 0.235556
O O1 0.214333 0.500000 0.175545
O O2 0.306132 0.694540 0.093681
O O3 0.292293 0.753767 0.183736
O O4 0.102483 0.752080 0.194240
O O5 0.707633 0.500000 0.553738
O O6 0.750000 0.750000 0.500000
O O7 0.792237 0.726346 0.571387
O O8 0.578447 0.731035 0.612543
O O9 0.287094 0.500000 0.038720
O O10 0.210691 0.786409 0.053672
O O11 0.421020 0.716309 0.971881
O O12 0.985961 0.236646 0.855923
O O13 0.946190 0.000000 0.910459
O O14 0.084888 0.773384 0.394827
O O15 0.000000 0.831253 0.500000
O O16 0.159374 0.000000 0.416972
O O17 0.546669 0.500000 0.358316
O O18 0.652423 0.719671 0.290499
O O19 0.133494 0.248310 0.752298
O O20 0.004081 0.000000 0.795483
O O21 0.300132 0.000000 0.230618
#
# Coordination Sequence:
#
# PCOD9224124 Si02
#       8
#     8   8   8   8   8   8   8   8
#     4  10  20  36  58  83 112 148 191 237 286 341
#     4  11  21  37  60  89 119 148 183 222 270 327
#     4   8  14  26  47  75 105 138 178 226 281 339
#     4   8  14  26  47  75 105 138 177 225 283 342
#     4  10  19  37  62  86 116 150 180 219 273 328
#     4   9  21  40  59  81 114 152 186 228 281 329
#     4  10  20  36  58  83 112 147 189 237 290 344
#     4  11  23  40  59  80 112 152 196 239 280 330
#
# _framework density 10.314329000000001
#
# number of rings (size 3 to 8) (size 9 to 14) (size 15 to 20)
#    0.000    2.375    1.250    1.500    0.000    2.250 
#    0.000    6.875    0.000    3.750    0.000    0.000 
#    0.000    0.000    0.000    0.000    0.000    0.000 
#
# Total GULP energy -178180.125108 kJ/mol
# GULP energy per Si atom -5568.128910 kJ/mol
# Density = 1.029085 g / cm^3
# Si number density = 10.314329 Si / 1000 Ang^3
#
#
#
# Elastic Constant Matrix: (Units=GPa)
#
#
# Indices 1 2 3 4 5 6 
#
# 1 90.9765 12.3169 -5.0282 0.0000 -15.7060 0.0000
# 2 12.3169 42.3479 -17.9709 0.0000 -4.2589 -0.0001
# 3 -5.0282 -17.9709 -14.9604 0.0000 5.2958 0.0000
# 4 0.0000 0.0000 0.0000 33.9688 0.0000 0.1943
# 5 -15.7060 -4.2589 5.2958 0.0000 28.5220 0.0000
# 6 0.0000 -0.0001 0.0000 0.1943 0.0000 26.0197
#
#
#
# Elastic Compliance Matrix: (Units=1/GPa)
#
#
# Indices 1 2 3 4 5 6 
#
# 1 0.012482 -0.002538 0.001082 0.000000 0.006293 0.000000
# 2 -0.002538 0.017121 -0.018112 0.000000 0.004522 0.000000
# 3 0.001082 -0.018112 -0.043347 0.000000 0.005940 0.000000
# 4 0.000000 0.000000 0.000000 0.029440 0.000000 -0.000220
# 5 0.006293 0.004522 0.005940 0.000000 0.038098 0.000000
# 6 0.000000 0.000000 0.000000 -0.000220 0.000000 0.038434
#
#
# Mechanical properties :
#
#
# Convention : Reuss Voigt Hill
#
# Bulk Modulus (GPa) = -18.91000 10.77774 -4.06613
# Shear Modulus (GPa) = 43.96066 26.30519 35.13293
#
# Velocity S-wave (km/s) = 4.62134 3.57484 4.13136
# Velocity P-wave (km/s) = 4.39191 4.71967 4.55874
#
# Compressibility (1/GPa) = -0.05288208
#
# Stress axis : x y z
#
# Youngs Moduli (GPa) = 80.11686 58.40853 -23.06958
#
# Poissons Ratio (x) = 0.14826 0.02496
# Poissons Ratio (y) = 0.20336 -0.41784
# Poissons Ratio (z) = -0.08667 1.05791
#
# Static dielectric constant tensor:
#      x y z
#    x 1.738090 0.000000 -0.028950 
#    y 0.000000 1.690190 0.000000 
#    z -0.028950 0.000000 1.903430 
# 
# From -- ./inp_files/375409.got.cif
#   From: 2010.05.17/outbox.ucp.g08.bks.cvg/sg12_188_cif.got.tgz:375409.got - 2010.06.11 11:47:21.
