data_PCOD9224215
_publ_section_title
;
Structure prediction by ZEFSAII (Michael W. Deem and Ramdas Pophale) SiO2 
 PCOD9224215
Probable space group: C 2/M
;
_chemical_formula_sum "Si O2"
_cell_formula_units_Z 24
_cell_length_a 15.000000
_cell_length_b 9.000000
_cell_length_c 21.000000
_cell_angle_alpha 90.000000
_cell_angle_beta 110.000000
_cell_angle_gamma 90.000000
_cell_volume 2664.028580
_symmetry_space_group_name_H-M "C 2/M"
_symmetry_group_IT_number 12
_symmetry_cell_setting 'monoclinic'
loop_
_space_group_symop_operation_xyz
x,y,z
-x,y,-z
-x,-y,-z
x,-y,z
1/2+x,1/2+y,z
1/2-x,1/2+y,-z
1/2-x,1/2-y,-z
1/2+x,1/2-y,z
loop_
_atom_site_type_symbol
_atom_site_label
_atom_site_fract_x
_atom_site_fract_y
_atom_site_fract_z
Si Si1 0.115080 0.177541 0.427278
Si Si2 0.346252 0.320345 0.172796
Si Si3 0.050250 0.320702 0.915296
Si Si4 0.646678 0.180082 0.066704
Si Si5 0.675422 0.823022 0.569270
Si Si6 0.911879 0.178747 0.328090
O O1 0.214355 0.214359 0.417620
O O2 0.116337 0.258613 0.495440
O O3 0.023042 0.216282 0.363633
O O4 0.113911 0.000000 0.438305
O O5 0.347806 0.500000 0.171158
O O6 0.423339 0.255797 0.143587
O O7 0.244037 0.267943 0.121677
O O8 0.369025 0.273966 0.250177
O O9 0.054531 0.500000 0.910905
O O10 0.945671 0.280242 0.914576
O O11 0.124065 0.272799 0.988882
O O12 0.649490 0.000000 0.066028
O O13 0.641789 0.751456 0.626218
O O14 0.665676 0.000000 0.568831
O O15 0.903594 0.000000 0.330344
#
# Coordination Sequence:
#
# PCOD9224215 Si02
#       6
#     8   8   8   8   8   8
#     4   9  19  36  54  72  98 130 160 195 245 295
#     4  10  20  33  49  72 101 131 163 199 240 288
#     4   9  17  32  53  73  95 128 166 202 243 287
#     4   8  16  32  52  72  97 129 163 200 244 291
#     4  10  20  34  54  77  97 122 163 208 240 277
#     4  10  21  35  50  70 101 137 162 189 242 300
#
# _framework density 9.0089120000000005
#
# number of rings (size 3 to 8) (size 9 to 14) (size 15 to 20)
#    0.000    2.667    0.000    2.500    0.000    5.333 
#    0.000    2.500    0.000    0.000    0.000    0.000 
#    0.000    0.000    0.000    0.000    0.000    0.000 
#
# Total GULP energy -133861.878331 kJ/mol
# GULP energy per Si atom -5577.578264 kJ/mol
# Density = 0.898841 g / cm^3
# Si number density = 9.008912 Si / 1000 Ang^3
#
#
#
# Elastic Constant Matrix: (Units=GPa)
#
#
# Indices 1 2 3 4 5 6 
#
# 1 34.8701 6.2832 9.4970 0.0000 14.1846 0.0000
# 2 6.2832 -5.5671 3.9229 0.0000 15.2220 0.0000
# 3 9.4970 3.9229 44.6224 0.0000 31.6480 0.0000
# 4 0.0000 0.0000 0.0000 21.6087 0.0000 -8.1090
# 5 14.1846 15.2220 31.6480 0.0000 -32.0163 0.0000
# 6 0.0000 0.0000 0.0000 -8.1090 0.0000 25.8180
#
#
#
# Elastic Compliance Matrix: (Units=1/GPa)
#
#
# Indices 1 2 3 4 5 6 
#
# 1 0.019796 0.046093 -0.017653 0.000000 0.013236 0.000000
# 2 0.046093 -0.218339 0.040284 0.000000 -0.043566 0.000000
# 3 -0.017653 0.040284 0.008576 0.000000 0.019809 0.000000
# 4 0.000000 0.000000 0.000000 0.052461 0.000000 0.016477
# 5 0.013236 -0.043566 0.019809 0.000000 -0.026502 0.000000
# 6 0.000000 0.000000 0.000000 0.016477 0.000000 0.043908
#
#
# Mechanical properties :
#
#
# Convention : Reuss Voigt Hill
#
# Bulk Modulus (GPa) = -19.04117 12.59241 -3.22438
# Shear Modulus (GPa) = -18.17829 6.69687 -5.74071
#
# Velocity S-wave (km/s) = -3.17977 1.92999 -1.78691
# Velocity P-wave (km/s) = 4.90634 3.45984 2.45984
#
# Compressibility (1/GPa) = -0.05251777
#
# Stress axis : x y z
#
# Youngs Moduli (GPa) = 50.51473 -4.58004 116.60259
#
# Poissons Ratio (x) = 0.21111 2.05835
# Poissons Ratio (y) = -2.32837 -4.69722
# Poissons Ratio (z) = 0.89172 0.18450
#
# Static dielectric constant tensor:
#      x y z
#    x 1.619570 0.000000 0.021280 
#    y 0.000000 1.596820 0.000000 
#    z 0.021280 0.000000 1.597660 
# 
# From -- ./inp_files/308285.got.cif
#   From: 2010.05.17/outbox.ucp.g08.bks.cvg/sg12_155_cif.got.tgz:308285.got - 2010.06.11 11:47:21.
