data_PCOD9224112
_publ_section_title
;
Structure prediction by ZEFSAII (Michael W. Deem and Ramdas Pophale) SiO2 
 PCOD9224112
Probable space group: C 2/M
;
_chemical_formula_sum "Si O2"
_cell_formula_units_Z 32
_cell_length_a 21.000000
_cell_length_b 18.000000
_cell_length_c 12.000000
_cell_angle_alpha 90.000000
_cell_angle_beta 130.000000
_cell_angle_gamma 90.000000
_cell_volume 3474.777594
_symmetry_space_group_name_H-M "C 2/M"
_symmetry_group_IT_number 12
_symmetry_cell_setting 'monoclinic'
loop_
_space_group_symop_operation_xyz
x,y,z
-x,y,-z
-x,-y,-z
x,-y,z
1/2+x,1/2+y,z
1/2-x,1/2+y,-z
1/2-x,1/2-y,-z
1/2+x,1/2-y,z
loop_
_atom_site_type_symbol
_atom_site_label
_atom_site_fract_x
_atom_site_fract_y
_atom_site_fract_z
Si Si1 0.534868 0.175400 0.165378
Si Si2 0.815966 0.701005 0.806182
Si Si3 0.186192 0.416398 0.767040
Si Si4 0.632057 0.245393 0.645288
Si Si5 0.633628 0.370510 0.114424
Si Si6 0.468073 0.586614 0.793051
Si Si7 0.007295 0.212637 0.687271
Si Si8 0.384955 0.915116 0.061328
O O1 0.634211 0.176221 0.251038
O O2 0.506722 0.242134 0.213893
O O3 0.483116 0.107537 0.163007
O O4 0.500000 0.182724 0.000000
O O5 0.716808 0.714547 0.700207
O O6 0.852283 0.782317 0.877243
O O7 0.839562 0.641406 0.926976
O O8 0.160276 0.500000 0.702483
O O9 0.146578 0.343175 0.667860
O O10 0.284121 0.407976 0.845977
O O11 0.157480 0.409683 0.864436
O O12 0.561070 0.259489 0.475896
O O13 0.595501 0.274043 0.724101
O O14 0.609087 0.387290 0.215654
O O15 0.552980 0.397311 0.956730
O O16 0.458458 0.500000 0.764852
O O17 0.483328 0.629750 0.695531
O O18 0.376336 0.000000 0.014251
#
# Coordination Sequence:
#
# PCOD9224112 Si02
#       8
#     8   8   8   8   8   8   8   8
#     4  10  19  37  60  84 114 150 189 239 291 342
#     4  10  21  36  58  88 113 156 191 236 290 347
#     4  10  20  37  59  88 119 148 193 250 296 340
#     4  10  24  40  59  83 115 165 197 236 279 352
#     4  10  20  34  58  90 118 143 188 241 303 351
#     4  11  21  35  58  86 116 149 186 241 301 344
#     4  11  22  41  58  83 117 154 203 235 282 354
#     4  10  21  35  58  90 122 153 191 246 298 339
#
# _framework density 9.2092220000000005
#
# number of rings (size 3 to 8) (size 9 to 14) (size 15 to 20)
#    0.000    1.750    2.500    3.000    3.500    3.750 
#    0.000    3.750    0.000    0.000    0.000    0.000 
#    0.000    0.000    0.000    0.000    0.000    0.000 
#
# Total GULP energy -178240.863919 kJ/mol
# GULP energy per Si atom -5570.026997 kJ/mol
# Density = 0.918826 g / cm^3
# Si number density = 9.209222 Si / 1000 Ang^3
#
#
#
# Elastic Constant Matrix: (Units=GPa)
#
#
# Indices 1 2 3 4 5 6 
#
# 1 175.6049 40.3118 27.2859 0.0000 11.3386 0.0000
# 2 40.3118 135.5126 22.5782 0.0000 5.2194 0.0000
# 3 27.2859 22.5782 27.1286 0.0000 3.3258 0.0000
# 4 0.0000 0.0000 0.0000 -0.5584 0.0000 1.9691
# 5 11.3386 5.2194 3.3258 0.0000 23.7174 0.0000
# 6 0.0000 0.0000 0.0000 1.9691 0.0000 23.2573
#
#
#
# Elastic Compliance Matrix: (Units=1/GPa)
#
#
# Indices 1 2 3 4 5 6 
#
# 1 0.006993 -0.001006 -0.005915 0.000000 -0.002292 0.000000
# 2 -0.001006 0.008731 -0.006184 0.000000 -0.000573 0.000000
# 3 -0.005915 -0.006184 0.048274 0.000000 -0.002581 0.000000
# 4 0.000000 0.000000 0.000000 -1.379081 0.000000 0.116759
# 5 -0.002292 -0.000573 -0.002581 0.000000 0.043747 0.000000
# 6 0.000000 0.000000 0.000000 0.116759 0.000000 0.033112
#
#
# Mechanical properties :
#
#
# Convention : Reuss Voigt Hill
#
# Bulk Modulus (GPa) = 26.46406 57.62202 42.04304
# Shear Modulus (GPa) = -4.16869 25.82126 10.82629
#
# Velocity S-wave (km/s) = -1.50607 3.74829 2.42708
# Velocity P-wave (km/s) = 3.37270 7.07713 5.54350
#
# Compressibility (1/GPa) = 0.03778710
#
# Stress axis : x y z
#
# Youngs Moduli (GPa) = 143.00718 114.53160 20.71525
#
# Poissons Ratio (x) = 0.11527 0.12252
# Poissons Ratio (y) = 0.14393 0.12811
# Poissons Ratio (z) = 0.84583 0.70828
#
# Static dielectric constant tensor:
#      x y z
#    x 1.679160 0.000000 0.009540 
#    y 0.000000 1.660390 0.000000 
#    z 0.009540 0.000000 1.643840 
# 
# From -- ./inp_files/168798.got.cif
#   From: 2010.05.17/outbox.ucp.g08.bks.cvg/sg12_85_cif.got.tgz:168798.got - 2010.06.11 11:47:21.
