data_PCOD9224471
_publ_section_title
;
Structure prediction by ZEFSAII (Michael W. Deem and Ramdas Pophale) SiO2 
 PCOD9224471
Probable space group: C 2/M
;
_chemical_formula_sum "Si O2"
_cell_formula_units_Z 24
_cell_length_a 30.000000
_cell_length_b 9.000000
_cell_length_c 18.000000
_cell_angle_alpha 90.000000
_cell_angle_beta 30.000000
_cell_angle_gamma 90.000000
_cell_volume 2430.000000
_symmetry_space_group_name_H-M "C 2/M"
_symmetry_group_IT_number 12
_symmetry_cell_setting 'monoclinic'
loop_
_space_group_symop_operation_xyz
x,y,z
-x,y,-z
-x,-y,-z
x,-y,z
1/2+x,1/2+y,z
1/2-x,1/2+y,-z
1/2-x,1/2-y,-z
1/2+x,1/2-y,z
loop_
_atom_site_type_symbol
_atom_site_label
_atom_site_fract_x
_atom_site_fract_y
_atom_site_fract_z
Si Si1 0.910604 0.667659 0.099052
Si Si2 0.158663 0.664020 0.637461
Si Si3 0.713215 0.678512 0.161926
Si Si4 0.073454 0.178988 0.636361
Si Si5 0.268451 0.681098 0.700244
Si Si6 0.114546 0.821014 0.159516
O O1 0.935789 0.500000 0.034325
O O2 0.858790 0.650335 0.250807
O O3 0.834092 0.735730 0.157902
O O4 0.000000 0.744989 0.000000
O O5 0.165868 0.500000 0.594279
O O6 0.250000 0.750000 0.500000
O O7 0.081807 0.751532 0.705510
O O8 0.723366 0.500000 0.144672
O O9 0.692980 0.720630 0.275287
O O10 0.638136 0.719348 0.210386
O O11 0.806076 0.750523 0.002737
O O12 0.161698 0.227246 0.463547
O O13 0.982852 0.225401 0.726778
O O14 0.075155 0.000000 0.638154
O O15 0.262148 0.500000 0.704814
O O16 0.118924 0.000000 0.146968
#
# Coordination Sequence:
#
# PCOD9224471 Si02
#       6
#     8   8   8   8   8   8
#     4   9  18  31  49  75 103 130 166 213 256 293
#     4  11  21  35  56  78 105 138 172 211 256 306
#     4   9  18  33  55  78 101 134 177 215 254 310
#     4  10  20  35  53  75 106 138 172 213 260 306
#     4   9  17  31  51  74 101 134 173 217 254 296
#     4   9  19  34  52  77 107 136 166 214 269 309
#
# _framework density 9.8765429999999999
#
# number of rings (size 3 to 8) (size 9 to 14) (size 15 to 20)
#    0.000    2.500    1.667    0.500    2.333    1.333 
#    0.000    4.167    0.000    2.000    0.000    5.833 
#    0.000    0.000    0.000    0.000    0.000    0.000 
#
# Total GULP energy -133610.567044 kJ/mol
# GULP energy per Si atom -5567.106960 kJ/mol
# Density = 0.985406 g / cm^3
# Si number density = 9.876543 Si / 1000 Ang^3
#
#
#
# Elastic Constant Matrix: (Units=GPa)
#
#
# Indices 1 2 3 4 5 6 
#
# 1 117.1534 15.8809 13.7426 0.0000 -17.9663 -0.0001
# 2 15.8809 7.5974 6.6672 -0.0002 -6.9274 0.0003
# 3 13.7426 6.6672 11.6687 0.0005 -17.2674 -0.0002
# 4 0.0000 -0.0002 0.0005 15.9765 -0.0001 -2.2162
# 5 -17.9663 -6.9274 -17.2674 -0.0001 39.5301 0.0000
# 6 -0.0001 0.0003 -0.0002 -2.2162 0.0000 14.9308
#
#
#
# Elastic Compliance Matrix: (Units=1/GPa)
#
#
# Indices 1 2 3 4 5 6 
#
# 1 0.012095 -0.028732 0.008077 0.000000 0.003990 0.000001
# 2 -0.028732 0.383710 -0.297575 0.000011 -0.075802 -0.000009
# 3 0.008077 -0.297575 0.493435 -0.000016 0.167063 0.000009
# 4 0.000000 0.000011 -0.000016 0.063908 -0.000005 0.009486
# 5 0.003990 -0.075802 0.167063 -0.000005 0.086803 0.000003
# 6 0.000001 -0.000009 0.000009 0.009486 0.000003 0.068384
#
#
# Mechanical properties :
#
#
# Convention : Reuss Voigt Hill
#
# Bulk Modulus (GPa) = 3.95602 23.22231 13.58917
# Shear Modulus (GPa) = 2.73365 20.76274 11.74819
#
# Velocity S-wave (km/s) = 1.17767 3.24561 2.44140
# Velocity P-wave (km/s) = 1.96375 5.08204 3.85249
#
# Compressibility (1/GPa) = 0.25277913
#
# Stress axis : x y z
#
# Youngs Moduli (GPa) = 82.67775 2.60613 2.02661
#
# Poissons Ratio (x) = 0.07488 -0.01637
# Poissons Ratio (y) = 2.37553 0.60307
# Poissons Ratio (z) = -0.66777 0.77552
#
# Static dielectric constant tensor:
#      x y z
#    x 1.849860 0.000000 0.044710 
#    y 0.000000 1.689340 0.000000 
#    z 0.044710 0.000000 1.733940 
# 
# From -- ./inp_files/244872.got.cif
#   From: 2010.05.17/outbox.ucp.g08.bks.cvg/sg12_123_cif.got.tgz:244872.got - 2010.06.11 11:47:21.
