data_PCOD9224376
_publ_section_title
;
Structure prediction by ZEFSAII (Michael W. Deem and Ramdas Pophale) SiO2 
 PCOD9224376
Probable space group: C 2/M
;
_chemical_formula_sum "Si O2"
_cell_formula_units_Z 28
_cell_length_a 15.000000
_cell_length_b 9.000000
_cell_length_c 30.000000
_cell_angle_alpha 90.000000
_cell_angle_beta 130.000000
_cell_angle_gamma 90.000000
_cell_volume 3102.479995
_symmetry_space_group_name_H-M "C 2/M"
_symmetry_group_IT_number 12
_symmetry_cell_setting 'monoclinic'
loop_
_space_group_symop_operation_xyz
x,y,z
-x,y,-z
-x,-y,-z
x,-y,z
1/2+x,1/2+y,z
1/2-x,1/2+y,-z
1/2-x,1/2-y,-z
1/2+x,1/2-y,z
loop_
_atom_site_type_symbol
_atom_site_label
_atom_site_fract_x
_atom_site_fract_y
_atom_site_fract_z
Si Si1 0.599072 0.177725 0.741631
Si Si2 0.073215 0.323646 0.927546
Si Si3 0.847760 0.178137 0.562526
Si Si4 0.385330 0.321150 0.350976
Si Si5 0.683412 0.176493 0.140322
Si Si6 0.304142 0.675340 0.949405
Si Si7 0.833528 0.679367 0.655813
O O1 0.619092 0.243382 0.698579
O O2 0.702503 0.243062 0.804537
O O3 0.466220 0.214007 0.714702
O O4 0.607450 0.000000 0.743134
O O5 0.077657 0.500000 0.940436
O O6 0.168639 0.300955 0.919590
O O7 0.938840 0.287677 0.874130
O O8 0.119370 0.229577 0.984252
O O9 0.750000 0.250000 0.500000
O O10 0.828520 0.242870 0.605987
O O11 0.981670 0.211389 0.590133
O O12 0.835984 0.000000 0.559298
O O13 0.377913 0.500000 0.342674
O O14 0.276096 0.278439 0.347702
O O15 0.665903 0.229833 0.084129
O O16 0.700697 0.000000 0.148351
O O17 0.321921 0.500000 0.947171
O O18 0.827313 0.500000 0.648177
#
# Coordination Sequence:
#
# PCOD9224376 Si02
#       7
#     8   8   8   8   8   8   8
#     4  10  21  36  54  78 105 132 171 222 263 299
#     4   9  20  37  54  74 103 138 170 204 256 317
#     4  10  20  34  54  81 112 141 174 215 255 302
#     4   9  19  37  58  77 102 141 179 210 255 312
#     4  11  22  36  54  75 104 140 173 207 255 316
#     4  10  20  35  55  78 103 131 169 216 259 303
#     4   9  19  37  58  77 103 140 177 214 259 307
#
# _framework density 9.0250380000000003
#
# number of rings (size 3 to 8) (size 9 to 14) (size 15 to 20)
#    0.000    2.286    0.000    2.143    0.000    6.857 
#    0.000    8.571    0.000    0.000    0.000    0.000 
#    0.000    0.000    0.000    0.000    0.000    0.000 
#
# Total GULP energy -156180.195719 kJ/mol
# GULP energy per Si atom -5577.864133 kJ/mol
# Density = 0.900450 g / cm^3
# Si number density = 9.025038 Si / 1000 Ang^3
#
#
#
# Elastic Constant Matrix: (Units=GPa)
#
#
# Indices 1 2 3 4 5 6 
#
# 1 134.7079 32.5769 24.8315 0.0000 28.2067 0.0000
# 2 32.5769 33.0270 13.3424 0.0000 11.8199 0.0000
# 3 24.8315 13.3424 36.8502 0.0000 21.6934 0.0000
# 4 0.0000 0.0000 0.0000 36.9506 0.0000 -0.0012
# 5 28.2067 11.8199 21.6934 0.0000 25.2802 0.0000
# 6 0.0000 0.0000 0.0000 -0.0012 0.0000 29.3222
#
#
#
# Elastic Compliance Matrix: (Units=1/GPa)
#
#
# Indices 1 2 3 4 5 6 
#
# 1 0.011183 -0.008003 0.001020 0.000000 -0.009611 0.000000
# 2 -0.008003 0.042848 -0.007243 0.000000 -0.004889 0.000000
# 3 0.001020 -0.007243 0.056076 0.000000 -0.045872 0.000000
# 4 0.000000 0.000000 0.000000 0.027063 0.000000 0.000001
# 5 -0.009611 -0.004889 -0.045872 0.000000 0.091929 0.000000
# 6 0.000000 0.000000 0.000000 0.000001 0.000000 0.034104
#
#
# Mechanical properties :
#
#
# Convention : Reuss Voigt Hill
#
# Bulk Modulus (GPa) = 12.24668 38.45409 25.35039
# Shear Modulus (GPa) = 15.68006 27.23287 21.45646
#
# Velocity S-wave (km/s) = 2.95056 3.88846 3.45152
# Velocity P-wave (km/s) = 4.29038 6.44287 5.47348
#
# Compressibility (1/GPa) = 0.08165481
#
# Stress axis : x y z
#
# Youngs Moduli (GPa) = 89.41771 23.33815 17.83279
#
# Poissons Ratio (x) = 0.18678 -0.01819
# Poissons Ratio (y) = 0.71564 0.12917
# Poissons Ratio (z) = -0.09120 0.16904
#
# Static dielectric constant tensor:
#      x y z
#    x 1.627150 0.000000 0.024840 
#    y 0.000000 1.597450 0.000000 
#    z 0.024840 0.000000 1.619230 
# 
# From -- ./inp_files/338148.got.cif
#   From: 2010.05.17/outbox.ucp.g08.bks.cvg/sg12_170_cif.got.tgz:338148.got - 2010.06.11 11:47:21.
