data_PCOD9224586
_publ_section_title
;
Structure prediction by ZEFSAII (Michael W. Deem and Ramdas Pophale) SiO2 
 PCOD9224586
Probable space group: C 2/M
;
_chemical_formula_sum "Si O2"
_cell_formula_units_Z 32
_cell_length_a 15.000000
_cell_length_b 9.000000
_cell_length_c 30.000000
_cell_angle_alpha 90.000000
_cell_angle_beta 50.000000
_cell_angle_gamma 90.000000
_cell_volume 3102.479995
_symmetry_space_group_name_H-M "C 2/M"
_symmetry_group_IT_number 12
_symmetry_cell_setting 'monoclinic'
loop_
_space_group_symop_operation_xyz
x,y,z
-x,y,-z
-x,-y,-z
x,-y,z
1/2+x,1/2+y,z
1/2-x,1/2+y,-z
1/2-x,1/2-y,-z
1/2+x,1/2-y,z
loop_
_atom_site_type_symbol
_atom_site_label
_atom_site_fract_x
_atom_site_fract_y
_atom_site_fract_z
Si Si1 0.253855 0.329221 0.819727
Si Si2 0.532735 0.835541 0.938634
Si Si3 0.562921 0.673453 0.358134
Si Si4 0.644983 0.325565 0.060802
Si Si5 0.293005 0.325910 0.249985
Si Si6 0.456313 0.681262 0.812112
Si Si7 0.392953 0.832289 0.568132
Si Si8 0.804143 0.821867 0.438387
O O1 0.256301 0.500000 0.801858
O O2 0.170962 0.330230 0.889171
O O3 0.194173 0.217707 0.805359
O O4 0.380689 0.280322 0.793601
O O5 0.467525 0.709110 0.932871
O O6 0.496845 0.000000 0.932405
O O7 0.500000 0.827744 0.000000
O O8 0.566732 0.500000 0.347019
O O9 0.672799 0.751201 0.301326
O O10 0.578279 0.709740 0.405076
O O11 0.434874 0.731352 0.387255
O O12 0.669726 0.500000 0.056604
O O13 0.608093 0.268469 0.121894
O O14 0.750000 0.250000 0.000000
O O15 0.285664 0.500000 0.259761
O O16 0.410978 0.267798 0.234502
O O17 0.458199 0.500000 0.813850
O O18 0.500000 0.839117 0.500000
O O19 0.278648 0.795948 0.576894
O O20 0.380338 0.000000 0.591871
O O21 0.750000 0.750000 0.500000
O O22 0.807857 0.000000 0.444471
#
# Coordination Sequence:
#
# PCOD9224586 Si02
#       8
#     8   8   8   8   8   8   8   8
#     4  10  20  38  63  86 114 154 199 245 298 357
#     4  10  20  35  57  86 120 155 194 242 303 367
#     4  11  24  40  60  90 124 159 200 246 296 352
#     4  11  21  36  57  85 120 154 198 247 302 364
#     4  11  23  42  63  85 118 159 204 250 296 348
#     4   9  20  39  62  84 114 157 197 242 299 359
#     4  10  20  37  62  90 121 159 200 243 293 350
#     4  10  21  37  60  89 123 159 197 241 295 354
#
# _framework density 10.314329000000001
#
# number of rings (size 3 to 8) (size 9 to 14) (size 15 to 20)
#    0.000    1.750    2.500    1.875    0.000    4.500 
#    0.000    8.750    0.000    0.000    0.000    0.000 
#    0.000    0.000    0.000    0.000    0.000    0.000 
#
# Total GULP energy -178413.081799 kJ/mol
# GULP energy per Si atom -5575.408806 kJ/mol
# Density = 1.029085 g / cm^3
# Si number density = 10.314329 Si / 1000 Ang^3
#
#
#
# Elastic Constant Matrix: (Units=GPa)
#
#
# Indices 1 2 3 4 5 6 
#
# 1 92.9691 5.7485 23.0854 0.0000 -41.0319 0.0000
# 2 5.7485 10.8922 12.7477 0.0000 -14.2812 0.0000
# 3 23.0854 12.7477 67.8241 0.0000 -31.4474 0.0000
# 4 0.0000 0.0000 0.0000 30.5928 0.0000 -0.0727
# 5 -41.0319 -14.2812 -31.4474 0.0000 30.2488 0.0000
# 6 0.0000 0.0000 0.0000 -0.0727 0.0000 25.0636
#
#
#
# Elastic Compliance Matrix: (Units=1/GPa)
#
#
# Indices 1 2 3 4 5 6 
#
# 1 -0.035743 -0.131397 -0.027766 0.000000 -0.139387 0.000000
# 2 -0.131397 -0.234538 -0.087222 0.000000 -0.379648 0.000000
# 3 -0.027766 -0.087222 0.007783 0.000000 -0.070753 0.000000
# 4 0.000000 0.000000 0.000000 0.032688 0.000000 0.000095
# 5 -0.139387 -0.379648 -0.070753 0.000000 -0.408815 0.000000
# 6 0.000000 0.000000 0.000000 0.000095 0.000000 0.039899
#
#
# Mechanical properties :
#
#
# Convention : Reuss Voigt Hill
#
# Bulk Modulus (GPa) = -1.32403 28.31650 13.49624
# Shear Modulus (GPa) = -13.97773 25.85464 5.93846
#
# Velocity S-wave (km/s) = -2.60588 3.54409 1.69853
# Velocity P-wave (km/s) = 3.11406 5.52304 3.22542
#
# Compressibility (1/GPa) = -0.75527016
#
# Stress axis : x y z
#
# Youngs Moduli (GPa) = -27.97748 -4.26369 128.48292
#
# Poissons Ratio (x) = -0.56024 3.56749
# Poissons Ratio (y) = -3.67616 11.20659
# Poissons Ratio (z) = -0.77683 -0.37189
#
# Static dielectric constant tensor:
#      x y z
#    x 1.804940 0.000000 -0.047370 
#    y 0.000000 1.902940 0.000000 
#    z -0.047370 0.000000 1.875810 
# 
# From -- ./inp_files/375431.got.cif
#   From: 2010.05.17/outbox.ucp.g08.bks.cvg/sg12_188_cif.got.tgz:375431.got - 2010.06.11 11:47:21.
