data_PCOD9224719
_publ_section_title
;
Structure prediction by ZEFSAII (Michael W. Deem and Ramdas Pophale) SiO2 
 PCOD9224719
Probable space group: C 2/M
;
_chemical_formula_sum "Si O2"
_cell_formula_units_Z 24
_cell_length_a 24.000000
_cell_length_b 9.000000
_cell_length_c 12.000000
_cell_angle_alpha 90.000000
_cell_angle_beta 70.000000
_cell_angle_gamma 90.000000
_cell_volume 2435.683273
_symmetry_space_group_name_H-M "C 2/M"
_symmetry_group_IT_number 12
_symmetry_cell_setting 'monoclinic'
loop_
_space_group_symop_operation_xyz
x,y,z
-x,y,-z
-x,-y,-z
x,-y,z
1/2+x,1/2+y,z
1/2-x,1/2+y,-z
1/2-x,1/2-y,-z
1/2+x,1/2-y,z
loop_
_atom_site_type_symbol
_atom_site_label
_atom_site_fract_x
_atom_site_fract_y
_atom_site_fract_z
Si Si1 0.234107 0.324856 0.752693
Si Si2 0.144170 0.676045 0.356412
Si Si3 0.954025 0.823112 0.178475
Si Si4 0.628199 0.322239 0.958106
Si Si5 0.149651 0.676512 0.614657
Si Si6 0.570852 0.677610 0.224093
O O1 0.242749 0.500000 0.761482
O O2 0.294636 0.240072 0.732813
O O3 0.182405 0.265421 0.867956
O O4 0.210221 0.298944 0.642448
O O5 0.141767 0.500000 0.345494
O O6 0.147200 0.710244 0.485960
O O7 0.090247 0.747724 0.325306
O O8 0.931634 0.778715 0.070046
O O9 0.898302 0.778191 0.291736
O O10 0.010899 0.764427 0.206230
O O11 0.963263 0.000000 0.165384
O O12 0.636041 0.500000 0.935612
O O13 0.619525 0.295979 0.094376
O O14 0.135846 0.500000 0.638631
O O15 0.566021 0.500000 0.244416
#
# Coordination Sequence:
#
# PCOD9224719 Si02
#       6
#     8   8   8   8   8   8
#     4  10  20  36  58  81 104 133 175 223 266 310
#     4  11  23  37  53  76 108 144 178 213 261 316
#     4   9  18  34  58  83 105 135 176 219 261 307
#     4   9  18  35  58  81 106 137 174 217 263 310
#     4   9  20  37  56  79 106 137 174 218 265 312
#     4  10  21  36  54  79 110 142 176 214 258 310
#
# _framework density 9.8534980000000001
#
# number of rings (size 3 to 8) (size 9 to 14) (size 15 to 20)
#    0.000    2.333    0.000    2.000    0.000    6.667 
#    0.000    3.333    0.000    5.000    0.000    0.000 
#    0.000    0.000    0.000    0.000    0.000    0.000 
#
# Total GULP energy -133830.154620 kJ/mol
# GULP energy per Si atom -5576.256442 kJ/mol
# Density = 0.983107 g / cm^3
# Si number density = 9.853498 Si / 1000 Ang^3
#
#
#
# Elastic Constant Matrix: (Units=GPa)
#
#
# Indices 1 2 3 4 5 6 
#
# 1 49.6050 11.8618 0.9799 0.0000 15.2084 0.0000
# 2 11.8618 9.1368 21.3081 0.0000 9.9302 0.0000
# 3 0.9799 21.3081 14.9292 0.0000 13.0413 0.0000
# 4 0.0000 0.0000 0.0000 18.9222 0.0000 2.7246
# 5 15.2084 9.9302 13.0413 0.0000 19.9436 0.0000
# 6 0.0000 0.0000 0.0000 2.7246 0.0000 26.7048
#
#
#
# Elastic Compliance Matrix: (Units=1/GPa)
#
#
# Indices 1 2 3 4 5 6 
#
# 1 0.021606 0.017976 -0.011343 0.000000 -0.018010 0.000000
# 2 0.017976 -0.018274 0.067468 0.000000 -0.048727 0.000000
# 3 -0.011343 0.067468 -0.015809 0.000000 -0.014605 0.000000
# 4 0.000000 0.000000 0.000000 0.053636 0.000000 -0.005472
# 5 -0.018010 -0.048727 -0.014605 0.000000 0.097688 0.000000
# 6 0.000000 0.000000 0.000000 -0.005472 0.000000 0.038005
#
#
# Mechanical properties :
#
#
# Convention : Reuss Voigt Hill
#
# Bulk Modulus (GPa) = 7.36783 15.77451 11.57117
# Shear Modulus (GPa) = 67.66679 15.74887 41.70783
#
# Velocity S-wave (km/s) = 5.86609 2.82999 4.60542
# Velocity P-wave (km/s) = 7.04472 4.32439 5.84502
#
# Compressibility (1/GPa) = 0.13572509
#
# Stress axis : x y z
#
# Youngs Moduli (GPa) = 46.28258 -54.72200 -63.25536
#
# Poissons Ratio (x) = 0.98370 -0.71750
# Poissons Ratio (y) = -0.83199 4.26769
# Poissons Ratio (z) = 0.52498 3.69196
#
# Static dielectric constant tensor:
#      x y z
#    x 1.712680 0.000000 0.003340 
#    y 0.000000 1.652730 0.000000 
#    z 0.003340 0.000000 1.696440 
# 
# From -- ./inp_files/172038.got.cif
#   From: 2010.05.17/outbox.ucp.g08.bks.cvg/sg12_87_cif.got.tgz:172038.got - 2010.06.11 11:47:21.
