data_PCOD9224531
_publ_section_title
;
Structure prediction by ZEFSAII (Michael W. Deem and Ramdas Pophale) SiO2 
 PCOD9224531
Probable space group: C 2/M
;
_chemical_formula_sum "Si O2"
_cell_formula_units_Z 32
_cell_length_a 30.000000
_cell_length_b 9.000000
_cell_length_c 15.000000
_cell_angle_alpha 90.000000
_cell_angle_beta 120.000000
_cell_angle_gamma 90.000000
_cell_volume 3507.402885
_symmetry_space_group_name_H-M "C 2/M"
_symmetry_group_IT_number 12
_symmetry_cell_setting 'monoclinic'
loop_
_space_group_symop_operation_xyz
x,y,z
-x,y,-z
-x,-y,-z
x,-y,z
1/2+x,1/2+y,z
1/2-x,1/2+y,-z
1/2-x,1/2-y,-z
1/2+x,1/2-y,z
loop_
_atom_site_type_symbol
_atom_site_label
_atom_site_fract_x
_atom_site_fract_y
_atom_site_fract_z
Si Si1 0.413175 0.824324 0.755970
Si Si2 0.306324 0.171890 0.949710
Si Si3 0.615464 0.675423 0.098325
Si Si4 0.024800 0.178270 0.874472
Si Si5 0.892497 0.670970 0.374787
Si Si6 0.467693 0.326840 0.317944
Si Si7 0.298986 0.170330 0.145454
Si Si8 0.908855 0.827276 0.569224
O O1 0.381163 0.761823 0.806231
O O2 0.470717 0.760031 0.827471
O O3 0.394363 0.763056 0.642499
O O4 0.414472 0.000000 0.756867
O O5 0.338405 0.279194 0.919475
O O6 0.246561 0.214813 0.883767
O O7 0.315545 0.000000 0.935820
O O8 0.320430 0.194464 0.067499
O O9 0.613732 0.500000 0.112916
O O10 0.563664 0.716678 0.992035
O O11 0.047614 0.211980 0.799102
O O12 0.015459 0.000000 0.866890
O O13 0.901056 0.500000 0.408350
O O14 0.940139 0.730027 0.364333
O O15 0.843442 0.682227 0.261775
O O16 0.884675 0.766190 0.455198
O O17 0.454984 0.500000 0.321337
O O18 0.529307 0.311411 0.381708
O O19 0.278494 0.000000 0.125943
O O20 0.898091 0.000000 0.572507
#
# Coordination Sequence:
#
# PCOD9224531 Si02
#       8
#     8   8   8   8   8   8   8   8
#     4  11  22  35  52  75 104 137 176 221 261 299
#     4  10  20  35  56  81 107 136 173 213 253 303
#     4  11  21  34  54  77 105 141 176 211 257 311
#     4   9  19  34  51  74 106 143 178 210 252 308
#     4  11  21  32  51  78 105 135 173 215 259 307
#     4   9  18  32  49  72 104 140 175 211 252 302
#     4   9  20  37  54  77 110 140 166 206 261 313
#     4  10  21  37  53  71 101 140 179 216 257 307
#
# _framework density 9.1235599999999994
#
# number of rings (size 3 to 8) (size 9 to 14) (size 15 to 20)
#    0.000    2.000    0.000    4.875    0.000    8.000 
#    0.000    0.000    0.000    0.750    0.000    0.000 
#    0.000    0.000    0.000    0.000    0.000    0.000 
#
# Total GULP energy -178674.012775 kJ/mol
# GULP energy per Si atom -5583.562899 kJ/mol
# Density = 0.910279 g / cm^3
# Si number density = 9.123560 Si / 1000 Ang^3
#
#
#
# Elastic Constant Matrix: (Units=GPa)
#
#
# Indices 1 2 3 4 5 6 
#
# 1 40.9642 16.3664 9.1918 0.0000 -17.6937 0.0000
# 2 16.3664 30.7377 40.5937 0.0000 -10.1605 0.0000
# 3 9.1918 40.5937 95.7261 0.0000 -17.7643 0.0000
# 4 0.0000 0.0000 0.0000 30.7481 0.0000 -8.8074
# 5 -17.6937 -10.1605 -17.7643 0.0000 17.7913 0.0000
# 6 0.0000 0.0000 0.0000 -8.8074 0.0000 30.6579
#
#
#
# Elastic Compliance Matrix: (Units=1/GPa)
#
#
# Indices 1 2 3 4 5 6 
#
# 1 0.064824 -0.047550 0.025609 0.000000 0.062883 0.000000
# 2 -0.047550 0.111523 -0.048709 0.000000 -0.032234 0.000000
# 3 0.025609 -0.048709 0.034622 0.000000 0.032221 0.000000
# 4 0.000000 0.000000 0.000000 0.035439 0.000000 0.010181
# 5 0.062883 -0.032234 0.032221 0.000000 0.132509 0.000000
# 6 0.000000 0.000000 0.000000 0.010181 0.000000 0.035543
#
#
# Mechanical properties :
#
#
# Convention : Reuss Voigt Hill
#
# Bulk Modulus (GPa) = 14.35329 33.30354 23.82842
# Shear Modulus (GPa) = 8.63584 22.59119 15.61351
#
# Velocity S-wave (km/s) = 2.17784 3.52244 2.92836
# Velocity P-wave (km/s) = 3.76923 5.90207 4.95185
#
# Compressibility (1/GPa) = 0.06967042
#
# Stress axis : x y z
#
# Youngs Moduli (GPa) = 15.42639 8.96673 28.88321
#
# Poissons Ratio (x) = 0.42637 -0.73967
# Poissons Ratio (y) = 0.73353 1.40686
# Poissons Ratio (z) = -0.39505 0.43676
#
# Static dielectric constant tensor:
#      x y z
#    x 1.614650 0.000000 -0.012470 
#    y 0.000000 1.613080 0.000000 
#    z -0.012470 0.000000 1.628440 
# 
# From -- ./inp_files/249159.got.cif
#   From: 2010.05.17/outbox.ucp.g08.bks.cvg/sg12_125_cif.got.tgz:249159.got - 2010.06.11 11:47:21.
