data_PCOD9224711
_publ_section_title
;
Structure prediction by ZEFSAII (Michael W. Deem and Ramdas Pophale) SiO2 
 PCOD9224711
Probable space group: C 2/M
;
_chemical_formula_sum "Si O2"
_cell_formula_units_Z 32
_cell_length_a 21.000000
_cell_length_b 15.000000
_cell_length_c 30.000000
_cell_angle_alpha 90.000000
_cell_angle_beta 160.000000
_cell_angle_gamma 90.000000
_cell_volume 3232.090354
_symmetry_space_group_name_H-M "C 2/M"
_symmetry_group_IT_number 12
_symmetry_cell_setting 'monoclinic'
loop_
_space_group_symop_operation_xyz
x,y,z
-x,y,-z
-x,-y,-z
x,-y,z
1/2+x,1/2+y,z
1/2-x,1/2+y,-z
1/2-x,1/2-y,-z
1/2+x,1/2-y,z
loop_
_atom_site_type_symbol
_atom_site_label
_atom_site_fract_x
_atom_site_fract_y
_atom_site_fract_z
Si Si1 0.931244 0.599950 0.312851
Si Si2 0.631484 0.399669 0.630703
Si Si3 0.114252 0.245234 0.484522
Si Si4 0.531277 0.141435 0.853648
Si Si5 0.515176 0.603810 0.059970
Si Si6 0.422719 0.899747 0.681756
Si Si7 0.699523 0.902270 0.607098
Si Si8 0.064536 0.849748 0.895207
O O1 0.008142 0.500000 0.371200
O O2 0.738773 0.604422 0.212647
O O3 0.049824 0.683766 0.405878
O O4 0.916403 0.606684 0.249528
O O5 0.500000 0.395845 0.500000
O O6 0.604874 0.500000 0.632113
O O7 0.555986 0.316453 0.609755
O O8 0.849997 0.389884 0.762000
O O9 0.268310 0.174534 0.571175
O O10 0.197136 0.312234 0.576382
O O11 0.489296 0.114416 0.775464
O O12 0.541784 0.247558 0.865874
O O13 0.746026 0.111845 0.002239
O O14 0.455674 0.500000 0.018867
O O15 0.424771 0.646370 0.044007
O O16 0.500000 0.643211 0.000000
O O17 0.344297 0.000000 0.627128
O O18 0.500000 0.900721 0.500000
O O19 0.876063 0.897168 0.755776
O O20 0.711669 0.000000 0.592295
#
# Coordination Sequence:
#
# PCOD9224711 Si02
#       8
#     8   8   8   8   8   8   8   8
#     4  10  22  37  57  85 117 153 198 245 301 358
#     4  11  21  35  57  84 114 153 195 243 297 346
#     4  12  21  37  58  84 119 156 197 250 292 358
#     4  11  22  37  58  87 123 153 193 249 297 352
#     4  10  20  36  57  83 115 152 194 240 291 355
#     4  11  22  38  59  85 117 155 196 250 302 348
#     4  11  22  36  57  83 116 159 197 237 293 356
#     4  11  22  37  58  87 122 159 196 237 298 357
#
# _framework density 9.9007129999999997
#
# number of rings (size 3 to 8) (size 9 to 14) (size 15 to 20)
#    0.000    1.125    2.500    5.250    0.000    5.000 
#    0.000    0.000    0.000    0.000    0.000    0.000 
#    0.000    6.250    0.000    0.000    0.000    0.000 
#
# Total GULP energy -178442.235074 kJ/mol
# GULP energy per Si atom -5576.319846 kJ/mol
# Density = 0.987818 g / cm^3
# Si number density = 9.900713 Si / 1000 Ang^3
#
#
#
# Elastic Constant Matrix: (Units=GPa)
#
#
# Indices 1 2 3 4 5 6 
#
# 1 70.8064 31.7678 27.0925 0.0046 12.2536 -0.0009
# 2 31.7678 143.1624 30.0765 0.0111 1.9426 0.0021
# 3 27.0925 30.0765 97.3276 0.0137 18.5802 0.0005
# 4 0.0046 0.0111 0.0137 2.1845 0.0058 -2.5987
# 5 12.2536 1.9426 18.5802 0.0058 34.0164 -0.0004
# 6 -0.0009 0.0021 0.0005 -2.5987 -0.0004 24.2346
#
#
#
# Elastic Compliance Matrix: (Units=1/GPa)
#
#
# Indices 1 2 3 4 5 6 
#
# 1 0.017482 -0.003182 -0.003032 0.000013 -0.004460 0.000002
# 2 -0.003182 0.008076 -0.001943 -0.000032 0.001746 -0.000004
# 3 -0.003032 -0.001943 0.012827 -0.000056 -0.005803 -0.000006
# 4 0.000013 -0.000032 -0.000056 0.524695 -0.000061 0.056264
# 5 -0.004460 0.001746 -0.005803 -0.000061 0.034074 -0.000006
# 6 0.000002 -0.000004 -0.000006 0.056264 -0.000006 0.047296
#
#
# Mechanical properties :
#
#
# Convention : Reuss Voigt Hill
#
# Bulk Modulus (GPa) = 45.30805 54.35222 49.83014
# Shear Modulus (GPa) = 7.48367 26.91109 17.19738
#
# Velocity S-wave (km/s) = 1.94617 3.69053 2.95022
# Velocity P-wave (km/s) = 5.28970 6.75783 6.06833
#
# Compressibility (1/GPa) = 0.02207113
#
# Stress axis : x y z
#
# Youngs Moduli (GPa) = 57.20014 123.82827 77.96130
#
# Poissons Ratio (x) = 0.39401 0.23636
# Poissons Ratio (y) = 0.18201 0.15150
# Poissons Ratio (z) = 0.17342 0.24063
#
# Static dielectric constant tensor:
#      x y z
#    x 1.709270 0.000000 -0.021680 
#    y 0.000000 1.680820 -0.000020 
#    z -0.021680 -0.000020 1.788830 
# 
# From -- ./inp_files/381507.got.cif
#   From: 2010.05.17/outbox.ucp.g08.bks.cvg/sg12_191_cif.got.tgz:381507.got - 2010.06.11 11:47:21.
