data_PCOD9224548
_publ_section_title
;
Structure prediction by ZEFSAII (Michael W. Deem and Ramdas Pophale) SiO2 
 PCOD9224548
Probable space group: C 2/M
;
_chemical_formula_sum "Si O2"
_cell_formula_units_Z 32
_cell_length_a 15.000000
_cell_length_b 9.000000
_cell_length_c 30.000000
_cell_angle_alpha 90.000000
_cell_angle_beta 50.000000
_cell_angle_gamma 90.000000
_cell_volume 3102.479995
_symmetry_space_group_name_H-M "C 2/M"
_symmetry_group_IT_number 12
_symmetry_cell_setting 'monoclinic'
loop_
_space_group_symop_operation_xyz
x,y,z
-x,y,-z
-x,-y,-z
x,-y,z
1/2+x,1/2+y,z
1/2-x,1/2+y,-z
1/2-x,1/2-y,-z
1/2+x,1/2-y,z
loop_
_atom_site_type_symbol
_atom_site_label
_atom_site_fract_x
_atom_site_fract_y
_atom_site_fract_z
Si Si1 0.103385 0.319830 0.936632
Si Si2 0.562021 0.321258 0.547035
Si Si3 0.823251 0.820179 0.583476
Si Si4 0.301599 0.322652 0.938769
Si Si5 0.018537 0.824723 0.808150
Si Si6 0.323866 0.176261 0.181116
Si Si7 0.405684 0.678224 0.363895
Si Si8 0.916505 0.324366 0.755565
O O1 0.099503 0.500000 0.938306
O O2 0.219505 0.274900 0.924320
O O3 0.101027 0.278326 0.886328
O O4 0.000000 0.261390 0.000000
O O5 0.566600 0.500000 0.544346
O O6 0.426473 0.282734 0.584339
O O7 0.628792 0.274950 0.481001
O O8 0.610088 0.276071 0.579300
O O9 0.706466 0.729704 0.627612
O O10 0.804364 0.000000 0.590315
O O11 0.291865 0.500000 0.948152
O O12 0.427966 0.292670 0.877682
O O13 0.250000 0.250000 0.000000
O O14 0.141138 0.773774 0.788144
O O15 0.987478 0.723244 0.776471
O O16 0.011542 0.000000 0.799698
O O17 0.195705 0.219968 0.207819
O O18 0.336323 0.000000 0.185149
O O19 0.423840 0.500000 0.355331
O O20 0.511383 0.771300 0.310257
O O21 0.891391 0.500000 0.763402
#
# Coordination Sequence:
#
# PCOD9224548 Si02
#       8
#     8   8   8   8   8   8   8   8
#     4   9  17  32  56  85 119 154 190 234 293 359
#     4   8  17  34  59  87 121 162 200 244 300 361
#     4   9  17  35  60  88 121 160 205 247 293 361
#     4  10  20  35  56  86 122 156 192 242 299 361
#     4  11  23  42  64  89 121 157 200 252 307 368
#     4  11  22  41  66  90 120 158 199 249 309 370
#     4  11  22  37  58  87 121 158 202 254 312 365
#     4  12  26  44  63  86 118 163 213 262 312 367
#
# _framework density 10.314329000000001
#
# number of rings (size 3 to 8) (size 9 to 14) (size 15 to 20)
#    0.000    1.875    1.250    4.125    0.000    3.000 
#    0.000    6.875    0.000    2.625    0.000    0.000 
#    0.000    0.000    0.000    0.000    0.000    0.000 
#
# Total GULP energy -178416.230564 kJ/mol
# GULP energy per Si atom -5575.507205 kJ/mol
# Density = 1.029085 g / cm^3
# Si number density = 10.314329 Si / 1000 Ang^3
#
#
#
# Elastic Constant Matrix: (Units=GPa)
#
#
# Indices 1 2 3 4 5 6 
#
# 1 78.0870 -2.1294 -4.2489 0.0000 7.8881 0.0000
# 2 -2.1294 21.2659 4.7872 0.0000 5.6304 -0.0001
# 3 -4.2489 4.7872 17.9467 0.0000 -6.3924 0.0000
# 4 0.0000 0.0000 0.0000 23.5597 0.0000 -1.4645
# 5 7.8881 5.6304 -6.3924 0.0000 6.7090 0.0000
# 6 0.0000 -0.0001 0.0000 -1.4645 0.0000 24.3934
#
#
#
# Elastic Compliance Matrix: (Units=1/GPa)
#
#
# Indices 1 2 3 4 5 6 
#
# 1 0.019637 0.028890 -0.030148 0.000000 -0.076058 0.000000
# 2 0.028890 0.169921 -0.153456 0.000000 -0.322782 0.000000
# 3 -0.030148 -0.153456 0.224050 0.000000 0.377705 0.000000
# 4 0.000000 0.000000 0.000000 0.042604 0.000000 0.002558
# 5 -0.076058 -0.322782 0.377705 0.000000 0.869240 0.000001
# 6 0.000000 0.000000 0.000000 0.002558 0.000001 0.041148
#
#
# Mechanical properties :
#
#
# Convention : Reuss Voigt Hill
#
# Bulk Modulus (GPa) = 9.59886 12.67973 11.13929
# Shear Modulus (GPa) = 2.92269 18.85847 10.89058
#
# Velocity S-wave (km/s) = 1.19159 3.02683 2.30017
# Velocity P-wave (km/s) = 2.56056 4.28668 3.53073
#
# Compressibility (1/GPa) = 0.10417900
#
# Stress axis : x y z
#
# Youngs Moduli (GPa) = 50.92493 5.88508 4.46329
#
# Poissons Ratio (x) = -0.17002 0.13456
# Poissons Ratio (y) = -1.47123 0.68492
# Poissons Ratio (z) = 1.53529 0.90310
#
# Static dielectric constant tensor:
#      x y z
#    x 1.780120 0.000000 -0.045160 
#    y 0.000000 1.671460 0.000000 
#    z -0.045160 0.000000 1.785420 
# 
# From -- ./inp_files/375382.got.cif
#   From: 2010.05.17/outbox.ucp.g08.bks.cvg/sg12_188_cif.got.tgz:375382.got - 2010.06.11 11:47:21.
