data_PCOD9224491
_publ_section_title
;
Structure prediction by ZEFSAII (Michael W. Deem and Ramdas Pophale) SiO2 
 PCOD9224491
Probable space group: C 2/M
;
_chemical_formula_sum "Si O2"
_cell_formula_units_Z 32
_cell_length_a 15.000000
_cell_length_b 30.000000
_cell_length_c 9.000000
_cell_angle_alpha 90.000000
_cell_angle_beta 60.000000
_cell_angle_gamma 90.000000
_cell_volume 3507.402885
_symmetry_space_group_name_H-M "C 2/M"
_symmetry_group_IT_number 12
_symmetry_cell_setting 'monoclinic'
loop_
_space_group_symop_operation_xyz
x,y,z
-x,y,-z
-x,-y,-z
x,-y,z
1/2+x,1/2+y,z
1/2-x,1/2+y,-z
1/2-x,1/2-y,-z
1/2+x,1/2-y,z
loop_
_atom_site_type_symbol
_atom_site_label
_atom_site_fract_x
_atom_site_fract_y
_atom_site_fract_z
Si Si1 0.384649 0.050504 0.152998
Si Si2 0.434431 0.177060 0.332302
Si Si3 0.922654 0.770457 0.458075
Si Si4 0.710480 0.218208 0.792177
Si Si5 0.298955 0.872427 0.691631
Si Si6 0.863899 0.363041 0.971766
Si Si7 0.891795 0.192100 0.158928
Si Si8 0.896827 0.447856 0.494436
O O1 0.396808 0.059990 0.318021
O O2 0.336908 0.000000 0.173482
O O3 0.500000 0.046137 0.000000
O O4 0.346266 0.094476 0.095165
O O5 0.474620 0.223510 0.367314
O O6 0.342886 0.193837 0.303114
O O7 0.383888 0.149622 0.509416
O O8 0.517733 0.153390 0.156175
O O9 0.818943 0.764501 0.639648
O O10 0.901573 0.795314 0.323460
O O11 0.000000 0.796162 0.500000
O O12 0.644988 0.261832 0.888845
O O13 0.702686 0.179875 0.921539
O O14 0.334320 0.874991 0.830260
O O15 0.195766 0.844573 0.775809
O O16 0.297154 0.922629 0.636806
O O17 0.000000 0.178365 0.000000
O O18 0.889525 0.500000 0.525561
O O19 0.000000 0.433443 0.500000
#
# Coordination Sequence:
#
# PCOD9224491 Si02
#       8
#     8   8   8   8   8   8   8   8
#     4  10  20  35  54  83 120 151 183 229 283 341
#     4  11  20  38  52  81 114 155 195 235 287 338
#     4  11  22  38  59  78 109 155 198 248 288 341
#     4  11  21  39  56  80 114 155 196 243 289 340
#     4  12  22  36  56  83 119 150 195 236 286 349
#     4  12  24  32  59  86 115 157 197 235 282 352
#     4  11  24  40  56  79 115 153 194 251 293 332
#     4  10  21  37  60  87 118 153 187 230 292 356
#
# _framework density 9.1235599999999994
#
# number of rings (size 3 to 8) (size 9 to 14) (size 15 to 20)
#    0.000    1.000    2.500    7.500    1.750    2.000 
#    0.000    0.000    0.000    0.375    0.000    0.000 
#    0.000    3.000    0.000    0.000    0.000    0.000 
#
# Total GULP energy -178418.169100 kJ/mol
# GULP energy per Si atom -5575.567784 kJ/mol
# Density = 0.910279 g / cm^3
# Si number density = 9.123560 Si / 1000 Ang^3
#
#
#
# Elastic Constant Matrix: (Units=GPa)
#
#
# Indices 1 2 3 4 5 6 
#
# 1 48.2511 41.1144 26.7164 0.0000 0.8566 0.0000
# 2 41.1144 108.5799 58.0262 0.0000 2.2922 0.0000
# 3 26.7164 58.0262 97.4686 0.0000 2.6565 0.0000
# 4 0.0000 0.0000 0.0000 44.2586 0.0000 11.4509
# 5 0.8566 2.2922 2.6565 0.0000 24.0203 0.0000
# 6 0.0000 0.0000 0.0000 11.4509 0.0000 8.4135
#
#
#
# Elastic Compliance Matrix: (Units=1/GPa)
#
#
# Indices 1 2 3 4 5 6 
#
# 1 0.030918 -0.010529 -0.002210 0.000000 0.000147 0.000000
# 2 -0.010529 0.017097 -0.007280 0.000000 -0.000451 0.000000
# 3 -0.002210 -0.007280 0.015224 0.000000 -0.000910 0.000000
# 4 0.000000 0.000000 0.000000 0.034875 0.000000 -0.047465
# 5 0.000147 -0.000451 -0.000910 0.000000 0.041770 0.000000
# 6 0.000000 0.000000 0.000000 -0.047465 0.000000 0.183457
#
#
# Mechanical properties :
#
#
# Convention : Reuss Voigt Hill
#
# Bulk Modulus (GPa) = 43.10296 56.22374 49.66335
# Shear Modulus (GPa) = 13.47298 23.90133 18.68716
#
# Velocity S-wave (km/s) = 2.72023 3.62314 3.20365
# Velocity P-wave (km/s) = 5.79131 6.95573 6.40005
#
# Compressibility (1/GPa) = 0.02320026
#
# Stress axis : x y z
#
# Youngs Moduli (GPa) = 32.34368 58.49100 65.68437
#
# Poissons Ratio (x) = 0.61586 0.14519
# Poissons Ratio (y) = 0.34055 0.47817
# Poissons Ratio (z) = 0.07149 0.42581
#
# Static dielectric constant tensor:
#      x y z
#    x 1.674080 0.000000 -0.008800 
#    y 0.000000 1.700030 0.000000 
#    z -0.008800 0.000000 1.563280 
# 
# From -- ./inp_files/68203.got.cif
#   From: 2010.05.17/outbox.ucp.g08.bks.cvg/sg12_35_cif.got.tgz:68203.got - 2010.06.11 11:47:21.
