data_PCOD9224957
_publ_section_title
;
Structure prediction by ZEFSAII (Michael W. Deem and Ramdas Pophale) SiO2 
 PCOD9224957
Probable space group: C 2/M
;
_chemical_formula_sum "Si O2"
_cell_formula_units_Z 29
_cell_length_a 12.000000
_cell_length_b 21.000000
_cell_length_c 18.000000
_cell_angle_alpha 90.000000
_cell_angle_beta 40.000000
_cell_angle_gamma 90.000000
_cell_volume 2915.684598
_symmetry_space_group_name_H-M "C 2/M"
_symmetry_group_IT_number 12
_symmetry_cell_setting 'monoclinic'
loop_
_space_group_symop_operation_xyz
x,y,z
-x,y,-z
-x,-y,-z
x,-y,z
1/2+x,1/2+y,z
1/2-x,1/2+y,-z
1/2-x,1/2-y,-z
1/2+x,1/2-y,z
loop_
_atom_site_type_symbol
_atom_site_label
_atom_site_fract_x
_atom_site_fract_y
_atom_site_fract_z
Si Si1 0.711385 0.398512 0.095900
Si Si2 0.162599 0.690101 0.458724
Si Si3 0.262643 0.816289 0.210015
Si Si4 0.634183 0.191023 0.084613
Si Si5 0.932323 0.072200 0.618314
Si Si6 0.000000 0.500000 0.000000
Si Si7 0.486796 0.217652 0.318547
Si Si8 0.849638 0.930334 0.343167
O O1 0.723213 0.339488 0.147010
O O2 0.857411 0.445714 0.049863
O O3 0.520277 0.425527 0.204878
O O4 0.761582 0.372332 0.990323
O O5 0.330846 0.734771 0.375016
O O6 0.102581 0.674638 0.573435
O O7 0.219742 0.625473 0.390659
O O8 0.000000 0.720189 0.500000
O O9 0.460848 0.803845 0.123994
O O10 0.206416 0.874182 0.292142
O O11 0.136741 0.756965 0.283934
O O12 0.571858 0.190353 0.201279
O O13 0.750000 0.250000 0.000000
O O14 0.075858 0.079085 0.610358
O O15 0.000000 0.078779 0.500000
O O16 0.861621 0.000000 0.663289
O O17 0.772468 0.000000 0.377673
#
# Coordination Sequence:
#
# PCOD9224957 Si02
#       8
#     8   8   8   8   8   2   8   8
#     4  11  21  36  60  91 119 156 202 247 302 362
#     4  11  23  41  60  87 115 154 205 248 298 364
#     4  11  21  36  57  82 121 161 196 245 296 368
#     4  12  23  36  57  88 125 158 200 246 302 364
#     4   9  19  33  56  88 120 154 196 250 309 359
#     4  12  20  36  64  92 124 158 206 254 300 364
#     4  11  24  39  59  85 118 159 199 244 303 361
#     4  10  20  38  61  85 116 153 202 249 300 362
#
# _framework density 9.9462060000000001
#
# number of rings (size 3 to 8) (size 9 to 14) (size 15 to 20)
#    0.000    1.241    6.207    0.828    2.897    0.828 
#    0.000    0.000    1.517    0.000    0.000    0.966 
#    0.000    0.000    0.000    0.000    0.000    0.000 
#
# Total GULP energy -161532.718661 kJ/mol
# GULP energy per Si atom -5570.093747 kJ/mol
# Density = 0.992357 g / cm^3
# Si number density = 9.946206 Si / 1000 Ang^3
#
#
#
# Elastic Constant Matrix: (Units=GPa)
#
#
# Indices 1 2 3 4 5 6 
#
# 1 0.8155 -8.4972 0.1712 0.0011 8.8421 0.0001
# 2 -8.4972 42.9664 31.7863 0.0007 0.0004 0.0002
# 3 0.1712 31.7863 99.9620 0.0006 30.0689 0.0006
# 4 0.0011 0.0007 0.0006 49.8492 -0.0010 -31.4696
# 5 8.8421 0.0004 30.0689 -0.0010 27.9169 -0.0001
# 6 0.0001 0.0002 0.0006 -31.4696 -0.0001 37.1002
#
#
#
# Elastic Compliance Matrix: (Units=1/GPa)
#
#
# Indices 1 2 3 4 5 6 
#
# 1 -0.257805 -0.037712 -0.017942 0.000020 0.100980 0.000018
# 2 -0.037712 0.030179 -0.019415 0.000003 0.032855 0.000003
# 3 -0.017942 -0.019415 0.021447 0.000000 -0.017418 0.000000
# 4 0.000020 0.000003 0.000000 0.043186 -0.000004 0.036632
# 5 0.100980 0.032855 -0.017418 -0.000004 0.022597 -0.000004
# 6 0.000018 0.000003 0.000000 0.036632 -0.000004 0.058026
#
#
# Mechanical properties :
#
#
# Convention : Reuss Voigt Hill
#
# Bulk Modulus (GPa) = -2.80650 21.18495 9.18922
# Shear Modulus (GPa) = -98.03066 30.99218 -33.51924
#
# Velocity S-wave (km/s) = -7.02762 3.95142 -4.10936
# Velocity P-wave (km/s) = 8.20145 5.61170 4.22922
#
# Compressibility (1/GPa) = -0.35631561
#
# Stress axis : x y z
#
# Youngs Moduli (GPa) = -3.87890 33.13611 46.62577
#
# Poissons Ratio (x) = 1.24963 0.83655
# Poissons Ratio (y) = -0.14628 0.90523
# Poissons Ratio (z) = -0.06959 0.64333
#
# Static dielectric constant tensor:
#      x y z
#    x 1.721710 0.000000 -0.036840 
#    y 0.000000 1.773300 0.000000 
#    z -0.036840 0.000000 1.946280 
# 
# From -- ./inp_files/265226.got.cif
#   From: 2010.05.17/outbox.ucp.g08.bks.cvg/sg12_133_cif.got.tgz:265226.got - 2010.06.11 11:47:21.
