data_PCOD9224579
_publ_section_title
;
Structure prediction by ZEFSAII (Michael W. Deem and Ramdas Pophale) SiO2 
 PCOD9224579
Probable space group: C 2/M
;
_chemical_formula_sum "Si O2"
_cell_formula_units_Z 28
_cell_length_a 15.000000
_cell_length_b 9.000000
_cell_length_c 24.000000
_cell_angle_alpha 90.000000
_cell_angle_beta 120.000000
_cell_angle_gamma 90.000000
_cell_volume 2805.922308
_symmetry_space_group_name_H-M "C 2/M"
_symmetry_group_IT_number 12
_symmetry_cell_setting 'monoclinic'
loop_
_space_group_symop_operation_xyz
x,y,z
-x,y,-z
-x,-y,-z
x,-y,z
1/2+x,1/2+y,z
1/2-x,1/2+y,-z
1/2-x,1/2-y,-z
1/2+x,1/2-y,z
loop_
_atom_site_type_symbol
_atom_site_label
_atom_site_fract_x
_atom_site_fract_y
_atom_site_fract_z
Si Si1 0.490429 0.677232 0.840410
Si Si2 0.356416 0.824440 0.513276
Si Si3 0.471722 0.672367 0.360986
Si Si4 0.195153 0.173958 0.609658
Si Si5 0.716974 0.322784 0.932098
Si Si6 0.401881 0.324761 0.700946
Si Si7 0.583310 0.172266 0.074944
O O1 0.494787 0.500000 0.834093
O O2 0.606952 0.734260 0.877763
O O3 0.424011 0.735742 0.768741
O O4 0.441969 0.719436 0.883356
O O5 0.250000 0.750000 0.500000
O O6 0.449012 0.774216 0.581223
O O7 0.371805 0.760845 0.456343
O O8 0.344904 0.000000 0.509041
O O9 0.497092 0.500000 0.383045
O O10 0.357316 0.698086 0.346822
O O11 0.495372 0.690330 0.303656
O O12 0.308838 0.237982 0.644414
O O13 0.195262 0.000000 0.596511
O O14 0.709646 0.500000 0.938905
O O15 0.805314 0.297747 0.915087
O O16 0.750000 0.250000 0.000000
O O17 0.374663 0.500000 0.693233
O O18 0.577128 0.000000 0.091461
O O19 0.500000 0.190753 0.000000
#
# Coordination Sequence:
#
# PCOD9224579 Si02
#       7
#     8   8   8   8   8   8   8
#     4  10  22  38  58  85 115 153 197 238 288 348
#     4  12  23  37  61  91 122 156 197 247 300 348
#     4  10  22  40  62  87 119 157 198 244 295 353
#     4  11  23  39  62  91 119 155 202 245 295 352
#     4  10  20  35  57  84 115 148 187 233 288 349
#     4  10  22  41  60  81 116 159 198 240 293 350
#     4  10  20  35  57  86 116 147 185 234 292 345
#
# _framework density 9.9788940000000004
#
# number of rings (size 3 to 8) (size 9 to 14) (size 15 to 20)
#    0.000    1.571    2.857    2.143    0.000    5.429 
#    0.000    2.857    0.000    0.000    0.000    0.000 
#    0.000    0.000    0.000    0.000    0.000    0.000 
#
# Total GULP energy -156250.916201 kJ/mol
# GULP energy per Si atom -5580.389864 kJ/mol
# Density = 0.995618 g / cm^3
# Si number density = 9.978894 Si / 1000 Ang^3
#
#
#
# Elastic Constant Matrix: (Units=GPa)
#
#
# Indices 1 2 3 4 5 6 
#
# 1 41.5897 27.8151 7.5807 0.0000 1.0564 0.0000
# 2 27.8151 33.7858 12.4340 0.0000 -4.6730 0.0000
# 3 7.5807 12.4340 47.6390 0.0000 10.7774 0.0000
# 4 0.0000 0.0000 0.0000 11.2849 0.0000 -2.7625
# 5 1.0564 -4.6730 10.7774 0.0000 -1.8222 0.0000
# 6 0.0000 0.0000 0.0000 -2.7625 0.0000 17.5792
#
#
#
# Elastic Compliance Matrix: (Units=1/GPa)
#
#
# Indices 1 2 3 4 5 6 
#
# 1 0.042001 -0.025948 -0.008757 0.000000 0.039100 0.000000
# 2 -0.025948 0.038917 0.008534 0.000000 -0.064369 0.000000
# 3 -0.008757 0.008534 0.011230 0.000000 0.039460 0.000000
# 4 0.000000 0.000000 0.000000 0.092159 0.000000 0.014483
# 5 0.039100 -0.064369 0.039460 0.000000 -0.127661 0.000000
# 6 0.000000 0.000000 0.000000 0.014483 0.000000 0.059161
#
#
# Mechanical properties :
#
#
# Convention : Reuss Voigt Hill
#
# Bulk Modulus (GPa) = 25.12132 24.29712 24.70922
# Shear Modulus (GPa) = 27.56070 10.42071 18.99071
#
# Velocity S-wave (km/s) = 3.72014 2.28751 3.08806
# Velocity P-wave (km/s) = 5.57379 4.37923 5.01223
#
# Compressibility (1/GPa) = 0.03980682
#
# Stress axis : x y z
#
# Youngs Moduli (GPa) = 23.80877 25.69584 89.04543
#
# Poissons Ratio (x) = 0.66675 0.77974
# Poissons Ratio (y) = 0.61779 -0.75990
# Poissons Ratio (z) = 0.20849 -0.21929
#
# Static dielectric constant tensor:
#      x y z
#    x 1.728740 0.000000 -0.040110 
#    y 0.000000 1.698050 0.000000 
#    z -0.040110 0.000000 1.712560 
# 
# From -- ./inp_files/308995.got.cif
#   From: 2010.05.17/outbox.ucp.g08.bks.cvg/sg12_155_cif.got.tgz:308995.got - 2010.06.11 11:47:21.
