data_PCOD9224524
_publ_section_title
;
Structure prediction by ZEFSAII (Michael W. Deem and Ramdas Pophale) SiO2 
 PCOD9224524
Probable space group: C 2/M
;
_chemical_formula_sum "Si O2"
_cell_formula_units_Z 32
_cell_length_a 15.000000
_cell_length_b 9.000000
_cell_length_c 30.000000
_cell_angle_alpha 90.000000
_cell_angle_beta 130.000000
_cell_angle_gamma 90.000000
_cell_volume 3102.479995
_symmetry_space_group_name_H-M "C 2/M"
_symmetry_group_IT_number 12
_symmetry_cell_setting 'monoclinic'
loop_
_space_group_symop_operation_xyz
x,y,z
-x,y,-z
-x,-y,-z
x,-y,z
1/2+x,1/2+y,z
1/2-x,1/2+y,-z
1/2-x,1/2-y,-z
1/2+x,1/2-y,z
loop_
_atom_site_type_symbol
_atom_site_label
_atom_site_fract_x
_atom_site_fract_y
_atom_site_fract_z
Si Si1 0.290924 0.321280 0.743482
Si Si2 0.862736 0.675718 0.587639
Si Si3 0.590012 0.323363 0.303578
Si Si4 0.585478 0.322859 0.486913
Si Si5 0.005101 0.324590 0.134656
Si Si6 0.256755 0.676833 0.954156
Si Si7 0.381779 0.675268 0.908814
Si Si8 0.858311 0.674429 0.224172
O O1 0.295259 0.500000 0.746727
O O2 0.307236 0.276131 0.697471
O O3 0.402794 0.258680 0.805131
O O4 0.180830 0.278824 0.738252
O O5 0.882325 0.500000 0.593976
O O6 0.902092 0.746696 0.646352
O O7 0.722652 0.702250 0.541180
O O8 0.926692 0.744186 0.564984
O O9 0.594190 0.500000 0.309670
O O10 0.466288 0.272274 0.243915
O O11 0.500000 0.273773 0.500000
O O12 0.567942 0.500000 0.475952
O O13 0.027849 0.500000 0.143135
O O14 0.872914 0.299292 0.106922
O O15 0.026938 0.264092 0.091636
O O16 0.272310 0.500000 0.964312
O O17 0.353202 0.727419 0.949619
O O18 0.250000 0.750000 0.000000
O O19 0.412992 0.500000 0.919611
O O20 0.258145 0.687370 0.842815
O O21 0.891677 0.500000 0.234574
#
# Coordination Sequence:
#
# PCOD9224524 Si02
#       8
#     8   8   8   8   8   8   8   8
#     4   9  20  37  55  77 107 143 177 211 260 319
#     4  10  21  36  55  81 111 143 178 216 264 316
#     4  11  22  35  53  79 112 144 176 218 261 305
#     4   9  19  38  61  82 106 138 179 225 266 307
#     4  10  20  35  56  80 104 133 174 221 262 307
#     4  10  22  37  53  76 105 137 173 215 265 317
#     4   9  19  37  57  76 103 139 174 211 261 319
#     4   9  18  35  56  77 104 138 176 215 259 314
#
# _framework density 10.314329000000001
#
# number of rings (size 3 to 8) (size 9 to 14) (size 15 to 20)
#    0.000    2.375    0.000    2.625    0.000    7.750 
#    0.000    5.000    0.000    0.000    0.000    0.000 
#    0.000    0.000    0.000    0.000    0.000    0.000 
#
# Total GULP energy -178624.822271 kJ/mol
# GULP energy per Si atom -5582.025696 kJ/mol
# Density = 1.029085 g / cm^3
# Si number density = 10.314329 Si / 1000 Ang^3
#
#
#
# Elastic Constant Matrix: (Units=GPa)
#
#
# Indices 1 2 3 4 5 6 
#
# 1 146.7433 28.6664 15.2811 0.0000 -33.4691 0.0000
# 2 28.6664 -18.1595 9.9273 0.0000 1.2167 0.0000
# 3 15.2811 9.9273 41.3444 0.0000 -24.0400 0.0000
# 4 0.0000 0.0000 0.0000 23.6626 0.0000 -0.6431
# 5 -33.4691 1.2167 -24.0400 0.0000 27.5406 0.0000
# 6 0.0000 0.0000 0.0000 -0.6431 0.0000 25.8478
#
#
#
# Elastic Compliance Matrix: (Units=1/GPa)
#
#
# Indices 1 2 3 4 5 6 
#
# 1 0.006439 0.010046 -0.001015 0.000000 0.006496 0.000000
# 2 0.010046 -0.025746 0.020771 0.000000 0.031476 0.000000
# 3 -0.001015 0.020771 0.037210 0.000000 0.030329 0.000000
# 4 0.000000 0.000000 0.000000 0.042289 0.000000 0.001052
# 5 0.006496 0.031476 0.030329 0.000000 0.069287 0.000000
# 6 0.000000 0.000000 0.000000 0.001052 0.000000 0.038714
#
#
# Mechanical properties :
#
#
# Convention : Reuss Voigt Hill
#
# Bulk Modulus (GPa) = 12.90212 30.85309 21.87761
# Shear Modulus (GPa) = 37.19497 23.14708 30.17103
#
# Velocity S-wave (km/s) = 4.25087 3.35339 3.82852
# Velocity P-wave (km/s) = 5.51010 5.47563 5.49289
#
# Compressibility (1/GPa) = 0.07750662
#
# Stress axis : x y z
#
# Youngs Moduli (GPa) = 155.29215 -38.84118 26.87466
#
# Poissons Ratio (x) = 0.39018 0.02728
# Poissons Ratio (y) = -1.56000 -0.55822
# Poissons Ratio (z) = 0.15764 0.80678
#
# Static dielectric constant tensor:
#      x y z
#    x 1.768750 0.000000 -0.017520 
#    y 0.000000 1.681430 0.000000 
#    z -0.017520 0.000000 1.793560 
# 
# From -- ./inp_files/375609.got.cif
#   From: 2010.05.17/outbox.ucp.g08.bks.cvg/sg12_188_cif.got.tgz:375609.got - 2010.06.11 11:47:21.
