data_PCOD9224706
_publ_section_title
;
Structure prediction by ZEFSAII (Michael W. Deem and Ramdas Pophale) SiO2 
 PCOD9224706
Probable space group: C 2/M
;
_chemical_formula_sum "Si O2"
_cell_formula_units_Z 32
_cell_length_a 18.000000
_cell_length_b 9.000000
_cell_length_c 30.000000
_cell_angle_alpha 90.000000
_cell_angle_beta 40.000000
_cell_angle_gamma 90.000000
_cell_volume 3123.947783
_symmetry_space_group_name_H-M "C 2/M"
_symmetry_group_IT_number 12
_symmetry_cell_setting 'monoclinic'
loop_
_space_group_symop_operation_xyz
x,y,z
-x,y,-z
-x,-y,-z
x,-y,z
1/2+x,1/2+y,z
1/2-x,1/2+y,-z
1/2-x,1/2-y,-z
1/2+x,1/2-y,z
loop_
_atom_site_type_symbol
_atom_site_label
_atom_site_fract_x
_atom_site_fract_y
_atom_site_fract_z
Si Si1 0.092005 0.321828 0.293307
Si Si2 0.734222 0.171151 0.839811
Si Si3 0.687897 0.821526 0.420755
Si Si4 0.005348 0.824596 0.161697
Si Si5 0.573176 0.176694 0.711475
Si Si6 0.008540 0.329106 0.074470
Si Si7 0.247355 0.680292 0.928677
Si Si8 0.003777 0.320994 0.427321
O O1 0.095528 0.500000 0.293954
O O2 0.216666 0.260591 0.223836
O O3 0.041059 0.261906 0.362620
O O4 0.012484 0.276381 0.288577
O O5 0.597072 0.169717 0.910977
O O6 0.779968 0.237015 0.864864
O O7 0.770392 0.000000 0.817367
O O8 0.802077 0.730764 0.360843
O O9 0.602174 0.793962 0.418684
O O10 0.617976 0.771968 0.496680
O O11 0.709379 0.000000 0.412539
O O12 0.955927 0.757759 0.139898
O O13 0.141525 0.787123 0.093412
O O14 0.956891 0.751674 0.228069
O O15 0.991868 0.000000 0.171043
O O16 0.567426 0.000000 0.718828
O O17 0.030380 0.500000 0.077896
O O18 0.126023 0.262822 0.001733
O O19 0.237797 0.500000 0.929211
O O20 0.994951 0.500000 0.428082
#
# Coordination Sequence:
#
# PCOD9224706 Si02
#       8
#     8   8   8   8   8   8   8   8
#     4  10  21  37  56  79 112 151 186 228 276 322
#     4  10  20  36  57  82 111 145 187 228 272 330
#     4   9  18  36  62  86 110 144 185 225 266 328
#     4  11  22  37  57  80 109 147 190 230 270 333
#     4  11  23  37  54  80 115 149 183 230 284 324
#     4  10  21  36  57  84 112 142 180 233 288 329
#     4   9  18  36  59  80 107 146 187 226 274 333
#     4   8  17  36  60  85 111 144 184 223 270 325
#
# _framework density 10.243449
#
# number of rings (size 3 to 8) (size 9 to 14) (size 15 to 20)
#    0.000    2.250    1.250    2.250    1.750    3.000 
#    0.000    3.125    0.000    1.500    0.000    0.000 
#    0.000    0.000    0.000    0.000    0.000    0.000 
#
# Total GULP energy -178214.670883 kJ/mol
# GULP energy per Si atom -5569.208465 kJ/mol
# Density = 1.022013 g / cm^3
# Si number density = 10.243449 Si / 1000 Ang^3
#
#
#
# Elastic Constant Matrix: (Units=GPa)
#
#
# Indices 1 2 3 4 5 6 
#
# 1 33.3362 20.6001 45.0637 0.0002 9.5704 0.0005
# 2 20.6001 -8.8603 17.5311 0.0004 -5.2548 -0.0010
# 3 45.0637 17.5311 127.6679 0.0001 13.2252 0.0002
# 4 0.0002 0.0004 0.0001 25.4812 -0.0001 -0.4609
# 5 9.5704 -5.2548 13.2252 -0.0001 25.5063 0.0000
# 6 0.0005 -0.0010 0.0002 -0.4609 0.0000 5.1705
#
#
#
# Elastic Compliance Matrix: (Units=1/GPa)
#
#
# Indices 1 2 3 4 5 6 
#
# 1 0.028358 0.033692 -0.015062 -0.000001 0.004111 0.000005
# 2 0.033692 -0.034938 -0.005326 0.000000 -0.017078 -0.000010
# 3 -0.015062 -0.005326 0.014170 0.000000 -0.002793 0.000000
# 4 -0.000001 0.000000 0.000000 0.039308 0.000000 0.003504
# 5 0.004111 -0.017078 -0.002793 0.000000 0.035593 -0.000003
# 6 0.000005 -0.000010 0.000000 0.003504 -0.000003 0.193717
#
#
# Mechanical properties :
#
#
# Convention : Reuss Voigt Hill
#
# Bulk Modulus (GPa) = 29.24081 35.39263 32.31672
# Shear Modulus (GPa) = 19.15713 15.82819 17.49266
#
# Velocity S-wave (km/s) = 3.06124 2.78258 2.92523
# Velocity P-wave (km/s) = 5.17676 5.25709 5.21708
#
# Compressibility (1/GPa) = 0.03419878
#
# Stress axis : x y z
#
# Youngs Moduli (GPa) = 35.26351 -28.62217 70.57165
#
# Poissons Ratio (x) = 0.96434 1.06295
# Poissons Ratio (y) = -1.18811 0.37585
# Poissons Ratio (z) = 0.53114 -0.15244
#
# Static dielectric constant tensor:
#      x y z
#    x 1.779140 0.000000 -0.019800 
#    y 0.000000 1.700560 0.000000 
#    z -0.019800 0.000000 1.738480 
# 
# From -- ./inp_files/378260.got.cif
#   From: 2010.05.17/outbox.ucp.g08.bks.cvg/sg12_190_cif.got.tgz:378260.got - 2010.06.11 11:47:21.
