data_PCOD9224680
_publ_section_title
;
Structure prediction by ZEFSAII (Michael W. Deem and Ramdas Pophale) SiO2 
 PCOD9224680
Probable space group: C 2/M
;
_chemical_formula_sum "Si O2"
_cell_formula_units_Z 28
_cell_length_a 30.000000
_cell_length_b 9.000000
_cell_length_c 12.000000
_cell_angle_alpha 90.000000
_cell_angle_beta 110.000000
_cell_angle_gamma 90.000000
_cell_volume 3044.604091
_symmetry_space_group_name_H-M "C 2/M"
_symmetry_group_IT_number 12
_symmetry_cell_setting 'monoclinic'
loop_
_space_group_symop_operation_xyz
x,y,z
-x,y,-z
-x,-y,-z
x,-y,z
1/2+x,1/2+y,z
1/2-x,1/2+y,-z
1/2-x,1/2-y,-z
1/2+x,1/2-y,z
loop_
_atom_site_type_symbol
_atom_site_label
_atom_site_fract_x
_atom_site_fract_y
_atom_site_fract_z
Si Si1 0.353827 0.322944 0.467767
Si Si2 0.745817 0.827731 0.663903
Si Si3 0.287113 0.170084 0.110404
Si Si4 0.567776 0.677921 0.130791
Si Si5 0.386764 0.320355 0.248600
Si Si6 0.970247 0.823032 0.153008
Si Si7 0.654188 0.176730 0.312489
O O1 0.356983 0.500000 0.487141
O O2 0.298883 0.272293 0.410184
O O3 0.382388 0.285714 0.378021
O O4 0.368108 0.234163 0.589924
O O5 0.737907 0.830845 0.789915
O O6 0.795458 0.756679 0.668966
O O7 0.742111 0.000000 0.620675
O O8 0.338029 0.251467 0.158871
O O9 0.294950 0.000000 0.082859
O O10 0.250000 0.250000 0.000000
O O11 0.575085 0.500000 0.154620
O O12 0.524640 0.728458 0.176454
O O13 0.615618 0.767680 0.191178
O O14 0.552767 0.696787 0.989033
O O15 0.384347 0.500000 0.237092
O O16 0.433742 0.269838 0.219126
O O17 0.974554 0.000000 0.175967
O O18 0.660411 0.000000 0.318054
#
# Coordination Sequence:
#
# PCOD9224680 Si02
#       7
#     8   8   8   8   8   8   8
#     4  10  20  36  56  79 108 142 181 224 267 320
#     4  10  21  37  55  76 106 145 183 220 266 316
#     4  10  21  34  50  76 110 144 178 216 259 314
#     4   9  18  35  58  83 109 138 176 219 268 324
#     4   9  18  34  57  81 105 138 179 220 268 319
#     4   8  16  34  60  84 107 137 174 219 270 324
#     4  12  24  36  53  78 110 143 182 226 268 318
#
# _framework density 9.1965979999999998
#
# number of rings (size 3 to 8) (size 9 to 14) (size 15 to 20)
#    0.000    2.286    0.000    3.857    2.000    2.286 
#    0.000    2.857    0.000    4.286    0.000    0.000 
#    0.000    0.000    0.000    0.000    0.000    0.000 
#
# Total GULP energy -156054.961988 kJ/mol
# GULP energy per Si atom -5573.391500 kJ/mol
# Density = 0.917567 g / cm^3
# Si number density = 9.196598 Si / 1000 Ang^3
#
#
#
# Elastic Constant Matrix: (Units=GPa)
#
#
# Indices 1 2 3 4 5 6 
#
# 1 111.3844 17.7969 8.4238 0.0000 -30.3739 0.0000
# 2 17.7969 60.6900 10.7985 0.0000 -6.5365 0.0000
# 3 8.4238 10.7985 20.3702 0.0000 -1.1272 0.0000
# 4 0.0000 0.0000 0.0000 20.4793 0.0000 1.3581
# 5 -30.3739 -6.5365 -1.1272 0.0000 18.8732 0.0000
# 6 0.0000 0.0000 0.0000 1.3581 0.0000 22.6782
#
#
#
# Elastic Compliance Matrix: (Units=1/GPa)
#
#
# Indices 1 2 3 4 5 6 
#
# 1 0.016649 -0.001219 -0.004795 0.000000 0.026085 0.000000
# 2 -0.001219 0.018925 -0.009305 0.000000 0.004036 0.000000
# 3 -0.004795 -0.009305 0.055585 0.000000 -0.007620 0.000000
# 4 0.000000 0.000000 0.000000 0.049024 0.000000 -0.002936
# 5 0.026085 0.004036 -0.007620 0.000000 0.095908 0.000000
# 6 0.000000 0.000000 0.000000 -0.002936 0.000000 0.044271
#
#
# Mechanical properties :
#
#
# Convention : Reuss Voigt Hill
#
# Bulk Modulus (GPa) = 16.52331 29.60922 23.06627
# Shear Modulus (GPa) = 15.09777 22.76783 18.93280
#
# Velocity S-wave (km/s) = 2.86813 3.52211 3.21181
# Velocity P-wave (km/s) = 4.46890 5.71605 5.13051
#
# Compressibility (1/GPa) = 0.06052054
#
# Stress axis : x y z
#
# Youngs Moduli (GPa) = 60.06502 52.83989 17.99041
#
# Poissons Ratio (x) = 0.06444 0.08626
# Poissons Ratio (y) = 0.07325 0.16740
# Poissons Ratio (z) = 0.28801 0.49166
#
# Static dielectric constant tensor:
#      x y z
#    x 1.620180 0.000000 -0.005860 
#    y 0.000000 1.619440 0.000000 
#    z -0.005860 0.000000 1.702320 
# 
# From -- ./inp_files/186871.got.cif
#   From: 2010.05.17/outbox.ucp.g08.bks.cvg/sg12_94_cif.got.tgz:186871.got - 2010.06.11 11:47:21.
