data_PCOD9224007
_publ_section_title
;
Structure prediction by ZEFSAII (Michael W. Deem and Ramdas Pophale) SiO2 
 PCOD9224007
Probable space group: C 2/M
;
_chemical_formula_sum "Si O2"
_cell_formula_units_Z 24
_cell_length_a 21.000000
_cell_length_b 9.000000
_cell_length_c 27.000000
_cell_angle_alpha 90.000000
_cell_angle_beta 150.000000
_cell_angle_gamma 90.000000
_cell_volume 2551.500000
_symmetry_space_group_name_H-M "C 2/M"
_symmetry_group_IT_number 12
_symmetry_cell_setting 'monoclinic'
loop_
_space_group_symop_operation_xyz
x,y,z
-x,y,-z
-x,-y,-z
x,-y,z
1/2+x,1/2+y,z
1/2-x,1/2+y,-z
1/2-x,1/2-y,-z
1/2+x,1/2-y,z
loop_
_atom_site_type_symbol
_atom_site_label
_atom_site_fract_x
_atom_site_fract_y
_atom_site_fract_z
Si Si1 0.332388 0.176410 0.598229
Si Si2 0.936258 0.330873 0.116883
Si Si3 0.312509 0.325753 0.691354
Si Si4 0.097174 0.676767 0.720394
Si Si5 0.238843 0.173073 0.075860
Si Si6 0.099403 0.821562 0.612183
O O1 0.250000 0.250000 0.500000
O O2 0.299363 0.251760 0.628248
O O3 0.475324 0.199286 0.674200
O O4 0.310297 0.000000 0.587730
O O5 0.986724 0.500000 0.147304
O O6 0.849914 0.327639 0.108475
O O7 0.043349 0.208470 0.196720
O O8 0.860125 0.285051 0.016262
O O9 0.283571 0.500000 0.669330
O O10 0.227420 0.245953 0.675346
O O11 0.106236 0.500000 0.716275
O O12 0.212108 0.716140 0.836076
O O13 0.081384 0.756658 0.656139
O O14 0.194701 0.000000 0.048607
O O15 0.000000 0.784852 0.500000
O O16 0.102092 0.000000 0.618012
#
# Coordination Sequence:
#
# PCOD9224007 Si02
#       6
#     8   8   8   8   8   8
#     4  11  22  38  59  88 121 154 196 250 301 352
#     4  10  19  35  59  89 123 157 194 245 298 354
#     4  12  24  39  61  88 119 160 203 246 298 357
#     4  10  21  39  61  86 120 157 196 243 298 357
#     4   9  18  35  58  88 122 157 193 240 299 358
#     4  11  25  43  62  85 118 159 202 251 303 358
#
# _framework density 9.4062319999999993
#
# number of rings (size 3 to 8) (size 9 to 14) (size 15 to 20)
#    0.000    1.500    1.667    4.000    0.000    6.667 
#    0.000    0.833    0.000    5.000    0.000    0.000 
#    0.000    0.000    0.000    0.000    0.000    0.000 
#
# Total GULP energy -133837.556319 kJ/mol
# GULP energy per Si atom -5576.564847 kJ/mol
# Density = 0.938482 g / cm^3
# Si number density = 9.406232 Si / 1000 Ang^3
#
#
#
# Elastic Constant Matrix: (Units=GPa)
#
#
# Indices 1 2 3 4 5 6 
#
# 1 54.0290 22.2164 2.7359 0.0000 -31.0897 0.0000
# 2 22.2164 54.9275 14.0360 0.0000 -16.4746 0.0000
# 3 2.7359 14.0360 58.5392 -0.0002 -34.5730 -0.0001
# 4 0.0000 0.0000 -0.0002 29.3753 0.0000 -8.3127
# 5 -31.0897 -16.4746 -34.5730 0.0000 35.8405 0.0000
# 6 0.0000 0.0000 -0.0001 -8.3127 0.0000 31.8684
#
#
#
# Elastic Compliance Matrix: (Units=1/GPa)
#
#
# Indices 1 2 3 4 5 6 
#
# 1 -0.315433 0.039531 -0.338384 -0.000003 -0.581867 -0.000002
# 2 0.039531 0.016224 0.043968 0.000000 0.084162 0.000000
# 3 -0.338384 0.043968 -0.323191 -0.000003 -0.585081 -0.000002
# 4 -0.000003 0.000000 -0.000003 0.036755 -0.000006 0.009587
# 5 -0.581867 0.084162 -0.585081 -0.000006 -1.002539 -0.000003
# 6 -0.000002 0.000000 -0.000002 0.009587 -0.000003 0.033880
#
#
# Mechanical properties :
#
#
# Convention : Reuss Voigt Hill
#
# Bulk Modulus (GPa) = -0.88326 27.27471 13.19572
# Shear Modulus (GPa) = -3.51637 27.98402 12.23383
#
# Velocity S-wave (km/s) = -1.36866 3.86103 2.55287
# Velocity P-wave (km/s) = 1.72284 5.86570 3.96474
#
# Compressibility (1/GPa) = -1.13216948
#
# Stress axis : x y z
#
# Youngs Moduli (GPa) = -3.17025 61.63646 -3.09415
#
# Poissons Ratio (x) = -2.43656 -1.04701
# Poissons Ratio (y) = 0.12532 0.13604
# Poissons Ratio (z) = -1.07276 -2.71003
#
# Static dielectric constant tensor:
#      x y z
#    x 1.621780 0.000000 0.033940 
#    y 0.000000 1.629500 0.000000 
#    z 0.033940 0.000000 1.709490 
# 
# From -- ./inp_files/365544.got.cif
#   From: 2010.05.17/outbox.ucp.g08.bks.cvg/sg12_183_cif.got.tgz:365544.got - 2010.06.11 11:47:21.
