data_PCOD9224485
_publ_section_title
;
Structure prediction by ZEFSAII (Michael W. Deem and Ramdas Pophale) SiO2 
 PCOD9224485
Probable space group: C 2/M
;
_chemical_formula_sum "Si O2"
_cell_formula_units_Z 32
_cell_length_a 24.000000
_cell_length_b 15.000000
_cell_length_c 9.000000
_cell_angle_alpha 90.000000
_cell_angle_beta 90.000000
_cell_angle_gamma 90.000000
_cell_volume 3240.000000
_symmetry_space_group_name_H-M "C 2/M"
_symmetry_group_IT_number 12
_symmetry_cell_setting 'monoclinic'
loop_
_space_group_symop_operation_xyz
x,y,z
-x,y,-z
-x,-y,-z
x,-y,z
1/2+x,1/2+y,z
1/2-x,1/2+y,-z
1/2-x,1/2-y,-z
1/2+x,1/2-y,z
loop_
_atom_site_type_symbol
_atom_site_label
_atom_site_fract_x
_atom_site_fract_y
_atom_site_fract_z
Si Si1 0.477408 0.802861 0.849975
Si Si2 0.688820 0.895061 0.173318
Si Si3 0.368005 0.262801 0.982852
Si Si4 0.594564 0.895750 0.405211
Si Si5 0.445493 0.734121 0.398312
Si Si6 0.289408 0.269908 0.244588
Si Si7 0.653831 0.395659 0.537023
Si Si8 0.793484 0.894481 0.784622
O O1 0.430212 0.735013 0.914644
O O2 0.447992 0.866343 0.727412
O O3 0.527993 0.754797 0.762827
O O4 0.500000 0.849081 0.000000
O O5 0.650766 0.837641 0.062783
O O6 0.656094 0.887541 0.331345
O O7 0.745515 0.838824 0.170408
O O8 0.694934 0.000000 0.140808
O O9 0.330968 0.339260 0.902334
O O10 0.347238 0.268364 0.152493
O O11 0.584693 0.823458 0.535068
O O12 0.585775 0.000000 0.445502
O O13 0.500000 0.720382 0.500000
O O14 0.405454 0.649298 0.423448
O O15 0.303319 0.323070 0.394510
O O16 0.259613 0.172497 0.244780
O O17 0.658887 0.500000 0.589503
O O18 0.668899 0.396786 0.363707
O O19 0.780562 0.000000 0.820811
#
# Coordination Sequence:
#
# PCOD9224485 Si02
#       8
#     8   8   8   8   8   8   8   8
#     4  10  20  35  54  78 111 146 182 229 278 314
#     4   9  17  32  55  82 110 142 179 218 265 324
#     4  10  21  36  55  80 110 147 187 225 265 319
#     4   9  19  35  57  83 109 142 184 223 265 326
#     4  10  20  37  60  78 105 146 186 228 269 323
#     4  11  21  35  57  82 114 146 176 219 273 329
#     4  11  23  38  57  84 112 139 179 230 280 325
#     4  10  21  37  58  83 113 146 181 221 267 327
#
# _framework density 9.8765429999999999
#
# number of rings (size 3 to 8) (size 9 to 14) (size 15 to 20)
#    0.000    2.000    0.000    6.000    0.000    5.250 
#    0.000    2.500    0.000    6.000    0.000    0.000 
#    0.000    0.000    0.000    0.000    0.000    0.000 
#
# Total GULP energy -178307.446712 kJ/mol
# GULP energy per Si atom -5572.107710 kJ/mol
# Density = 0.985406 g / cm^3
# Si number density = 9.876543 Si / 1000 Ang^3
#
#
#
# Elastic Constant Matrix: (Units=GPa)
#
#
# Indices 1 2 3 4 5 6 
#
# 1 83.2658 34.0521 15.8634 0.0000 -29.6305 0.0000
# 2 34.0521 157.0373 22.4798 0.0000 -8.6451 0.0000
# 3 15.8634 22.4798 71.7608 0.0000 -20.4186 0.0000
# 4 0.0000 0.0000 0.0000 20.9684 0.0000 -6.8792
# 5 -29.6305 -8.6451 -20.4186 0.0000 29.6791 0.0000
# 6 0.0000 0.0000 0.0000 -6.8792 0.0000 25.7612
#
#
#
# Elastic Compliance Matrix: (Units=1/GPa)
#
#
# Indices 1 2 3 4 5 6 
#
# 1 0.020591 -0.003673 0.002665 0.000000 0.021321 0.000000
# 2 -0.003673 0.007331 -0.002388 0.000000 -0.003174 0.000000
# 3 0.002665 -0.002388 0.018220 0.000000 0.014500 0.000000
# 4 0.000000 0.000000 0.000000 0.052270 0.000000 0.013958
# 5 0.021321 -0.003174 0.014500 0.000000 0.064032 0.000000
# 6 0.000000 0.000000 0.000000 0.013958 0.000000 0.042545
#
#
# Mechanical properties :
#
#
# Convention : Reuss Voigt Hill
#
# Bulk Modulus (GPa) = 25.41166 50.76162 38.08664
# Shear Modulus (GPa) = 22.23233 31.25965 26.74599
#
# Velocity S-wave (km/s) = 3.35850 3.98241 3.68369
# Velocity P-wave (km/s) = 5.28507 6.84835 6.11686
#
# Compressibility (1/GPa) = 0.03935202
#
# Stress axis : x y z
#
# Youngs Moduli (GPa) = 48.56426 136.39927 54.88505
#
# Poissons Ratio (x) = 0.50097 -0.14629
# Poissons Ratio (y) = 0.17837 0.13106
# Poissons Ratio (z) = -0.12944 0.32570
#
# Static dielectric constant tensor:
#      x y z
#    x 1.761000 0.000000 0.025900 
#    y 0.000000 1.651570 0.000000 
#    z 0.025900 0.000000 1.754240 
# 
# From -- ./inp_files/96875.got.cif
#   From: 2010.05.17/outbox.ucp.g08.bks.cvg/sg12_49_cif.got.tgz:96875.got - 2010.06.11 11:47:21.
