data_PCOD9224757
_publ_section_title
;
Structure prediction by ZEFSAII (Michael W. Deem and Ramdas Pophale) SiO2 
 PCOD9224757
Probable space group: C 2/M
;
_chemical_formula_sum "Si O2"
_cell_formula_units_Z 32
_cell_length_a 9.000000
_cell_length_b 21.000000
_cell_length_c 24.000000
_cell_angle_alpha 90.000000
_cell_angle_beta 50.000000
_cell_angle_gamma 90.000000
_cell_volume 3474.777594
_symmetry_space_group_name_H-M "C 2/M"
_symmetry_group_IT_number 12
_symmetry_cell_setting 'monoclinic'
loop_
_space_group_symop_operation_xyz
x,y,z
-x,y,-z
-x,-y,-z
x,-y,z
1/2+x,1/2+y,z
1/2-x,1/2+y,-z
1/2-x,1/2-y,-z
1/2+x,1/2-y,z
loop_
_atom_site_type_symbol
_atom_site_label
_atom_site_fract_x
_atom_site_fract_y
_atom_site_fract_z
Si Si1 0.230251 0.699469 0.940821
Si Si2 0.598583 0.308945 0.536015
Si Si3 0.521571 0.076537 0.202484
Si Si4 0.514405 0.312220 0.771154
Si Si5 0.711904 0.311929 0.288547
Si Si6 0.230267 0.847890 0.953036
Si Si7 0.388086 0.073585 0.467476
Si Si8 0.319210 0.925949 0.708249
O O1 0.341294 0.680350 0.857989
O O2 0.299292 0.773583 0.931059
O O3 0.261119 0.646839 0.981726
O O4 0.000000 0.706609 0.000000
O O5 0.500000 0.306966 0.500000
O O6 0.750000 0.250000 0.500000
O O7 0.430241 0.306799 0.623667
O O8 0.719545 0.374371 0.511095
O O9 0.332062 0.121855 0.254074
O O10 0.652528 0.108675 0.120375
O O11 0.610585 0.080499 0.244054
O O12 0.491624 0.000000 0.198739
O O13 0.422119 0.307178 0.732974
O O14 0.639137 0.247645 0.749539
O O15 0.653862 0.373291 0.740699
O O16 0.000000 0.853627 0.000000
O O17 0.500000 0.078705 0.500000
O O18 0.521608 0.085353 0.379821
O O19 0.320272 0.000000 0.479373
O O20 0.257284 0.000000 0.716043
#
# Coordination Sequence:
#
# PCOD9224757 Si02
#       8
#     8   8   8   8   8   8   8   8
#     4  10  21  35  59  86 116 151 195 248 299 359
#     4  12  24  40  61  89 126 161 204 259 312 365
#     4  11  23  41  62  90 129 162 204 256 306 368
#     4  12  23  39  64  88 124 157 203 258 301 371
#     4  12  25  39  62  93 121 163 208 251 316 365
#     4  10  20  36  59  85 117 153 198 243 298 361
#     4  10  21  40  64  88 121 165 211 253 302 366
#     4  10  22  40  63  91 123 165 207 252 308 363
#
# _framework density 9.2092220000000005
#
# number of rings (size 3 to 8) (size 9 to 14) (size 15 to 20)
#    0.000    1.125    1.250    5.625    3.500    1.500 
#    0.000    0.625    0.000    1.500    0.000    0.000 
#    0.000    0.000    0.000    0.000    0.000    0.000 
#
# Total GULP energy -178385.069922 kJ/mol
# GULP energy per Si atom -5574.533435 kJ/mol
# Density = 0.918826 g / cm^3
# Si number density = 9.209222 Si / 1000 Ang^3
#
#
#
# Elastic Constant Matrix: (Units=GPa)
#
#
# Indices 1 2 3 4 5 6 
#
# 1 99.1237 62.3378 41.1967 -0.0001 11.3089 0.0001
# 2 62.3378 123.7732 56.6319 0.0000 -8.1324 0.0000
# 3 41.1967 56.6319 193.0312 0.0000 9.6449 0.0000
# 4 -0.0001 0.0000 0.0000 41.4808 0.0000 -2.0912
# 5 11.3089 -8.1324 9.6449 0.0000 35.2381 0.0000
# 6 0.0001 0.0000 0.0000 -2.0912 0.0000 32.1128
#
#
#
# Elastic Compliance Matrix: (Units=1/GPa)
#
#
# Indices 1 2 3 4 5 6 
#
# 1 0.016499 -0.008459 -0.000687 0.000000 -0.007059 0.000000
# 2 -0.008459 0.013980 -0.002629 0.000000 0.006661 0.000000
# 3 -0.000687 -0.002629 0.006202 0.000000 -0.002084 0.000000
# 4 0.000000 0.000000 0.000000 0.024187 0.000000 0.001575
# 5 -0.007059 0.006661 -0.002084 0.000000 0.032752 0.000000
# 6 0.000000 0.000000 0.000000 0.001575 0.000000 0.031243
#
#
# Mechanical properties :
#
#
# Convention : Reuss Voigt Hill
#
# Bulk Modulus (GPa) = 76.15049 81.80679 78.97864
# Shear Modulus (GPa) = 32.72446 38.81712 35.77079
#
# Velocity S-wave (km/s) = 4.21969 4.59575 4.41173
# Velocity P-wave (km/s) = 8.07313 8.52486 8.30207
#
# Compressibility (1/GPa) = 0.01313189
#
# Stress axis : x y z
#
# Youngs Moduli (GPa) = 60.60888 71.52890 161.22547
#
# Poissons Ratio (x) = 0.60509 0.11071
# Poissons Ratio (y) = 0.51271 0.42386
# Poissons Ratio (z) = 0.04162 0.18805
#
# Static dielectric constant tensor:
#      x y z
#    x 1.711720 0.000000 0.018160 
#    y 0.000000 1.630400 0.000000 
#    z 0.018160 0.000000 1.628380 
# 
# From -- ./inp_files/333742.got.cif
#   From: 2010.05.17/outbox.ucp.g08.bks.cvg/sg12_167_cif.got.tgz:333742.got - 2010.06.11 11:47:21.
