data_PCOD9224645
_publ_section_title
;
Structure prediction by ZEFSAII (Michael W. Deem and Ramdas Pophale) SiO2 
 PCOD9224645
Probable space group: C 2/M
;
_chemical_formula_sum "Si O2"
_cell_formula_units_Z 28
_cell_length_a 27.000000
_cell_length_b 9.000000
_cell_length_c 12.000000
_cell_angle_alpha 90.000000
_cell_angle_beta 70.000000
_cell_angle_gamma 90.000000
_cell_volume 2740.143682
_symmetry_space_group_name_H-M "C 2/M"
_symmetry_group_IT_number 12
_symmetry_cell_setting 'monoclinic'
loop_
_space_group_symop_operation_xyz
x,y,z
-x,y,-z
-x,-y,-z
x,-y,z
1/2+x,1/2+y,z
1/2-x,1/2+y,-z
1/2-x,1/2-y,-z
1/2+x,1/2-y,z
loop_
_atom_site_type_symbol
_atom_site_label
_atom_site_fract_x
_atom_site_fract_y
_atom_site_fract_z
Si Si1 0.699027 0.175040 0.589868
Si Si2 0.146694 0.323498 0.845856
Si Si3 0.460878 0.328562 0.119820
Si Si4 0.193858 0.325005 0.034272
Si Si5 0.115387 0.327487 0.299220
Si Si6 0.992392 0.171743 0.670376
Si Si7 0.108505 0.174569 0.522410
O O1 0.750000 0.250000 0.500000
O O2 0.694560 0.203416 0.724746
O O3 0.645470 0.239491 0.579034
O O4 0.700868 0.000000 0.568417
O O5 0.138018 0.500000 0.858122
O O6 0.094089 0.252697 0.839446
O O7 0.161276 0.263300 0.954944
O O8 0.450804 0.500000 0.096587
O O9 0.489329 0.327294 0.215914
O O10 0.500000 0.259556 0.000000
O O11 0.202477 0.500000 0.007553
O O12 0.157307 0.310694 0.169435
O O13 0.250000 0.250000 0.000000
O O14 0.114677 0.500000 0.336269
O O15 0.130893 0.217418 0.385890
O O16 0.057253 0.277015 0.306237
O O17 0.046609 0.217721 0.567553
O O18 0.979115 0.000000 0.649112
O O19 0.109947 0.000000 0.546649
#
# Coordination Sequence:
#
# PCOD9224645 Si02
#       7
#     8   8   8   8   8   8   8
#     4  11  24  41  64  94 125 160 205 254 307 365
#     4  10  22  41  63  89 122 157 200 248 303 363
#     4  10  20  35  59  90 123 159 203 247 295 357
#     4  10  24  44  63  89 121 159 204 252 304 361
#     4  11  24  40  61  91 125 161 207 257 304 361
#     4  10  21  38  59  89 124 161 203 248 304 364
#     4  11  23  41  64  90 125 165 205 251 305 366
#
# _framework density 10.218442
#
# number of rings (size 3 to 8) (size 9 to 14) (size 15 to 20)
#    0.000    1.571    1.429    2.571    2.000    6.000 
#    0.000    0.000    0.000    0.000    0.000    0.000 
#    0.000    0.000    0.000    0.000    0.000    0.000 
#
# Total GULP energy -156307.708152 kJ/mol
# GULP energy per Si atom -5582.418148 kJ/mol
# Density = 1.019518 g / cm^3
# Si number density = 10.218442 Si / 1000 Ang^3
#
#
#
# Elastic Constant Matrix: (Units=GPa)
#
#
# Indices 1 2 3 4 5 6 
#
# 1 38.0510 4.7451 37.3969 0.0000 -17.8464 0.0000
# 2 4.7451 11.2227 48.8920 0.0000 -22.1606 0.0000
# 3 37.3969 48.8920 58.5938 0.0000 -5.1379 0.0000
# 4 0.0000 0.0000 0.0000 20.8923 0.0000 -2.3239
# 5 -17.8464 -22.1606 -5.1379 0.0000 24.4767 0.0000
# 6 0.0000 0.0000 0.0000 -2.3239 0.0000 30.3388
#
#
#
# Elastic Compliance Matrix: (Units=1/GPa)
#
#
# Indices 1 2 3 4 5 6 
#
# 1 0.026456 -0.023017 0.002225 0.000000 -0.001082 0.000000
# 2 -0.023017 -0.003302 0.016006 0.000000 -0.016412 0.000000
# 3 0.002225 0.016006 0.003773 0.000000 0.016906 0.000000
# 4 0.000000 0.000000 0.000000 0.048276 0.000000 0.003698
# 5 -0.001082 -0.016412 0.016906 0.000000 0.028757 0.000000
# 6 0.000000 0.000000 0.000000 0.003698 0.000000 0.033244
#
#
# Mechanical properties :
#
#
# Convention : Reuss Voigt Hill
#
# Bulk Modulus (GPa) = 57.61346 32.21504 44.91425
# Shear Modulus (GPa) = 32.77406 16.26379 24.51893
#
# Velocity S-wave (km/s) = 4.00893 2.82406 3.46748
# Velocity P-wave (km/s) = 7.04846 5.14113 6.16896
#
# Compressibility (1/GPa) = 0.01735705
#
# Stress axis : x y z
#
# Youngs Moduli (GPa) = 37.79809 -302.84052 265.05573
#
# Poissons Ratio (x) = -6.97037 -0.58982
# Poissons Ratio (y) = 0.86998 -4.24258
# Poissons Ratio (z) = -0.08411 4.84737
#
# Static dielectric constant tensor:
#      x y z
#    x 1.411790 0.000000 0.066860 
#    y 0.000000 1.692550 0.000000 
#    z 0.066860 0.000000 1.793900 
# 
# From -- ./inp_files/180854.got.cif
#   From: 2010.05.17/outbox.ucp.g08.bks.cvg/sg12_91_cif.got.tgz:180854.got - 2010.06.11 11:47:21.
