data_PCOD9224953
_publ_section_title
;
Structure prediction by ZEFSAII (Michael W. Deem and Ramdas Pophale) SiO2 
 PCOD9224953
Probable space group: C 2/M
;
_chemical_formula_sum "Si O2"
_cell_formula_units_Z 32
_cell_length_a 30.000000
_cell_length_b 9.000000
_cell_length_c 15.000000
_cell_angle_alpha 90.000000
_cell_angle_beta 50.000000
_cell_angle_gamma 90.000000
_cell_volume 3102.479995
_symmetry_space_group_name_H-M "C 2/M"
_symmetry_group_IT_number 12
_symmetry_cell_setting 'monoclinic'
loop_
_space_group_symop_operation_xyz
x,y,z
-x,y,-z
-x,-y,-z
x,-y,z
1/2+x,1/2+y,z
1/2-x,1/2+y,-z
1/2-x,1/2-y,-z
1/2+x,1/2-y,z
loop_
_atom_site_type_symbol
_atom_site_label
_atom_site_fract_x
_atom_site_fract_y
_atom_site_fract_z
Si Si1 0.327635 0.827222 0.657246
Si Si2 0.985842 0.177440 0.250388
Si Si3 0.882199 0.178829 0.918008
Si Si4 0.445326 0.824461 0.130062
Si Si5 0.234495 0.328649 0.427974
Si Si6 0.700782 0.678559 0.125129
Si Si7 0.537476 0.172427 0.533253
Si Si8 0.155493 0.172660 0.843968
O O1 0.316455 0.769499 0.570846
O O2 0.299385 0.738313 0.774426
O O3 0.396142 0.826234 0.582357
O O4 0.307384 0.000000 0.686782
O O5 0.946526 0.244528 0.223339
O O6 0.969599 0.235554 0.368126
O O7 0.052400 0.229624 0.147500
O O8 0.983726 0.000000 0.249304
O O9 0.857455 0.226248 0.854399
O O10 0.883774 0.000000 0.911496
O O11 0.842043 0.215681 0.054929
O O12 0.389505 0.778999 0.146294
O O13 0.449042 0.000000 0.138912
O O14 0.500000 0.774694 0.000000
O O15 0.221878 0.500000 0.466600
O O16 0.250000 0.250000 0.500000
O O17 0.287107 0.321357 0.289243
O O18 0.705554 0.500000 0.119004
O O19 0.750000 0.750000 0.000000
O O20 0.500000 0.232897 0.500000
O O21 0.520413 0.000000 0.572237
O O22 0.134966 0.000000 0.867841
#
# Coordination Sequence:
#
# PCOD9224953 Si02
#       8
#     8   8   8   8   8   8   8   8
#     4  10  22  42  63  86 122 164 201 247 303 354
#     4  11  22  37  61  88 117 156 201 245 293 355
#     4   9  19  36  59  86 118 153 191 240 295 353
#     4  11  23  38  57  87 123 156 192 244 305 364
#     4  10  23  41  62  86 117 159 206 255 304 356
#     4  11  22  38  62  91 121 154 196 245 297 355
#     4  10  22  40  62  90 127 165 200 245 302 359
#     4  10  20  38  61  83 114 156 202 247 297 356
#
# _framework density 10.314329000000001
#
# number of rings (size 3 to 8) (size 9 to 14) (size 15 to 20)
#    0.000    1.750    1.250    2.625    1.750    4.250 
#    0.000    4.375    0.000    0.000    0.000    0.000 
#    0.000    0.000    0.000    0.000    0.000    0.000 
#
# Total GULP energy -178584.748526 kJ/mol
# GULP energy per Si atom -5580.773391 kJ/mol
# Density = 1.029085 g / cm^3
# Si number density = 10.314329 Si / 1000 Ang^3
#
#
#
# Elastic Constant Matrix: (Units=GPa)
#
#
# Indices 1 2 3 4 5 6 
#
# 1 108.0277 26.5672 32.6122 0.0000 30.7744 0.0000
# 2 26.5672 45.0434 33.3041 0.0000 20.6475 0.0000
# 3 32.6122 33.3041 81.4585 0.0000 29.3639 0.0000
# 4 0.0000 0.0000 0.0000 18.5150 0.0000 11.4370
# 5 30.7744 20.6475 29.3639 0.0000 40.0477 0.0000
# 6 0.0000 0.0000 0.0000 11.4370 0.0000 21.9308
#
#
#
# Elastic Compliance Matrix: (Units=1/GPa)
#
#
# Indices 1 2 3 4 5 6 
#
# 1 0.012397 -0.003285 -0.001083 0.000000 -0.007039 0.000000
# 2 -0.003285 0.035482 -0.010204 0.000000 -0.008287 0.000000
# 3 -0.001083 -0.010204 0.019961 0.000000 -0.008543 0.000000
# 4 0.000000 0.000000 0.000000 0.079678 0.000000 -0.041552
# 5 -0.007039 -0.008287 -0.008543 0.000000 0.040916 0.000000
# 6 0.000000 0.000000 0.000000 -0.041552 0.000000 0.067268
#
#
# Mechanical properties :
#
#
# Convention : Reuss Voigt Hill
#
# Bulk Modulus (GPa) = 25.84221 46.61073 36.22647
# Shear Modulus (GPa) = 16.79302 25.56842 21.18072
#
# Velocity S-wave (km/s) = 2.85627 3.52442 3.20779
# Velocity P-wave (km/s) = 4.84069 6.26149 5.59636
#
# Compressibility (1/GPa) = 0.03869638
#
# Stress axis : x y z
#
# Youngs Moduli (GPa) = 80.66636 28.18349 50.09720
#
# Poissons Ratio (x) = 0.09257 0.05425
# Poissons Ratio (y) = 0.26496 0.51120
# Poissons Ratio (z) = 0.08735 0.28759
#
# Static dielectric constant tensor:
#      x y z
#    x 1.801250 0.000000 -0.057390 
#    y 0.000000 1.703440 0.000000 
#    z -0.057390 0.000000 1.761360 
# 
# From -- ./inp_files/249885.got.cif
#   From: 2010.05.17/outbox.ucp.g08.bks.cvg/sg12_125_cif.got.tgz:249885.got - 2010.06.11 11:47:21.
