data_PCOD9224277
_publ_section_title
;
Structure prediction by ZEFSAII (Michael W. Deem and Ramdas Pophale) SiO2 
 PCOD9224277
Probable space group: C 2/M
;
_chemical_formula_sum "Si O2"
_cell_formula_units_Z 28
_cell_length_a 21.000000
_cell_length_b 18.000000
_cell_length_c 24.000000
_cell_angle_alpha 90.000000
_cell_angle_beta 160.000000
_cell_angle_gamma 90.000000
_cell_volume 3102.806740
_symmetry_space_group_name_H-M "C 2/M"
_symmetry_group_IT_number 12
_symmetry_cell_setting 'monoclinic'
loop_
_space_group_symop_operation_xyz
x,y,z
-x,y,-z
-x,-y,-z
x,-y,z
1/2+x,1/2+y,z
1/2-x,1/2+y,-z
1/2-x,1/2-y,-z
1/2+x,1/2-y,z
loop_
_atom_site_type_symbol
_atom_site_label
_atom_site_fract_x
_atom_site_fract_y
_atom_site_fract_z
Si Si1 0.395500 0.415205 0.730869
Si Si2 0.325513 0.917792 0.115150
Si Si3 0.215287 0.331356 0.686202
Si Si4 0.734259 0.208650 0.545029
Si Si5 0.564790 0.205482 0.869115
Si Si6 0.483943 0.788402 0.047401
Si Si7 0.679276 0.161254 0.775540
O O1 0.343798 0.500000 0.686691
O O2 0.302599 0.378858 0.708845
O O3 0.316426 0.374173 0.611818
O O4 0.616946 0.408379 0.919544
O O5 0.453836 0.861208 0.188704
O O6 0.319594 0.897845 0.174737
O O7 0.389043 0.000000 0.157938
O O8 0.322766 0.254182 0.783176
O O9 0.227131 0.372323 0.755290
O O10 0.000000 0.317390 0.500000
O O11 0.750000 0.250000 0.500000
O O12 0.521800 0.201533 0.389668
O O13 0.879703 0.246464 0.707188
O O14 0.574942 0.178160 0.941326
O O15 0.750000 0.250000 0.000000
O O16 0.500000 0.827844 0.000000
O O17 0.334050 0.722503 0.916476
#
# Coordination Sequence:
#
# PCOD9224277 Si02
#       7
#     8   8   8   8   8   8   8
#     4  11  23  38  52  75 112 151 185 221 270 324
#     4  11  23  37  55  79 109 145 183 227 275 325
#     4  11  19  34  51  75 110 148 184 215 262 323
#     4  12  21  34  55  80 102 146 184 229 271 315
#     4  12  18  37  59  75 108 145 185 229 274 320
#     4  10  20  33  55  81 107 139 181 231 275 316
#     4  11  20  33  53  78 110 140 181 222 264 326
#
# _framework density 9.0240880000000008
#
# number of rings (size 3 to 8) (size 9 to 14) (size 15 to 20)
#    0.000    0.857    8.571    0.000    0.000    1.429 
#    0.000    1.429    0.000    0.429    0.000    0.000 
#    0.000    5.714    0.000    0.000    0.000    0.000 
#
# Total GULP energy -155895.738515 kJ/mol
# GULP energy per Si atom -5567.704947 kJ/mol
# Density = 0.900355 g / cm^3
# Si number density = 9.024088 Si / 1000 Ang^3
#
#
#
# Elastic Constant Matrix: (Units=GPa)
#
#
# Indices 1 2 3 4 5 6 
#
# 1 68.4249 36.5278 -25.8311 0.0107 -26.5156 0.0086
# 2 36.5278 59.9217 8.9935 -0.0088 -2.2890 -0.0041
# 3 -25.8311 8.9935 18.8478 0.0274 -9.7158 0.0165
# 4 0.0107 -0.0088 0.0274 8.4831 0.0106 -3.9206
# 5 -26.5156 -2.2890 -9.7158 0.0106 22.5889 0.0028
# 6 0.0086 -0.0041 0.0165 -3.9206 0.0028 1.8604
#
#
#
# Elastic Compliance Matrix: (Units=1/GPa)
#
#
# Indices 1 2 3 4 5 6 
#
# 1 -0.009040 0.008864 -0.027841 0.011370 -0.021696 0.024303
# 2 0.008864 0.009391 0.017405 -0.006741 0.018847 -0.014408
# 3 -0.027841 0.017405 -0.012056 0.011138 -0.036111 0.023802
# 4 0.011370 -0.006741 0.011138 4.525306 0.014131 9.536552
# 5 -0.021696 0.018847 -0.036111 0.014131 0.005169 0.030234
# 6 0.024303 -0.014408 0.023802 9.536552 0.030234 20.634683
#
#
# Mechanical properties :
#
#
# Convention : Reuss Voigt Hill
#
# Bulk Modulus (GPa) = -67.34181 20.73052 -23.30565
# Shear Modulus (GPa) = 0.19879 15.08675 7.64277
#
# Velocity S-wave (km/s) = 0.33224 2.89436 2.06006
# Velocity P-wave (km/s) = 6.10296 4.76245 2.69863
#
# Compressibility (1/GPa) = -0.01484962
#
# Stress axis : x y z
#
# Youngs Moduli (GPa) = -110.62043 106.48605 -82.94473
#
# Poissons Ratio (x) = -0.94387 -2.30925
# Poissons Ratio (y) = 0.98051 1.44365
# Poissons Ratio (z) = -3.07977 -1.85338
#
# Static dielectric constant tensor:
#      x y z
#    x 1.669280 -0.000730 -0.029380 
#    y -0.000730 1.114520 0.000790 
#    z -0.029380 0.000790 1.650820 
# 
# From -- ./inp_files/87239.got.cif
#   From: 2010.05.17/outbox.ucp.g08.bks.cvg/sg12_44_cif.got.tgz:87239.got - 2010.06.11 11:47:21.
