data_PCOD9224261
_publ_section_title
;
Structure prediction by ZEFSAII (Michael W. Deem and Ramdas Pophale) SiO2 
 PCOD9224261
Probable space group: C 2/M
;
_chemical_formula_sum "Si O2"
_cell_formula_units_Z 24
_cell_length_a 15.000000
_cell_length_b 9.000000
_cell_length_c 30.000000
_cell_angle_alpha 90.000000
_cell_angle_beta 40.000000
_cell_angle_gamma 90.000000
_cell_volume 2603.289819
_symmetry_space_group_name_H-M "C 2/M"
_symmetry_group_IT_number 12
_symmetry_cell_setting 'monoclinic'
loop_
_space_group_symop_operation_xyz
x,y,z
-x,y,-z
-x,-y,-z
x,-y,z
1/2+x,1/2+y,z
1/2-x,1/2+y,-z
1/2-x,1/2-y,-z
1/2+x,1/2-y,z
loop_
_atom_site_type_symbol
_atom_site_label
_atom_site_fract_x
_atom_site_fract_y
_atom_site_fract_z
Si Si1 0.898647 0.172083 0.162681
Si Si2 0.072841 0.334900 0.273797
Si Si3 0.918016 0.321206 0.487394
Si Si4 0.868429 0.333362 0.081720
Si Si5 0.404255 0.827408 0.841095
Si Si6 0.399467 0.672224 0.405746
O O1 0.731120 0.174478 0.230248
O O2 0.915957 0.249536 0.108167
O O3 0.983731 0.251142 0.169494
O O4 0.941662 0.000000 0.144364
O O5 0.019823 0.500000 0.306934
O O6 0.060574 0.323202 0.225185
O O7 0.989940 0.204277 0.328225
O O8 0.925386 0.500000 0.484222
O O9 0.755918 0.275992 0.547561
O O10 0.967710 0.258219 0.421092
O O11 0.000000 0.269437 0.500000
O O12 0.820839 0.500000 0.112073
O O13 0.744928 0.252166 0.102596
O O14 0.000000 0.341602 0.000000
O O15 0.390873 0.000000 0.858988
O O16 0.390911 0.500000 0.420742
#
# Coordination Sequence:
#
# PCOD9224261 Si02
#       6
#     8   8   8   8   8   8
#     4  10  21  37  57  80 107 142 181 221 268 319
#     4   9  20  37  54  75 106 141 174 213 263 316
#     4   9  19  36  54  73 102 138 173 211 258 312
#     4  10  21  37  57  81 109 142 180 222 267 316
#     4  10  21  37  57  81 109 142 179 221 269 318
#     4  10  20  33  53  79 103 133 173 216 261 308
#
# _framework density 9.2191039999999997
#
# number of rings (size 3 to 8) (size 9 to 14) (size 15 to 20)
#    0.000    2.333    0.000    3.000    0.000    8.333 
#    0.000    5.000    0.000    0.000    0.000    0.000 
#    0.000    0.000    0.000    0.000    0.000    0.000 
#
# Total GULP energy -133677.287777 kJ/mol
# GULP energy per Si atom -5569.886991 kJ/mol
# Density = 0.919812 g / cm^3
# Si number density = 9.219104 Si / 1000 Ang^3
#
#
#
# Elastic Constant Matrix: (Units=GPa)
#
#
# Indices 1 2 3 4 5 6 
#
# 1 160.2729 60.3717 9.8308 0.0000 -4.8767 0.0001
# 2 60.3717 84.9500 19.5305 0.0001 -1.6613 0.0003
# 3 9.8308 19.5305 29.3156 0.0000 -0.6232 0.0000
# 4 0.0000 0.0001 0.0000 23.5715 0.0000 0.5675
# 5 -4.8767 -1.6613 -0.6232 0.0000 -1.6709 0.0000
# 6 0.0001 0.0003 0.0000 0.5675 0.0000 34.6446
#
#
#
# Elastic Compliance Matrix: (Units=1/GPa)
#
#
# Indices 1 2 3 4 5 6 
#
# 1 0.008007 -0.006294 0.001136 0.000000 -0.017535 0.000000
# 2 -0.006294 0.018673 -0.010252 0.000000 0.003629 0.000000
# 3 0.001136 -0.010252 0.040387 0.000000 -0.008184 0.000000
# 4 0.000000 0.000000 0.000000 0.042441 -0.000001 -0.000695
# 5 -0.017535 0.003629 -0.008184 -0.000001 -0.547856 0.000000
# 6 0.000000 0.000000 0.000000 -0.000695 0.000000 0.028876
#
#
# Mechanical properties :
#
#
# Convention : Reuss Voigt Hill
#
# Bulk Modulus (GPa) = 27.59021 50.44495 39.01758
# Shear Modulus (GPa) = -13.64004 23.62940 4.99468
#
# Velocity S-wave (km/s) = -2.72282 3.58375 1.64765
# Velocity P-wave (km/s) = 2.26077 6.67403 4.98266
#
# Compressibility (1/GPa) = 0.03624474
#
# Stress axis : x y z
#
# Youngs Moduli (GPa) = 124.88793 53.55338 24.76049
#
# Poissons Ratio (x) = 0.33709 -0.02812
# Poissons Ratio (y) = 0.78610 0.25385
# Poissons Ratio (z) = -0.14182 0.54904
#
# Static dielectric constant tensor:
#      x y z
#    x 1.563460 0.000000 0.000120 
#    y 0.000000 1.670380 0.000000 
#    z 0.000120 0.000000 1.685980 
# 
# From -- ./inp_files/308307.got.cif
#   From: 2010.05.17/outbox.ucp.g08.bks.cvg/sg12_155_cif.got.tgz:308307.got - 2010.06.11 11:47:21.
