data_PCOD9224900
_publ_section_title
;
Structure prediction by ZEFSAII (Michael W. Deem and Ramdas Pophale) SiO2 
 PCOD9224900
Probable space group: C 2/M
;
_chemical_formula_sum "Si O2"
_cell_formula_units_Z 28
_cell_length_a 15.000000
_cell_length_b 9.000000
_cell_length_c 24.000000
_cell_angle_alpha 90.000000
_cell_angle_beta 120.000000
_cell_angle_gamma 90.000000
_cell_volume 2805.922308
_symmetry_space_group_name_H-M "C 2/M"
_symmetry_group_IT_number 12
_symmetry_cell_setting 'monoclinic'
loop_
_space_group_symop_operation_xyz
x,y,z
-x,y,-z
-x,-y,-z
x,-y,z
1/2+x,1/2+y,z
1/2-x,1/2+y,-z
1/2-x,1/2-y,-z
1/2+x,1/2-y,z
loop_
_atom_site_type_symbol
_atom_site_label
_atom_site_fract_x
_atom_site_fract_y
_atom_site_fract_z
Si Si1 0.924451 0.830356 0.429934
Si Si2 0.177058 0.323807 0.699316
Si Si3 0.227678 0.175956 0.828845
Si Si4 0.212960 0.666846 0.433155
Si Si5 0.932767 0.676169 0.152850
Si Si6 0.042622 0.320047 0.072387
Si Si7 0.623902 0.179215 0.295082
O O1 0.909584 0.739350 0.369215
O O2 0.814297 0.838149 0.425859
O O3 0.000000 0.764922 0.500000
O O4 0.958356 0.000000 0.428201
O O5 0.172096 0.500000 0.699764
O O6 0.175758 0.255791 0.760131
O O7 0.284949 0.266613 0.707177
O O8 0.161457 0.220230 0.861171
O O9 0.343274 0.230849 0.875589
O O10 0.229592 0.000000 0.818943
O O11 0.183281 0.500000 0.440482
O O12 0.250000 0.750000 0.500000
O O13 0.127816 0.723685 0.361901
O O14 0.907376 0.500000 0.147839
O O15 0.972273 0.710901 0.103548
O O16 0.022181 0.702586 0.226852
O O17 0.049191 0.500000 0.070022
O O18 0.000000 0.264222 0.000000
O O19 0.644396 0.000000 0.299944
#
# Coordination Sequence:
#
# PCOD9224900 Si02
#       7
#     8   8   8   8   8   8   8
#     4   9  19  36  55  75 105 148 193 238 293 352
#     4  11  21  34  56  83 112 149 197 248 296 350
#     4  11  22  38  60  88 121 158 199 243 296 357
#     4   9  18  31  49  72 102 138 182 228 281 340
#     4  10  20  37  61  89 119 153 199 247 293 350
#     4   9  19  38  64  89 119 161 199 238 297 361
#     4   9  18  36  57  77 107 153 195 238 298 355
#
# _framework density 9.9788940000000004
#
# number of rings (size 3 to 8) (size 9 to 14) (size 15 to 20)
#    0.000    2.286    1.429    2.571    0.000    4.857 
#    0.000    2.857    0.000    3.000    0.000    0.000 
#    0.000    0.000    0.000    0.000    0.000    0.000 
#
# Total GULP energy -156160.291028 kJ/mol
# GULP energy per Si atom -5577.153251 kJ/mol
# Density = 0.995618 g / cm^3
# Si number density = 9.978894 Si / 1000 Ang^3
#
#
#
# Elastic Constant Matrix: (Units=GPa)
#
#
# Indices 1 2 3 4 5 6 
#
# 1 39.9522 18.9602 28.8830 0.0000 -6.6323 0.0000
# 2 18.9602 46.0315 33.6552 0.0000 -6.2680 0.0000
# 3 28.8830 33.6552 126.6745 0.0000 -26.4681 0.0000
# 4 0.0000 0.0000 0.0000 11.6388 0.0000 -10.6959
# 5 -6.6323 -6.2680 -26.4681 0.0000 15.2808 0.0000
# 6 0.0000 0.0000 0.0000 -10.6959 0.0000 18.8809
#
#
#
# Elastic Compliance Matrix: (Units=1/GPa)
#
#
# Indices 1 2 3 4 5 6 
#
# 1 0.033488 -0.010249 -0.004316 0.000000 0.002855 0.000000
# 2 -0.010249 0.030142 -0.006296 0.000000 -0.002990 0.000000
# 3 -0.004316 -0.006296 0.015077 0.000000 0.021658 0.000000
# 4 0.000000 0.000000 0.000000 0.179226 0.000000 0.101531
# 5 0.002855 -0.002990 0.021658 0.000000 0.102969 0.000000
# 6 0.000000 0.000000 0.000000 0.101531 0.000000 0.110481
#
#
# Mechanical properties :
#
#
# Convention : Reuss Voigt Hill
#
# Bulk Modulus (GPa) = 27.03881 41.73943 34.38912
# Shear Modulus (GPa) = 9.51595 17.90406 13.71001
#
# Velocity S-wave (km/s) = 2.18595 2.99841 2.62382
# Velocity P-wave (km/s) = 4.46639 5.73991 5.14272
#
# Compressibility (1/GPa) = 0.03698387
#
# Stress axis : x y z
#
# Youngs Moduli (GPa) = 29.86131 33.17627 66.32823
#
# Poissons Ratio (x) = 0.34003 0.28628
# Poissons Ratio (y) = 0.30606 0.41760
# Poissons Ratio (z) = 0.12888 0.20888
#
# Static dielectric constant tensor:
#      x y z
#    x 1.726550 0.000000 0.017920 
#    y 0.000000 1.676860 0.000000 
#    z 0.017920 0.000000 1.723670 
# 
# From -- ./inp_files/339056.got.cif
#   From: 2010.05.17/outbox.ucp.g08.bks.cvg/sg12_170_cif.got.tgz:339056.got - 2010.06.11 11:47:21.
