data_PCOD9224326
_publ_section_title
;
Structure prediction by ZEFSAII (Michael W. Deem and Ramdas Pophale) SiO2 
 PCOD9224326
Probable space group: C 2/M
;
_chemical_formula_sum "Si O2"
_cell_formula_units_Z 20
_cell_length_a 12.000000
_cell_length_b 15.000000
_cell_length_c 15.000000
_cell_angle_alpha 90.000000
_cell_angle_beta 130.000000
_cell_angle_gamma 90.000000
_cell_volume 2068.319996
_symmetry_space_group_name_H-M "C 2/M"
_symmetry_group_IT_number 12
_symmetry_cell_setting 'monoclinic'
loop_
_space_group_symop_operation_xyz
x,y,z
-x,y,-z
-x,-y,-z
x,-y,z
1/2+x,1/2+y,z
1/2-x,1/2+y,-z
1/2-x,1/2-y,-z
1/2+x,1/2-y,z
loop_
_atom_site_type_symbol
_atom_site_label
_atom_site_fract_x
_atom_site_fract_y
_atom_site_fract_z
Si Si1 0.374220 0.396915 0.569042
Si Si2 0.339260 0.897554 0.372772
Si Si3 0.894568 0.249136 0.260439
Si Si4 0.887184 0.603213 0.702337
Si Si5 0.833113 0.396990 0.883622
O O1 0.428442 0.500000 0.587447
O O2 0.282589 0.391119 0.613652
O O3 0.497854 0.321976 0.636015
O O4 0.254394 0.380290 0.431292
O O5 0.500000 0.888376 0.500000
O O6 0.321615 0.817299 0.293710
O O7 0.332055 0.000000 0.333371
O O8 0.778800 0.183693 0.150840
O O9 0.994110 0.319543 0.255598
O O10 0.936295 0.500000 0.707247
O O11 0.839897 0.604327 0.780108
O O12 0.792530 0.500000 0.890616
O O13 0.000000 0.381749 0.000000
#
# Coordination Sequence:
#
# PCOD9224326 Si02
#       5
#     8   8   8   8   8
#     4  10  21  34  51  85 120 144 175 216 271 331
#     4  10  20  34  52  81 122 152 169 207 271 333
#     4  12  21  33  61  84 109 144 188 223 263 328
#     4  10  21  36  55  81 113 143 177 222 274 331
#     4  10  24  43  57  75 107 146 188 236 283 316
#
# _framework density 9.6696840000000002
#
# number of rings (size 3 to 8) (size 9 to 14) (size 15 to 20)
#    0.000    1.600    2.000    3.000    2.800    0.800 
#    0.000    3.000    0.000    2.400    0.000    0.000 
#    0.000    0.000    0.000    0.000    0.000    0.000 
#
# Total GULP energy -111706.582832 kJ/mol
# GULP energy per Si atom -5585.329142 kJ/mol
# Density = 0.964767 g / cm^3
# Si number density = 9.669684 Si / 1000 Ang^3
#
#
#
# Elastic Constant Matrix: (Units=GPa)
#
#
# Indices 1 2 3 4 5 6 
#
# 1 37.3901 25.3809 17.1644 0.0000 5.0502 0.0000
# 2 25.3809 156.8021 31.3674 0.0000 28.8552 0.0000
# 3 17.1644 31.3674 20.8649 0.0000 21.8849 0.0000
# 4 0.0000 0.0000 0.0000 31.8107 0.0000 9.1928
# 5 5.0502 28.8552 21.8849 0.0000 25.2431 0.0000
# 6 0.0000 0.0000 0.0000 9.1928 0.0000 30.0676
#
#
#
# Elastic Compliance Matrix: (Units=1/GPa)
#
#
# Indices 1 2 3 4 5 6 
#
# 1 -0.018062 -0.004111 0.135903 0.000000 -0.109511 0.000000
# 2 -0.004111 0.008821 -0.001832 0.000000 -0.007673 0.000000
# 3 0.135903 -0.001832 -0.383870 0.000000 0.307707 0.000000
# 4 0.000000 0.000000 0.000000 0.034483 0.000000 -0.010543
# 5 -0.109511 -0.007673 0.307707 0.000000 -0.196477 0.000000
# 6 0.000000 0.000000 0.000000 -0.010543 0.000000 0.036482
#
#
# Mechanical properties :
#
#
# Convention : Reuss Voigt Hill
#
# Bulk Modulus (GPa) = -7.50813 40.32029 16.40608
# Shear Modulus (GPa) = -6.07577 26.83390 10.37906
#
# Velocity S-wave (km/s) = -1.77440 3.72899 2.31915
# Velocity P-wave (km/s) = 2.84407 6.27970 3.95891
#
# Compressibility (1/GPa) = -0.13318893
#
# Stress axis : x y z
#
# Youngs Moduli (GPa) = -55.36637 113.36185 -2.60505
#
# Poissons Ratio (x) = 0.46598 0.35404
# Poissons Ratio (y) = -0.22759 -0.00477
# Poissons Ratio (z) = 7.52447 0.20771
#
# Static dielectric constant tensor:
#      x y z
#    x 1.707170 0.000000 -0.000390 
#    y 0.000000 1.705090 0.000000 
#    z -0.000390 0.000000 1.672950 
# 
# From -- ./inp_files/59081.got.cif
#   From: 2010.05.17/outbox.ucp.g08.bks.cvg/sg12_30_cif.got.tgz:59081.got - 2010.06.11 11:47:21.
