data_PCOD9224001
_publ_section_title
;
Structure prediction by ZEFSAII (Michael W. Deem and Ramdas Pophale) SiO2 
 PCOD9224001
Probable space group: C 2/M
;
_chemical_formula_sum "Si O2"
_cell_formula_units_Z 28
_cell_length_a 27.000000
_cell_length_b 9.000000
_cell_length_c 18.000000
_cell_angle_alpha 90.000000
_cell_angle_beta 40.000000
_cell_angle_gamma 90.000000
_cell_volume 2811.553005
_symmetry_space_group_name_H-M "C 2/M"
_symmetry_group_IT_number 12
_symmetry_cell_setting 'monoclinic'
loop_
_space_group_symop_operation_xyz
x,y,z
-x,y,-z
-x,-y,-z
x,-y,z
1/2+x,1/2+y,z
1/2-x,1/2+y,-z
1/2-x,1/2-y,-z
1/2+x,1/2-y,z
loop_
_atom_site_type_symbol
_atom_site_label
_atom_site_fract_x
_atom_site_fract_y
_atom_site_fract_z
Si Si1 0.819851 0.672796 0.180661
Si Si2 0.431508 0.169881 0.181571
Si Si3 0.413998 0.173643 0.922531
Si Si4 0.822599 0.666814 0.449704
Si Si5 0.156672 0.819497 0.312752
Si Si6 0.932995 0.320145 0.456045
Si Si7 0.404407 0.678714 0.776919
O O1 0.810121 0.500000 0.215576
O O2 0.880255 0.735060 0.172591
O O3 0.734472 0.734408 0.265257
O O4 0.853979 0.673977 0.058683
O O5 0.509925 0.239542 0.123769
O O6 0.379994 0.161444 0.314069
O O7 0.452825 0.000000 0.133336
O O8 0.386865 0.255579 0.878981
O O9 0.430442 0.000000 0.883396
O O10 0.798238 0.500000 0.497499
O O11 0.750000 0.750000 0.500000
O O12 0.868556 0.726222 0.468450
O O13 0.089741 0.743424 0.437553
O O14 0.149772 0.785013 0.232503
O O15 0.152494 0.000000 0.323381
O O16 0.937656 0.500000 0.450612
O O17 0.013025 0.248957 0.338449
O O18 0.408555 0.500000 0.776920
#
# Coordination Sequence:
#
# PCOD9224001 Si02
#       7
#     8   8   8   8   8   8   8
#     4   9  18  33  58  85 111 147 187 231 281 335
#     4   9  16  31  54  82 112 140 179 229 277 328
#     4  10  19  35  59  86 112 143 189 237 279 332
#     4  10  20  33  52  81 115 147 181 224 273 332
#     4  10  22  39  57  82 114 150 192 232 283 345
#     4  11  22  38  59  85 113 145 190 237 281 333
#     4  11  23  38  57  81 113 153 191 232 285 342
#
# _framework density 9.9589090000000002
#
# number of rings (size 3 to 8) (size 9 to 14) (size 15 to 20)
#    0.000    2.000    1.429    2.571    0.000    7.429 
#    0.000    0.714    0.000    2.571    0.000    0.000 
#    0.000    0.000    0.000    0.000    0.000    0.000 
#
# Total GULP energy -156052.041636 kJ/mol
# GULP energy per Si atom -5573.287201 kJ/mol
# Density = 0.993624 g / cm^3
# Si number density = 9.958909 Si / 1000 Ang^3
#
#
#
# Elastic Constant Matrix: (Units=GPa)
#
#
# Indices 1 2 3 4 5 6 
#
# 1 92.1942 19.2800 4.6474 0.0049 44.9666 -0.0022
# 2 19.2800 24.8185 0.5955 0.0049 5.9083 -0.0020
# 3 4.6474 0.5955 45.1978 0.0038 16.5597 -0.0017
# 4 0.0049 0.0049 0.0038 16.1252 -0.0026 8.1749
# 5 44.9666 5.9083 16.5597 -0.0026 30.7634 0.0010
# 6 -0.0022 -0.0020 -0.0017 8.1749 0.0010 30.4524
#
#
#
# Elastic Compliance Matrix: (Units=1/GPa)
#
#
# Indices 1 2 3 4 5 6 
#
# 1 0.081410 -0.032047 0.041599 -0.000060 -0.135234 0.000026
# 2 -0.032047 0.055169 -0.013343 0.000004 0.043429 -0.000002
# 3 0.041599 -0.013343 0.049033 -0.000043 -0.084636 0.000019
# 4 -0.000060 0.000004 -0.000043 0.071784 0.000116 -0.019270
# 5 -0.135234 0.043429 -0.084636 0.000116 0.267395 -0.000051
# 6 0.000026 -0.000002 0.000019 -0.019270 -0.000051 0.038011
#
#
# Mechanical properties :
#
#
# Convention : Reuss Voigt Hill
#
# Bulk Modulus (GPa) = 5.61705 23.47291 14.54498
# Shear Modulus (GPa) = 7.93994 24.64738 16.29366
#
# Velocity S-wave (km/s) = 1.99875 3.52156 2.86325
# Velocity P-wave (km/s) = 2.85533 5.32407 4.27192
#
# Compressibility (1/GPa) = 0.17802936
#
# Stress axis : x y z
#
# Youngs Moduli (GPa) = 12.28346 18.12620 20.39459
#
# Poissons Ratio (x) = 0.58088 -0.84839
# Poissons Ratio (y) = 0.39364 0.27213
# Poissons Ratio (z) = -0.51098 0.24187
#
# Static dielectric constant tensor:
#      x y z
#    x 1.738240 0.000000 -0.053470 
#    y 0.000000 1.700890 0.000000 
#    z -0.053470 0.000000 1.792690 
# 
# From -- ./inp_files/292421.got.cif
#   From: 2010.05.17/outbox.ucp.g08.bks.cvg/sg12_147_cif.got.tgz:292421.got - 2010.06.11 11:47:21.
