data_PCOD9224073
_publ_section_title
;
Structure prediction by ZEFSAII (Michael W. Deem and Ramdas Pophale) SiO2 
 PCOD9224073
Probable space group: C 2/M
;
_chemical_formula_sum "Si O2"
_cell_formula_units_Z 32
_cell_length_a 18.000000
_cell_length_b 27.000000
_cell_length_c 21.000000
_cell_angle_alpha 90.000000
_cell_angle_beta 20.000000
_cell_angle_gamma 90.000000
_cell_volume 3490.657583
_symmetry_space_group_name_H-M "C 2/M"
_symmetry_group_IT_number 12
_symmetry_cell_setting 'monoclinic'
loop_
_space_group_symop_operation_xyz
x,y,z
-x,y,-z
-x,-y,-z
x,-y,z
1/2+x,1/2+y,z
1/2-x,1/2+y,-z
1/2-x,1/2-y,-z
1/2+x,1/2-y,z
loop_
_atom_site_type_symbol
_atom_site_label
_atom_site_fract_x
_atom_site_fract_y
_atom_site_fract_z
Si Si1 0.285408 0.943281 0.825121
Si Si2 0.531018 0.204405 0.313098
Si Si3 0.998004 0.799811 0.880116
Si Si4 0.357676 0.863753 0.337714
Si Si5 0.654291 0.722175 0.437397
Si Si6 0.700011 0.442622 0.560243
Si Si7 0.659386 0.392153 0.059866
Si Si8 0.671219 0.132481 0.309089
O O1 0.551414 0.941233 0.613107
O O2 0.229632 0.914061 0.806337
O O3 0.218813 0.000000 0.878873
O O4 0.189353 0.916619 0.965299
O O5 0.416061 0.177018 0.346261
O O6 0.439651 0.252313 0.422700
O O7 0.543266 0.163691 0.359037
O O8 0.775415 0.214130 0.093429
O O9 0.940610 0.837606 0.869680
O O10 0.127511 0.752599 0.752704
O O11 0.151225 0.831324 0.803752
O O12 0.216631 0.834171 0.400534
O O13 0.225524 0.907456 0.478337
O O14 0.587478 0.884232 0.125077
O O15 0.500000 0.728738 0.500000
O O16 0.654403 0.500000 0.582302
O O17 0.510509 0.422177 0.759728
O O18 0.500000 0.116974 0.500000
#
# Coordination Sequence:
#
# PCOD9224073 Si02
#       8
#     8   8   8   8   8   8   8   8
#     4  10  21  35  51  79 115 153 197 241 272 310
#     4  11  20  37  56  79 108 155 191 229 265 321
#     4  11  21  33  56  75 110 155 195 220 272 320
#     4  10  23  39  56  86 117 138 184 236 275 326
#     4  12  24  37  57  85 113 147 184 226 283 343
#     4  10  19  36  61  82 106 145 185 227 284 337
#     4  10  20  36  58  81 111 146 189 238 275 324
#     4  12  19  34  54  74 112 157 194 232 270 322
#
# _framework density 9.1673270000000002
#
# number of rings (size 3 to 8) (size 9 to 14) (size 15 to 20)
#    0.000    1.250    6.250    2.625    0.000    3.750 
#    0.000    1.875    0.000    0.375    0.000    0.875 
#    0.000    0.000    0.000    0.000    0.000    0.000 
#
# Total GULP energy -178623.765760 kJ/mol
# GULP energy per Si atom -5581.992680 kJ/mol
# Density = 0.914646 g / cm^3
# Si number density = 9.167327 Si / 1000 Ang^3
#
#
#
# Elastic Constant Matrix: (Units=GPa)
#
#
# Indices 1 2 3 4 5 6 
#
# 1 17.7917 27.1061 28.7745 0.0059 5.7081 -0.0487
# 2 27.1061 92.1381 68.3746 -0.5066 14.0751 0.0591
# 3 28.7745 68.3746 101.3534 -0.1976 21.4518 0.0508
# 4 0.0059 -0.5066 -0.1976 -1.9134 0.7108 6.8974
# 5 5.7081 14.0751 21.4518 0.7108 12.3996 -0.1655
# 6 -0.0487 0.0591 0.0508 6.8974 -0.1655 15.8777
#
#
#
# Elastic Compliance Matrix: (Units=1/GPa)
#
#
# Indices 1 2 3 4 5 6 
#
# 1 0.120051 -0.020001 -0.021504 0.004489 0.004367 -0.001393
# 2 -0.020001 0.025064 -0.011347 -0.002236 0.000526 0.000858
# 3 -0.021504 -0.011347 0.029556 -0.004685 -0.028064 0.001624
# 4 0.004489 -0.002236 -0.004685 -0.199826 0.021193 0.087064
# 5 0.004367 0.000526 -0.028064 0.021193 0.125274 -0.007800
# 6 -0.001393 0.000858 0.001624 0.087064 -0.007800 0.025066
#
#
# Mechanical properties :
#
#
# Convention : Reuss Voigt Hill
#
# Bulk Modulus (GPa) = 14.49968 51.08817 32.79392
# Shear Modulus (GPa) = 19.69443 11.07465 15.38454
#
# Velocity S-wave (km/s) = 3.28100 2.46037 2.89986
# Velocity P-wave (km/s) = 4.72004 5.99966 5.39790
#
# Compressibility (1/GPa) = 0.06896705
#
# Stress axis : x y z
#
# Youngs Moduli (GPa) = 8.32981 39.89731 33.83395
#
# Poissons Ratio (x) = 0.79799 0.72758
# Poissons Ratio (y) = 0.16660 0.38390
# Poissons Ratio (z) = 0.17913 0.45270
#
# Static dielectric constant tensor:
#      x y z
#    x 1.645320 -0.000100 -0.009340 
#    y -0.000100 1.646790 0.000240 
#    z -0.009340 0.000240 1.659010 
# 
# From -- ./inp_files/286668.got.cif
#   From: 2010.05.17/outbox.ucp.g08.bks.cvg/sg12_144_cif.got.tgz:286668.got - 2010.06.11 11:47:21.
