data_PCOD9224919
_publ_section_title
;
Structure prediction by ZEFSAII (Michael W. Deem and Ramdas Pophale) SiO2 
 PCOD9224919
Probable space group: C 2/M
;
_chemical_formula_sum "Si O2"
_cell_formula_units_Z 32
_cell_length_a 15.000000
_cell_length_b 9.000000
_cell_length_c 30.000000
_cell_angle_alpha 90.000000
_cell_angle_beta 130.000000
_cell_angle_gamma 90.000000
_cell_volume 3102.479995
_symmetry_space_group_name_H-M "C 2/M"
_symmetry_group_IT_number 12
_symmetry_cell_setting 'monoclinic'
loop_
_space_group_symop_operation_xyz
x,y,z
-x,y,-z
-x,-y,-z
x,-y,z
1/2+x,1/2+y,z
1/2-x,1/2+y,-z
1/2-x,1/2-y,-z
1/2+x,1/2-y,z
loop_
_atom_site_type_symbol
_atom_site_label
_atom_site_fract_x
_atom_site_fract_y
_atom_site_fract_z
Si Si1 0.877452 0.319169 0.941068
Si Si2 0.126177 0.177141 0.879932
Si Si3 0.105245 0.321984 0.604387
Si Si4 0.912830 0.676408 0.852297
Si Si5 0.370545 0.678803 0.555236
Si Si6 0.037700 0.673302 0.762428
Si Si7 0.715250 0.827719 0.737045
Si Si8 0.175004 0.678228 0.366687
O O1 0.879509 0.500000 0.943168
O O2 0.759730 0.272149 0.927675
O O3 0.866409 0.276007 0.885756
O O4 0.000000 0.266213 0.000000
O O5 0.038619 0.253696 0.885590
O O6 0.080905 0.224910 0.816352
O O7 0.120618 0.000000 0.882185
O O8 0.097696 0.500000 0.594558
O O9 0.156625 0.296574 0.670778
O O10 0.197890 0.244873 0.601608
O O11 0.979179 0.246015 0.563002
O O12 0.920924 0.500000 0.854053
O O13 0.825262 0.729696 0.785866
O O14 0.368529 0.500000 0.552368
O O15 0.250000 0.750000 0.500000
O O16 0.380310 0.737626 0.609074
O O17 0.042529 0.500000 0.778249
O O18 0.908315 0.704891 0.702655
O O19 0.120969 0.689835 0.746189
O O20 0.752746 0.000000 0.748668
O O21 0.177799 0.500000 0.375590
#
# Coordination Sequence:
#
# PCOD9224919 Si02
#       8
#     8   8   8   8   8   8   8   8
#     4   9  20  39  59  80 112 154 200 249 300 355
#     4  11  22  37  59  88 118 155 198 244 298 359
#     4  11  23  42  65  95 128 163 204 250 304 364
#     4  11  22  37  59  88 118 155 198 244 298 359
#     4  12  26  45  68  93 123 165 209 258 307 358
#     4  10  20  37  62  91 125 160 194 243 300 357
#     4  10  20  37  62  91 125 160 194 243 300 357
#     4  11  23  42  65  95 128 163 204 250 304 364
#
# _framework density 10.314329000000001
#
# number of rings (size 3 to 8) (size 9 to 14) (size 15 to 20)
#    0.000    1.375    2.500    3.375    0.000    5.000 
#    0.000    2.500    0.000    5.250    0.000    0.000 
#    0.000    0.000    0.000    0.000    0.000    0.000 
#
# Total GULP energy -178938.839237 kJ/mol
# GULP energy per Si atom -5591.838726 kJ/mol
# Density = 1.029085 g / cm^3
# Si number density = 10.314329 Si / 1000 Ang^3
#
#
#
# Elastic Constant Matrix: (Units=GPa)
#
#
# Indices 1 2 3 4 5 6 
#
# 1 98.6766 30.6463 4.1328 0.0000 37.6165 0.0000
# 2 30.6463 74.8231 22.6935 0.0000 23.3274 0.0000
# 3 4.1328 22.6935 51.0939 0.0000 31.6608 0.0000
# 4 0.0000 0.0000 0.0000 21.3809 0.0000 3.0473
# 5 37.6165 23.3274 31.6608 0.0000 38.4780 0.0000
# 6 0.0000 0.0000 0.0000 3.0473 0.0000 33.0286
#
#
#
# Elastic Compliance Matrix: (Units=1/GPa)
#
#
# Indices 1 2 3 4 5 6 
#
# 1 0.032311 -0.006221 0.035472 0.000000 -0.057003 0.000000
# 2 -0.006221 0.017811 -0.009151 0.000000 0.002813 0.000000
# 3 0.035472 -0.009151 0.079199 0.000000 -0.094297 0.000000
# 4 0.000000 0.000000 0.000000 0.047394 0.000000 -0.004373
# 5 -0.057003 0.002813 -0.094297 0.000000 0.157601 0.000000
# 6 0.000000 0.000000 0.000000 -0.004373 0.000000 0.030680
#
#
# Mechanical properties :
#
#
# Convention : Reuss Voigt Hill
#
# Bulk Modulus (GPa) = 5.89893 37.72653 21.81273
# Shear Modulus (GPa) = 13.11296 29.71891 21.41594
#
# Velocity S-wave (km/s) = 2.52398 3.79972 3.22555
# Velocity P-wave (km/s) = 3.37042 6.13014 4.94663
#
# Compressibility (1/GPa) = 0.16952228
#
# Stress axis : x y z
#
# Youngs Moduli (GPa) = 30.94951 56.14458 12.62643
#
# Poissons Ratio (x) = 0.34926 -0.44788
# Poissons Ratio (y) = 0.19253 0.11554
# Poissons Ratio (z) = -1.09784 0.51376
#
# Static dielectric constant tensor:
#      x y z
#    x 1.759070 0.000000 -0.004520 
#    y 0.000000 1.685620 0.000000 
#    z -0.004520 0.000000 1.748060 
# 
# From -- ./inp_files/375661.got.cif
#   From: 2010.05.17/outbox.ucp.g08.bks.cvg/sg12_188_cif.got.tgz:375661.got - 2010.06.11 11:47:21.
