data_PCOD9224207
_publ_section_title
;
Structure prediction by ZEFSAII (Michael W. Deem and Ramdas Pophale) SiO2 
 PCOD9224207
Probable space group: C 2/M
;
_chemical_formula_sum "Si O2"
_cell_formula_units_Z 28
_cell_length_a 18.000000
_cell_length_b 9.000000
_cell_length_c 24.000000
_cell_angle_alpha 90.000000
_cell_angle_beta 130.000000
_cell_angle_gamma 90.000000
_cell_volume 2978.380795
_symmetry_space_group_name_H-M "C 2/M"
_symmetry_group_IT_number 12
_symmetry_cell_setting 'monoclinic'
loop_
_space_group_symop_operation_xyz
x,y,z
-x,y,-z
-x,-y,-z
x,-y,z
1/2+x,1/2+y,z
1/2-x,1/2+y,-z
1/2-x,1/2-y,-z
1/2+x,1/2-y,z
loop_
_atom_site_type_symbol
_atom_site_label
_atom_site_fract_x
_atom_site_fract_y
_atom_site_fract_z
Si Si1 0.269233 0.821760 0.594933
Si Si2 0.488502 0.820131 0.126804
Si Si3 0.401273 0.822675 0.551275
Si Si4 0.695816 0.180519 0.262447
Si Si5 0.807925 0.678742 0.976278
Si Si6 0.404857 0.679626 0.317058
Si Si7 0.125742 0.820961 0.824637
O O1 0.345761 0.787300 0.582873
O O2 0.168082 0.744910 0.529652
O O3 0.307732 0.776415 0.674145
O O4 0.254881 0.000000 0.588320
O O5 0.600088 0.769519 0.183048
O O6 0.436121 0.757736 0.156977
O O7 0.488578 0.000000 0.129518
O O8 0.419864 0.777102 0.041180
O O9 0.507166 0.751710 0.606796
O O10 0.406986 0.000000 0.548354
O O11 0.799314 0.227200 0.288174
O O12 0.695347 0.000000 0.260194
O O13 0.805419 0.500000 0.979566
O O14 0.740188 0.715604 0.890675
O O15 0.750000 0.750000 0.000000
O O16 0.411444 0.500000 0.324347
O O17 0.408712 0.720694 0.253530
O O18 0.115972 0.000000 0.825480
#
# Coordination Sequence:
#
# PCOD9224207 Si02
#       7
#     8   8   8   8   8   8   8
#     4   9  18  34  54  72  92 120 154 191 231 276
#     4   9  16  29  50  71  92 122 160 197 230 269
#     4  10  20  34  53  75  95 116 151 196 235 274
#     4   9  18  32  49  69  93 125 162 191 222 274
#     4   8  14  25  43  68  94 119 151 192 234 272
#     4  10  20  33  48  67  96 130 158 187 228 278
#     4   9  17  29  46  70  97 123 154 193 236 277
#
# _framework density 9.4010809999999996
#
# number of rings (size 3 to 8) (size 9 to 14) (size 15 to 20)
#    0.000    2.857    0.000    1.286    0.000    2.857 
#    0.000    5.714    0.000    4.286    0.000    0.000 
#    0.000   12.571    0.000    0.000    0.000    0.000 
#
# Total GULP energy -156011.890228 kJ/mol
# GULP energy per Si atom -5571.853222 kJ/mol
# Density = 0.937968 g / cm^3
# Si number density = 9.401081 Si / 1000 Ang^3
#
#
#
# Elastic Constant Matrix: (Units=GPa)
#
#
# Indices 1 2 3 4 5 6 
#
# 1 42.1991 5.3021 17.1036 0.0000 34.5780 0.0000
# 2 5.3021 4.5839 9.4029 0.0000 9.0025 0.0000
# 3 17.1036 9.4029 86.7253 0.0000 47.8012 0.0000
# 4 0.0000 0.0000 0.0000 20.9529 0.0000 2.8878
# 5 34.5780 9.0025 47.8012 0.0000 38.1424 0.0000
# 6 0.0000 0.0000 0.0000 2.8878 0.0000 14.5030
#
#
#
# Elastic Compliance Matrix: (Units=1/GPa)
#
#
# Indices 1 2 3 4 5 6 
#
# 1 -0.041183 -0.083114 -0.046103 0.000000 0.114728 0.000000
# 2 -0.083114 0.261918 -0.062936 0.000000 0.092401 0.000000
# 3 -0.046103 -0.062936 -0.012214 0.000000 0.071956 0.000000
# 4 0.000000 0.000000 0.000000 0.049073 0.000000 -0.009771
# 5 0.114728 0.092401 0.071956 0.000000 -0.189775 0.000000
# 6 0.000000 0.000000 0.000000 -0.009771 0.000000 0.070897
#
#
# Mechanical properties :
#
#
# Convention : Reuss Voigt Hill
#
# Bulk Modulus (GPa) = -5.68881 21.90283 8.10701
# Shear Modulus (GPa) = 10.76601 21.49965 16.13283
#
# Velocity S-wave (km/s) = 2.39549 3.38519 2.93239
# Velocity P-wave (km/s) = 2.14918 5.19170 3.97320
#
# Compressibility (1/GPa) = -0.17578372
#
# Stress axis : x y z
#
# Youngs Moduli (GPa) = -24.28190 3.81800 -81.87322
#
# Poissons Ratio (x) = 0.31733 -3.77457
# Poissons Ratio (y) = -2.01816 -5.15277
# Poissons Ratio (z) = -1.11946 0.24029
#
# Static dielectric constant tensor:
#      x y z
#    x 1.655780 0.000000 0.024690 
#    y 0.000000 1.618740 0.000000 
#    z 0.024690 0.000000 1.678630 
# 
# From -- ./inp_files/280215.got.cif
#   From: 2010.05.17/outbox.ucp.g08.bks.cvg/sg12_141_cif.got.tgz:280215.got - 2010.06.11 11:47:21.
