data_PCOD9224843
_publ_section_title
;
Structure prediction by ZEFSAII (Michael W. Deem and Ramdas Pophale) SiO2 
 PCOD9224843
Probable space group: C 2/M
;
_chemical_formula_sum "Si O2"
_cell_formula_units_Z 28
_cell_length_a 27.000000
_cell_length_b 15.000000
_cell_length_c 12.000000
_cell_angle_alpha 90.000000
_cell_angle_beta 40.000000
_cell_angle_gamma 90.000000
_cell_volume 3123.947783
_symmetry_space_group_name_H-M "C 2/M"
_symmetry_group_IT_number 12
_symmetry_cell_setting 'monoclinic'
loop_
_space_group_symop_operation_xyz
x,y,z
-x,y,-z
-x,-y,-z
x,-y,z
1/2+x,1/2+y,z
1/2-x,1/2+y,-z
1/2-x,1/2-y,-z
1/2+x,1/2-y,z
loop_
_atom_site_type_symbol
_atom_site_label
_atom_site_fract_x
_atom_site_fract_y
_atom_site_fract_z
Si Si1 0.589316 0.707268 0.853639
Si Si2 0.857263 0.600739 0.279365
Si Si3 0.320165 0.605716 0.496067
Si Si4 0.317021 0.397934 0.124173
Si Si5 0.136808 0.395212 0.461406
Si Si6 0.413176 0.698679 0.520379
Si Si7 0.069683 0.106592 0.270080
O O1 0.596591 0.814335 0.844395
O O2 0.631591 0.664307 0.674445
O O3 0.636736 0.666635 0.874263
O O4 0.500000 0.681918 0.000000
O O5 0.882479 0.500000 0.204306
O O6 0.769186 0.611474 0.387544
O O7 0.862477 0.607160 0.404857
O O8 0.340214 0.500000 0.460785
O O9 0.344157 0.650731 0.571624
O O10 0.326341 0.500000 0.150552
O O11 0.226141 0.381663 0.274151
O O12 0.357529 0.390595 0.935765
O O13 0.114923 0.500000 0.468540
O O14 0.092427 0.306461 0.490497
O O15 0.495301 0.654658 0.341647
O O16 0.412202 0.663046 0.649548
O O17 0.054375 0.000000 0.315931
#
# Coordination Sequence:
#
# PCOD9224843 Si02
#       7
#     8   8   8   8   8   8   8
#     4  12  22  32  53  83 112 141 179 223 275 326
#     4  10  21  38  55  77 112 149 184 221 266 326
#     4  11  20  33  57  85 109 140 182 226 270 322
#     4  10  21  37  55  79 114 145 176 224 275 324
#     4  10  20  37  59  80 106 146 188 224 268 319
#     4  11  20  35  59  82 110 145 184 223 269 325
#     4  10  22  39  56  81 116 147 177 219 278 331
#
# _framework density 8.9630179999999999
#
# number of rings (size 3 to 8) (size 9 to 14) (size 15 to 20)
#    0.000    1.429    2.857    4.286    0.000    3.143 
#    0.000    1.429    0.000    0.857    0.000    0.000 
#    0.000    0.000    0.000    0.000    0.000    0.000 
#
# Total GULP energy -156115.364840 kJ/mol
# GULP energy per Si atom -5575.548744 kJ/mol
# Density = 0.894262 g / cm^3
# Si number density = 8.963018 Si / 1000 Ang^3
#
#
#
# Elastic Constant Matrix: (Units=GPa)
#
#
# Indices 1 2 3 4 5 6 
#
# 1 71.7016 48.5245 7.8275 0.0000 0.6817 0.0000
# 2 48.5245 145.3456 0.3099 0.0000 1.7925 0.0000
# 3 7.8275 0.3099 15.5886 0.0000 5.3440 0.0000
# 4 0.0000 0.0000 0.0000 21.2257 0.0000 -4.1374
# 5 0.6817 1.7925 5.3440 0.0000 15.6764 0.0000
# 6 0.0000 0.0000 0.0000 -4.1374 0.0000 39.2052
#
#
#
# Elastic Compliance Matrix: (Units=1/GPa)
#
#
# Indices 1 2 3 4 5 6 
#
# 1 0.019532 -0.006542 -0.010919 0.000000 0.003621 0.000000
# 2 -0.006542 0.009081 0.003808 0.000000 -0.002052 0.000000
# 3 -0.010919 0.003808 0.078745 0.000000 -0.026804 0.000000
# 4 0.000000 0.000000 0.000000 0.048102 0.000000 0.005076
# 5 0.003621 -0.002052 -0.026804 0.000000 0.073005 0.000000
# 6 0.000000 0.000000 0.000000 0.005076 0.000000 0.026043
#
#
# Mechanical properties :
#
#
# Convention : Reuss Voigt Hill
#
# Bulk Modulus (GPa) = 12.49178 38.43995 25.46587
# Shear Modulus (GPa) = 16.20758 26.95305 21.58031
#
# Velocity S-wave (km/s) = 3.01015 3.88180 3.47342
# Velocity P-wave (km/s) = 4.36634 6.44836 5.50665
#
# Compressibility (1/GPa) = 0.08005261
#
# Stress axis : x y z
#
# Youngs Moduli (GPa) = 51.19895 110.11428 12.69921
#
# Poissons Ratio (x) = 0.72038 0.13866
# Poissons Ratio (y) = 0.33495 -0.04836
# Poissons Ratio (z) = 0.55902 -0.41931
#
# Static dielectric constant tensor:
#      x y z
#    x 1.612110 0.000000 0.018550 
#    y 0.000000 1.631440 0.000000 
#    z 0.018550 0.000000 1.643670 
# 
# From -- ./inp_files/156175.got.cif
#   From: 2010.05.17/outbox.ucp.g08.bks.cvg/sg12_79_cif.got.tgz:156175.got - 2010.06.11 11:47:21.
