data_PCOD9224155
_publ_section_title
;
Structure prediction by ZEFSAII (Michael W. Deem and Ramdas Pophale) SiO2 
 PCOD9224155
Probable space group: C 2/M
;
_chemical_formula_sum "Si O2"
_cell_formula_units_Z 28
_cell_length_a 15.000000
_cell_length_b 24.000000
_cell_length_c 9.000000
_cell_angle_alpha 90.000000
_cell_angle_beta 110.000000
_cell_angle_gamma 90.000000
_cell_volume 3044.604091
_symmetry_space_group_name_H-M "C 2/M"
_symmetry_group_IT_number 12
_symmetry_cell_setting 'monoclinic'
loop_
_space_group_symop_operation_xyz
x,y,z
-x,y,-z
-x,-y,-z
x,-y,z
1/2+x,1/2+y,z
1/2-x,1/2+y,-z
1/2-x,1/2-y,-z
1/2+x,1/2-y,z
loop_
_atom_site_type_symbol
_atom_site_label
_atom_site_fract_x
_atom_site_fract_y
_atom_site_fract_z
Si Si1 0.657964 0.169074 0.075116
Si Si2 0.820395 0.230972 0.333267
Si Si3 0.381182 0.936001 0.157912
Si Si4 0.500000 0.793027 0.500000
Si Si5 0.153688 0.817019 0.315425
Si Si6 0.414377 0.114581 0.663174
Si Si7 0.249451 0.564273 0.623544
Si Si8 0.000000 0.761163 0.000000
O O1 0.763157 0.192020 0.182311
O O2 0.614515 0.143299 0.200440
O O3 0.584709 0.219283 0.990142
O O4 0.653930 0.116734 0.960472
O O5 0.841627 0.200918 0.505970
O O6 0.744625 0.281706 0.307313
O O7 0.924384 0.256838 0.362880
O O8 0.490364 0.921919 0.263079
O O9 0.315004 0.935643 0.265100
O O10 0.377191 0.000000 0.092854
O O11 0.561080 0.834163 0.431882
O O12 0.176559 0.883589 0.321848
O O13 0.060856 0.796780 0.162509
O O14 0.325727 0.080131 0.548707
O O15 0.285527 0.500000 0.624873
#
# Coordination Sequence:
#
# PCOD9224155 Si02
#       8
#     8   8   8   4   8   8   8   4
#     4  11  22  38  55  89 121 156 191 234 292 355
#     4  10  20  36  59  82 121 152 190 236 292 353
#     4  11  23  37  55  86 124 157 192 239 291 346
#     4  12  20  34  63  88 113 150 190 242 286 344
#     4  10  19  39  57  86 114 157 193 238 290 344
#     4  12  19  36  58  85 119 152 193 232 286 356
#     4  11  22  38  60  84 116 156 203 242 282 343
#     4  10  20  34  60  82 118 146 188 242 286 342
#
# _framework density 9.1965979999999998
#
# number of rings (size 3 to 8) (size 9 to 14) (size 15 to 20)
#    0.000    1.143    5.714    2.143    0.000    2.857 
#    5.143    2.500    0.000    0.000    0.000    1.000 
#    0.000    0.000    0.000    0.000    0.000    0.000 
#
# Total GULP energy -156209.191079 kJ/mol
# GULP energy per Si atom -5578.899681 kJ/mol
# Density = 0.917567 g / cm^3
# Si number density = 9.196598 Si / 1000 Ang^3
#
#
#
# Elastic Constant Matrix: (Units=GPa)
#
#
# Indices 1 2 3 4 5 6 
#
# 1 42.0044 27.4406 24.2908 0.0000 24.7549 0.0000
# 2 27.4406 157.1072 53.4077 0.0000 20.6108 0.0000
# 3 24.2908 53.4077 104.6706 0.0000 30.9189 0.0000
# 4 0.0000 0.0000 0.0000 35.4873 0.0000 7.5266
# 5 24.7549 20.6108 30.9189 0.0000 42.4237 0.0000
# 6 0.0000 0.0000 0.0000 7.5266 0.0000 28.8086
#
#
#
# Elastic Compliance Matrix: (Units=1/GPa)
#
#
# Indices 1 2 3 4 5 6 
#
# 1 0.038646 -0.003738 -0.001193 0.000000 -0.019865 0.000000
# 2 -0.003738 0.008104 -0.003503 0.000000 0.000797 0.000000
# 3 -0.001193 -0.003503 0.013903 0.000000 -0.007734 0.000000
# 4 0.000000 0.000000 0.000000 0.029832 0.000000 -0.007794
# 5 -0.019865 0.000797 -0.007734 0.000000 0.040413 0.000000
# 6 0.000000 0.000000 0.000000 -0.007794 0.000000 0.036748
#
#
# Mechanical properties :
#
#
# Convention : Reuss Voigt Hill
#
# Bulk Modulus (GPa) = 22.83927 57.11784 39.97856
# Shear Modulus (GPa) = 25.11165 34.58679 29.84922
#
# Velocity S-wave (km/s) = 3.69896 4.34108 4.03282
# Velocity P-wave (km/s) = 5.53961 7.49985 6.59299
#
# Compressibility (1/GPa) = 0.04378423
#
# Stress axis : x y z
#
# Youngs Moduli (GPa) = 25.87558 123.39108 71.92795
#
# Poissons Ratio (x) = 0.46128 0.08582
# Poissons Ratio (y) = 0.09673 0.25197
# Poissons Ratio (z) = 0.03087 0.43225
#
# Static dielectric constant tensor:
#      x y z
#    x 1.646070 0.000000 -0.025450 
#    y 0.000000 1.662500 0.000000 
#    z -0.025450 0.000000 1.699810 
# 
# From -- ./inp_files/65478.got.cif
#   From: 2010.05.17/outbox.ucp.g08.bks.cvg/sg12_33_cif.got.tgz:65478.got - 2010.06.11 11:47:21.
