data_PCOD9224473
_publ_section_title
;
Structure prediction by ZEFSAII (Michael W. Deem and Ramdas Pophale) SiO2 
 PCOD9224473
Probable space group: C 2/M
;
_chemical_formula_sum "Si O2"
_cell_formula_units_Z 32
_cell_length_a 24.000000
_cell_length_b 9.000000
_cell_length_c 30.000000
_cell_angle_alpha 90.000000
_cell_angle_beta 150.000000
_cell_angle_gamma 90.000000
_cell_volume 3240.000000
_symmetry_space_group_name_H-M "C 2/M"
_symmetry_group_IT_number 12
_symmetry_cell_setting 'monoclinic'
loop_
_space_group_symop_operation_xyz
x,y,z
-x,y,-z
-x,-y,-z
x,-y,z
1/2+x,1/2+y,z
1/2-x,1/2+y,-z
1/2-x,1/2-y,-z
1/2+x,1/2-y,z
loop_
_atom_site_type_symbol
_atom_site_label
_atom_site_fract_x
_atom_site_fract_y
_atom_site_fract_z
Si Si1 0.840960 0.332366 0.122193
Si Si2 0.570491 0.326256 0.735106
Si Si3 0.881694 0.329147 0.046108
Si Si4 0.133883 0.321046 0.212934
Si Si5 0.180729 0.177455 0.726299
Si Si6 0.215271 0.821800 0.360830
Si Si7 0.648600 0.824368 0.404318
Si Si8 0.975405 0.674116 0.535540
O O1 0.859995 0.500000 0.151985
O O2 0.898396 0.213663 0.193360
O O3 0.884675 0.325011 0.102057
O O4 0.711468 0.287936 0.031994
O O5 0.544494 0.500000 0.712154
O O6 0.670691 0.284948 0.771319
O O7 0.463653 0.228407 0.649808
O O8 0.850259 0.500000 0.012118
O O9 0.004260 0.295893 0.113514
O O10 0.146585 0.500000 0.228693
O O11 0.213715 0.268940 0.228377
O O12 0.170974 0.237117 0.283158
O O13 0.067420 0.233167 0.625169
O O14 0.183582 0.000000 0.725424
O O15 0.151990 0.740151 0.356800
O O16 0.347150 0.785273 0.455647
O O17 0.203257 0.000000 0.355929
O O18 0.750000 0.750000 0.500000
O O19 0.658154 0.000000 0.410706
O O20 0.988886 0.500000 0.555962
O O21 0.000000 0.691409 0.500000
#
# Coordination Sequence:
#
# PCOD9224473 Si02
#       8
#     8   8   8   8   8   8   8   8
#     4  10  20  36  60  89 115 146 187 232 286 345
#     4  11  23  40  60  84 116 155 196 235 284 344
#     4   9  19  36  59  85 114 144 180 232 289 346
#     4  10  20  36  57  84 115 148 189 237 288 338
#     4  10  22  37  56  82 112 151 196 239 283 337
#     4  11  22  36  57  84 114 150 191 236 289 343
#     4  12  25  41  59  83 115 151 192 239 288 338
#     4  10  20  35  53  78 112 150 190 234 282 334
#
# _framework density 9.8765429999999999
#
# number of rings (size 3 to 8) (size 9 to 14) (size 15 to 20)
#    0.000    1.625    1.250    3.750    0.000    6.250 
#    0.000    0.625    0.000    3.750    0.000    0.000 
#    0.000    0.000    0.000    0.000    0.000    0.000 
#
# Total GULP energy -178714.143637 kJ/mol
# GULP energy per Si atom -5584.816989 kJ/mol
# Density = 0.985406 g / cm^3
# Si number density = 9.876543 Si / 1000 Ang^3
#
#
#
# Elastic Constant Matrix: (Units=GPa)
#
#
# Indices 1 2 3 4 5 6 
#
# 1 91.2814 39.6787 22.9722 0.0001 27.9386 0.0000
# 2 39.6787 52.3070 12.9452 0.0002 9.4614 -0.0001
# 3 22.9722 12.9452 38.1051 -0.0001 15.5322 0.0000
# 4 0.0001 0.0002 -0.0001 22.9244 -0.0001 0.4654
# 5 27.9386 9.4614 15.5322 -0.0001 20.9592 0.0000
# 6 0.0000 -0.0001 0.0000 0.4654 0.0000 20.0270
#
#
#
# Elastic Compliance Matrix: (Units=1/GPa)
#
#
# Indices 1 2 3 4 5 6 
#
# 1 0.025811 -0.014676 0.001074 0.000000 -0.028576 0.000000
# 2 -0.014676 0.029753 -0.005387 0.000000 0.010124 0.000000
# 3 0.001074 -0.005387 0.038712 0.000000 -0.027688 0.000000
# 4 0.000000 0.000000 0.000000 0.043642 0.000000 -0.001014
# 5 -0.028576 0.010124 -0.027688 0.000000 0.101752 0.000000
# 6 0.000000 0.000000 0.000000 -0.001014 0.000000 0.049956
#
#
# Mechanical properties :
#
#
# Convention : Reuss Voigt Hill
#
# Bulk Modulus (GPa) = 17.76307 36.98729 27.37518
# Shear Modulus (GPa) = 14.43542 19.85528 17.14535
#
# Velocity S-wave (km/s) = 2.70625 3.17389 2.94935
# Velocity P-wave (km/s) = 4.33326 5.67423 5.04847
#
# Compressibility (1/GPa) = 0.05629659
#
# Stress axis : x y z
#
# Youngs Moduli (GPa) = 38.74338 33.61043 25.83182
#
# Poissons Ratio (x) = 0.49327 -0.02773
# Poissons Ratio (y) = 0.56860 0.13915
# Poissons Ratio (z) = -0.04159 0.18105
#
# Static dielectric constant tensor:
#      x y z
#    x 1.859510 0.000000 -0.134560 
#    y 0.000000 1.663610 0.000000 
#    z -0.134560 0.000000 1.842980 
# 
# From -- ./inp_files/382482.got.cif
#   From: 2010.05.17/outbox.ucp.g08.bks.cvg/sg12_192_cif.got.tgz:382482.got - 2010.06.11 11:47:21.
