data_PCOD9224392
_publ_section_title
;
Structure prediction by ZEFSAII (Michael W. Deem and Ramdas Pophale) SiO2 
 PCOD9224392
Probable space group: C 2/M
;
_chemical_formula_sum "Si O2"
_cell_formula_units_Z 32
_cell_length_a 24.000000
_cell_length_b 9.000000
_cell_length_c 30.000000
_cell_angle_alpha 90.000000
_cell_angle_beta 30.000000
_cell_angle_gamma 90.000000
_cell_volume 3240.000000
_symmetry_space_group_name_H-M "C 2/M"
_symmetry_group_IT_number 12
_symmetry_cell_setting 'monoclinic'
loop_
_space_group_symop_operation_xyz
x,y,z
-x,y,-z
-x,-y,-z
x,-y,z
1/2+x,1/2+y,z
1/2-x,1/2+y,-z
1/2-x,1/2-y,-z
1/2+x,1/2-y,z
loop_
_atom_site_type_symbol
_atom_site_label
_atom_site_fract_x
_atom_site_fract_y
_atom_site_fract_z
Si Si1 0.759075 0.320279 0.542272
Si Si2 0.193545 0.321170 0.179617
Si Si3 0.408378 0.326715 0.599236
Si Si4 0.885194 0.677204 0.104337
Si Si5 0.316415 0.178297 0.912742
Si Si6 0.557310 0.324063 0.747789
Si Si7 0.489858 0.177946 0.628645
Si Si8 0.148633 0.672476 0.768485
O O1 0.756503 0.500000 0.541617
O O2 0.750000 0.250000 0.500000
O O3 0.657499 0.276338 0.645014
O O4 0.884103 0.272696 0.469270
O O5 0.192372 0.500000 0.180556
O O6 0.284667 0.261365 0.150444
O O7 0.226090 0.275213 0.107014
O O8 0.071756 0.271623 0.283019
O O9 0.500000 0.275499 0.500000
O O10 0.432335 0.500000 0.592746
O O11 0.417346 0.233994 0.637909
O O12 0.281977 0.318483 0.670451
O O13 0.867504 0.500000 0.111407
O O14 0.884729 0.705908 0.157509
O O15 0.000000 0.716302 0.000000
O O16 0.443915 0.232567 0.821730
O O17 0.310901 0.000000 0.920802
O O18 0.250000 0.250000 0.000000
O O19 0.537576 0.500000 0.755257
O O20 0.596577 0.287011 0.770364
O O21 0.492214 0.000000 0.628357
O O22 0.115717 0.500000 0.781799
#
# Coordination Sequence:
#
# PCOD9224392 Si02
#       8
#     8   8   8   8   8   8   8   8
#     4  10  22  39  60  88 121 160 207 254 306 367
#     4  10  22  40  63  91 120 154 198 249 306 364
#     4  10  20  34  54  83 117 154 197 240 288 350
#     4  10  22  39  61  89 119 156 200 248 304 362
#     4  11  25  45  67  92 123 161 205 255 311 367
#     4  11  24  41  62  92 126 163 208 255 306 367
#     4  10  20  36  58  85 118 153 192 242 299 356
#     4  10  21  38  58  86 124 162 200 246 304 363
#
# _framework density 9.8765429999999999
#
# number of rings (size 3 to 8) (size 9 to 14) (size 15 to 20)
#    0.000    1.750    1.250    2.250    1.750    5.000 
#    0.000    0.000    0.000    0.000    0.000    0.000 
#    0.000    0.000    0.000    0.000    0.000    0.000 
#
# Total GULP energy -178582.274704 kJ/mol
# GULP energy per Si atom -5580.696085 kJ/mol
# Density = 0.985406 g / cm^3
# Si number density = 9.876543 Si / 1000 Ang^3
#
#
#
# Elastic Constant Matrix: (Units=GPa)
#
#
# Indices 1 2 3 4 5 6 
#
# 1 55.1289 10.1090 26.2996 0.0012 16.5886 -0.0011
# 2 10.1090 7.9191 19.1280 0.0014 6.4089 -0.0019
# 3 26.2996 19.1280 127.4197 -0.0002 27.9233 -0.0003
# 4 0.0012 0.0014 -0.0002 26.3586 -0.0003 1.3432
# 5 16.5886 6.4089 27.9233 -0.0003 32.6516 0.0010
# 6 -0.0011 -0.0019 -0.0003 1.3432 0.0010 32.1317
#
#
#
# Elastic Compliance Matrix: (Units=1/GPa)
#
#
# Indices 1 2 3 4 5 6 
#
# 1 0.025251 -0.027298 0.000644 0.000000 -0.008021 -0.000001
# 2 -0.027298 0.235171 -0.027803 -0.000012 -0.008514 0.000014
# 3 0.000644 -0.027803 0.013247 0.000002 -0.006199 -0.000001
# 4 0.000000 -0.000012 0.000002 0.038019 0.000001 -0.001589
# 5 -0.008021 -0.008514 -0.006199 0.000001 0.041674 -0.000002
# 6 -0.000001 0.000014 -0.000001 -0.001589 -0.000002 0.031188
#
#
# Mechanical properties :
#
#
# Convention : Reuss Voigt Hill
#
# Bulk Modulus (GPa) = 6.06961 33.50454 19.78707
# Shear Modulus (GPa) = 9.11769 27.22381 18.17075
#
# Velocity S-wave (km/s) = 2.15078 3.71645 3.03627
# Velocity P-wave (km/s) = 3.04092 5.95100 4.72555
#
# Compressibility (1/GPa) = 0.16475528
#
# Stress axis : x y z
#
# Youngs Moduli (GPa) = 39.60161 4.25223 75.48647
#
# Poissons Ratio (x) = 0.11608 -0.04860
# Poissons Ratio (y) = 1.08104 2.09877
# Poissons Ratio (z) = -0.02550 0.11823
#
# Static dielectric constant tensor:
#      x y z
#    x 1.785140 0.000010 -0.011240 
#    y 0.000010 1.658680 0.000000 
#    z -0.011240 0.000000 1.712540 
# 
# From -- ./inp_files/382210.got.cif
#   From: 2010.05.17/outbox.ucp.g08.bks.cvg/sg12_192_cif.got.tgz:382210.got - 2010.06.11 11:47:21.
