data_PCOD9224105
_publ_section_title
;
Structure prediction by ZEFSAII (Michael W. Deem and Ramdas Pophale) SiO2 
 PCOD9224105
Probable space group: C 2/M
;
_chemical_formula_sum "Si O2"
_cell_formula_units_Z 20
_cell_length_a 12.000000
_cell_length_b 30.000000
_cell_length_c 9.000000
_cell_angle_alpha 90.000000
_cell_angle_beta 140.000000
_cell_angle_gamma 90.000000
_cell_volume 2082.631855
_symmetry_space_group_name_H-M "C 2/M"
_symmetry_group_IT_number 12
_symmetry_cell_setting 'monoclinic'
loop_
_space_group_symop_operation_xyz
x,y,z
-x,y,-z
-x,-y,-z
x,-y,z
1/2+x,1/2+y,z
1/2-x,1/2+y,-z
1/2-x,1/2-y,-z
1/2+x,1/2-y,z
loop_
_atom_site_type_symbol
_atom_site_label
_atom_site_fract_x
_atom_site_fract_y
_atom_site_fract_z
Si Si1 0.497322 0.385613 0.176636
Si Si2 0.628510 0.902218 0.953226
Si Si3 0.943492 0.701161 0.110632
Si Si4 0.531717 0.709295 0.707470
Si Si5 0.285092 0.945995 0.635595
O O1 0.302717 0.398291 0.033481
O O2 0.537584 0.334909 0.277628
O O3 0.633392 0.420625 0.389310
O O4 0.500000 0.386147 0.000000
O O5 0.694534 0.920371 0.183087
O O6 0.537172 0.852755 0.854233
O O7 0.473214 0.936043 0.753003
O O8 0.026198 0.741555 0.293110
O O9 0.739355 0.706369 0.932407
O O10 0.000000 0.711285 0.000000
O O11 0.500000 0.704821 0.500000
O O12 0.258872 0.000000 0.624803
#
# Coordination Sequence:
#
# PCOD9224105 Si02
#       5
#     8   8   8   8   8
#     4  11  24  42  62  92 135 170 207 261 317 374
#     4  10  21  42  65  95 127 159 214 264 309 378
#     4  10  19  37  58  89 124 159 204 253 314 367
#     4  10  22  38  59  90 124 167 211 250 302 375
#     4  11  23  42  71  96 119 166 216 265 322 371
#
# _framework density 9.6032340000000005
#
# number of rings (size 3 to 8) (size 9 to 14) (size 15 to 20)
#    0.000    1.600    2.000    4.800    0.000    4.400 
#   10.800    1.000    0.000    0.000    0.000    0.000 
#    0.000    0.000    0.000    0.000    0.000    0.000 
#
# Total GULP energy -111467.266996 kJ/mol
# GULP energy per Si atom -5573.363350 kJ/mol
# Density = 0.958138 g / cm^3
# Si number density = 9.603234 Si / 1000 Ang^3
#
#
#
# Elastic Constant Matrix: (Units=GPa)
#
#
# Indices 1 2 3 4 5 6 
#
# 1 108.5611 52.9413 44.3560 0.0000 -12.7189 0.0000
# 2 52.9413 185.8624 55.5525 0.0000 -13.8809 0.0000
# 3 44.3560 55.5525 80.6537 0.0000 -7.4678 0.0000
# 4 0.0000 0.0000 0.0000 39.9377 0.0000 4.7119
# 5 -12.7189 -13.8809 -7.4678 0.0000 32.1179 0.0000
# 6 0.0000 0.0000 0.0000 4.7119 0.0000 31.0371
#
#
#
# Elastic Compliance Matrix: (Units=1/GPa)
#
#
# Indices 1 2 3 4 5 6 
#
# 1 0.012650 -0.001742 -0.005481 0.000000 0.002982 0.000000
# 2 -0.001742 0.007128 -0.003812 0.000000 0.001504 0.000000
# 3 -0.005481 -0.003812 0.018074 0.000000 0.000384 0.000000
# 4 0.000000 0.000000 0.000000 0.025496 0.000000 -0.003871
# 5 0.002982 0.001504 0.000384 0.000000 0.033056 0.000000
# 6 0.000000 0.000000 0.000000 -0.003871 0.000000 0.032807
#
#
# Mechanical properties :
#
#
# Convention : Reuss Voigt Hill
#
# Bulk Modulus (GPa) = 63.36434 75.64187 69.50310
# Shear Modulus (GPa) = 31.94023 35.43370 33.68697
#
# Velocity S-wave (km/s) = 4.08241 4.29987 4.19255
# Velocity P-wave (km/s) = 7.43533 8.00755 7.72674
#
# Compressibility (1/GPa) = 0.01578175
#
# Stress axis : x y z
#
# Youngs Moduli (GPa) = 79.05309 140.28257 55.32722
#
# Poissons Ratio (x) = 0.24442 0.30323
# Poissons Ratio (y) = 0.13774 0.21093
# Poissons Ratio (z) = 0.43326 0.53482
#
# Static dielectric constant tensor:
#      x y z
#    x 1.680290 0.000000 0.014770 
#    y 0.000000 1.706140 0.000000 
#    z 0.014770 0.000000 1.694250 
# 
# From -- ./inp_files/53975.got.cif
#   From: 2010.05.17/outbox.ucp.g08.bks.cvg/sg12_27_cif.got.tgz:53975.got - 2010.06.11 11:47:21.
