data_PCOD9224427
_publ_section_title
;
Structure prediction by ZEFSAII (Michael W. Deem and Ramdas Pophale) SiO2 
 PCOD9224427
Probable space group: C 2/M
;
_chemical_formula_sum "Si O2"
_cell_formula_units_Z 28
_cell_length_a 30.000000
_cell_length_b 9.000000
_cell_length_c 21.000000
_cell_angle_alpha 90.000000
_cell_angle_beta 150.000000
_cell_angle_gamma 90.000000
_cell_volume 2835.000000
_symmetry_space_group_name_H-M "C 2/M"
_symmetry_group_IT_number 12
_symmetry_cell_setting 'monoclinic'
loop_
_space_group_symop_operation_xyz
x,y,z
-x,y,-z
-x,-y,-z
x,-y,z
1/2+x,1/2+y,z
1/2-x,1/2+y,-z
1/2-x,1/2-y,-z
1/2+x,1/2-y,z
loop_
_atom_site_type_symbol
_atom_site_label
_atom_site_fract_x
_atom_site_fract_y
_atom_site_fract_z
Si Si1 0.935488 0.323557 0.765637
Si Si2 0.067451 0.322408 0.748008
Si Si3 0.778281 0.324242 0.826203
Si Si4 0.633050 0.174580 0.458711
Si Si5 0.612708 0.675401 0.932998
Si Si6 0.311713 0.178701 0.727871
Si Si7 0.909073 0.176123 0.355749
O O1 0.957620 0.500000 0.798351
O O2 0.874712 0.308042 0.627369
O O3 0.885327 0.273773 0.767417
O O4 0.023245 0.232514 0.857431
O O5 0.073738 0.500000 0.757925
O O6 0.117036 0.253322 0.869899
O O7 0.102488 0.259599 0.725077
O O8 0.962564 0.282415 0.629362
O O9 0.797664 0.500000 0.859800
O O10 0.822649 0.275280 0.814862
O O11 0.671768 0.306425 0.694889
O O12 0.810730 0.231053 0.925918
O O13 0.715476 0.265986 0.586522
O O14 0.646733 0.000000 0.488961
O O15 0.611601 0.500000 0.923761
O O16 0.312141 0.000000 0.727952
O O17 0.000000 0.229198 0.500000
O O18 0.916641 0.000000 0.351274
#
# Coordination Sequence:
#
# PCOD9224427 Si02
#       7
#     8   8   8   8   8   8   8
#     4   9  19  36  56  81 113 148 186 228 278 332
#     4  10  21  38  60  84 113 149 186 229 281 332
#     4  10  22  39  57  80 113 149 184 228 277 326
#     4   9  18  32  52  81 115 145 178 228 282 329
#     4  11  23  39  59  82 108 144 190 234 278 329
#     4  10  20  34  56  82 110 150 191 227 274 330
#     4  10  21  38  61  89 118 147 183 226 272 327
#
# _framework density 9.8765429999999999
#
# number of rings (size 3 to 8) (size 9 to 14) (size 15 to 20)
#    0.000    2.143    0.000    3.857    0.000    7.143 
#    0.000    2.857    0.000    0.000    0.000    0.000 
#    0.000    0.000    0.000    0.000    0.000    0.000 
#
# Total GULP energy -156334.989332 kJ/mol
# GULP energy per Si atom -5583.392476 kJ/mol
# Density = 0.985406 g / cm^3
# Si number density = 9.876543 Si / 1000 Ang^3
#
#
#
# Elastic Constant Matrix: (Units=GPa)
#
#
# Indices 1 2 3 4 5 6 
#
# 1 103.7402 21.0199 0.6285 0.0000 -17.2450 0.0000
# 2 21.0199 25.8340 13.1250 0.0000 -4.9557 0.0000
# 3 0.6285 13.1250 42.1094 0.0000 -9.8251 0.0000
# 4 0.0000 0.0000 0.0000 26.2188 0.0000 0.6340
# 5 -17.2450 -4.9557 -9.8251 0.0000 11.9714 0.0000
# 6 0.0000 0.0000 0.0000 0.6340 0.0000 24.3360
#
#
#
# Elastic Compliance Matrix: (Units=1/GPa)
#
#
# Indices 1 2 3 4 5 6 
#
# 1 0.016883 -0.013808 0.010380 0.000000 0.027124 0.000000
# 2 -0.013808 0.058081 -0.020937 0.000000 -0.013030 0.000000
# 3 0.010380 -0.020937 0.039066 0.000000 0.038347 0.000000
# 4 0.000000 0.000000 0.000000 0.038165 0.000000 -0.000994
# 5 0.027124 -0.013030 0.038347 0.000000 0.148682 0.000000
# 6 0.000000 0.000000 0.000000 -0.000994 0.000000 0.041117
#
#
# Mechanical properties :
#
#
# Convention : Reuss Voigt Hill
#
# Bulk Modulus (GPa) = 15.31373 26.80337 21.05855
# Shear Modulus (GPa) = 12.12151 21.63260 16.87705
#
# Velocity S-wave (km/s) = 2.47989 3.31290 2.92618
# Velocity P-wave (km/s) = 3.99615 5.31341 4.70115
#
# Compressibility (1/GPa) = 0.06530087
#
# Stress axis : x y z
#
# Youngs Moduli (GPa) = 59.23082 17.21740 25.59776
#
# Poissons Ratio (x) = 0.23773 -0.26571
# Poissons Ratio (y) = 0.81783 0.53594
# Poissons Ratio (z) = -0.61483 0.36048
#
# Static dielectric constant tensor:
#      x y z
#    x 1.681310 0.000000 0.005790 
#    y 0.000000 1.658220 0.000000 
#    z 0.005790 0.000000 1.721530 
# 
# From -- ./inp_files/329667.got.cif
#   From: 2010.05.17/outbox.ucp.g08.bks.cvg/sg12_165_cif.got.tgz:329667.got - 2010.06.11 11:47:21.
