data_PCOD9224258
_publ_section_title
;
Structure prediction by ZEFSAII (Michael W. Deem and Ramdas Pophale) SiO2 
 PCOD9224258
Probable space group: C 2/M
;
_chemical_formula_sum "Si O2"
_cell_formula_units_Z 32
_cell_length_a 18.000000
_cell_length_b 21.000000
_cell_length_c 24.000000
_cell_angle_alpha 90.000000
_cell_angle_beta 20.000000
_cell_angle_gamma 90.000000
_cell_volume 3102.806740
_symmetry_space_group_name_H-M "C 2/M"
_symmetry_group_IT_number 12
_symmetry_cell_setting 'monoclinic'
loop_
_space_group_symop_operation_xyz
x,y,z
-x,y,-z
-x,-y,-z
x,-y,z
1/2+x,1/2+y,z
1/2-x,1/2+y,-z
1/2-x,1/2-y,-z
1/2+x,1/2-y,z
loop_
_atom_site_type_symbol
_atom_site_label
_atom_site_fract_x
_atom_site_fract_y
_atom_site_fract_z
Si Si1 0.224701 0.928837 0.782973
Si Si2 0.884272 0.150984 0.958796
Si Si3 0.947891 0.333587 0.473030
Si Si4 0.280392 0.424304 0.926209
Si Si5 0.655479 0.722793 0.258258
Si Si6 0.133698 0.871123 0.604194
Si Si7 0.934629 0.572388 0.752520
Si Si8 0.454811 0.207277 0.939047
O O1 0.455138 0.904807 0.596518
O O2 0.266395 0.930083 0.819467
O O3 0.062214 0.874767 0.876759
O O4 0.164043 0.000000 0.807682
O O5 0.905468 0.101275 0.892712
O O6 0.928079 0.227209 0.920874
O O7 0.650827 0.129248 0.147934
O O8 0.718188 0.337078 0.602175
O O9 0.000000 0.310874 0.500000
O O10 0.075548 0.289668 0.338663
O O11 0.214354 0.500000 0.977489
O O12 0.440005 0.416799 0.760871
O O13 0.116907 0.362305 0.033766
O O14 0.458315 0.678490 0.376460
O O15 0.807787 0.698185 0.201210
O O16 0.801550 0.725495 0.099718
O O17 0.333207 0.909047 0.436515
O O18 0.938674 0.500000 0.773755
#
# Coordination Sequence:
#
# PCOD9224258 Si02
#       8
#     8   8   8   8   8   8   8   8
#     4  10  20  33  52  83 121 167 206 239 292 366
#     4  12  21  36  62  90 123 158 196 256 308 363
#     4  11  21  35  57  86 128 160 198 251 306 360
#     4  11  24  42  62  90 123 156 204 259 308 360
#     4  10  21  41  61  88 119 160 211 252 298 358
#     4  10  22  39  61  87 121 167 205 248 296 365
#     4  10  21  36  57  88 123 163 204 244 298 367
#     4  10  22  40  66  87 118 155 209 254 302 357
#
# _framework density 10.313243
#
# number of rings (size 3 to 8) (size 9 to 14) (size 15 to 20)
#    0.000    1.500    1.250    4.875    1.750    2.750 
#    2.250    5.625    0.000    0.000    0.000    1.750 
#    0.000    0.000    0.000    0.000    0.000    0.000 
#
# Total GULP energy -178194.462449 kJ/mol
# GULP energy per Si atom -5568.576952 kJ/mol
# Density = 1.028977 g / cm^3
# Si number density = 10.313243 Si / 1000 Ang^3
#
#
#
# Elastic Constant Matrix: (Units=GPa)
#
#
# Indices 1 2 3 4 5 6 
#
# 1 65.0455 45.4556 15.5050 -0.0465 -5.2618 0.0197
# 2 45.4556 157.9146 25.3967 0.0252 -11.8708 0.0253
# 3 15.5050 25.3967 44.3110 0.2281 -10.1428 -0.0067
# 4 -0.0465 0.0252 0.2281 25.2934 0.0269 -3.2660
# 5 -5.2618 -11.8708 -10.1428 0.0269 29.5176 -0.0108
# 6 0.0197 0.0253 -0.0067 -3.2660 -0.0108 28.0698
#
#
#
# Elastic Compliance Matrix: (Units=1/GPa)
#
#
# Indices 1 2 3 4 5 6 
#
# 1 0.019885 -0.005067 -0.004026 0.000078 0.000123 -0.000001
# 2 -0.005067 0.008333 -0.002651 0.000004 0.001537 -0.000003
# 3 -0.004026 -0.002651 0.027231 -0.000260 0.007573 -0.000016
# 4 0.000078 0.000004 -0.000260 0.040142 -0.000109 0.004670
# 5 0.000123 0.001537 0.007573 -0.000109 0.037121 0.000002
# 6 -0.000001 -0.000003 -0.000016 0.004670 0.000002 0.036169
#
#
# Mechanical properties :
#
#
# Convention : Reuss Voigt Hill
#
# Bulk Modulus (GPa) = 31.28895 48.88730 40.08813
# Shear Modulus (GPa) = 24.62797 28.63708 26.63253
#
# Velocity S-wave (km/s) = 3.45918 3.73012 3.59720
# Velocity P-wave (km/s) = 5.58182 6.50418 6.06058
#
# Compressibility (1/GPa) = 0.03196016
#
# Stress axis : x y z
#
# Youngs Moduli (GPa) = 50.29036 120.00495 36.72304
#
# Poissons Ratio (x) = 0.60807 0.14784
# Poissons Ratio (y) = 0.25482 0.09736
# Poissons Ratio (z) = 0.20246 0.31816
#
# Static dielectric constant tensor:
#      x y z
#    x 1.773380 0.000000 0.002070 
#    y 0.000000 1.737550 0.000080 
#    z 0.002070 0.000080 1.879370 
# 
# From -- ./inp_files/344855.got.cif
#   From: 2010.05.17/outbox.ucp.g08.bks.cvg/sg12_173_cif.got.tgz:344855.got - 2010.06.11 11:47:21.
