data_PCOD9224792
_publ_section_title
;
Structure prediction by ZEFSAII (Michael W. Deem and Ramdas Pophale) SiO2 
 PCOD9224792
Probable space group: C 2/M
;
_chemical_formula_sum "Si O2"
_cell_formula_units_Z 32
_cell_length_a 18.000000
_cell_length_b 24.000000
_cell_length_c 15.000000
_cell_angle_alpha 90.000000
_cell_angle_beta 30.000000
_cell_angle_gamma 90.000000
_cell_volume 3240.000000
_symmetry_space_group_name_H-M "C 2/M"
_symmetry_group_IT_number 12
_symmetry_cell_setting 'monoclinic'
loop_
_space_group_symop_operation_xyz
x,y,z
-x,y,-z
-x,-y,-z
x,-y,z
1/2+x,1/2+y,z
1/2-x,1/2+y,-z
1/2-x,1/2-y,-z
1/2+x,1/2-y,z
loop_
_atom_site_type_symbol
_atom_site_label
_atom_site_fract_x
_atom_site_fract_y
_atom_site_fract_z
Si Si1 0.697428 0.350585 0.713856
Si Si2 0.861894 0.155742 0.021087
Si Si3 0.834785 0.065945 0.711616
Si Si4 0.175015 0.334966 0.810454
Si Si5 0.620763 0.746319 0.292296
Si Si6 0.741988 0.065495 0.017359
Si Si7 0.046696 0.566105 0.555907
Si Si8 0.171805 0.760969 0.488087
O O1 0.666008 0.365066 0.849171
O O2 0.806172 0.399739 0.568901
O O3 0.791555 0.294522 0.606565
O O4 0.539046 0.333396 0.835690
O O5 0.735177 0.204173 0.146263
O O6 0.838619 0.108206 0.973265
O O7 0.715142 0.100823 0.780268
O O8 0.000000 0.083019 0.500000
O O9 0.825859 0.000000 0.706647
O O10 0.784887 0.075123 0.867968
O O11 0.270318 0.302679 0.787531
O O12 0.244055 0.311354 0.647775
O O13 0.000000 0.323202 0.000000
O O14 0.500000 0.753953 0.500000
O O15 0.506521 0.731885 0.330895
O O16 0.579952 0.074986 0.235435
O O17 0.773320 0.000000 0.000663
O O18 0.075190 0.500000 0.522282
O O19 0.000000 0.582344 0.500000
O O20 0.250000 0.750000 0.500000
#
# Coordination Sequence:
#
# PCOD9224792 Si02
#       8
#     8   8   8   8   8   8   8   8
#     4  11  22  35  57  89 135 174 215 265 330 389
#     4  11  21  35  60  90 129 175 217 267 323 396
#     4  10  23  46  71  94 127 171 221 277 330 381
#     4  11  23  41  67  96 132 169 220 273 329 397
#     4  10  20  38  64  89 131 180 214 267 332 395
#     4  10  22  39  63  95 125 169 229 271 324 397
#     4  10  20  36  60  90 128 172 217 267 325 387
#     4  11  24  40  63  95 129 170 221 271 324 396
#
# _framework density 9.8765429999999999
#
# number of rings (size 3 to 8) (size 9 to 14) (size 15 to 20)
#    0.000    1.500    3.750    2.625    0.000    4.750 
#    0.000    3.125    0.000    5.250    0.000    0.000 
#    0.000    0.000    0.000    0.000    0.000    0.000 
#
# Total GULP energy -178183.567554 kJ/mol
# GULP energy per Si atom -5568.236486 kJ/mol
# Density = 0.985406 g / cm^3
# Si number density = 9.876543 Si / 1000 Ang^3
#
#
#
# Elastic Constant Matrix: (Units=GPa)
#
#
# Indices 1 2 3 4 5 6 
#
# 1 99.6720 36.4682 46.4646 0.0028 -15.4930 -0.0109
# 2 36.4682 56.3111 41.5611 0.0235 -2.5191 -0.0404
# 3 46.4646 41.5611 126.6650 -0.0024 -24.6076 -0.0174
# 4 0.0028 0.0235 -0.0024 26.5406 -0.0048 1.3928
# 5 -15.4930 -2.5191 -24.6076 -0.0048 47.3714 0.0083
# 6 -0.0109 -0.0404 -0.0174 1.3928 0.0083 -44.9415
#
#
#
# Elastic Compliance Matrix: (Units=1/GPa)
#
#
# Indices 1 2 3 4 5 6 
#
# 1 0.014278 -0.007510 -0.002162 0.000005 0.003147 0.000005
# 2 -0.007510 0.027788 -0.007289 -0.000024 -0.004765 -0.000022
# 3 -0.002162 -0.007289 0.012086 0.000009 0.005184 0.000004
# 4 0.000005 -0.000024 0.000009 0.037617 0.000008 0.001166
# 5 0.003147 -0.004765 0.005184 0.000008 0.024579 0.000006
# 6 0.000005 -0.000022 0.000004 0.001166 0.000006 -0.022215
#
#
# Mechanical properties :
#
#
# Convention : Reuss Voigt Hill
#
# Bulk Modulus (GPa) = 49.42799 59.07066 54.24933
# Shear Modulus (GPa) = 37.09245 16.33772 26.71508
#
# Velocity S-wave (km/s) = 4.33807 2.87905 3.68156
# Velocity P-wave (km/s) = 7.08301 6.40479 6.75242
#
# Compressibility (1/GPa) = 0.02023145
#
# Stress axis : x y z
#
# Youngs Moduli (GPa) = 70.03895 35.98613 82.73704
#
# Poissons Ratio (x) = 0.27026 0.17887
# Poissons Ratio (y) = 0.52600 0.60304
# Poissons Ratio (z) = 0.15142 0.26229
#
# Static dielectric constant tensor:
#      x y z
#    x 1.799760 -0.000030 0.038090 
#    y -0.000030 1.718620 0.000000 
#    z 0.038090 0.000000 1.742120 
# 
# From -- ./inp_files/228126.got.cif
#   From: 2010.05.17/outbox.ucp.g08.bks.cvg/sg12_115_cif.got.tgz:228126.got - 2010.06.11 11:47:21.
