data_PCOD9224091
_publ_section_title
;
Structure prediction by ZEFSAII (Michael W. Deem and Ramdas Pophale) SiO2 
 PCOD9224091
Probable space group: C 2/M
;
_chemical_formula_sum "Si O2"
_cell_formula_units_Z 32
_cell_length_a 21.000000
_cell_length_b 18.000000
_cell_length_c 24.000000
_cell_angle_alpha 90.000000
_cell_angle_beta 160.000000
_cell_angle_gamma 90.000000
_cell_volume 3102.806740
_symmetry_space_group_name_H-M "C 2/M"
_symmetry_group_IT_number 12
_symmetry_cell_setting 'monoclinic'
loop_
_space_group_symop_operation_xyz
x,y,z
-x,y,-z
-x,-y,-z
x,-y,z
1/2+x,1/2+y,z
1/2-x,1/2+y,-z
1/2-x,1/2-y,-z
1/2+x,1/2-y,z
loop_
_atom_site_type_symbol
_atom_site_label
_atom_site_fract_x
_atom_site_fract_y
_atom_site_fract_z
Si Si1 0.703312 0.714191 0.192757
Si Si2 0.881865 0.684043 0.506583
Si Si3 0.233448 0.910937 0.013507
Si Si4 0.163130 0.591031 0.024249
Si Si5 0.235394 0.677881 0.323151
Si Si6 0.357136 0.410518 0.770306
Si Si7 0.996689 0.087195 0.613778
Si Si8 0.637607 0.911838 0.400004
O O1 0.755332 0.774555 0.282960
O O2 0.661280 0.634785 0.187584
O O3 0.897155 0.704288 0.317634
O O4 0.500000 0.735970 0.000000
O O5 0.754353 0.755971 0.385850
O O6 0.814288 0.620908 0.407290
O O7 0.845790 0.645971 0.536082
O O8 0.228629 0.889864 0.944375
O O9 0.053297 0.886863 0.901379
O O10 0.222368 0.000000 0.005308
O O11 0.440474 0.893617 0.207275
O O12 0.135912 0.500000 0.004236
O O13 0.307269 0.611493 0.194043
O O14 0.959654 0.631565 0.847927
O O15 0.406562 0.625933 0.484876
O O16 0.353031 0.500000 0.772261
O O17 0.821877 0.093832 0.513192
O O18 0.024103 0.000000 0.624454
O O19 0.626946 0.000000 0.408395
#
# Coordination Sequence:
#
# PCOD9224091 Si02
#       8
#     8   8   8   8   8   8   8   8
#     4  11  26  45  63  86 122 171 219 264 315 368
#     4  11  24  40  59  88 125 172 217 254 312 372
#     4   9  17  33  58  91 130 163 197 255 316 367
#     4  10  20  38  65  97 128 162 205 254 316 384
#     4  11  23  41  65  92 128 170 206 261 314 379
#     4  10  20  37  61  89 123 166 217 265 308 360
#     4  10  21  39  68 100 129 163 202 255 322 382
#     4  10  19  36  62  94 133 169 207 259 309 368
#
# _framework density 10.313243
#
# number of rings (size 3 to 8) (size 9 to 14) (size 15 to 20)
#    0.000    1.750    1.250    3.750    1.750    4.250 
#    0.000    3.125    0.000    7.500    0.000    0.000 
#    0.000    0.000    0.000    0.000    0.000    0.000 
#
# Total GULP energy -178476.072767 kJ/mol
# GULP energy per Si atom -5577.377274 kJ/mol
# Density = 1.028977 g / cm^3
# Si number density = 10.313243 Si / 1000 Ang^3
#
#
#
# Elastic Constant Matrix: (Units=GPa)
#
#
# Indices 1 2 3 4 5 6 
#
# 1 45.9811 30.1673 20.8201 0.0046 -5.9865 0.0064
# 2 30.1673 97.1077 45.8059 0.0344 -8.3005 0.0130
# 3 20.8201 45.8059 164.5317 0.0157 -12.8452 0.0311
# 4 0.0046 0.0344 0.0157 46.3043 0.0040 -2.1616
# 5 -5.9865 -8.3005 -12.8452 0.0040 43.3554 0.0037
# 6 0.0064 0.0130 0.0311 -2.1616 0.0037 29.4666
#
#
#
# Elastic Compliance Matrix: (Units=1/GPa)
#
#
# Indices 1 2 3 4 5 6 
#
# 1 0.027707 -0.007894 -0.001154 0.000003 0.001972 -0.000001
# 2 -0.007894 0.014178 -0.002888 -0.000009 0.000769 -0.000002
# 3 -0.001154 -0.002888 0.007138 -0.000001 0.001402 -0.000006
# 4 0.000003 -0.000009 -0.000001 0.021670 -0.000004 0.001590
# 5 0.001972 0.000769 0.001402 -0.000004 0.023900 -0.000005
# 6 -0.000001 -0.000002 -0.000006 0.001590 -0.000005 0.034053
#
#
# Mechanical properties :
#
#
# Convention : Reuss Voigt Hill
#
# Bulk Modulus (GPa) = 39.76306 55.68965 47.72636
# Shear Modulus (GPa) = 31.07454 37.88042 34.47748
#
# Velocity S-wave (km/s) = 3.88562 4.29008 4.09285
# Velocity P-wave (km/s) = 6.28095 7.18314 6.74714
#
# Compressibility (1/GPa) = 0.02514897
#
# Stress axis : x y z
#
# Youngs Moduli (GPa) = 36.09222 70.52983 140.10476
#
# Poissons Ratio (x) = 0.55678 0.16172
# Poissons Ratio (y) = 0.28492 0.40467
# Poissons Ratio (z) = 0.04166 0.20371
#
# Static dielectric constant tensor:
#      x y z
#    x 1.776940 -0.000010 -0.013390 
#    y -0.000010 1.750710 -0.000030 
#    z -0.013390 -0.000030 1.748370 
# 
# From -- ./inp_files/347896.got.cif
#   From: 2010.05.17/outbox.ucp.g08.bks.cvg/sg12_174_cif.got.tgz:347896.got - 2010.06.11 11:47:21.
