data_PCOD9224534
_publ_section_title
;
Structure prediction by ZEFSAII (Michael W. Deem and Ramdas Pophale) SiO2 
 PCOD9224534
Probable space group: C 2/M
;
_chemical_formula_sum "Si O2"
_cell_formula_units_Z 32
_cell_length_a 21.000000
_cell_length_b 9.000000
_cell_length_c 18.000000
_cell_angle_alpha 90.000000
_cell_angle_beta 90.000000
_cell_angle_gamma 90.000000
_cell_volume 3402.000000
_symmetry_space_group_name_H-M "C 2/M"
_symmetry_group_IT_number 12
_symmetry_cell_setting 'monoclinic'
loop_
_space_group_symop_operation_xyz
x,y,z
-x,y,-z
-x,-y,-z
x,-y,z
1/2+x,1/2+y,z
1/2-x,1/2+y,-z
1/2-x,1/2-y,-z
1/2+x,1/2-y,z
loop_
_atom_site_type_symbol
_atom_site_label
_atom_site_fract_x
_atom_site_fract_y
_atom_site_fract_z
Si Si1 0.696693 0.674935 0.049001
Si Si2 0.548724 0.828026 0.208716
Si Si3 0.023044 0.323477 0.370198
Si Si4 0.102119 0.170278 0.589013
Si Si5 0.301917 0.830413 0.800744
Si Si6 0.652001 0.330358 0.423346
Si Si7 0.446491 0.321536 0.944751
Si Si8 0.770354 0.823569 0.350851
O O1 0.697482 0.500000 0.036557
O O2 0.709568 0.714960 0.134355
O O3 0.624605 0.732204 0.035526
O O4 0.750000 0.750000 0.000000
O O5 0.512198 0.787237 0.283339
O O6 0.624617 0.818226 0.224709
O O7 0.536841 0.727427 0.138130
O O8 0.535503 0.000000 0.190476
O O9 0.027845 0.500000 0.378212
O O10 0.090357 0.252767 0.391351
O O11 0.962752 0.261328 0.414193
O O12 0.138404 0.169257 0.510731
O O13 0.157120 0.230650 0.643001
O O14 0.085118 0.000000 0.608236
O O15 0.256637 0.806592 0.731515
O O16 0.293541 0.000000 0.828800
O O17 0.652924 0.500000 0.396003
O O18 0.718484 0.254418 0.403008
O O19 0.444943 0.500000 0.948035
O O20 0.500000 0.264748 0.000000
O O21 0.771235 0.000000 0.368382
#
# Coordination Sequence:
#
# PCOD9224534 Si02
#       8
#     8   8   8   8   8   8   8   8
#     4  10  20  35  56  82 111 142 179 220 265 319
#     4   9  18  34  56  81 107 139 182 225 267 319
#     4  11  22  38  58  81 111 148 190 231 277 333
#     4  10  23  39  54  81 116 148 182 231 286 332
#     4   9  17  34  58  80 106 141 182 225 266 320
#     4  11  22  36  58  84 111 143 188 235 277 332
#     4   9  19  36  57  82 109 139 179 220 262 319
#     4  10  20  38  60  81 111 148 187 227 280 337
#
# _framework density 9.4062319999999993
#
# number of rings (size 3 to 8) (size 9 to 14) (size 15 to 20)
#    0.000    2.125    1.250    1.875    0.000    5.250 
#    2.250    0.000    0.000    0.000    0.000    0.000 
#    0.000    0.000    0.000    0.000    0.000    0.000 
#
# Total GULP energy -178432.004460 kJ/mol
# GULP energy per Si atom -5576.000139 kJ/mol
# Density = 0.938482 g / cm^3
# Si number density = 9.406232 Si / 1000 Ang^3
#
#
#
# Elastic Constant Matrix: (Units=GPa)
#
#
# Indices 1 2 3 4 5 6 
#
# 1 38.9558 27.9808 30.0501 0.0000 3.3940 0.0000
# 2 27.9808 28.9919 22.4391 0.0000 2.7724 0.0000
# 3 30.0501 22.4391 43.0273 0.0000 8.5708 0.0000
# 4 0.0000 0.0000 0.0000 23.9557 0.0000 1.5609
# 5 3.3940 2.7724 8.5708 0.0000 27.2632 0.0000
# 6 0.0000 0.0000 0.0000 1.5609 0.0000 9.1390
#
#
#
# Elastic Compliance Matrix: (Units=1/GPa)
#
#
# Indices 1 2 3 4 5 6 
#
# 1 0.109531 -0.077394 -0.037323 0.000000 0.005968 0.000000
# 2 -0.077394 0.112904 -0.004759 0.000000 -0.000350 0.000000
# 3 -0.037323 -0.004759 0.054158 0.000000 -0.011896 0.000000
# 4 0.000000 0.000000 0.000000 0.042214 0.000000 -0.007210
# 5 0.005968 -0.000350 -0.011896 0.000000 0.039712 0.000000
# 6 0.000000 0.000000 0.000000 -0.007210 0.000000 0.110652
#
#
# Mechanical properties :
#
#
# Convention : Reuss Voigt Hill
#
# Bulk Modulus (GPa) = 26.56641 30.21276 28.38959
# Shear Modulus (GPa) = 6.93799 14.10525 10.52162
#
# Velocity S-wave (km/s) = 1.92249 2.74119 2.36750
# Velocity P-wave (km/s) = 4.36811 5.11015 4.75363
#
# Compressibility (1/GPa) = 0.03764151
#
# Stress axis : x y z
#
# Youngs Moduli (GPa) = 9.12986 8.85709 18.46435
#
# Poissons Ratio (x) = 0.68549 0.68914
# Poissons Ratio (y) = 0.70660 0.08786
# Poissons Ratio (z) = 0.34075 0.04215
#
# Static dielectric constant tensor:
#      x y z
#    x 1.647900 0.000000 0.026120 
#    y 0.000000 1.660120 0.000000 
#    z 0.026120 0.000000 1.681570 
# 
# From -- ./inp_files/281251.got.cif
#   From: 2010.05.17/outbox.ucp.g08.bks.cvg/sg12_141_cif.got.tgz:281251.got - 2010.06.11 11:47:21.
