data_PCOD9224142
_publ_section_title
;
Structure prediction by ZEFSAII (Michael W. Deem and Ramdas Pophale) SiO2 
 PCOD9224142
Probable space group: C 2/M
;
_chemical_formula_sum "Si O2"
_cell_formula_units_Z 32
_cell_length_a 18.000000
_cell_length_b 30.000000
_cell_length_c 12.000000
_cell_angle_alpha 90.000000
_cell_angle_beta 30.000000
_cell_angle_gamma 90.000000
_cell_volume 3240.000000
_symmetry_space_group_name_H-M "C 2/M"
_symmetry_group_IT_number 12
_symmetry_cell_setting 'monoclinic'
loop_
_space_group_symop_operation_xyz
x,y,z
-x,y,-z
-x,-y,-z
x,-y,z
1/2+x,1/2+y,z
1/2-x,1/2+y,-z
1/2-x,1/2-y,-z
1/2+x,1/2-y,z
loop_
_atom_site_type_symbol
_atom_site_label
_atom_site_fract_x
_atom_site_fract_y
_atom_site_fract_z
Si Si1 0.260319 0.700246 0.531870
Si Si2 0.087556 0.708175 0.286495
Si Si3 0.549706 0.552360 0.111166
Si Si4 0.417543 0.700268 0.830845
Si Si5 0.655855 0.855210 0.851800
Si Si6 0.754239 0.552652 0.635433
Si Si7 0.018639 0.114156 0.597645
Si Si8 0.039652 0.365104 0.688417
O O1 0.250000 0.750000 0.500000
O O2 0.434291 0.689267 0.293789
O O3 0.199088 0.692934 0.739254
O O4 0.162123 0.665366 0.591587
O O5 0.079808 0.747278 0.204304
O O6 0.000000 0.730243 0.500000
O O7 0.002378 0.663477 0.364382
O O8 0.256454 0.695402 0.092680
O O9 0.561484 0.500000 0.125855
O O10 0.388968 0.558026 0.259821
O O11 0.550177 0.584599 0.215901
O O12 0.681233 0.561930 0.851776
O O13 0.440297 0.663264 0.703844
O O14 0.802458 0.881468 0.624245
O O15 0.500000 0.870165 0.000000
O O16 0.609794 0.861096 0.040378
O O17 0.797858 0.500000 0.574690
O O18 0.885671 0.587085 0.432836
O O19 0.000000 0.094292 0.500000
#
# Coordination Sequence:
#
# PCOD9224142 Si02
#       8
#     8   8   8   8   8   8   8   8
#     4  10  19  38  60  90 117 158 205 257 300 351
#     4  11  24  39  55  82 120 165 201 245 297 373
#     4   9  19  37  62  93 124 158 205 264 321 377
#     4  10  22  40  58  79 123 162 210 239 303 364
#     4   9  20  36  59  83 121 157 197 250 309 357
#     4   9  19  38  65  91 122 161 208 265 321 380
#     4  11  21  36  62  89 122 166 205 251 309 377
#     4  11  21  39  61  92 122 158 202 262 312 362
#
# _framework density 9.8765429999999999
#
# number of rings (size 3 to 8) (size 9 to 14) (size 15 to 20)
#    0.000    2.000    1.250    4.125    1.750    3.250 
#    2.250    0.625    0.000    7.875    0.000    0.000 
#    0.000    0.000    0.000    0.000    0.000    0.000 
#
# Total GULP energy -178190.056625 kJ/mol
# GULP energy per Si atom -5568.439270 kJ/mol
# Density = 0.985406 g / cm^3
# Si number density = 9.876543 Si / 1000 Ang^3
#
#
#
# Elastic Constant Matrix: (Units=GPa)
#
#
# Indices 1 2 3 4 5 6 
#
# 1 45.6546 24.2317 35.4011 -0.0002 1.3452 0.0001
# 2 24.2317 114.9346 53.8208 0.0001 14.4677 0.0000
# 3 35.4011 53.8208 128.9240 0.0000 -10.0896 0.0001
# 4 -0.0002 0.0001 0.0000 21.4332 0.0000 11.6391
# 5 1.3452 14.4677 -10.0896 0.0000 37.2116 -0.0001
# 6 0.0001 0.0000 0.0001 11.6391 -0.0001 3.6608
#
#
#
# Elastic Compliance Matrix: (Units=1/GPa)
#
#
# Indices 1 2 3 4 5 6 
#
# 1 0.028720 -0.002544 -0.006976 -0.000001 -0.001941 0.000002
# 2 -0.002544 0.012290 -0.004903 0.000000 -0.006016 0.000000
# 3 -0.006976 -0.004903 0.012145 0.000000 0.005452 0.000000
# 4 -0.000001 0.000000 0.000000 -0.064217 0.000001 0.204171
# 5 -0.001941 -0.006016 0.005452 0.000001 0.030761 -0.000001
# 6 0.000002 0.000000 0.000000 0.204171 -0.000001 -0.375977
#
#
# Mechanical properties :
#
#
# Convention : Reuss Voigt Hill
#
# Bulk Modulus (GPa) = 41.13562 57.38005 49.25783
# Shear Modulus (GPa) = -15.65789 24.19840 4.27026
#
# Velocity S-wave (km/s) = -2.81851 3.50386 1.47191
# Velocity P-wave (km/s) = 3.20595 6.74397 5.28011
#
# Compressibility (1/GPa) = 0.02430983
#
# Stress axis : x y z
#
# Youngs Moduli (GPa) = 34.81834 81.36639 82.33530
#
# Poissons Ratio (x) = 0.20701 0.57438
# Poissons Ratio (y) = 0.08858 0.40368
# Poissons Ratio (z) = 0.24290 0.39893
#
# Static dielectric constant tensor:
#      x y z
#    x 1.821310 0.000000 0.050020 
#    y 0.000000 1.688770 0.000000 
#    z 0.050020 0.000000 1.731080 
# 
# From -- ./inp_files/161200.got.cif
#   From: 2010.05.17/outbox.ucp.g08.bks.cvg/sg12_81_cif.got.tgz:161200.got - 2010.06.11 11:47:21.
