data_PCOD9224920
_publ_section_title
;
Structure prediction by ZEFSAII (Michael W. Deem and Ramdas Pophale) SiO2 
 PCOD9224920
Probable space group: C 2/M
;
_chemical_formula_sum "Si O2"
_cell_formula_units_Z 32
_cell_length_a 30.000000
_cell_length_b 9.000000
_cell_length_c 12.000000
_cell_angle_alpha 90.000000
_cell_angle_beta 90.000000
_cell_angle_gamma 90.000000
_cell_volume 3240.000000
_symmetry_space_group_name_H-M "C 2/M"
_symmetry_group_IT_number 12
_symmetry_cell_setting 'monoclinic'
loop_
_space_group_symop_operation_xyz
x,y,z
-x,y,-z
-x,-y,-z
x,-y,z
1/2+x,1/2+y,z
1/2-x,1/2+y,-z
1/2-x,1/2-y,-z
1/2+x,1/2-y,z
loop_
_atom_site_type_symbol
_atom_site_label
_atom_site_fract_x
_atom_site_fract_y
_atom_site_fract_z
Si Si1 0.391817 0.175296 0.118657
Si Si2 0.186968 0.821337 0.740983
Si Si3 0.620055 0.171483 0.365963
Si Si4 0.351302 0.833772 0.878799
Si Si5 0.798678 0.679130 0.490391
Si Si6 0.522616 0.818077 0.376780
Si Si7 0.987518 0.820469 0.134865
Si Si8 0.737961 0.675142 0.117478
O O1 0.351193 0.258114 0.178801
O O2 0.437204 0.260146 0.142899
O O3 0.393789 0.000000 0.150140
O O4 0.381028 0.182183 0.987471
O O5 0.180614 0.743447 0.622538
O O6 0.233657 0.761281 0.789897
O O7 0.186862 0.000000 0.734930
O O8 0.620854 0.171410 0.233109
O O9 0.667012 0.227743 0.412874
O O10 0.573127 0.238209 0.398984
O O11 0.618868 0.000000 0.405270
O O12 0.313982 0.708844 0.870342
O O13 0.329832 0.000000 0.884542
O O14 0.794149 0.500000 0.488767
O O15 0.750000 0.750000 0.500000
O O16 0.500000 0.789048 0.500000
O O17 0.508518 0.749193 0.253044
O O18 0.521098 0.000000 0.362087
O O19 0.991591 0.000000 0.142602
O O20 0.000000 0.783772 0.000000
O O21 0.748155 0.500000 0.119101
O O22 0.750000 0.750000 0.000000
#
# Coordination Sequence:
#
# PCOD9224920 Si02
#       8
#     8   8   8   8   8   8   8   8
#     4  11  23  39  65  96 127 166 214 266 322 391
#     4  12  25  41  61  89 128 168 214 267 323 386
#     4   9  20  39  64  94 127 165 209 267 321 380
#     4  10  20  37  62  91 126 165 210 263 324 384
#     4  11  23  41  65  93 130 172 219 267 324 388
#     4  10  22  42  70 101 130 170 225 278 336 402
#     4  11  25  44  66  96 136 176 217 272 335 398
#     4  12  23  37  58  87 123 165 211 262 321 385
#
# _framework density 9.8765429999999999
#
# number of rings (size 3 to 8) (size 9 to 14) (size 15 to 20)
#    0.000    1.250    1.250    4.875    1.750    3.750 
#    0.000    2.500    0.000    0.000    0.000    0.000 
#    0.000    0.000    0.000    0.000    0.000    0.000 
#
# Total GULP energy -178349.429765 kJ/mol
# GULP energy per Si atom -5573.419680 kJ/mol
# Density = 0.985406 g / cm^3
# Si number density = 9.876543 Si / 1000 Ang^3
#
#
#
# Elastic Constant Matrix: (Units=GPa)
#
#
# Indices 1 2 3 4 5 6 
#
# 1 111.3372 26.6250 37.3626 0.0000 16.4023 0.0000
# 2 26.6250 97.1380 31.5492 0.0000 3.4330 0.0000
# 3 37.3626 31.5492 116.8746 0.0000 9.0372 0.0000
# 4 0.0000 0.0000 0.0000 32.1585 0.0000 0.1686
# 5 16.4023 3.4330 9.0372 0.0000 6.8173 0.0000
# 6 0.0000 0.0000 0.0000 0.1686 0.0000 24.3442
#
#
#
# Elastic Compliance Matrix: (Units=1/GPa)
#
#
# Indices 1 2 3 4 5 6 
#
# 1 0.014876 -0.002412 -0.001594 0.000000 -0.032464 0.000000
# 2 -0.002412 0.011696 -0.002651 0.000000 0.003429 0.000000
# 3 -0.001594 -0.002651 0.010453 0.000000 -0.008686 0.000000
# 4 0.000000 0.000000 0.000000 0.031097 0.000000 -0.000215
# 5 -0.032464 0.003429 -0.008686 0.000000 0.234582 0.000000
# 6 0.000000 0.000000 0.000000 -0.000215 0.000000 0.041079
#
#
# Mechanical properties :
#
#
# Convention : Reuss Voigt Hill
#
# Bulk Modulus (GPa) = 42.17688 57.38036 49.77862
# Shear Modulus (GPa) = 13.69857 27.98486 20.84172
#
# Velocity S-wave (km/s) = 2.63628 3.76804 3.25177
# Velocity P-wave (km/s) = 5.53760 6.93128 6.27326
#
# Compressibility (1/GPa) = 0.02370967
#
# Stress axis : x y z
#
# Youngs Moduli (GPa) = 67.22144 85.50145 95.66527
#
# Poissons Ratio (x) = 0.20626 0.15251
# Poissons Ratio (y) = 0.16216 0.25362
# Poissons Ratio (z) = 0.10717 0.22667
#
# Static dielectric constant tensor:
#      x y z
#    x 1.711350 0.000000 -0.002640 
#    y 0.000000 1.677630 0.000000 
#    z -0.002640 0.000000 1.743970 
# 
# From -- ./inp_files/187469.got.cif
#   From: 2010.05.17/outbox.ucp.g08.bks.cvg/sg12_94_cif.got.tgz:187469.got - 2010.06.11 11:47:21.
