data_PCOD9224253
_publ_section_title
;
Structure prediction by ZEFSAII (Michael W. Deem and Ramdas Pophale) SiO2 
 PCOD9224253
Probable space group: C 2/M
;
_chemical_formula_sum "Si O2"
_cell_formula_units_Z 32
_cell_length_a 30.000000
_cell_length_b 9.000000
_cell_length_c 15.000000
_cell_angle_alpha 90.000000
_cell_angle_beta 50.000000
_cell_angle_gamma 90.000000
_cell_volume 3102.479995
_symmetry_space_group_name_H-M "C 2/M"
_symmetry_group_IT_number 12
_symmetry_cell_setting 'monoclinic'
loop_
_space_group_symop_operation_xyz
x,y,z
-x,y,-z
-x,-y,-z
x,-y,z
1/2+x,1/2+y,z
1/2-x,1/2+y,-z
1/2-x,1/2-y,-z
1/2+x,1/2-y,z
loop_
_atom_site_type_symbol
_atom_site_label
_atom_site_fract_x
_atom_site_fract_y
_atom_site_fract_z
Si Si1 0.832278 0.832730 0.341109
Si Si2 0.916969 0.670505 0.351973
Si Si3 0.136765 0.328938 0.391561
Si Si4 0.543446 0.177123 0.204721
Si Si5 0.756193 0.679678 0.294531
Si Si6 0.432710 0.663328 0.065497
Si Si7 0.358504 0.828900 0.035312
Si Si8 0.943899 0.834167 0.634662
O O1 0.861074 0.758099 0.389104
O O2 0.784763 0.736460 0.349906
O O3 0.889422 0.840638 0.204422
O O4 0.810887 0.000000 0.384460
O O5 0.913368 0.500000 0.323800
O O6 0.909160 0.669177 0.468128
O O7 0.981310 0.732555 0.245458
O O8 0.144814 0.500000 0.352137
O O9 0.196359 0.260121 0.350944
O O10 0.111123 0.223003 0.349376
O O11 0.542064 0.215299 0.308919
O O12 0.543387 0.000000 0.189817
O O13 0.606198 0.238955 0.092223
O O14 0.751934 0.500000 0.300441
O O15 0.801578 0.729927 0.157882
O O16 0.424507 0.500000 0.030523
O O17 0.410128 0.804393 0.040371
O O18 0.500000 0.676658 0.000000
O O19 0.345765 0.000000 0.032918
O O20 0.000000 0.841416 0.500000
O O21 0.934666 0.000000 0.683677
#
# Coordination Sequence:
#
# PCOD9224253 Si02
#       8
#     8   8   8   8   8   8   8   8
#     4  10  20  33  52  79 112 152 194 233 278 335
#     4  10  21  35  55  84 115 147 187 235 286 336
#     4  11  23  40  62  85 111 149 192 233 283 340
#     4  10  20  37  60  87 118 149 185 232 286 341
#     4  10  21  39  59  81 114 153 194 238 280 327
#     4   9  17  29  46  72 108 147 186 229 278 330
#     4   9  19  34  55  81 109 146 188 230 278 331
#     4  11  23  39  61  90 119 146 181 226 283 343
#
# _framework density 10.314329000000001
#
# number of rings (size 3 to 8) (size 9 to 14) (size 15 to 20)
#    0.000    2.000    1.250    2.250    0.000    4.250 
#    0.000    0.625    0.000    0.000    0.000    0.000 
#    0.000    0.000    0.000    0.000    0.000    0.000 
#
# Total GULP energy -178173.365291 kJ/mol
# GULP energy per Si atom -5567.917665 kJ/mol
# Density = 1.029085 g / cm^3
# Si number density = 10.314329 Si / 1000 Ang^3
#
#
#
# Elastic Constant Matrix: (Units=GPa)
#
#
# Indices 1 2 3 4 5 6 
#
# 1 71.1781 7.1355 12.3914 0.0000 -9.0448 0.0000
# 2 7.1355 26.6979 7.1581 0.0000 -10.4910 0.0000
# 3 12.3914 7.1581 60.8810 0.0000 -7.7718 0.0000
# 4 0.0000 0.0000 0.0000 10.3399 0.0000 -4.2068
# 5 -9.0448 -10.4910 -7.7718 0.0000 6.2483 0.0000
# 6 0.0000 0.0000 0.0000 -4.2068 0.0000 21.9900
#
#
#
# Elastic Compliance Matrix: (Units=1/GPa)
#
#
# Indices 1 2 3 4 5 6 
#
# 1 0.019763 0.018620 0.001701 0.000000 0.061988 0.000000
# 2 0.018620 0.136507 0.015287 0.000000 0.275163 0.000000
# 3 0.001701 0.015287 0.021246 0.000000 0.054555 0.000000
# 4 0.000000 0.000000 0.000000 0.104876 -0.000001 0.020063
# 5 0.061988 0.275163 0.054555 -0.000001 0.779631 0.000000
# 6 0.000000 0.000000 0.000000 0.020063 0.000000 0.049313
#
#
# Mechanical properties :
#
#
# Convention : Reuss Voigt Hill
#
# Bulk Modulus (GPa) = 4.02039 23.56968 13.79503
# Shear Modulus (GPa) = 4.45223 16.52044 10.48634
#
# Velocity S-wave (km/s) = 1.47070 2.83300 2.25708
# Velocity P-wave (km/s) = 2.19934 4.70656 3.67347
#
# Compressibility (1/GPa) = 0.24873202
#
# Stress axis : x y z
#
# Youngs Moduli (GPa) = 50.59860 7.32563 47.06722
#
# Poissons Ratio (x) = -0.13640 -0.08007
# Poissons Ratio (y) = -0.94214 -0.71950
# Poissons Ratio (z) = -0.08608 -0.11198
#
# Static dielectric constant tensor:
#      x y z
#    x 1.725720 0.000000 0.040920 
#    y 0.000000 1.753500 0.000000 
#    z 0.040920 0.000000 1.867680 
# 
# From -- ./inp_files/249796.got.cif
#   From: 2010.05.17/outbox.ucp.g08.bks.cvg/sg12_125_cif.got.tgz:249796.got - 2010.06.11 11:47:21.
