data_PCOD9224501
_publ_section_title
;
Structure prediction by ZEFSAII (Michael W. Deem and Ramdas Pophale) SiO2 
 PCOD9224501
Probable space group: C 2/M
;
_chemical_formula_sum "Si O2"
_cell_formula_units_Z 32
_cell_length_a 30.000000
_cell_length_b 9.000000
_cell_length_c 24.000000
_cell_angle_alpha 90.000000
_cell_angle_beta 30.000000
_cell_angle_gamma 90.000000
_cell_volume 3240.000000
_symmetry_space_group_name_H-M "C 2/M"
_symmetry_group_IT_number 12
_symmetry_cell_setting 'monoclinic'
loop_
_space_group_symop_operation_xyz
x,y,z
-x,y,-z
-x,-y,-z
x,-y,z
1/2+x,1/2+y,z
1/2-x,1/2+y,-z
1/2-x,1/2-y,-z
1/2+x,1/2-y,z
loop_
_atom_site_type_symbol
_atom_site_label
_atom_site_fract_x
_atom_site_fract_y
_atom_site_fract_z
Si Si1 0.610508 0.163695 0.024210
Si Si2 0.983988 0.330830 0.252632
Si Si3 0.574937 0.673463 0.245142
Si Si4 0.403281 0.169216 0.093420
Si Si5 0.186216 0.826667 0.525732
Si Si6 0.721406 0.830127 0.154427
Si Si7 0.277574 0.173430 0.714024
Si Si8 0.612769 0.323434 0.492196
O O1 0.603229 0.163128 0.966162
O O2 0.676795 0.292890 0.970003
O O3 0.645235 0.000000 0.003959
O O4 0.515278 0.178396 0.155701
O O5 0.954443 0.500000 0.296904
O O6 0.066303 0.284326 0.202448
O O7 0.911219 0.209139 0.345355
O O8 0.574181 0.500000 0.230089
O O9 0.659684 0.716626 0.189034
O O10 0.487037 0.702803 0.378137
O O11 0.313991 0.251962 0.208071
O O12 0.403010 0.000000 0.116159
O O13 0.500000 0.238331 0.000000
O O14 0.250000 0.750000 0.500000
O O15 0.179455 0.771412 0.469472
O O16 0.205183 0.000000 0.503465
O O17 0.713595 0.805582 0.229267
O O18 0.697954 0.000000 0.167235
O O19 0.360625 0.244033 0.592694
O O20 0.273169 0.000000 0.707748
O O21 0.623509 0.500000 0.474351
#
# Coordination Sequence:
#
# PCOD9224501 Si02
#       8
#     8   8   8   8   8   8   8   8
#     4   9  19  35  54  77 105 139 177 214 258 314
#     4  10  20  35  55  79 108 140 176 220 266 312
#     4  10  21  37  56  78 104 137 178 219 262 315
#     4   9  18  34  55  77 104 139 176 214 256 306
#     4  10  21  37  56  80 109 142 180 219 262 312
#     4  10  21  36  54  78 107 138 173 216 265 314
#     4  10  21  35  53  79 108 137 172 216 264 312
#     4   9  20  37  55  76 104 139 177 215 257 311
#
# _framework density 9.8765429999999999
#
# number of rings (size 3 to 8) (size 9 to 14) (size 15 to 20)
#    0.000    2.375    0.000    2.625    0.000    7.750 
#    0.000    5.000    0.000    0.000    0.000    0.000 
#    0.000    0.000    0.000    0.000    0.000    0.000 
#
# Total GULP energy -178232.222791 kJ/mol
# GULP energy per Si atom -5569.756962 kJ/mol
# Density = 0.985406 g / cm^3
# Si number density = 9.876543 Si / 1000 Ang^3
#
#
#
# Elastic Constant Matrix: (Units=GPa)
#
#
# Indices 1 2 3 4 5 6 
#
# 1 -4.0616 9.0200 7.8038 0.0020 -16.0236 -0.0024
# 2 9.0200 -17.1280 -16.7494 -0.0083 6.5635 0.0027
# 3 7.8038 -16.7494 12.4476 -0.0156 14.5791 0.0030
# 4 0.0020 -0.0083 -0.0156 22.0516 0.0056 -2.3093
# 5 -16.0236 6.5635 14.5791 0.0056 23.0497 0.0000
# 6 -0.0024 0.0027 0.0030 -2.3093 0.0000 22.5299
#
#
#
# Elastic Compliance Matrix: (Units=1/GPa)
#
#
# Indices 1 2 3 4 5 6 
#
# 1 -0.171489 -0.144163 0.019585 -0.000002 -0.090552 -0.000004
# 2 -0.144163 -0.127667 -0.025494 -0.000041 -0.047740 -0.000001
# 3 0.019585 -0.025494 0.035899 0.000015 -0.001832 0.000002
# 4 -0.000002 -0.000041 0.000015 0.045840 -0.000010 0.004698
# 5 -0.090552 -0.047740 -0.001832 -0.000010 -0.004813 -0.000005
# 6 -0.000004 -0.000001 0.000002 0.004698 -0.000005 0.044867
#
#
# Mechanical properties :
#
#
# Convention : Reuss Voigt Hill
#
# Bulk Modulus (GPa) = -1.77494 -0.95482 -1.36488
# Shear Modulus (GPa) = -76.89962 12.93849 -31.98057
#
# Velocity S-wave (km/s) = -6.24619 2.56209 -4.02807
# Velocity P-wave (km/s) = 7.27464 2.87542 4.72506
#
# Compressibility (1/GPa) = -0.56339853
#
# Stress axis : x y z
#
# Youngs Moduli (GPa) = -5.83128 -7.83287 27.85568
#
# Poissons Ratio (x) = -1.12921 -0.54556
# Poissons Ratio (y) = -0.84065 0.71015
# Poissons Ratio (z) = 0.11421 -0.19969
#
# Static dielectric constant tensor:
#      x y z
#    x 1.630340 -0.000020 -0.048760 
#    y -0.000020 1.686890 -0.000020 
#    z -0.048760 -0.000020 1.741970 
# 
# From -- ./inp_files/250110.got.cif
#   From: 2010.05.17/outbox.ucp.g08.bks.cvg/sg12_126_cif.got.tgz:250110.got - 2010.06.11 11:47:21.
