data_PCOD9224709
_publ_section_title
;
Structure prediction by ZEFSAII (Michael W. Deem and Ramdas Pophale) SiO2 
 PCOD9224709
Probable space group: C 2/M
;
_chemical_formula_sum "Si O2"
_cell_formula_units_Z 32
_cell_length_a 30.000000
_cell_length_b 9.000000
_cell_length_c 24.000000
_cell_angle_alpha 90.000000
_cell_angle_beta 150.000000
_cell_angle_gamma 90.000000
_cell_volume 3240.000000
_symmetry_space_group_name_H-M "C 2/M"
_symmetry_group_IT_number 12
_symmetry_cell_setting 'monoclinic'
loop_
_space_group_symop_operation_xyz
x,y,z
-x,y,-z
-x,-y,-z
x,-y,z
1/2+x,1/2+y,z
1/2-x,1/2+y,-z
1/2-x,1/2-y,-z
1/2+x,1/2-y,z
loop_
_atom_site_type_symbol
_atom_site_label
_atom_site_fract_x
_atom_site_fract_y
_atom_site_fract_z
Si Si1 0.577090 0.833728 0.127219
Si Si2 0.847804 0.330412 0.961402
Si Si3 0.829492 0.174397 0.676576
Si Si4 0.743096 0.333857 0.747583
Si Si5 0.156010 0.819659 0.543388
Si Si6 0.017159 0.321782 0.215126
Si Si7 0.701340 0.667108 0.897416
Si Si8 0.978399 0.677496 0.301564
O O1 0.601090 0.710467 0.198159
O O2 0.669282 0.849894 0.195013
O O3 0.558442 0.000000 0.130620
O O4 0.500000 0.797214 0.000000
O O5 0.866852 0.500000 0.961449
O O6 0.788059 0.252874 0.848955
O O7 0.778888 0.342890 0.936453
O O8 0.940731 0.273158 0.087660
O O9 0.737194 0.254496 0.593675
O O10 0.886205 0.247114 0.688125
O O11 0.814914 0.000000 0.653368
O O12 0.710844 0.500000 0.730131
O O13 0.673323 0.272491 0.626946
O O14 0.062639 0.756381 0.421060
O O15 0.159024 0.000000 0.544802
O O16 0.026075 0.500000 0.220087
O O17 0.982737 0.291838 0.239900
O O18 0.673479 0.500000 0.883304
O O19 0.616033 0.755226 0.782484
O O20 0.750000 0.750000 0.000000
O O21 0.982271 0.500000 0.314116
#
# Coordination Sequence:
#
# PCOD9224709 Si02
#       8
#     8   8   8   8   8   8   8   8
#     4   9  16  29  51  75 104 148 195 235 275 329
#     4   9  17  33  58  87 114 144 185 236 282 329
#     4  11  22  34  51  80 116 151 187 235 289 339
#     4   8  15  29  53  81 107 139 188 235 272 320
#     4  10  21  39  60  82 110 152 197 236 279 335
#     4  10  20  36  57  82 112 148 193 237 283 340
#     4  11  21  37  61  89 119 149 184 230 287 345
#     4  11  23  40  61  85 112 149 191 238 289 341
#
# _framework density 9.8765429999999999
#
# number of rings (size 3 to 8) (size 9 to 14) (size 15 to 20)
#    0.000    2.125    1.250    3.750    0.000    3.750 
#    0.000    0.625    0.000   12.000    0.000    0.000 
#    0.000    0.000    0.000    0.000    0.000    0.000 
#
# Total GULP energy -178161.503837 kJ/mol
# GULP energy per Si atom -5567.546995 kJ/mol
# Density = 0.985406 g / cm^3
# Si number density = 9.876543 Si / 1000 Ang^3
#
#
#
# Elastic Constant Matrix: (Units=GPa)
#
#
# Indices 1 2 3 4 5 6 
#
# 1 44.7320 14.3904 20.8414 0.0000 0.7006 0.0000
# 2 14.3904 64.1714 34.8129 0.0000 5.7601 0.0000
# 3 20.8414 34.8129 149.3066 0.0000 11.4722 0.0000
# 4 0.0000 0.0000 0.0000 3.7358 0.0000 10.3078
# 5 0.7006 5.7601 11.4722 0.0000 26.0143 0.0000
# 6 0.0000 0.0000 0.0000 10.3078 0.0000 11.8421
#
#
#
# Elastic Compliance Matrix: (Units=1/GPa)
#
#
# Indices 1 2 3 4 5 6 
#
# 1 0.024925 -0.004316 -0.002582 0.000000 0.001423 0.000000
# 2 -0.004316 0.018709 -0.003571 0.000000 -0.002451 0.000000
# 3 -0.002582 -0.003571 0.008099 0.000000 -0.002711 0.000000
# 4 0.000000 0.000000 0.000000 -0.190967 0.000000 0.166225
# 5 0.001423 -0.002451 -0.002711 0.000000 0.040140 0.000000
# 6 0.000000 0.000000 0.000000 0.166225 0.000000 -0.060244
#
#
# Mechanical properties :
#
#
# Convention : Reuss Voigt Hill
#
# Bulk Modulus (GPa) = 32.47498 44.25549 38.36524
# Shear Modulus (GPa) = -39.02161 20.86282 -9.07940
#
# Velocity S-wave (km/s) = -4.44945 3.25342 -2.14626
# Velocity P-wave (km/s) = 3.14970 6.04698 3.65002
#
# Compressibility (1/GPa) = 0.03079294
#
# Stress axis : x y z
#
# Youngs Moduli (GPa) = 40.12085 53.45117 123.47058
#
# Poissons Ratio (x) = 0.23071 0.31882
# Poissons Ratio (y) = 0.17317 0.44095
# Poissons Ratio (z) = 0.10360 0.19089
#
# Static dielectric constant tensor:
#      x y z
#    x 1.769250 0.000000 -0.073580 
#    y 0.000000 1.672500 0.000000 
#    z -0.073580 0.000000 1.787550 
# 
# From -- ./inp_files/353494.got.cif
#   From: 2010.05.17/outbox.ucp.g08.bks.cvg/sg12_177_cif.got.tgz:353494.got - 2010.06.11 11:47:21.
