data_PCOD9224990
_publ_section_title
;
Structure prediction by ZEFSAII (Michael W. Deem and Ramdas Pophale) SiO2 
 PCOD9224990
Probable space group: C 2/M
;
_chemical_formula_sum "Si O2"
_cell_formula_units_Z 32
_cell_length_a 18.000000
_cell_length_b 9.000000
_cell_length_c 30.000000
_cell_angle_alpha 90.000000
_cell_angle_beta 40.000000
_cell_angle_gamma 90.000000
_cell_volume 3123.947783
_symmetry_space_group_name_H-M "C 2/M"
_symmetry_group_IT_number 12
_symmetry_cell_setting 'monoclinic'
loop_
_space_group_symop_operation_xyz
x,y,z
-x,y,-z
-x,-y,-z
x,-y,z
1/2+x,1/2+y,z
1/2-x,1/2+y,-z
1/2-x,1/2-y,-z
1/2+x,1/2-y,z
loop_
_atom_site_type_symbol
_atom_site_label
_atom_site_fract_x
_atom_site_fract_y
_atom_site_fract_z
Si Si1 0.308236 0.675675 0.256566
Si Si2 0.927803 0.165713 0.640804
Si Si3 0.004675 0.162393 0.289618
Si Si4 0.695509 0.830080 0.648485
Si Si5 0.329986 0.318822 0.502344
Si Si6 0.691652 0.675578 0.985326
Si Si7 0.936146 0.180043 0.111620
Si Si8 0.216863 0.323960 0.153009
O O1 0.316932 0.500000 0.253250
O O2 0.179173 0.726482 0.304613
O O3 0.324157 0.742276 0.297562
O O4 0.396187 0.733633 0.178675
O O5 0.979118 0.147589 0.665815
O O6 0.035617 0.221845 0.563018
O O7 0.891893 0.000000 0.641615
O O8 0.122652 0.209341 0.212822
O O9 0.923617 0.303600 0.321552
O O10 0.962550 0.000000 0.292401
O O11 0.787500 0.771715 0.570722
O O12 0.719174 0.000000 0.646739
O O13 0.321819 0.500000 0.502849
O O14 0.250000 0.250000 0.500000
O O15 0.683977 0.500000 0.996852
O O16 0.764868 0.695331 0.907482
O O17 0.750000 0.750000 0.000000
O O18 0.561315 0.733861 0.039937
O O19 0.835973 0.213449 0.122969
O O20 0.940209 0.000000 0.111292
O O21 0.190821 0.500000 0.174137
#
# Coordination Sequence:
#
# PCOD9224990 Si02
#       8
#     8   8   8   8   8   8   8   8
#     4  11  23  39  61  89 121 158 198 246 297 353
#     4  10  21  39  61  87 119 155 197 246 299 356
#     4  11  22  37  61  90 121 155 196 248 297 352
#     4  11  24  40  60  87 121 158 198 248 301 356
#     4  10  21  38  61  86 116 156 199 247 300 353
#     4  10  22  39  60  88 120 156 194 242 295 349
#     4   9  19  38  62  85 114 153 198 240 286 345
#     4  10  20  38  63  88 115 155 204 244 288 350
#
# _framework density 10.243449
#
# number of rings (size 3 to 8) (size 9 to 14) (size 15 to 20)
#    0.000    1.750    2.500    1.500    1.750    4.000 
#    0.000    3.750    0.000    1.500    0.000    0.000 
#    0.000    0.000    0.000    0.000    0.000    0.000 
#
# Total GULP energy -178268.510075 kJ/mol
# GULP energy per Si atom -5570.890940 kJ/mol
# Density = 1.022013 g / cm^3
# Si number density = 10.243449 Si / 1000 Ang^3
#
#
#
# Elastic Constant Matrix: (Units=GPa)
#
#
# Indices 1 2 3 4 5 6 
#
# 1 33.9221 1.3387 2.2268 0.0000 13.9505 0.0000
# 2 1.3387 11.7990 27.4613 0.0003 21.8215 -0.0026
# 3 2.2268 27.4613 62.3454 0.0003 2.7033 -0.0018
# 4 0.0000 0.0003 0.0003 33.4797 0.0000 -79.5569
# 5 13.9505 21.8215 2.7033 0.0000 17.8126 -0.0002
# 6 0.0000 -0.0026 -0.0018 -79.5569 -0.0002 686.8618
#
#
#
# Elastic Compliance Matrix: (Units=1/GPa)
#
#
# Indices 1 2 3 4 5 6 
#
# 1 0.030083 -0.019513 0.007555 0.000000 -0.000803 0.000000
# 2 -0.019513 -0.028411 0.011112 0.000000 0.048401 0.000000
# 3 0.007555 0.011112 0.011800 0.000000 -0.021321 0.000000
# 4 0.000000 0.000000 0.000000 0.041212 0.000000 0.004773
# 5 -0.000803 0.048401 -0.021321 0.000000 0.000710 0.000000
# 6 0.000000 0.000000 0.000000 0.004773 0.000000 0.002009
#
#
# Mechanical properties :
#
#
# Convention : Reuss Voigt Hill
#
# Bulk Modulus (GPa) = 84.88074 18.90223 51.89149
# Shear Modulus (GPa) = 79.33829 152.76680 116.05254
#
# Velocity S-wave (km/s) = 6.22980 8.64465 7.53460
# Velocity P-wave (km/s) = 9.65758 10.43487 10.05374
#
# Compressibility (1/GPa) = 0.01178124
#
# Stress axis : x y z
#
# Youngs Moduli (GPa) = 33.24084 -35.19772 84.74842
#
# Poissons Ratio (x) = -0.68682 -0.64030
# Poissons Ratio (y) = 0.64864 -0.94176
# Poissons Ratio (z) = -0.25115 0.39113
#
# Static dielectric constant tensor:
#      x y z
#    x 1.766640 0.000000 -0.025550 
#    y 0.000000 1.803750 0.000000 
#    z -0.025550 0.000000 1.735520 
# 
# From -- ./inp_files/378018.got.cif
#   From: 2010.05.17/outbox.ucp.g08.bks.cvg/sg12_190_cif.got.tgz:378018.got - 2010.06.11 11:47:21.
