data_PCOD9224582
_publ_section_title
;
Structure prediction by ZEFSAII (Michael W. Deem and Ramdas Pophale) SiO2 
 PCOD9224582
Probable space group: C 2/M
;
_chemical_formula_sum "Si O2"
_cell_formula_units_Z 24
_cell_length_a 21.000000
_cell_length_b 9.000000
_cell_length_c 18.000000
_cell_angle_alpha 90.000000
_cell_angle_beta 50.000000
_cell_angle_gamma 90.000000
_cell_volume 2606.083195
_symmetry_space_group_name_H-M "C 2/M"
_symmetry_group_IT_number 12
_symmetry_cell_setting 'monoclinic'
loop_
_space_group_symop_operation_xyz
x,y,z
-x,y,-z
-x,-y,-z
x,-y,z
1/2+x,1/2+y,z
1/2-x,1/2+y,-z
1/2-x,1/2-y,-z
1/2+x,1/2-y,z
loop_
_atom_site_type_symbol
_atom_site_label
_atom_site_fract_x
_atom_site_fract_y
_atom_site_fract_z
Si Si1 0.260816 0.321145 0.718068
Si Si2 0.700846 0.677861 0.607434
Si Si3 0.457268 0.179803 0.331409
Si Si4 0.125248 0.676101 0.116220
Si Si5 0.591190 0.168349 0.462945
Si Si6 0.206111 0.177133 0.915852
O O1 0.252745 0.500000 0.724127
O O2 0.227150 0.248229 0.666583
O O3 0.356535 0.270462 0.632782
O O4 0.219416 0.254785 0.824763
O O5 0.710248 0.500000 0.597893
O O6 0.750000 0.750000 0.500000
O O7 0.606549 0.728513 0.669639
O O8 0.547901 0.214201 0.228769
O O9 0.427072 0.217685 0.438388
O O10 0.447430 0.000000 0.333631
O O11 0.119141 0.500000 0.104228
O O12 0.207261 0.699902 0.104758
O O13 0.138685 0.758811 0.026483
O O14 0.500000 0.155849 0.500000
O O15 0.627918 0.000000 0.436567
O O16 0.193303 0.000000 0.914818
#
# Coordination Sequence:
#
# PCOD9224582 Si02
#       6
#     8   8   8   8   8   8
#     4  12  24  38  58  85 116 153 197 244 290 344
#     4  12  24  40  60  83 114 154 197 242 293 349
#     4  10  20  36  59  85 117 154 193 236 287 348
#     4   9  19  37  61  89 120 156 193 234 289 349
#     4  10  20  35  57  85 118 154 188 231 289 351
#     4  10  20  37  61  88 119 157 195 238 290 345
#
# _framework density 9.2092220000000005
#
# number of rings (size 3 to 8) (size 9 to 14) (size 15 to 20)
#    0.000    1.500    1.667    4.500    0.000    4.333 
#    0.000    2.500    0.000    5.000    0.000    0.000 
#    0.000    0.000    0.000    0.000    0.000    0.000 
#
# Total GULP energy -133668.647564 kJ/mol
# GULP energy per Si atom -5569.526982 kJ/mol
# Density = 0.918826 g / cm^3
# Si number density = 9.209222 Si / 1000 Ang^3
#
#
#
# Elastic Constant Matrix: (Units=GPa)
#
#
# Indices 1 2 3 4 5 6 
#
# 1 37.7038 2.9533 -0.2793 0.0000 8.5334 0.0000
# 2 2.9533 75.4638 46.6089 0.0001 14.3387 0.0000
# 3 -0.2793 46.6089 115.8741 0.0001 29.2466 0.0000
# 4 0.0000 0.0001 0.0001 182.0894 0.0000 -57.9341
# 5 8.5334 14.3387 29.2466 0.0000 39.3373 0.0000
# 6 0.0000 0.0000 0.0000 -57.9341 0.0000 49.9285
#
#
#
# Elastic Compliance Matrix: (Units=1/GPa)
#
#
# Indices 1 2 3 4 5 6 
#
# 1 0.028339 -0.001190 0.002449 0.000000 -0.007534 0.000000
# 2 -0.001190 0.017746 -0.006861 0.000000 -0.001109 0.000000
# 3 0.002449 -0.006861 0.013416 0.000000 -0.008005 0.000000
# 4 0.000000 0.000000 0.000000 0.008706 0.000000 0.010102
# 5 -0.007534 -0.001109 -0.008005 0.000000 0.033412 0.000000
# 6 0.000000 0.000000 0.000000 0.010102 0.000000 0.031750
#
#
# Mechanical properties :
#
#
# Convention : Reuss Voigt Hill
#
# Bulk Modulus (GPa) = 20.70521 36.40084 28.55302
# Shear Modulus (GPa) = 31.11916 66.25497 48.68706
#
# Velocity S-wave (km/s) = 4.11489 6.00418 5.14696
# Velocity P-wave (km/s) = 5.81742 8.23851 7.13146
#
# Compressibility (1/GPa) = 0.04829702
#
# Stress axis : x y z
#
# Youngs Moduli (GPa) = 35.28695 56.34945 74.53670
#
# Poissons Ratio (x) = 0.06704 -0.18251
# Poissons Ratio (y) = 0.04198 0.51140
# Poissons Ratio (z) = -0.08640 0.38662
#
# Static dielectric constant tensor:
#      x y z
#    x 1.748200 0.000000 -0.041150 
#    y 0.000000 1.643290 0.000000 
#    z -0.041150 0.000000 1.642090 
# 
# From -- ./inp_files/280784.got.cif
#   From: 2010.05.17/outbox.ucp.g08.bks.cvg/sg12_141_cif.got.tgz:280784.got - 2010.06.11 11:47:21.
