data_PCOD9224465
_publ_section_title
;
Structure prediction by ZEFSAII (Michael W. Deem and Ramdas Pophale) SiO2 
 PCOD9224465
Probable space group: C 2/M
;
_chemical_formula_sum "Si O2"
_cell_formula_units_Z 32
_cell_length_a 24.000000
_cell_length_b 21.000000
_cell_length_c 18.000000
_cell_angle_alpha 90.000000
_cell_angle_beta 20.000000
_cell_angle_gamma 90.000000
_cell_volume 3102.806740
_symmetry_space_group_name_H-M "C 2/M"
_symmetry_group_IT_number 12
_symmetry_cell_setting 'monoclinic'
loop_
_space_group_symop_operation_xyz
x,y,z
-x,y,-z
-x,-y,-z
x,-y,z
1/2+x,1/2+y,z
1/2-x,1/2+y,-z
1/2-x,1/2-y,-z
1/2+x,1/2-y,z
loop_
_atom_site_type_symbol
_atom_site_label
_atom_site_fract_x
_atom_site_fract_y
_atom_site_fract_z
Si Si1 0.164297 0.928794 0.987962
Si Si2 0.170430 0.877046 0.814562
Si Si3 0.801714 0.927520 0.505233
Si Si4 0.645122 0.073282 0.550878
Si Si5 0.165753 0.652935 0.103820
Si Si6 0.819508 0.078978 0.766395
Si Si7 0.812079 0.648832 0.210430
Si Si8 0.061388 0.732667 0.509019
O O1 0.990073 0.928749 0.246457
O O2 0.235447 0.000000 0.904977
O O3 0.148793 0.910912 0.920985
O O4 0.265496 0.878062 0.907462
O O5 0.225874 0.922494 0.677741
O O6 0.316498 0.827305 0.640272
O O7 0.000000 0.847507 0.000000
O O8 0.715961 0.900954 0.539195
O O9 0.760711 0.892294 0.631311
O O10 0.747023 0.000000 0.583390
O O11 0.492755 0.115410 0.722237
O O12 0.598033 0.000000 0.619280
O O13 0.081480 0.719609 0.247296
O O14 0.287302 0.626228 0.880785
O O15 0.700123 0.108023 0.851507
O O16 0.000000 0.085002 0.500000
O O17 0.798548 0.000000 0.806796
O O18 0.685206 0.707923 0.364921
O O19 0.000000 0.664288 0.000000
O O20 0.000000 0.737041 0.500000
#
# Coordination Sequence:
#
# PCOD9224465 Si02
#       8
#     8   8   8   8   8   8   8   8
#     4  11  21  36  64 100 138 173 219 273 338 416
#     4  11  21  38  61  93 136 182 220 270 336 408
#     4  10  22  41  65 100 136 171 220 282 348 412
#     4  10  20  34  59  93 135 175 216 272 336 407
#     4  11  23  42  66 100 136 180 227 282 343 404
#     4  11  24  46  75 107 144 184 230 288 351 415
#     4  12  26  46  70  99 133 183 238 293 347 404
#     4  11  25  48  67  96 138 180 238 286 341 411
#
# _framework density 10.313243
#
# number of rings (size 3 to 8) (size 9 to 14) (size 15 to 20)
#    0.000    1.125    2.500    4.125    0.000    4.500 
#    2.250    6.875    0.000    0.000    0.000    0.000 
#    0.000    0.000    0.000    0.000    0.000    0.000 
#
# Total GULP energy -178208.785373 kJ/mol
# GULP energy per Si atom -5569.024543 kJ/mol
# Density = 1.028977 g / cm^3
# Si number density = 10.313243 Si / 1000 Ang^3
#
#
#
# Elastic Constant Matrix: (Units=GPa)
#
#
# Indices 1 2 3 4 5 6 
#
# 1 126.0032 33.8352 21.7363 0.0097 7.1437 -0.0005
# 2 33.8352 46.9505 30.4614 -0.0076 16.6789 0.0031
# 3 21.7363 30.4614 86.7000 0.0202 7.7032 -0.0048
# 4 0.0097 -0.0076 0.0202 26.6724 0.0023 -1.4368
# 5 7.1437 16.6789 7.7032 0.0023 47.0359 0.0033
# 6 -0.0005 0.0031 -0.0048 -1.4368 0.0033 32.0787
#
#
#
# Elastic Compliance Matrix: (Units=1/GPa)
#
#
# Indices 1 2 3 4 5 6 
#
# 1 0.009897 -0.007608 0.000087 -0.000006 0.001180 0.000000
# 2 -0.007608 0.037063 -0.010198 0.000022 -0.010317 -0.000003
# 3 0.000087 -0.010198 0.014993 -0.000014 0.001147 0.000002
# 4 -0.000006 0.000022 -0.000014 0.037583 -0.000006 0.001683
# 5 0.001180 -0.010317 0.001147 -0.000006 0.024552 -0.000002
# 6 0.000000 -0.000003 0.000002 0.001683 -0.000002 0.031249
#
#
# Mechanical properties :
#
#
# Convention : Reuss Voigt Hill
#
# Bulk Modulus (GPa) = 37.71386 47.96885 42.84135
# Shear Modulus (GPa) = 25.04831 32.73210 28.89020
#
# Velocity S-wave (km/s) = 3.48857 3.98791 3.74657
# Velocity P-wave (km/s) = 5.87799 6.67166 6.28736
#
# Compressibility (1/GPa) = 0.02651545
#
# Stress axis : x y z
#
# Youngs Moduli (GPa) = 101.03617 26.98075 66.69678
#
# Poissons Ratio (x) = 0.20528 -0.00580
# Poissons Ratio (y) = 0.76872 0.68016
# Poissons Ratio (z) = -0.00878 0.27515
#
# Static dielectric constant tensor:
#      x y z
#    x 1.778830 -0.000010 -0.015570 
#    y -0.000010 1.781000 0.000010 
#    z -0.015570 0.000010 1.802880 
# 
# From -- ./inp_files/290895.got.cif
#   From: 2010.05.17/outbox.ucp.g08.bks.cvg/sg12_146_cif.got.tgz:290895.got - 2010.06.11 11:47:21.
