data_PCOD9224651
_publ_section_title
;
Structure prediction by ZEFSAII (Michael W. Deem and Ramdas Pophale) SiO2 
 PCOD9224651
Probable space group: C 2/M
;
_chemical_formula_sum "Si O2"
_cell_formula_units_Z 32
_cell_length_a 24.000000
_cell_length_b 9.000000
_cell_length_c 30.000000
_cell_angle_alpha 90.000000
_cell_angle_beta 30.000000
_cell_angle_gamma 90.000000
_cell_volume 3240.000000
_symmetry_space_group_name_H-M "C 2/M"
_symmetry_group_IT_number 12
_symmetry_cell_setting 'monoclinic'
loop_
_space_group_symop_operation_xyz
x,y,z
-x,y,-z
-x,-y,-z
x,-y,z
1/2+x,1/2+y,z
1/2-x,1/2+y,-z
1/2-x,1/2-y,-z
1/2+x,1/2-y,z
loop_
_atom_site_type_symbol
_atom_site_label
_atom_site_fract_x
_atom_site_fract_y
_atom_site_fract_z
Si Si1 0.663141 0.677944 0.526300
Si Si2 0.612636 0.676340 0.381497
Si Si3 0.625437 0.824192 0.138241
Si Si4 0.132088 0.321663 0.454664
Si Si5 0.051700 0.667542 0.915394
Si Si6 0.272559 0.173739 0.779076
Si Si7 0.133527 0.676386 0.030504
Si Si8 0.427417 0.676148 0.738215
O O1 0.677319 0.500000 0.512754
O O2 0.750000 0.750000 0.500000
O O3 0.679678 0.756292 0.467229
O O4 0.537875 0.704274 0.632056
O O5 0.598826 0.500000 0.396677
O O6 0.679069 0.748607 0.376881
O O7 0.494076 0.758821 0.459360
O O8 0.670187 0.718361 0.296120
O O9 0.592268 0.796732 0.109723
O O10 0.556536 0.733194 0.222599
O O11 0.617132 0.000000 0.152607
O O12 0.753698 0.769771 0.053523
O O13 0.134843 0.500000 0.451434
O O14 0.096022 0.500000 0.873005
O O15 0.144444 0.792175 0.858305
O O16 0.959629 0.706463 0.942113
O O17 0.000000 0.653549 0.000000
O O18 0.323382 0.231957 0.790269
O O19 0.299076 0.000000 0.754749
O O20 0.161769 0.500000 0.007680
O O21 0.404335 0.500000 0.753351
#
# Coordination Sequence:
#
# PCOD9224651 Si02
#       8
#     8   8   8   8   8   8   8   8
#     4  11  24  42  63  87 118 159 201 250 304 361
#     4  11  21  37  61  88 119 157 198 240 294 357
#     4  10  20  35  60  90 119 156 200 248 294 345
#     4  11  21  37  62  90 120 152 194 246 298 355
#     4  10  21  38  60  86 121 163 201 241 295 359
#     4  12  24  38  60  90 121 155 198 252 304 353
#     4   9  19  37  59  86 122 161 200 240 292 354
#     4  11  23  40  62  86 116 154 199 246 297 361
#
# _framework density 9.8765429999999999
#
# number of rings (size 3 to 8) (size 9 to 14) (size 15 to 20)
#    0.000    1.375    1.250    6.000    0.000    3.750 
#    2.250    0.000    0.000    0.000    0.000    0.000 
#    0.000    0.000    0.000    0.000    0.000    0.000 
#
# Total GULP energy -178637.673390 kJ/mol
# GULP energy per Si atom -5582.427293 kJ/mol
# Density = 0.985406 g / cm^3
# Si number density = 9.876543 Si / 1000 Ang^3
#
#
#
# Elastic Constant Matrix: (Units=GPa)
#
#
# Indices 1 2 3 4 5 6 
#
# 1 153.4270 41.4899 13.7255 -0.0034 7.2013 0.0056
# 2 41.4899 116.1798 7.0828 -0.0051 1.9047 0.0091
# 3 13.7255 7.0828 15.0798 -0.0005 8.7897 0.0032
# 4 -0.0034 -0.0051 -0.0005 30.0860 -0.0004 2.8941
# 5 7.2013 1.9047 8.7897 -0.0004 30.0408 -0.0019
# 6 0.0056 0.0091 0.0032 2.8941 -0.0019 31.2593
#
#
#
# Elastic Compliance Matrix: (Units=1/GPa)
#
#
# Indices 1 2 3 4 5 6 
#
# 1 0.007689 -0.002387 -0.005897 0.000000 0.000034 0.000000
# 2 -0.002387 0.009618 -0.002800 0.000002 0.000782 -0.000002
# 3 -0.005897 -0.002800 0.086887 0.000001 -0.023832 -0.000009
# 4 0.000000 0.000002 0.000001 0.033537 0.000000 -0.003105
# 5 0.000034 0.000782 -0.023832 0.000000 0.040203 0.000005
# 6 0.000000 -0.000002 -0.000009 -0.003105 0.000005 0.032278
#
#
# Mechanical properties :
#
#
# Convention : Reuss Voigt Hill
#
# Bulk Modulus (GPa) = 12.19133 45.47590 28.83362
# Shear Modulus (GPa) = 19.25128 33.10312 26.17720
#
# Velocity S-wave (km/s) = 3.12524 4.09815 3.64431
# Velocity P-wave (km/s) = 4.38270 6.74279 5.68653
#
# Compressibility (1/GPa) = 0.08202550
#
# Stress axis : x y z
#
# Youngs Moduli (GPa) = 130.05207 103.97504 11.50915
#
# Poissons Ratio (x) = 0.24819 0.06787
# Poissons Ratio (y) = 0.31043 0.03223
# Poissons Ratio (z) = 0.76693 0.29117
#
# Static dielectric constant tensor:
#      x y z
#    x 1.721740 0.000000 0.030620 
#    y 0.000000 1.664450 0.000000 
#    z 0.030620 0.000000 1.769910 
# 
# From -- ./inp_files/382251.got.cif
#   From: 2010.05.17/outbox.ucp.g08.bks.cvg/sg12_192_cif.got.tgz:382251.got - 2010.06.11 11:47:21.
