data_PCOD9224483
_publ_section_title
;
Structure prediction by ZEFSAII (Michael W. Deem and Ramdas Pophale) SiO2 
 PCOD9224483
Probable space group: C 2/M
;
_chemical_formula_sum "Si O2"
_cell_formula_units_Z 28
_cell_length_a 21.000000
_cell_length_b 9.000000
_cell_length_c 18.000000
_cell_angle_alpha 90.000000
_cell_angle_beta 120.000000
_cell_angle_gamma 90.000000
_cell_volume 2946.218424
_symmetry_space_group_name_H-M "C 2/M"
_symmetry_group_IT_number 12
_symmetry_cell_setting 'monoclinic'
loop_
_space_group_symop_operation_xyz
x,y,z
-x,y,-z
-x,-y,-z
x,-y,z
1/2+x,1/2+y,z
1/2-x,1/2+y,-z
1/2-x,1/2-y,-z
1/2+x,1/2-y,z
loop_
_atom_site_type_symbol
_atom_site_label
_atom_site_fract_x
_atom_site_fract_y
_atom_site_fract_z
Si Si1 0.643310 0.678303 0.268473
Si Si2 0.799461 0.672555 0.302190
Si Si3 0.918041 0.178149 0.459176
Si Si4 0.330581 0.320375 0.553508
Si Si5 0.251016 0.673471 0.895193
Si Si6 0.366039 0.177970 0.052231
Si Si7 0.478436 0.178951 0.903073
O O1 0.638971 0.500000 0.256960
O O2 0.728047 0.722130 0.305986
O O3 0.628662 0.718183 0.345498
O O4 0.591885 0.750586 0.176731
O O5 0.814423 0.500000 0.328550
O O6 0.868866 0.769142 0.362596
O O7 0.775826 0.683633 0.203584
O O8 0.878287 0.228507 0.511134
O O9 0.000000 0.236345 0.500000
O O10 0.920178 0.000000 0.462390
O O11 0.322702 0.500000 0.548204
O O12 0.250000 0.250000 0.500000
O O13 0.265188 0.500000 0.920820
O O14 0.185532 0.728650 0.910447
O O15 0.324458 0.763398 0.955232
O O16 0.450077 0.224937 0.103161
O O17 0.365952 0.000000 0.051071
O O18 0.470520 0.000000 0.898097
O O19 0.500000 0.221763 0.000000
#
# Coordination Sequence:
#
# PCOD9224483 Si02
#       7
#     8   8   8   8   8   8   8
#     4  10  21  35  54  80 106 137 180 225 268 320
#     4  10  20  35  54  78 106 136 177 223 269 324
#     4  10  22  38  56  81 112 143 177 223 277 329
#     4  10  20  37  59  81 109 143 182 228 273 326
#     4   9  18  32  52  75 101 135 174 217 265 318
#     4   9  18  33  50  72 103 137 175 218 263 316
#     4  10  21  35  51  75 108 141 176 219 265 317
#
# _framework density 9.5037079999999996
#
# number of rings (size 3 to 8) (size 9 to 14) (size 15 to 20)
#    0.000    2.286    1.429    0.857    0.000    4.000 
#    0.000    0.000    0.000    0.000    0.000    0.000 
#    0.000    0.000    0.000    0.000    0.000    0.000 
#
# Total GULP energy -156097.729487 kJ/mol
# GULP energy per Si atom -5574.918910 kJ/mol
# Density = 0.948208 g / cm^3
# Si number density = 9.503708 Si / 1000 Ang^3
#
#
#
# Elastic Constant Matrix: (Units=GPa)
#
#
# Indices 1 2 3 4 5 6 
#
# 1 73.1058 16.7665 15.3794 0.0000 15.7005 0.0000
# 2 16.7665 -8.4814 11.4784 0.0000 2.2139 0.0000
# 3 15.3794 11.4784 49.0545 0.0000 15.6289 0.0000
# 4 0.0000 0.0000 0.0000 -70.5651 0.0000 5.5906
# 5 15.7005 2.2139 15.6289 0.0000 21.5364 0.0000
# 6 0.0000 0.0000 0.0000 5.5906 0.0000 16.9468
#
#
#
# Elastic Compliance Matrix: (Units=1/GPa)
#
#
# Indices 1 2 3 4 5 6 
#
# 1 0.012680 0.015842 -0.005487 0.000000 -0.006890 0.000000
# 2 0.015842 -0.068758 0.016324 0.000000 -0.016327 0.000000
# 3 -0.005487 0.016324 0.022823 0.000000 -0.014241 0.000000
# 4 0.000000 0.000000 0.000000 -0.013810 0.000000 0.004556
# 5 -0.006890 -0.016327 -0.014241 0.000000 0.063469 0.000000
# 6 0.000000 0.000000 0.000000 0.004556 0.000000 0.057505
#
#
# Mechanical properties :
#
#
# Convention : Reuss Voigt Hill
#
# Bulk Modulus (GPa) = 49.74454 22.32529 36.03492
# Shear Modulus (GPa) = 183.47421 -1.74607 90.86407
#
# Velocity S-wave (km/s) = 9.83551 -0.95949 6.92158
# Velocity P-wave (km/s) = 12.45837 3.24709 9.10369
#
# Compressibility (1/GPa) = 0.02010271
#
# Stress axis : x y z
#
# Youngs Moduli (GPa) = 78.86652 -14.54379 43.81534
#
# Poissons Ratio (x) = 0.23040 0.24041
# Poissons Ratio (y) = -1.24938 -0.71524
# Poissons Ratio (z) = 0.43273 0.23741
#
# Static dielectric constant tensor:
#      x y z
#    x 1.704060 0.000000 -0.045190 
#    y 0.000000 1.643250 0.000000 
#    z -0.045190 0.000000 1.652470 
# 
# From -- ./inp_files/280856.got.cif
#   From: 2010.05.17/outbox.ucp.g08.bks.cvg/sg12_141_cif.got.tgz:280856.got - 2010.06.11 11:47:21.
