data_PCOD9224873
_publ_section_title
;
Structure prediction by ZEFSAII (Michael W. Deem and Ramdas Pophale) SiO2 
 PCOD9224873
Probable space group: C 2/M
;
_chemical_formula_sum "Si O2"
_cell_formula_units_Z 24
_cell_length_a 30.000000
_cell_length_b 9.000000
_cell_length_c 9.000000
_cell_angle_alpha 90.000000
_cell_angle_beta 90.000000
_cell_angle_gamma 90.000000
_cell_volume 2430.000000
_symmetry_space_group_name_H-M "C 2/M"
_symmetry_group_IT_number 12
_symmetry_cell_setting 'monoclinic'
loop_
_space_group_symop_operation_xyz
x,y,z
-x,y,-z
-x,-y,-z
x,-y,z
1/2+x,1/2+y,z
1/2-x,1/2+y,-z
1/2-x,1/2-y,-z
1/2+x,1/2-y,z
loop_
_atom_site_type_symbol
_atom_site_label
_atom_site_fract_x
_atom_site_fract_y
_atom_site_fract_z
Si Si1 0.252382 0.826865 0.843139
Si Si2 0.923581 0.666944 0.319735
Si Si3 0.821271 0.172047 0.629329
Si Si4 0.421686 0.326557 0.629225
Si Si5 0.321489 0.830816 0.317126
Si Si6 0.500109 0.677032 0.838476
O O1 0.287461 0.736198 0.746396
O O2 0.205134 0.793817 0.769073
O O3 0.263007 0.000000 0.849853
O O4 0.250000 0.750000 0.000000
O O5 0.941188 0.500000 0.305658
O O6 0.923493 0.720894 0.488489
O O7 0.872666 0.669081 0.268853
O O8 0.953968 0.781623 0.235561
O O9 0.871626 0.176255 0.689501
O O10 0.818984 0.279505 0.487524
O O11 0.811602 0.000000 0.588737
O O12 0.430850 0.500000 0.586422
O O13 0.458438 0.272773 0.742758
O O14 0.304097 0.000000 0.299057
O O15 0.495623 0.500000 0.847676
O O16 0.500000 0.745014 0.000000
#
# Coordination Sequence:
#
# PCOD9224873 Si02
#       6
#     8   8   8   8   8   8
#     4  12  25  40  58  83 115 150 186 227 279 335
#     4  10  21  36  57  84 111 142 183 231 278 324
#     4  10  20  37  60  85 112 146 190 235 280 330
#     4   9  19  36  58  82 109 145 187 228 272 328
#     4  10  21  39  60  84 113 146 187 232 280 333
#     4  10  21  36  54  79 112 149 187 227 274 330
#
# _framework density 9.8765429999999999
#
# number of rings (size 3 to 8) (size 9 to 14) (size 15 to 20)
#    0.000    1.833    0.000    4.000    0.000    7.000 
#    0.000    1.667    0.000    0.000    0.000    0.000 
#    0.000    0.000    0.000    0.000    0.000    0.000 
#
# Total GULP energy -133797.367356 kJ/mol
# GULP energy per Si atom -5574.890307 kJ/mol
# Density = 0.985406 g / cm^3
# Si number density = 9.876543 Si / 1000 Ang^3
#
#
#
# Elastic Constant Matrix: (Units=GPa)
#
#
# Indices 1 2 3 4 5 6 
#
# 1 37.9722 -10.2794 45.8459 0.0000 3.9239 0.0000
# 2 -10.2794 3.7570 -20.3458 0.0000 15.0513 0.0000
# 3 45.8459 -20.3458 32.4370 0.0000 -2.4475 0.0000
# 4 0.0000 0.0000 0.0000 6.7791 0.0000 -2.9344
# 5 3.9239 15.0513 -2.4475 0.0000 36.1619 0.0000
# 6 0.0000 0.0000 0.0000 -2.9344 0.0000 28.8675
#
#
#
# Elastic Compliance Matrix: (Units=1/GPa)
#
#
# Indices 1 2 3 4 5 6 
#
# 1 -0.092334 -0.102960 0.070270 0.000000 0.057629 0.000000
# 2 -0.102960 -0.185820 0.035830 0.000000 0.090939 0.000000
# 3 0.070270 0.035830 -0.047961 0.000000 -0.025784 0.000000
# 4 0.000000 0.000000 0.000000 0.154301 0.000000 0.015685
# 5 0.057629 0.090939 -0.025784 0.000000 -0.018196 0.000000
# 6 0.000000 0.000000 0.000000 0.015685 0.000000 0.036235
#
#
# Mechanical properties :
#
#
# Convention : Reuss Voigt Hill
#
# Bulk Modulus (GPa) = -3.12663 11.62307 4.24822
# Shear Modulus (GPa) = -18.75010 18.29140 -0.22935
#
# Velocity S-wave (km/s) = -3.08429 3.04633 -0.34111
# Velocity P-wave (km/s) = 3.77758 4.27439 1.41428
#
# Compressibility (1/GPa) = -0.31983358
#
# Stress axis : x y z
#
# Youngs Moduli (GPa) = -10.83030 -5.38156 -20.85020
#
# Poissons Ratio (x) = -0.55409 1.46515
# Poissons Ratio (y) = -1.11509 0.74707
# Poissons Ratio (z) = 0.76105 0.19282
#
# Static dielectric constant tensor:
#      x y z
#    x 1.706280 0.000000 0.018860 
#    y 0.000000 1.684930 0.000000 
#    z 0.018860 0.000000 1.674550 
# 
# From -- ./inp_files/108687.got.cif
#   From: 2010.05.17/outbox.ucp.g08.bks.cvg/sg12_55_cif.got.tgz:108687.got - 2010.06.11 11:47:21.
