data_PCOD9224176
_publ_section_title
;
Structure prediction by ZEFSAII (Michael W. Deem and Ramdas Pophale) SiO2 
 PCOD9224176
Probable space group: C 2/M
;
_chemical_formula_sum "Si O2"
_cell_formula_units_Z 28
_cell_length_a 24.000000
_cell_length_b 9.000000
_cell_length_c 18.000000
_cell_angle_alpha 90.000000
_cell_angle_beta 60.000000
_cell_angle_gamma 90.000000
_cell_volume 3367.106770
_symmetry_space_group_name_H-M "C 2/M"
_symmetry_group_IT_number 12
_symmetry_cell_setting 'monoclinic'
loop_
_space_group_symop_operation_xyz
x,y,z
-x,y,-z
-x,-y,-z
x,-y,z
1/2+x,1/2+y,z
1/2-x,1/2+y,-z
1/2-x,1/2-y,-z
1/2+x,1/2-y,z
loop_
_atom_site_type_symbol
_atom_site_label
_atom_site_fract_x
_atom_site_fract_y
_atom_site_fract_z
Si Si1 0.106089 0.174580 0.443432
Si Si2 0.496436 0.325359 0.623979
Si Si3 0.977041 0.667669 0.100967
Si Si4 0.895386 0.176539 0.944908
Si Si5 0.708079 0.176191 0.274324
Si Si6 0.606120 0.175423 0.208378
Si Si7 0.340982 0.820787 0.132254
O O1 0.054176 0.184182 0.410817
O O2 0.168763 0.260527 0.371815
O O3 0.065229 0.224822 0.543487
O O4 0.121419 0.000000 0.442841
O O5 0.501858 0.500000 0.640043
O O6 0.461434 0.236590 0.713127
O O7 0.982358 0.500000 0.128900
O O8 0.902509 0.713050 0.144527
O O9 0.029097 0.776712 0.101538
O O10 0.000000 0.658242 0.000000
O O11 0.873703 0.240325 0.879974
O O12 0.888145 0.000000 0.953974
O O13 0.858748 0.250970 0.039653
O O14 0.660064 0.198120 0.236019
O O15 0.775030 0.257041 0.209985
O O16 0.718665 0.000000 0.275977
O O17 0.600834 0.000000 0.197408
O O18 0.337979 0.000000 0.126886
#
# Coordination Sequence:
#
# PCOD9224176 Si02
#       7
#     8   8   8   8   8   8   8
#     4   8  14  26  44  64  89 120 151 187 230 271
#     4   8  14  26  44  65  88 117 154 191 226 267
#     4   8  16  32  51  69  88 113 148 189 232 274
#     4  11  21  32  49  70  92 120 154 193 231 269
#     4  10  20  31  45  68  96 125 158 192 225 268
#     4  10  20  32  45  65  96 129 157 188 228 273
#     4  10  20  34  51  68  91 123 154 188 231 275
#
# _framework density 8.3157449999999997
#
# number of rings (size 3 to 8) (size 9 to 14) (size 15 to 20)
#    0.000    2.714    0.000    4.286    0.000    6.000 
#    0.000    2.857    0.000    0.000    0.000    1.000 
#    0.000    0.000    0.000    0.000    0.000    0.000 
#
# Total GULP energy -155952.599100 kJ/mol
# GULP energy per Si atom -5569.735682 kJ/mol
# Density = 0.829682 g / cm^3
# Si number density = 8.315745 Si / 1000 Ang^3
#
#
#
# Elastic Constant Matrix: (Units=GPa)
#
#
# Indices 1 2 3 4 5 6 
#
# 1 44.2147 27.2365 25.0266 0.0000 -28.2129 0.0000
# 2 27.2365 78.8684 33.6624 -0.0001 -22.6913 -0.0001
# 3 25.0266 33.6624 75.1347 0.0000 -39.2402 0.0000
# 4 0.0000 -0.0001 0.0000 30.6343 0.0000 -4.9407
# 5 -28.2129 -22.6913 -39.2402 0.0000 31.0942 0.0000
# 6 0.0000 -0.0001 0.0000 -4.9407 0.0000 19.8074
#
#
#
# Elastic Compliance Matrix: (Units=1/GPa)
#
#
# Indices 1 2 3 4 5 6 
#
# 1 0.076881 -0.010937 0.033894 0.000000 0.104549 0.000000
# 2 -0.010937 0.017863 -0.008022 0.000000 -0.007011 0.000000
# 3 0.033894 -0.008022 0.054611 0.000000 0.093817 0.000000
# 4 0.000000 0.000000 0.000000 0.034011 0.000000 0.008484
# 5 0.104549 -0.007011 0.093817 0.000000 0.240300 0.000000
# 6 0.000000 0.000000 0.000000 0.008484 0.000000 0.052602
#
#
# Mechanical properties :
#
#
# Convention : Reuss Voigt Hill
#
# Bulk Modulus (GPa) = 5.57955 41.11874 23.34915
# Shear Modulus (GPa) = 9.87870 23.79335 16.83602
#
# Velocity S-wave (km/s) = 2.43981 3.78646 3.18511
# Velocity P-wave (km/s) = 3.36139 6.62521 5.25321
#
# Compressibility (1/GPa) = 0.17922580
#
# Stress axis : x y z
#
# Youngs Moduli (GPa) = 13.00715 55.98180 18.31133
#
# Poissons Ratio (x) = 0.61226 -0.62064
# Poissons Ratio (y) = 0.14226 0.14689
# Poissons Ratio (z) = -0.44086 0.44907
#
# Static dielectric constant tensor:
#      x y z
#    x 1.576540 0.000000 -0.002690 
#    y 0.000000 1.561920 0.000000 
#    z -0.002690 0.000000 1.560590 
# 
# From -- ./inp_files/287364.got.cif
#   From: 2010.05.17/outbox.ucp.g08.bks.cvg/sg12_144_cif.got.tgz:287364.got - 2010.06.11 11:47:21.
