data_PCOD9224884
_publ_section_title
;
Structure prediction by ZEFSAII (Michael W. Deem and Ramdas Pophale) SiO2 
 PCOD9224884
Probable space group: C 2/M
;
_chemical_formula_sum "Si O2"
_cell_formula_units_Z 24
_cell_length_a 30.000000
_cell_length_b 9.000000
_cell_length_c 18.000000
_cell_angle_alpha 90.000000
_cell_angle_beta 150.000000
_cell_angle_gamma 90.000000
_cell_volume 2430.000000
_symmetry_space_group_name_H-M "C 2/M"
_symmetry_group_IT_number 12
_symmetry_cell_setting 'monoclinic'
loop_
_space_group_symop_operation_xyz
x,y,z
-x,y,-z
-x,-y,-z
x,-y,z
1/2+x,1/2+y,z
1/2-x,1/2+y,-z
1/2-x,1/2-y,-z
1/2+x,1/2-y,z
loop_
_atom_site_type_symbol
_atom_site_label
_atom_site_fract_x
_atom_site_fract_y
_atom_site_fract_z
Si Si1 0.433173 0.324597 0.835664
Si Si2 0.192777 0.323103 0.852995
Si Si3 0.309901 0.325246 0.300860
Si Si4 0.435916 0.824776 0.692771
Si Si5 0.249838 0.323571 0.378682
Si Si6 0.993450 0.324175 0.611366
O O1 0.417750 0.500000 0.805008
O O2 0.473310 0.257479 0.818354
O O3 0.339688 0.244157 0.717336
O O4 0.500000 0.299707 0.000000
O O5 0.199023 0.500000 0.865962
O O6 0.224150 0.264041 0.818855
O O7 0.088414 0.283365 0.714298
O O8 0.250000 0.250000 0.000000
O O9 0.310100 0.500000 0.285306
O O10 0.254934 0.299945 0.297077
O O11 0.410452 0.268986 0.461591
O O12 0.337867 0.756405 0.536949
O O13 0.492081 0.804080 0.698515
O O14 0.428217 0.000000 0.695458
O O15 0.255059 0.500000 0.400682
O O16 0.976800 0.500000 0.572302
#
# Coordination Sequence:
#
# PCOD9224884 Si02
#       6
#     8   8   8   8   8   8
#     4  11  24  39  55  80 114 148 184 227 276 329
#     4  11  23  38  56  81 115 151 187 227 274 328
#     4  10  21  37  59  86 112 142 184 230 275 326
#     4  10  20  37  61  84 109 143 184 229 276 326
#     4  10  21  38  60  84 111 144 184 228 273 327
#     4   9  20  38  59  83 110 144 185 228 274 326
#
# _framework density 9.8765429999999999
#
# number of rings (size 3 to 8) (size 9 to 14) (size 15 to 20)
#    0.000    1.833    0.000    3.500    0.000    8.667 
#    0.000    5.000    0.000    0.000    0.000    0.000 
#    0.000    0.000    0.000    0.000    0.000    0.000 
#
# Total GULP energy -134166.612415 kJ/mol
# GULP energy per Si atom -5590.275517 kJ/mol
# Density = 0.985406 g / cm^3
# Si number density = 9.876543 Si / 1000 Ang^3
#
#
#
# Elastic Constant Matrix: (Units=GPa)
#
#
# Indices 1 2 3 4 5 6 
#
# 1 68.2492 35.4824 15.3013 0.0000 -20.8078 0.0000
# 2 35.4824 47.2689 13.5764 0.0000 -21.3779 0.0000
# 3 15.3013 13.5764 9.9565 0.0000 -26.2045 0.0000
# 4 0.0000 0.0000 0.0000 28.4964 0.0000 -5.8338
# 5 -20.8078 -21.3779 -26.2045 0.0000 32.1738 0.0000
# 6 0.0000 0.0000 0.0000 -5.8338 0.0000 31.4177
#
#
#
# Elastic Compliance Matrix: (Units=1/GPa)
#
#
# Indices 1 2 3 4 5 6 
#
# 1 0.024588 -0.015896 0.001800 0.000000 0.006805 0.000000
# 2 -0.015896 0.039383 -0.010967 0.000000 0.006955 0.000000
# 3 0.001800 -0.010967 -0.084392 0.000000 -0.074858 0.000000
# 4 0.000000 0.000000 0.000000 0.036479 0.000000 0.006774
# 5 0.006805 0.006955 -0.074858 0.000000 -0.020865 0.000000
# 6 0.000000 0.000000 0.000000 0.006774 0.000000 0.033087
#
#
# Mechanical properties :
#
#
# Convention : Reuss Voigt Hill
#
# Bulk Modulus (GPa) = -14.17484 28.24386 7.03451
# Shear Modulus (GPa) = 91.08889 22.49187 56.79038
#
# Velocity S-wave (km/s) = 6.79808 3.37805 5.36773
# Velocity P-wave (km/s) = 7.37746 5.43548 6.47964
#
# Compressibility (1/GPa) = -0.07054756
#
# Stress axis : x y z
#
# Youngs Moduli (GPa) = 40.67077 25.39143 -11.84952
#
# Poissons Ratio (x) = 0.40362 0.02132
# Poissons Ratio (y) = 0.64649 -0.12996
# Poissons Ratio (z) = -0.07319 0.27848
#
# Static dielectric constant tensor:
#      x y z
#    x 1.700000 0.000000 -0.039950 
#    y 0.000000 1.653590 0.000000 
#    z -0.039950 0.000000 1.673020 
# 
# From -- ./inp_files/274082.got.cif
#   From: 2010.05.17/outbox.ucp.g08.bks.cvg/sg12_138_cif.got.tgz:274082.got - 2010.06.11 11:47:21.
