data_PCOD9224513
_publ_section_title
;
Structure prediction by ZEFSAII (Michael W. Deem and Ramdas Pophale) SiO2 
 PCOD9224513
Probable space group: C 2/M
;
_chemical_formula_sum "Si O2"
_cell_formula_units_Z 32
_cell_length_a 30.000000
_cell_length_b 9.000000
_cell_length_c 24.000000
_cell_angle_alpha 90.000000
_cell_angle_beta 150.000000
_cell_angle_gamma 90.000000
_cell_volume 3240.000000
_symmetry_space_group_name_H-M "C 2/M"
_symmetry_group_IT_number 12
_symmetry_cell_setting 'monoclinic'
loop_
_space_group_symop_operation_xyz
x,y,z
-x,y,-z
-x,-y,-z
x,-y,z
1/2+x,1/2+y,z
1/2-x,1/2+y,-z
1/2-x,1/2-y,-z
1/2+x,1/2-y,z
loop_
_atom_site_type_symbol
_atom_site_label
_atom_site_fract_x
_atom_site_fract_y
_atom_site_fract_z
Si Si1 0.343056 0.826715 0.585475
Si Si2 0.523572 0.673009 0.792557
Si Si3 0.732269 0.668773 0.811544
Si Si4 0.435955 0.329705 0.877396
Si Si5 0.592254 0.678207 0.749198
Si Si6 0.066426 0.334122 0.938352
Si Si7 0.088013 0.324789 0.466647
Si Si8 0.756683 0.677576 0.288464
O O1 0.250000 0.750000 0.500000
O O2 0.429536 0.749795 0.705431
O O3 0.370523 0.812381 0.550335
O O4 0.337359 0.000000 0.593413
O O5 0.506595 0.500000 0.766623
O O6 0.574213 0.732949 0.792730
O O7 0.582349 0.711928 0.908555
O O8 0.700279 0.500000 0.765145
O O9 0.681446 0.719134 0.812555
O O10 0.716593 0.778343 0.744272
O O11 0.838843 0.660009 0.929323
O O12 0.427516 0.500000 0.845506
O O13 0.486348 0.221521 0.890003
O O14 0.340051 0.273197 0.794201
O O15 0.500000 0.339223 0.000000
O O16 0.591679 0.500000 0.751183
O O17 0.503635 0.738583 0.623842
O O18 0.048857 0.500000 0.896678
O O19 0.072342 0.500000 0.459703
O O20 0.165141 0.263335 0.588653
O O21 0.753414 0.500000 0.289608
#
# Coordination Sequence:
#
# PCOD9224513 Si02
#       8
#     8   8   8   8   8   8   8   8
#     4  10  20  35  55  82 114 149 189 232 282 337
#     4  10  21  38  59  81 110 148 191 236 282 336
#     4  10  22  39  58  82 114 148 186 235 286 335
#     4  10  20  36  58  81 112 152 190 230 276 334
#     4   9  20  40  61  81 109 148 190 233 282 336
#     4  11  23  37  56  85 117 148 186 234 287 343
#     4   9  20  37  56  81 114 147 183 232 282 328
#     4  10  21  37  57  84 114 148 189 229 276 335
#
# _framework density 9.8765429999999999
#
# number of rings (size 3 to 8) (size 9 to 14) (size 15 to 20)
#    0.000    2.125    1.250    1.125    1.750    4.250 
#    0.000    2.500    0.000    0.000    0.000    0.000 
#    0.000    0.000    0.000    0.000    0.000    0.000 
#
# Total GULP energy -178153.460041 kJ/mol
# GULP energy per Si atom -5567.295626 kJ/mol
# Density = 0.985406 g / cm^3
# Si number density = 9.876543 Si / 1000 Ang^3
#
#
#
# Elastic Constant Matrix: (Units=GPa)
#
#
# Indices 1 2 3 4 5 6 
#
# 1 84.7133 21.7309 10.1574 0.0000 19.2530 0.0000
# 2 21.7309 16.4092 3.9127 0.0000 6.3505 0.0000
# 3 10.1574 3.9127 -13.2455 0.0000 -24.5240 0.0000
# 4 0.0000 0.0000 0.0000 475.0182 0.0000 -122.9781
# 5 19.2530 6.3505 -24.5240 0.0000 10.1861 0.0000
# 6 0.0000 0.0000 0.0000 -122.9781 0.0000 66.7447
#
#
#
# Elastic Compliance Matrix: (Units=1/GPa)
#
#
# Indices 1 2 3 4 5 6 
#
# 1 0.017352 -0.024459 0.007068 0.000000 -0.000533 0.000000
# 2 -0.024459 0.091454 0.005172 0.000000 0.001667 0.000000
# 3 0.007068 0.005172 -0.006934 0.000000 -0.033279 0.000000
# 4 0.000000 0.000000 0.000000 0.004025 0.000000 0.007417
# 5 -0.000533 0.001667 -0.033279 0.000000 0.018019 0.000000
# 6 0.000000 0.000000 0.000000 0.007417 0.000000 0.028648
#
#
# Mechanical properties :
#
#
# Convention : Reuss Voigt Hill
#
# Bulk Modulus (GPa) = 12.91408 17.71990 15.31699
# Shear Modulus (GPa) = 24.65312 113.86155 69.25734
#
# Velocity S-wave (km/s) = 3.53663 7.60050 5.92770
# Velocity P-wave (km/s) = 4.81964 9.27435 7.39062
#
# Compressibility (1/GPa) = 0.07743488
#
# Stress axis : x y z
#
# Youngs Moduli (GPa) = 57.62870 10.93443 -144.21368
#
# Poissons Ratio (x) = 0.26745 1.01929
# Poissons Ratio (y) = 1.40955 0.74594
# Poissons Ratio (z) = -0.40731 -0.05656
#
# Static dielectric constant tensor:
#      x y z
#    x 1.739960 0.000000 -0.152400 
#    y 0.000000 1.706960 0.000000 
#    z -0.152400 0.000000 1.908040 
# 
# From -- ./inp_files/249745.got.cif
#   From: 2010.05.17/outbox.ucp.g08.bks.cvg/sg12_125_cif.got.tgz:249745.got - 2010.06.11 11:47:21.
