data_PCOD9224599
_publ_section_title
;
Structure prediction by ZEFSAII (Michael W. Deem and Ramdas Pophale) SiO2 
 PCOD9224599
Probable space group: C 2/M
;
_chemical_formula_sum "Si O2"
_cell_formula_units_Z 24
_cell_length_a 30.000000
_cell_length_b 9.000000
_cell_length_c 18.000000
_cell_angle_alpha 90.000000
_cell_angle_beta 150.000000
_cell_angle_gamma 90.000000
_cell_volume 2430.000000
_symmetry_space_group_name_H-M "C 2/M"
_symmetry_group_IT_number 12
_symmetry_cell_setting 'monoclinic'
loop_
_space_group_symop_operation_xyz
x,y,z
-x,y,-z
-x,-y,-z
x,-y,z
1/2+x,1/2+y,z
1/2-x,1/2+y,-z
1/2-x,1/2-y,-z
1/2+x,1/2-y,z
loop_
_atom_site_type_symbol
_atom_site_label
_atom_site_fract_x
_atom_site_fract_y
_atom_site_fract_z
Si Si1 0.303885 0.676626 0.144871
Si Si2 0.698422 0.330212 0.123517
Si Si3 0.014618 0.175569 0.664522
Si Si4 0.818307 0.828858 0.395730
Si Si5 0.474108 0.828880 0.159416
Si Si6 0.672877 0.176722 0.437105
O O1 0.295277 0.500000 0.129978
O O2 0.256491 0.736258 0.149285
O O3 0.407988 0.712696 0.281906
O O4 0.250000 0.750000 0.000000
O O5 0.702246 0.500000 0.107217
O O6 0.746829 0.291746 0.269006
O O7 0.598563 0.273871 0.982739
O O8 0.024373 0.274775 0.752350
O O9 0.913107 0.191071 0.491141
O O10 0.025316 0.000000 0.700303
O O11 0.835403 0.786865 0.504920
O O12 0.789732 0.000000 0.345087
O O13 0.570866 0.819880 0.261301
O O14 0.445044 0.000000 0.116342
O O15 0.750000 0.250000 0.500000
O O16 0.690137 0.000000 0.477879
#
# Coordination Sequence:
#
# PCOD9224599 Si02
#       6
#     8   8   8   8   8   8
#     4  11  21  34  54  82 113 150 196 241 281 329
#     4  12  24  37  54  81 117 155 192 236 286 333
#     4   9  19  35  56  80 109 148 193 236 281 333
#     4  10  21  39  60  83 114 150 187 235 288 336
#     4  10  20  35  58  84 112 147 189 232 277 333
#     4  10  21  39  64  92 116 144 182 226 278 341
#
# _framework density 9.8765429999999999
#
# number of rings (size 3 to 8) (size 9 to 14) (size 15 to 20)
#    0.000    1.667    1.667    3.500    0.000    4.000 
#    0.000    4.167    0.000    5.000    0.000    0.000 
#    0.000    0.000    0.000    0.000    0.000    0.000 
#
# Total GULP energy -133761.814390 kJ/mol
# GULP energy per Si atom -5573.408933 kJ/mol
# Density = 0.985406 g / cm^3
# Si number density = 9.876543 Si / 1000 Ang^3
#
#
#
# Elastic Constant Matrix: (Units=GPa)
#
#
# Indices 1 2 3 4 5 6 
#
# 1 56.8005 21.1101 23.5550 0.0000 35.2530 0.0000
# 2 21.1101 85.2611 29.6694 0.0000 24.5188 0.0000
# 3 23.5550 29.6694 60.2261 0.0000 18.9625 0.0000
# 4 0.0000 0.0000 0.0000 22.8088 0.0000 2.7812
# 5 35.2530 24.5188 18.9625 0.0000 22.5791 0.0000
# 6 0.0000 0.0000 0.0000 2.7812 0.0000 28.1225
#
#
#
# Elastic Compliance Matrix: (Units=1/GPa)
#
#
# Indices 1 2 3 4 5 6 
#
# 1 -0.282706 -0.079327 -0.022362 0.000000 0.546314 0.000000
# 2 -0.079327 -0.004646 -0.009884 0.000000 0.137201 0.000000
# 3 -0.022362 -0.009884 0.021544 0.000000 0.027553 0.000000
# 4 0.000000 0.000000 0.000000 0.044378 0.000000 -0.004389
# 5 0.546314 0.137201 0.027553 0.000000 -0.980804 0.000000
# 6 0.000000 0.000000 0.000000 -0.004389 0.000000 0.035993
#
#
# Mechanical properties :
#
#
# Convention : Reuss Voigt Hill
#
# Bulk Modulus (GPa) = -2.04518 38.99519 18.47500
# Shear Modulus (GPa) = -4.52047 23.23229 9.35591
#
# Velocity S-wave (km/s) = -1.51442 3.43320 2.17870
# Velocity P-wave (km/s) = 2.02375 5.95819 3.96260
#
# Compressibility (1/GPa) = -0.48895402
#
# Stress axis : x y z
#
# Youngs Moduli (GPa) = -3.53724 -215.23397 46.41715
#
# Poissons Ratio (x) = -17.07394 1.03796
# Poissons Ratio (y) = -0.28060 0.45878
# Poissons Ratio (z) = -0.07910 -2.12734
#
# Static dielectric constant tensor:
#      x y z
#    x 1.468010 0.000000 -0.203280 
#    y 0.000000 1.660630 0.000000 
#    z -0.203280 0.000000 1.761880 
# 
# From -- ./inp_files/295361.got.cif
#   From: 2010.05.17/outbox.ucp.g08.bks.cvg/sg12_148_cif.got.tgz:295361.got - 2010.06.11 11:47:21.
