data_PCOD9224567
_publ_section_title
;
Structure prediction by ZEFSAII (Michael W. Deem and Ramdas Pophale) SiO2 
 PCOD9224567
Probable space group: C 2/M
;
_chemical_formula_sum "Si O2"
_cell_formula_units_Z 24
_cell_length_a 21.000000
_cell_length_b 9.000000
_cell_length_c 27.000000
_cell_angle_alpha 90.000000
_cell_angle_beta 30.000000
_cell_angle_gamma 90.000000
_cell_volume 2551.500000
_symmetry_space_group_name_H-M "C 2/M"
_symmetry_group_IT_number 12
_symmetry_cell_setting 'monoclinic'
loop_
_space_group_symop_operation_xyz
x,y,z
-x,y,-z
-x,-y,-z
x,-y,z
1/2+x,1/2+y,z
1/2-x,1/2+y,-z
1/2-x,1/2-y,-z
1/2+x,1/2-y,z
loop_
_atom_site_type_symbol
_atom_site_label
_atom_site_fract_x
_atom_site_fract_y
_atom_site_fract_z
Si Si1 0.003873 0.822942 0.604041
Si Si2 0.775508 0.677635 0.371848
Si Si3 0.521430 0.680751 0.929488
Si Si4 0.022414 0.678751 0.270770
Si Si5 0.226094 0.678558 0.299188
Si Si6 0.728831 0.679014 0.960959
O O1 0.903742 0.749167 0.633789
O O2 0.148105 0.793246 0.489243
O O3 0.983914 0.756846 0.672017
O O4 0.984733 0.000000 0.617096
O O5 0.781885 0.500000 0.357868
O O6 0.901356 0.719191 0.318067
O O7 0.761527 0.763023 0.329674
O O8 0.518779 0.500000 0.932145
O O9 0.657705 0.722728 0.815439
O O10 0.500000 0.732531 0.000000
O O11 0.404242 0.728293 0.973820
O O12 0.019250 0.500000 0.280276
O O13 0.152982 0.715905 0.154453
O O14 0.215365 0.500000 0.306615
O O15 0.725857 0.500000 0.967804
O O16 0.750000 0.750000 0.000000
#
# Coordination Sequence:
#
# PCOD9224567 Si02
#       6
#     8   8   8   8   8   8
#     4  11  23  38  57  81 112 148 184 228 280 328
#     4  10  22  39  57  81 114 147 180 226 281 329
#     4   9  18  34  55  79 108 141 178 221 268 317
#     4  10  21  38  60  84 111 145 185 228 274 328
#     4  11  22  36  58  84 110 146 189 228 269 325
#     4  10  20  35  57  83 111 143 178 221 272 325
#
# _framework density 9.4062319999999993
#
# number of rings (size 3 to 8) (size 9 to 14) (size 15 to 20)
#    0.000    1.833    0.000    4.000    0.000    7.333 
#    0.000    0.833    0.000    3.500    0.000    0.000 
#    0.000    0.000    0.000    0.000    0.000    0.000 
#
# Total GULP energy -134133.380986 kJ/mol
# GULP energy per Si atom -5588.890874 kJ/mol
# Density = 0.938482 g / cm^3
# Si number density = 9.406232 Si / 1000 Ang^3
#
#
#
# Elastic Constant Matrix: (Units=GPa)
#
#
# Indices 1 2 3 4 5 6 
#
# 1 46.2366 4.5278 -29.0495 -0.0069 -2.1510 0.0102
# 2 4.5278 20.3671 12.8258 -0.0053 3.7926 0.0059
# 3 -29.0495 12.8258 41.3519 -0.0040 -2.4089 0.0061
# 4 -0.0069 -0.0053 -0.0040 23.6985 0.0014 4.8582
# 5 -2.1510 3.7926 -2.4089 0.0014 44.6915 -0.0023
# 6 0.0102 0.0059 0.0061 4.8582 -0.0023 40.3626
#
#
#
# Elastic Compliance Matrix: (Units=1/GPa)
#
#
# Indices 1 2 3 4 5 6 
#
# 1 0.075103 -0.065686 0.073900 0.000023 0.013172 -0.000023
# 2 -0.065686 0.120239 -0.084482 -0.000008 -0.017919 0.000012
# 3 0.073900 -0.084482 0.103249 0.000024 0.016291 -0.000024
# 4 0.000023 -0.000008 0.000024 0.043264 0.000001 -0.005207
# 5 0.013172 -0.017919 0.016291 0.000001 0.025408 -0.000002
# 6 -0.000023 0.000012 -0.000024 -0.005207 -0.000002 0.025402
#
#
# Mechanical properties :
#
#
# Convention : Reuss Voigt Hill
#
# Bulk Modulus (GPa) = 6.84670 9.39597 8.12134
# Shear Modulus (GPa) = 8.41912 29.72727 19.07319
#
# Velocity S-wave (km/s) = 2.11778 3.97947 3.18757
# Velocity P-wave (km/s) = 3.10280 5.11081 4.22775
#
# Compressibility (1/GPa) = 0.14605576
#
# Stress axis : x y z
#
# Youngs Moduli (GPa) = 13.31505 8.31677 9.68532
#
# Poissons Ratio (x) = 0.54630 -0.71575
# Poissons Ratio (y) = 0.87461 0.81823
# Poissons Ratio (z) = -0.98398 0.70261
#
# Static dielectric constant tensor:
#      x y z
#    x 1.613720 0.000000 -0.007550 
#    y 0.000000 1.633990 0.000000 
#    z -0.007550 0.000000 1.640250 
# 
# From -- ./inp_files/365343.got.cif
#   From: 2010.05.17/outbox.ucp.g08.bks.cvg/sg12_183_cif.got.tgz:365343.got - 2010.06.11 11:47:21.
