data_PCOD9224624
_publ_section_title
;
Structure prediction by ZEFSAII (Michael W. Deem and Ramdas Pophale) SiO2 
 PCOD9224624
Probable space group: C 2/M
;
_chemical_formula_sum "Si O2"
_cell_formula_units_Z 32
_cell_length_a 21.000000
_cell_length_b 9.000000
_cell_length_c 18.000000
_cell_angle_alpha 90.000000
_cell_angle_beta 90.000000
_cell_angle_gamma 90.000000
_cell_volume 3402.000000
_symmetry_space_group_name_H-M "C 2/M"
_symmetry_group_IT_number 12
_symmetry_cell_setting 'monoclinic'
loop_
_space_group_symop_operation_xyz
x,y,z
-x,y,-z
-x,-y,-z
x,-y,z
1/2+x,1/2+y,z
1/2-x,1/2+y,-z
1/2-x,1/2-y,-z
1/2+x,1/2-y,z
loop_
_atom_site_type_symbol
_atom_site_label
_atom_site_fract_x
_atom_site_fract_y
_atom_site_fract_z
Si Si1 0.134478 0.819769 0.930029
Si Si2 0.645733 0.677524 0.094278
Si Si3 0.243843 0.821742 0.812667
Si Si4 0.480328 0.176453 0.295234
Si Si5 0.345281 0.673049 0.317913
Si Si6 0.000722 0.821988 0.138227
Si Si7 0.682298 0.672361 0.507326
Si Si8 0.550615 0.320623 0.434446
O O1 0.185362 0.778531 0.867188
O O2 0.062206 0.775039 0.908304
O O3 0.133024 0.000000 0.933521
O O4 0.158812 0.767457 0.010387
O O5 0.655982 0.500000 0.098285
O O6 0.691654 0.750275 0.155603
O O7 0.570020 0.703136 0.103160
O O8 0.216615 0.783099 0.730720
O O9 0.251740 0.000000 0.815344
O O10 0.407242 0.229943 0.302166
O O11 0.501571 0.237948 0.215947
O O12 0.523294 0.247879 0.360109
O O13 0.484351 0.000000 0.299398
O O14 0.359519 0.500000 0.297491
O O15 0.334557 0.679166 0.405620
O O16 0.994400 0.000000 0.150180
O O17 0.690000 0.500000 0.486527
O O18 0.750000 0.750000 0.500000
O O19 0.621280 0.729354 0.460358
O O20 0.500000 0.287795 0.500000
O O21 0.551832 0.500000 0.425876
#
# Coordination Sequence:
#
# PCOD9224624 Si02
#       8
#     8   8   8   8   8   8   8   8
#     4   9  17  34  60  85 108 149 200 238 281 342
#     4  10  21  35  56  86 117 148 191 246 289 333
#     4  10  20  35  59  84 114 154 190 233 289 349
#     4  12  24  36  58  91 120 146 188 248 295 330
#     4  10  20  40  63  82 110 156 200 230 278 347
#     4  10  20  38  60  81 113 155 197 235 283 349
#     4  10  22  39  62  89 118 153 190 234 283 337
#     4  10  20  39  65  87 114 155 197 228 274 346
#
# _framework density 9.4062319999999993
#
# number of rings (size 3 to 8) (size 9 to 14) (size 15 to 20)
#    0.000    1.875    2.500    1.875    0.000    4.750 
#    0.000    3.125    0.000    1.500    0.000    0.000 
#    0.000    0.000    0.000    0.000    0.000    0.000 
#
# Total GULP energy -178549.065655 kJ/mol
# GULP energy per Si atom -5579.658302 kJ/mol
# Density = 0.938482 g / cm^3
# Si number density = 9.406232 Si / 1000 Ang^3
#
#
#
# Elastic Constant Matrix: (Units=GPa)
#
#
# Indices 1 2 3 4 5 6 
#
# 1 87.3992 23.2150 12.3028 0.0000 26.8417 0.0000
# 2 23.2150 20.7740 15.8057 0.0000 0.4891 0.0000
# 3 12.3028 15.8057 61.8992 0.0000 28.1951 0.0000
# 4 0.0000 0.0000 0.0000 14.8151 0.0000 8.8453
# 5 26.8417 0.4891 28.1951 0.0000 35.4795 0.0000
# 6 0.0000 0.0000 0.0000 8.8453 0.0000 30.4957
#
#
#
# Elastic Compliance Matrix: (Units=1/GPa)
#
#
# Indices 1 2 3 4 5 6 
#
# 1 0.055917 -0.099973 0.051809 0.000000 -0.082098 0.000000
# 2 -0.099973 0.246542 -0.119097 0.000000 0.166880 0.000000
# 3 0.051809 -0.119097 0.083657 0.000000 -0.104035 0.000000
# 4 0.000000 0.000000 0.000000 0.081636 0.000000 -0.023678
# 5 -0.082098 0.166880 -0.104035 0.000000 0.170671 0.000000
# 6 0.000000 0.000000 0.000000 -0.023678 0.000000 0.039659
#
#
# Mechanical properties :
#
#
# Convention : Reuss Voigt Hill
#
# Bulk Modulus (GPa) = 19.38204 30.30215 24.84209
# Shear Modulus (GPa) = 4.85530 24.07466 14.46498
#
# Velocity S-wave (km/s) = 1.60826 3.58120 2.77592
# Velocity P-wave (km/s) = 3.71131 5.76562 4.84852
#
# Compressibility (1/GPa) = 0.05159416
#
# Stress axis : x y z
#
# Youngs Moduli (GPa) = 17.88355 4.05610 11.95361
#
# Poissons Ratio (x) = 0.40550 -0.61931
# Poissons Ratio (y) = 1.78788 1.42364
# Poissons Ratio (z) = -0.92654 0.48307
#
# Static dielectric constant tensor:
#      x y z
#    x 1.667740 0.000000 -0.030010 
#    y 0.000000 1.639960 0.000000 
#    z -0.030010 0.000000 1.671470 
# 
# From -- ./inp_files/281328.got.cif
#   From: 2010.05.17/outbox.ucp.g08.bks.cvg/sg12_141_cif.got.tgz:281328.got - 2010.06.11 11:47:21.
