data_PCOD9224377
_publ_section_title
;
Structure prediction by ZEFSAII (Michael W. Deem and Ramdas Pophale) SiO2 
 PCOD9224377
Probable space group: C 2/M
;
_chemical_formula_sum "Si O2"
_cell_formula_units_Z 32
_cell_length_a 18.000000
_cell_length_b 9.000000
_cell_length_c 30.000000
_cell_angle_alpha 90.000000
_cell_angle_beta 40.000000
_cell_angle_gamma 90.000000
_cell_volume 3123.947783
_symmetry_space_group_name_H-M "C 2/M"
_symmetry_group_IT_number 12
_symmetry_cell_setting 'monoclinic'
loop_
_space_group_symop_operation_xyz
x,y,z
-x,y,-z
-x,-y,-z
x,-y,z
1/2+x,1/2+y,z
1/2-x,1/2+y,-z
1/2-x,1/2-y,-z
1/2+x,1/2-y,z
loop_
_atom_site_type_symbol
_atom_site_label
_atom_site_fract_x
_atom_site_fract_y
_atom_site_fract_z
Si Si1 0.718233 0.327712 0.968968
Si Si2 0.001040 0.824601 0.710834
Si Si3 0.421665 0.831005 0.455680
Si Si4 0.070924 0.821455 0.161733
Si Si5 0.710060 0.165134 0.579562
Si Si6 0.136065 0.819748 0.314188
Si Si7 0.508600 0.832404 0.943211
Si Si8 0.629248 0.320856 0.815695
O O1 0.742388 0.500000 0.958832
O O2 0.801296 0.243805 0.897300
O O3 0.750000 0.250000 0.000000
O O4 0.586254 0.292275 0.022497
O O5 0.980295 0.762709 0.768962
O O6 0.915505 0.775220 0.710917
O O7 0.130693 0.785747 0.639035
O O8 0.985968 0.000000 0.720165
O O9 0.347238 0.842063 0.443636
O O10 0.340287 0.721966 0.520872
O O11 0.542995 0.752603 0.390111
O O12 0.434468 0.000000 0.466344
O O13 0.986174 0.782471 0.159834
O O14 0.078575 0.000000 0.157196
O O15 0.698896 0.000000 0.603697
O O16 0.260420 0.744227 0.260589
O O17 0.139600 0.000000 0.315868
O O18 0.619812 0.767123 0.866979
O O19 0.484552 0.000000 0.936661
O O20 0.500000 0.845126 0.000000
O O21 0.636058 0.500000 0.817518
#
# Coordination Sequence:
#
# PCOD9224377 Si02
#       8
#     8   8   8   8   8   8   8   8
#     4  12  24  40  63  88 114 148 190 236 282 337
#     4   9  19  35  55  80 110 146 186 227 277 332
#     4   9  16  28  48  75 108 146 184 224 273 330
#     4  10  22  40  60  82 111 151 191 231 278 334
#     4   9  16  27  47  77 111 142 179 227 276 325
#     4  10  20  34  54  81 113 147 185 231 281 334
#     4  11  25  43  63  86 115 150 188 234 288 340
#     4  11  23  39  59  82 113 150 188 231 279 337
#
# _framework density 10.243449
#
# number of rings (size 3 to 8) (size 9 to 14) (size 15 to 20)
#    0.000    1.875    1.250    3.000    1.750    5.500 
#    0.000    0.000    0.000    0.750    0.000    5.250 
#    0.000    0.000    0.000    0.000    0.000    0.000 
#
# Total GULP energy -178231.547650 kJ/mol
# GULP energy per Si atom -5569.735864 kJ/mol
# Density = 1.022013 g / cm^3
# Si number density = 10.243449 Si / 1000 Ang^3
#
#
#
# Elastic Constant Matrix: (Units=GPa)
#
#
# Indices 1 2 3 4 5 6 
#
# 1 -4.7373 -3.8077 -0.7960 0.0000 -6.5811 0.0004
# 2 -3.8077 3.3167 -41.3083 0.0006 -10.5736 0.0009
# 3 -0.7960 -41.3083 15.4492 0.0000 -29.8413 0.0001
# 4 0.0000 0.0006 0.0000 20.3707 0.0000 -7.4425
# 5 -6.5811 -10.5736 -29.8413 0.0000 22.9957 0.0000
# 6 0.0004 0.0009 0.0001 -7.4425 0.0000 14.7079
#
#
#
# Elastic Compliance Matrix: (Units=1/GPa)
#
#
# Indices 1 2 3 4 5 6 
#
# 1 -0.213570 0.025317 0.025811 0.000001 -0.015985 0.000004
# 2 0.025317 0.004778 -0.021450 -0.000001 -0.018394 -0.000001
# 3 0.025811 -0.021450 -0.002603 0.000001 -0.005854 0.000001
# 4 0.000001 -0.000001 0.000001 0.060224 0.000001 0.030475
# 5 -0.015985 -0.018394 -0.005854 0.000001 0.022857 0.000002
# 6 0.000004 -0.000001 0.000001 0.030475 0.000002 0.083412
#
#
# Mechanical properties :
#
#
# Convention : Reuss Voigt Hill
#
# Bulk Modulus (GPa) = -6.57720 -8.64393 -7.61057
# Shear Modulus (GPa) = -32.27120 15.61089 -8.33016
#
# Velocity S-wave (km/s) = -3.97320 2.76342 -2.01864
# Velocity P-wave (km/s) = 4.92604 2.43999 3.02591
#
# Compressibility (1/GPa) = -0.15204027
#
# Stress axis : x y z
#
# Youngs Moduli (GPa) = -4.68231 209.31379 -384.16793
#
# Poissons Ratio (x) = -5.29911 9.91576
# Poissons Ratio (y) = 0.11854 -8.24044
# Poissons Ratio (z) = 0.12086 4.48980
#
# Static dielectric constant tensor:
#      x y z
#    x 1.756550 0.000000 0.007590 
#    y 0.000000 1.691570 0.000000 
#    z 0.007590 0.000000 1.882880 
# 
# From -- ./inp_files/378191.got.cif
#   From: 2010.05.17/outbox.ucp.g08.bks.cvg/sg12_190_cif.got.tgz:378191.got - 2010.06.11 11:47:21.
