data_PCOD9224893
_publ_section_title
;
Structure prediction by ZEFSAII (Michael W. Deem and Ramdas Pophale) SiO2 
 PCOD9224893
Probable space group: C 2/M
;
_chemical_formula_sum "Si O2"
_cell_formula_units_Z 32
_cell_length_a 30.000000
_cell_length_b 21.000000
_cell_length_c 15.000000
_cell_angle_alpha 90.000000
_cell_angle_beta 20.000000
_cell_angle_gamma 90.000000
_cell_volume 3232.090354
_symmetry_space_group_name_H-M "C 2/M"
_symmetry_group_IT_number 12
_symmetry_cell_setting 'monoclinic'
loop_
_space_group_symop_operation_xyz
x,y,z
-x,y,-z
-x,-y,-z
x,-y,z
1/2+x,1/2+y,z
1/2-x,1/2+y,-z
1/2-x,1/2-y,-z
1/2+x,1/2-y,z
loop_
_atom_site_type_symbol
_atom_site_label
_atom_site_fract_x
_atom_site_fract_y
_atom_site_fract_z
Si Si1 0.148978 0.694966 0.543550
Si Si2 0.208909 0.168333 0.894657
Si Si3 0.141811 0.575787 0.689237
Si Si4 0.358335 0.928713 0.719813
Si Si5 0.268572 0.071295 0.078302
Si Si6 0.621889 0.194326 0.041130
Si Si7 0.029989 0.075677 0.661993
Si Si8 0.702690 0.337589 0.461765
O O1 0.268700 0.679087 0.252917
O O2 0.128541 0.629056 0.635880
O O3 0.164858 0.764523 0.562514
O O4 0.025545 0.706513 0.711182
O O5 0.330942 0.131610 0.709118
O O6 0.176931 0.241023 0.983767
O O7 0.096569 0.116679 0.123578
O O8 0.180331 0.500000 0.598359
O O9 0.233817 0.615621 0.584475
O O10 0.000000 0.571047 0.000000
O O11 0.500000 0.925831 0.500000
O O12 0.346911 0.000000 0.699331
O O13 0.258339 0.926228 0.991150
O O14 0.134334 0.077214 0.385042
O O15 0.322137 0.000000 0.999587
O O16 0.357217 0.130512 0.941169
O O17 0.699012 0.178128 0.804466
O O18 0.091924 0.117892 0.625626
O O19 0.007750 0.000000 0.724193
#
# Coordination Sequence:
#
# PCOD9224893 Si02
#       8
#     8   8   8   8   8   8   8   8
#     4  11  22  39  60  86 120 155 195 243 297 352
#     4  11  23  37  60  88 119 160 197 238 298 355
#     4  11  23  38  60  90 118 149 196 248 295 347
#     4  10  21  39  60  87 123 158 198 245 296 348
#     4   9  20  37  60  87 115 157 200 245 297 342
#     4  10  20  37  61  87 117 150 202 246 290 352
#     4  10  20  37  61  87 120 158 199 240 290 353
#     4  10  20  39  61  86 117 156 195 243 293 351
#
# _framework density 9.9007129999999997
#
# number of rings (size 3 to 8) (size 9 to 14) (size 15 to 20)
#    0.000    1.750    2.500    1.875    0.000    3.000 
#    0.000    2.500    0.000    1.500    0.000    0.000 
#    0.000    0.000    0.000    0.000    0.000    0.000 
#
# Total GULP energy -178190.252747 kJ/mol
# GULP energy per Si atom -5568.445398 kJ/mol
# Density = 0.987818 g / cm^3
# Si number density = 9.900713 Si / 1000 Ang^3
#
#
#
# Elastic Constant Matrix: (Units=GPa)
#
#
# Indices 1 2 3 4 5 6 
#
# 1 43.5304 46.6525 6.3909 -0.0007 -7.0324 0.0008
# 2 46.6525 224.7560 32.6077 -0.0002 -3.7169 0.0004
# 3 6.3909 32.6077 43.2742 0.0005 -9.7010 0.0002
# 4 -0.0007 -0.0002 0.0005 32.0862 0.0003 0.0774
# 5 -7.0324 -3.7169 -9.7010 0.0003 22.4854 -0.0005
# 6 0.0008 0.0004 0.0002 0.0774 -0.0005 57.3762
#
#
#
# Elastic Compliance Matrix: (Units=1/GPa)
#
#
# Indices 1 2 3 4 5 6 
#
# 1 0.031396 -0.006738 0.002648 0.000001 0.009848 0.000000
# 2 -0.006738 0.006457 -0.004543 0.000000 -0.003000 0.000000
# 3 0.002648 -0.004543 0.028959 -0.000001 0.012571 0.000000
# 4 0.000001 0.000000 -0.000001 0.031166 -0.000001 -0.000042
# 5 0.009848 -0.003000 0.012571 -0.000001 0.052481 0.000000
# 6 0.000000 0.000000 0.000000 -0.000042 0.000000 0.017429
#
#
# Mechanical properties :
#
#
# Convention : Reuss Voigt Hill
#
# Bulk Modulus (GPa) = 20.18318 53.65142 36.91730
# Shear Modulus (GPa) = 24.79299 37.45019 31.12159
#
# Velocity S-wave (km/s) = 3.54231 4.35361 3.96875
# Velocity P-wave (km/s) = 5.19091 7.24054 6.29964
#
# Compressibility (1/GPa) = 0.04954620
#
# Stress axis : x y z
#
# Youngs Moduli (GPa) = 31.85108 154.86028 34.53181
#
# Poissons Ratio (x) = 1.04349 -0.09145
# Poissons Ratio (y) = 0.21462 0.15688
# Poissons Ratio (z) = -0.08435 0.70356
#
# Static dielectric constant tensor:
#      x y z
#    x 1.732790 0.000000 -0.016050 
#    y 0.000000 1.704840 0.000000 
#    z -0.016050 0.000000 1.769080 
# 
# From -- ./inp_files/251916.got.cif
#   From: 2010.05.17/outbox.ucp.g08.bks.cvg/sg12_126_cif.got.tgz:251916.got - 2010.06.11 11:47:21.
