data_PCOD9224497
_publ_section_title
;
Structure prediction by ZEFSAII (Michael W. Deem and Ramdas Pophale) SiO2 
 PCOD9224497
Probable space group: C 2/M
;
_chemical_formula_sum "Si O2"
_cell_formula_units_Z 24
_cell_length_a 15.000000
_cell_length_b 9.000000
_cell_length_c 18.000000
_cell_angle_alpha 90.000000
_cell_angle_beta 90.000000
_cell_angle_gamma 90.000000
_cell_volume 2430.000000
_symmetry_space_group_name_H-M "C 2/M"
_symmetry_group_IT_number 12
_symmetry_cell_setting 'monoclinic'
loop_
_space_group_symop_operation_xyz
x,y,z
-x,y,-z
-x,-y,-z
x,-y,z
1/2+x,1/2+y,z
1/2-x,1/2+y,-z
1/2-x,1/2-y,-z
1/2+x,1/2-y,z
loop_
_atom_site_type_symbol
_atom_site_label
_atom_site_fract_x
_atom_site_fract_y
_atom_site_fract_z
Si Si1 0.822333 0.177357 0.684002
Si Si2 0.115360 0.321798 0.703124
Si Si3 0.860793 0.166910 0.145805
Si Si4 0.649398 0.832299 0.167625
Si Si5 0.481460 0.320585 0.584663
Si Si6 0.605358 0.167961 0.006665
O O1 0.718094 0.220207 0.682151
O O2 0.868921 0.245057 0.757188
O O3 0.881963 0.218414 0.613077
O O4 0.823728 0.000000 0.691564
O O5 0.108308 0.500000 0.703463
O O6 0.097629 0.260806 0.786561
O O7 0.049944 0.251658 0.642647
O O8 0.756253 0.157958 0.164315
O O9 0.898197 0.000000 0.144032
O O10 0.865229 0.241378 0.065064
O O11 0.623029 0.764879 0.088081
O O12 0.611579 0.000000 0.171236
O O13 0.500000 0.274419 0.500000
O O14 0.490628 0.500000 0.588435
O O15 0.645115 0.000000 0.005602
O O16 0.500000 0.154898 0.000000
#
# Coordination Sequence:
#
# PCOD9224497 Si02
#       6
#     8   8   8   8   8   8
#     4   9  20  38  59  84 114 151 190 232 283 339
#     4  10  21  38  60  85 115 150 191 235 282 337
#     4  10  20  35  55  78 106 144 190 232 277 331
#     4   9  19  35  54  77 107 146 187 230 279 331
#     4  10  22  40  61  87 119 151 184 230 287 342
#     4  10  21  34  49  76 112 146 184 231 281 325
#
# _framework density 9.8765429999999999
#
# number of rings (size 3 to 8) (size 9 to 14) (size 15 to 20)
#    0.000    2.333    0.000    1.500    2.333    4.000 
#    0.000    0.000    0.000    0.000    0.000    0.000 
#    0.000    0.000    0.000    0.000    0.000    0.000 
#
# Total GULP energy -133885.887456 kJ/mol
# GULP energy per Si atom -5578.578644 kJ/mol
# Density = 0.985406 g / cm^3
# Si number density = 9.876543 Si / 1000 Ang^3
#
#
#
# Elastic Constant Matrix: (Units=GPa)
#
#
# Indices 1 2 3 4 5 6 
#
# 1 29.9010 3.6688 -6.1311 0.0000 -1.6576 0.0000
# 2 3.6688 24.0197 6.1687 0.0000 -7.0431 0.0000
# 3 -6.1311 6.1687 68.6755 0.0000 -9.0099 0.0000
# 4 0.0000 0.0000 0.0000 31.0422 0.0000 7.6841
# 5 -1.6576 -7.0431 -9.0099 0.0000 37.2603 0.0000
# 6 0.0000 0.0000 0.0000 7.6841 0.0000 15.9249
#
#
#
# Elastic Compliance Matrix: (Units=1/GPa)
#
#
# Indices 1 2 3 4 5 6 
#
# 1 0.035035 -0.005937 0.003840 0.000000 0.001365 0.000000
# 2 -0.005937 0.045672 -0.003650 0.000000 0.007486 0.000000
# 3 0.003840 -0.003650 0.015661 0.000000 0.003268 0.000000
# 4 0.000000 0.000000 0.000000 0.036584 0.000000 -0.017652
# 5 0.001365 0.007486 0.003268 0.000000 0.029104 0.000000
# 6 0.000000 0.000000 0.000000 -0.017652 0.000000 0.071312
#
#
# Mechanical properties :
#
#
# Convention : Reuss Voigt Hill
#
# Bulk Modulus (GPa) = 11.78230 14.44544 13.11387
# Shear Modulus (GPa) = 18.30469 24.77149 21.53809
#
# Velocity S-wave (km/s) = 3.04744 3.54511 3.30565
# Velocity P-wave (km/s) = 4.28488 4.90774 4.60685
#
# Compressibility (1/GPa) = 0.08487308
#
# Stress axis : x y z
#
# Youngs Moduli (GPa) = 28.54266 21.89527 63.85425
#
# Poissons Ratio (x) = 0.13000 -0.24521
# Poissons Ratio (y) = 0.16947 0.23309
# Poissons Ratio (z) = -0.10961 0.07993
#
# Static dielectric constant tensor:
#      x y z
#    x 1.721020 0.000000 -0.017820 
#    y 0.000000 1.714860 0.000000 
#    z -0.017820 0.000000 1.686110 
# 
# From -- ./inp_files/267691.got.cif
#   From: 2010.05.17/outbox.ucp.g08.bks.cvg/sg12_134_cif.got.tgz:267691.got - 2010.06.11 11:47:21.
