data_PCOD9224423
_publ_section_title
;
Structure prediction by ZEFSAII (Michael W. Deem and Ramdas Pophale) SiO2 
 PCOD9224423
Probable space group: C 2/M
;
_chemical_formula_sum "Si O2"
_cell_formula_units_Z 32
_cell_length_a 30.000000
_cell_length_b 9.000000
_cell_length_c 18.000000
_cell_angle_alpha 90.000000
_cell_angle_beta 40.000000
_cell_angle_gamma 90.000000
_cell_volume 3123.947783
_symmetry_space_group_name_H-M "C 2/M"
_symmetry_group_IT_number 12
_symmetry_cell_setting 'monoclinic'
loop_
_space_group_symop_operation_xyz
x,y,z
-x,y,-z
-x,-y,-z
x,-y,z
1/2+x,1/2+y,z
1/2-x,1/2+y,-z
1/2-x,1/2-y,-z
1/2+x,1/2-y,z
loop_
_atom_site_type_symbol
_atom_site_label
_atom_site_fract_x
_atom_site_fract_y
_atom_site_fract_z
Si Si1 0.859016 0.331325 0.095231
Si Si2 0.715374 0.173495 0.655406
Si Si3 0.793890 0.170747 0.055379
Si Si4 0.166567 0.172935 0.149394
Si Si5 0.606886 0.178572 0.674408
Si Si6 0.494861 0.674336 0.921271
Si Si7 0.645856 0.822633 0.464403
Si Si8 0.577462 0.675281 0.408476
O O1 0.881519 0.500000 0.051752
O O2 0.916709 0.212438 0.000181
O O3 0.839259 0.321380 0.206635
O O4 0.797469 0.284615 0.118979
O O5 0.677041 0.225407 0.629228
O O6 0.778383 0.269750 0.605695
O O7 0.736512 0.000000 0.619889
O O8 0.723033 0.207703 0.103233
O O9 0.796068 0.000000 0.077487
O O10 0.849457 0.196091 0.917527
O O11 0.108814 0.186516 0.285961
O O12 0.192038 0.000000 0.120820
O O13 0.545402 0.242737 0.801595
O O14 0.602230 0.221616 0.594022
O O15 0.606680 0.000000 0.678235
O O16 0.509725 0.500000 0.900957
O O17 0.500000 0.727902 0.000000
O O18 0.620400 0.751825 0.419973
O O19 0.644725 0.000000 0.458318
O O20 0.500000 0.736434 0.500000
O O21 0.574616 0.500000 0.431152
#
# Coordination Sequence:
#
# PCOD9224423 Si02
#       8
#     8   8   8   8   8   8   8   8
#     4  11  22  36  58  85 117 159 199 234 284 351
#     4  10  21  38  61  85 117 162 203 237 283 349
#     4  10  20  34  55  85 117 147 189 244 291 338
#     4   9  19  37  58  81 112 149 189 234 293 357
#     4  10  22  41  61  85 120 162 201 237 289 351
#     4  11  23  38  58  85 115 149 192 241 287 332
#     4  11  24  39  60  91 121 150 194 251 299 342
#     4  10  22  41  63  83 110 152 197 238 290 358
#
# _framework density 10.243449
#
# number of rings (size 3 to 8) (size 9 to 14) (size 15 to 20)
#    0.000    1.750    1.250    2.625    0.000    8.250 
#    0.000    1.250    0.000    0.000    0.000    0.000 
#    0.000    0.000    0.000    0.000    0.000    0.000 
#
# Total GULP energy -178453.893886 kJ/mol
# GULP energy per Si atom -5576.684184 kJ/mol
# Density = 1.022013 g / cm^3
# Si number density = 10.243449 Si / 1000 Ang^3
#
#
#
# Elastic Constant Matrix: (Units=GPa)
#
#
# Indices 1 2 3 4 5 6 
#
# 1 26.5209 3.7643 -7.5807 -0.0029 10.6777 0.0025
# 2 3.7643 16.6990 19.5688 -0.0059 8.6729 0.0055
# 3 -7.5807 19.5688 66.8023 -0.0113 6.0790 0.0056
# 4 -0.0029 -0.0059 -0.0113 24.2415 0.0013 2.3359
# 5 10.6777 8.6729 6.0790 0.0013 25.7799 -0.0005
# 6 0.0025 0.0055 0.0056 2.3359 -0.0005 22.6926
#
#
#
# Elastic Compliance Matrix: (Units=1/GPa)
#
#
# Indices 1 2 3 4 5 6 
#
# 1 0.050954 -0.016151 0.012201 0.000010 -0.018548 -0.000006
# 2 -0.016151 0.115208 -0.033379 0.000014 -0.024198 -0.000020
# 3 0.012201 -0.033379 0.026131 0.000006 0.000014 0.000000
# 4 0.000010 0.000014 0.000006 0.041665 -0.000012 -0.004289
# 5 -0.018548 -0.024198 0.000014 -0.000012 0.054610 0.000010
# 6 -0.000006 -0.000020 0.000000 -0.004289 0.000010 0.044509
#
#
# Mechanical properties :
#
#
# Convention : Reuss Voigt Hill
#
# Bulk Modulus (GPa) = 8.50087 15.72521 12.11304
# Shear Modulus (GPa) = 11.18704 20.82746 16.00725
#
# Velocity S-wave (km/s) = 2.33932 3.19191 2.79828
# Velocity P-wave (km/s) = 3.38452 4.61268 4.04548
#
# Compressibility (1/GPa) = 0.11763504
#
# Stress axis : x y z
#
# Youngs Moduli (GPa) = 19.62557 8.67994 38.26894
#
# Poissons Ratio (x) = 0.14019 -0.46693
# Poissons Ratio (y) = 0.31697 1.27739
# Poissons Ratio (z) = -0.23946 0.28973
#
# Static dielectric constant tensor:
#      x y z
#    x 1.833500 0.000000 0.008780 
#    y 0.000000 1.692690 0.000000 
#    z 0.008780 0.000000 1.825950 
# 
# From -- ./inp_files/295662.got.cif
#   From: 2010.05.17/outbox.ucp.g08.bks.cvg/sg12_148_cif.got.tgz:295662.got - 2010.06.11 11:47:21.
