data_PCOD9224467
_publ_section_title
;
Structure prediction by ZEFSAII (Michael W. Deem and Ramdas Pophale) SiO2 
 PCOD9224467
Probable space group: C 2/M
;
_chemical_formula_sum "Si O2"
_cell_formula_units_Z 32
_cell_length_a 18.000000
_cell_length_b 30.000000
_cell_length_c 21.000000
_cell_angle_alpha 90.000000
_cell_angle_beta 20.000000
_cell_angle_gamma 90.000000
_cell_volume 3878.508425
_symmetry_space_group_name_H-M "C 2/M"
_symmetry_group_IT_number 12
_symmetry_cell_setting 'monoclinic'
loop_
_space_group_symop_operation_xyz
x,y,z
-x,y,-z
-x,-y,-z
x,-y,z
1/2+x,1/2+y,z
1/2-x,1/2+y,-z
1/2-x,1/2-y,-z
1/2+x,1/2-y,z
loop_
_atom_site_type_symbol
_atom_site_label
_atom_site_fract_x
_atom_site_fract_y
_atom_site_fract_z
Si Si1 0.514912 0.203418 0.263203
Si Si2 0.686286 0.551075 0.207269
Si Si3 0.509231 0.181206 0.920129
Si Si4 0.489452 0.287569 0.932301
Si Si5 0.664642 0.706451 0.654469
Si Si6 0.254583 0.141130 0.378179
Si Si7 0.319320 0.947700 0.243924
Si Si8 0.440937 0.639509 0.741377
O O1 0.469107 0.248695 0.258932
O O2 0.387018 0.210483 0.433751
O O3 0.429047 0.161975 0.288952
O O4 0.763080 0.197308 0.083040
O O5 0.614005 0.500000 0.259965
O O6 0.694603 0.561823 0.276897
O O7 0.553557 0.586314 0.272079
O O8 0.930543 0.553724 0.981716
O O9 0.483063 0.233969 0.941133
O O10 0.714154 0.168284 0.712294
O O11 0.500000 0.164901 0.000000
O O12 0.302940 0.156891 0.055702
O O13 0.659992 0.297470 0.735640
O O14 0.500000 0.302206 0.000000
O O15 0.563072 0.663098 0.701090
O O16 0.280852 0.089907 0.329983
O O17 0.040017 0.152762 0.592141
O O18 0.274423 0.000000 0.298070
#
# Coordination Sequence:
#
# PCOD9224467 Si02
#       8
#     8   8   8   8   8   8   8   8
#     4  10  20  35  51  71  99 128 163 208 249 291
#     4   9  18  32  48  69 100 134 166 203 244 282
#     4  11  21  31  44  68  99 125 163 213 242 278
#     4  11  22  34  52  72  95 132 166 201 252 298
#     4  10  20  35  51  71  99 128 163 208 249 291
#     4  11  21  32  50  70  92 131 172 203 243 291
#     4   9  18  32  48  69 100 134 166 203 244 282
#     4  11  21  32  50  70  92 131 172 203 243 291
#
# _framework density 8.2505939999999995
#
# number of rings (size 3 to 8) (size 9 to 14) (size 15 to 20)
#    0.000    1.750    3.750    2.625    0.000    3.000 
#    0.000    3.750    0.000    0.000    0.000    0.000 
#    0.000    2.000    0.000    5.500    0.000    0.000 
#
# Total GULP energy -178150.559827 kJ/mol
# GULP energy per Si atom -5567.204995 kJ/mol
# Density = 0.823182 g / cm^3
# Si number density = 8.250594 Si / 1000 Ang^3
#
#
#
# Elastic Constant Matrix: (Units=GPa)
#
#
# Indices 1 2 3 4 5 6 
#
# 1 75.5139 29.1201 18.3646 -0.0043 29.2170 -0.0176
# 2 29.1201 89.7517 3.1850 0.0003 1.4844 0.0044
# 3 18.3646 3.1850 56.6514 -0.3313 20.2953 -0.0299
# 4 -0.0043 0.0003 -0.3313 19.3084 -0.0165 7.1504
# 5 29.2170 1.4844 20.2953 -0.0165 32.4459 0.0575
# 6 -0.0176 0.0044 -0.0299 7.1504 0.0575 33.4390
#
#
#
# Elastic Compliance Matrix: (Units=1/GPa)
#
#
# Indices 1 2 3 4 5 6 
#
# 1 0.024637 -0.007641 0.000342 -0.000029 -0.022050 0.000058
# 2 -0.007641 0.013535 -0.000679 -0.000001 0.006686 -0.000018
# 3 0.000342 -0.000679 0.022787 0.000393 -0.014530 -0.000038
# 4 -0.000029 -0.000001 0.000393 0.056252 -0.000170 -0.012028
# 5 -0.022050 0.006686 -0.014530 -0.000170 0.059459 -0.000091
# 6 0.000058 -0.000018 -0.000038 -0.012028 -0.000091 0.032477
#
#
# Mechanical properties :
#
#
# Convention : Reuss Voigt Hill
#
# Bulk Modulus (GPa) = 22.22110 35.91738 29.06924
# Shear Modulus (GPa) = 20.82427 28.45515 24.63971
#
# Velocity S-wave (km/s) = 3.55630 4.15713 3.86840
# Velocity P-wave (km/s) = 5.50986 6.69747 6.13248
#
# Compressibility (1/GPa) = 0.04500227
#
# Stress axis : x y z
#
# Youngs Moduli (GPa) = 40.58877 73.88501 43.88509
#
# Poissons Ratio (x) = 0.56456 -0.01502
# Poissons Ratio (y) = 0.31014 0.02981
# Poissons Ratio (z) = -0.01389 0.05020
#
# Static dielectric constant tensor:
#      x y z
#    x 1.553240 -0.000070 0.003190 
#    y -0.000070 1.579740 0.000330 
#    z 0.003190 0.000330 1.645880 
# 
# From -- ./inp_files/318636.got.cif
#   From: 2010.05.17/outbox.ucp.g08.bks.cvg/sg12_160_cif.got.tgz:318636.got - 2010.06.11 11:47:21.
