data_PCOD9224540
_publ_section_title
;
Structure prediction by ZEFSAII (Michael W. Deem and Ramdas Pophale) SiO2 
 PCOD9224540
Probable space group: C 2/M
;
_chemical_formula_sum "Si O2"
_cell_formula_units_Z 28
_cell_length_a 18.000000
_cell_length_b 9.000000
_cell_length_c 27.000000
_cell_angle_alpha 90.000000
_cell_angle_beta 140.000000
_cell_angle_gamma 90.000000
_cell_volume 2811.553005
_symmetry_space_group_name_H-M "C 2/M"
_symmetry_group_IT_number 12
_symmetry_cell_setting 'monoclinic'
loop_
_space_group_symop_operation_xyz
x,y,z
-x,y,-z
-x,-y,-z
x,-y,z
1/2+x,1/2+y,z
1/2-x,1/2+y,-z
1/2-x,1/2-y,-z
1/2+x,1/2-y,z
loop_
_atom_site_type_symbol
_atom_site_label
_atom_site_fract_x
_atom_site_fract_y
_atom_site_fract_z
Si Si1 0.307854 0.173201 0.720478
Si Si2 0.567128 0.166037 0.981221
Si Si3 0.981825 0.823239 0.735770
Si Si4 0.952881 0.819062 0.423313
Si Si5 0.865544 0.164020 0.841412
Si Si6 0.373433 0.678665 0.573783
Si Si7 0.226437 0.330689 0.873439
O O1 0.399736 0.268707 0.737697
O O2 0.179012 0.227730 0.644986
O O3 0.322815 0.202153 0.785993
O O4 0.319395 0.000000 0.713454
O O5 0.498511 0.295532 0.918452
O O6 0.559882 0.000000 0.955809
O O7 0.500000 0.158479 0.000000
O O8 0.697270 0.219700 0.054802
O O9 0.919208 0.786931 0.651888
O O10 0.100992 0.735336 0.800550
O O11 0.001548 0.000000 0.747485
O O12 0.000000 0.770931 0.500000
O O13 0.032406 0.769551 0.418564
O O14 0.952870 0.000000 0.421550
O O15 0.795388 0.164081 0.856597
O O16 0.852147 0.000000 0.812084
O O17 0.363017 0.500000 0.564356
O O18 0.250000 0.750000 0.500000
O O19 0.221578 0.500000 0.890052
#
# Coordination Sequence:
#
# PCOD9224540 Si02
#       7
#     8   8   8   8   8   8   8
#     4  11  22  37  58  81 109 148 192 234 281 337
#     4   9  17  31  54  83 113 146 186 230 277 331
#     4  11  23  38  55  79 114 151 189 235 283 331
#     4   9  18  34  57  83 110 142 182 227 274 328
#     4  10  20  35  56  83 115 147 184 232 282 334
#     4  10  21  37  58  84 113 146 184 228 279 333
#     4  10  20  35  57  84 113 148 189 231 279 335
#
# _framework density 9.9589090000000002
#
# number of rings (size 3 to 8) (size 9 to 14) (size 15 to 20)
#    0.000    2.000    0.000    3.857    0.000    6.857 
#    0.000    2.143    0.000    3.857    0.000    0.000 
#    0.000    0.000    0.000    0.000    0.000    0.000 
#
# Total GULP energy -156177.963771 kJ/mol
# GULP energy per Si atom -5577.784420 kJ/mol
# Density = 0.993624 g / cm^3
# Si number density = 9.958909 Si / 1000 Ang^3
#
#
#
# Elastic Constant Matrix: (Units=GPa)
#
#
# Indices 1 2 3 4 5 6 
#
# 1 20.8478 18.9136 0.8893 0.0000 23.4057 0.0000
# 2 18.9136 52.4020 10.8358 0.0000 20.4567 0.0000
# 3 0.8893 10.8358 61.7274 0.0000 39.8346 0.0000
# 4 0.0000 0.0000 0.0000 27.2013 0.0000 1.7046
# 5 23.4057 20.4567 39.8346 0.0000 27.8159 0.0000
# 6 0.0000 0.0000 0.0000 1.7046 0.0000 -17.7638
#
#
#
# Elastic Compliance Matrix: (Units=1/GPa)
#
#
# Indices 1 2 3 4 5 6 
#
# 1 0.004374 -0.015670 -0.031309 0.000000 0.052681 0.000000
# 2 -0.015670 0.027927 0.000902 0.000000 -0.008644 0.000000
# 3 -0.031309 0.000902 -0.001059 0.000000 0.027199 0.000000
# 4 0.000000 0.000000 0.000000 0.036543 0.000000 0.003507
# 5 0.052681 -0.008644 0.027199 0.000000 -0.040973 0.000000
# 6 0.000000 0.000000 0.000000 0.003507 0.000000 -0.055958
#
#
# Mechanical properties :
#
#
# Convention : Reuss Voigt Hill
#
# Bulk Modulus (GPa) = -16.41650 21.80608 2.69479
# Shear Modulus (GPa) = 117.08301 14.40659 65.74480
#
# Velocity S-wave (km/s) = 7.67533 2.69234 5.75149
# Velocity P-wave (km/s) = 8.38377 4.54277 6.74256
#
# Compressibility (1/GPa) = -0.06091431
#
# Stress axis : x y z
#
# Youngs Moduli (GPa) = 228.64080 35.80756 -943.85529
#
# Poissons Ratio (x) = 0.56111 -29.55129
# Poissons Ratio (y) = 3.58284 0.85089
# Poissons Ratio (z) = 7.15854 -0.03228
#
# Static dielectric constant tensor:
#      x y z
#    x 1.664520 0.000000 -0.057060 
#    y 0.000000 1.668150 0.000000 
#    z -0.057060 0.000000 1.684890 
# 
# From -- ./inp_files/363146.got.cif
#   From: 2010.05.17/outbox.ucp.g08.bks.cvg/sg12_182_cif.got.tgz:363146.got - 2010.06.11 11:47:21.
