data_PCOD9224097
_publ_section_title
;
Structure prediction by ZEFSAII (Michael W. Deem and Ramdas Pophale) SiO2 
 PCOD9224097
Probable space group: C 2/M
;
_chemical_formula_sum "Si O2"
_cell_formula_units_Z 32
_cell_length_a 12.000000
_cell_length_b 15.000000
_cell_length_c 27.000000
_cell_angle_alpha 90.000000
_cell_angle_beta 140.000000
_cell_angle_gamma 90.000000
_cell_volume 3123.947783
_symmetry_space_group_name_H-M "C 2/M"
_symmetry_group_IT_number 12
_symmetry_cell_setting 'monoclinic'
loop_
_space_group_symop_operation_xyz
x,y,z
-x,y,-z
-x,-y,-z
x,-y,z
1/2+x,1/2+y,z
1/2-x,1/2+y,-z
1/2-x,1/2-y,-z
1/2+x,1/2-y,z
loop_
_atom_site_type_symbol
_atom_site_label
_atom_site_fract_x
_atom_site_fract_y
_atom_site_fract_z
Si Si1 0.009442 0.655280 0.149789
Si Si2 0.821157 0.843677 0.799334
Si Si3 0.334545 0.598905 0.324989
Si Si4 0.669096 0.602698 0.086192
Si Si5 0.961911 0.244307 0.659194
Si Si6 0.707523 0.601328 0.575627
Si Si7 0.503351 0.395122 0.241366
Si Si8 0.388990 0.897083 0.918061
O O1 0.059517 0.756514 0.156943
O O2 0.174912 0.611701 0.233320
O O3 0.996081 0.609037 0.092138
O O4 0.841524 0.650257 0.126199
O O5 0.845108 0.892919 0.859422
O O6 0.624464 0.808356 0.727672
O O7 0.882510 0.890807 0.769718
O O8 0.411124 0.500000 0.345288
O O9 0.470752 0.676720 0.360231
O O10 0.258767 0.604578 0.354033
O O11 0.690741 0.500000 0.078435
O O12 0.500000 0.637232 0.000000
O O13 0.810024 0.312020 0.591460
O O14 0.929668 0.176383 0.694795
O O15 0.500000 0.609330 0.500000
O O16 0.755072 0.500000 0.574105
O O17 0.498294 0.500000 0.256348
O O18 0.305122 0.364670 0.161141
O O19 0.357502 0.000000 0.921133
O O20 0.500000 0.854583 0.000000
#
# Coordination Sequence:
#
# PCOD9224097 Si02
#       8
#     8   8   8   8   8   8   8   8
#     4  11  22  38  62  84 117 157 215 255 305 369
#     4  11  23  38  57  86 117 153 198 253 310 362
#     4  10  19  36  64  91 119 157 202 250 297 361
#     4  11  25  40  54  76 111 156 203 255 315 369
#     4  11  21  39  64  92 119 156 203 245 299 363
#     4  10  23  42  65  94 126 160 198 243 298 362
#     4  11  22  39  61  90 125 160 208 260 311 370
#     4  10  21  36  59  87 118 162 213 267 316 362
#
# _framework density 10.243449
#
# number of rings (size 3 to 8) (size 9 to 14) (size 15 to 20)
#    0.000    1.375    2.500    4.875    1.750    3.500 
#    0.000    0.000    0.000    1.500    0.000    0.000 
#    0.000    0.000    0.000    0.000    0.000    0.000 
#
# Total GULP energy -178665.280752 kJ/mol
# GULP energy per Si atom -5583.290024 kJ/mol
# Density = 1.022013 g / cm^3
# Si number density = 10.243449 Si / 1000 Ang^3
#
#
#
# Elastic Constant Matrix: (Units=GPa)
#
#
# Indices 1 2 3 4 5 6 
#
# 1 71.5248 7.8446 -5.9697 0.0000 8.7248 0.0000
# 2 7.8446 104.9919 14.0267 0.0000 26.6360 0.0000
# 3 -5.9697 14.0267 10.5705 0.0000 12.6890 0.0000
# 4 0.0000 0.0000 0.0000 15.0115 0.0000 2.1744
# 5 8.7248 26.6360 12.6890 0.0000 25.9821 0.0000
# 6 0.0000 0.0000 0.0000 2.1744 0.0000 23.5883
#
#
#
# Elastic Compliance Matrix: (Units=1/GPa)
#
#
# Indices 1 2 3 4 5 6 
#
# 1 0.022401 -0.000371 0.052486 0.000000 -0.032775 0.000000
# 2 -0.000371 0.012918 -0.003876 0.000000 -0.011226 0.000000
# 3 0.052486 -0.003876 0.352327 0.000000 -0.185720 0.000000
# 4 0.000000 0.000000 0.000000 0.067517 0.000000 -0.006224
# 5 -0.032775 -0.011226 -0.185720 0.000000 0.151703 0.000000
# 6 0.000000 0.000000 0.000000 -0.006224 0.000000 0.042968
#
#
# Mechanical properties :
#
#
# Convention : Reuss Voigt Hill
#
# Bulk Modulus (GPa) = 2.06558 24.32117 13.19337
# Shear Modulus (GPa) = 6.99566 24.32876 15.66221
#
# Velocity S-wave (km/s) = 1.84989 3.44979 2.76796
# Velocity P-wave (km/s) = 2.36077 5.26929 4.08281
#
# Compressibility (1/GPa) = 0.48412559
#
# Stress axis : x y z
#
# Youngs Moduli (GPa) = 44.64183 77.41154 2.83827
#
# Poissons Ratio (x) = 0.02871 -0.14897
# Poissons Ratio (y) = 0.01656 0.01100
# Poissons Ratio (z) = -2.34308 0.30001
#
# Static dielectric constant tensor:
#      x y z
#    x 1.731790 0.000000 -0.010810 
#    y 0.000000 1.769180 0.000000 
#    z -0.010810 0.000000 1.738640 
# 
# From -- ./inp_files/358475.got.cif
#   From: 2010.05.17/outbox.ucp.g08.bks.cvg/sg12_180_cif.got.tgz:358475.got - 2010.06.11 11:47:21.
