data_PCOD9224356
_publ_section_title
;
Structure prediction by ZEFSAII (Michael W. Deem and Ramdas Pophale) SiO2 
 PCOD9224356
Probable space group: C 2/M
;
_chemical_formula_sum "Si O2"
_cell_formula_units_Z 32
_cell_length_a 15.000000
_cell_length_b 9.000000
_cell_length_c 30.000000
_cell_angle_alpha 90.000000
_cell_angle_beta 120.000000
_cell_angle_gamma 90.000000
_cell_volume 3507.402885
_symmetry_space_group_name_H-M "C 2/M"
_symmetry_group_IT_number 12
_symmetry_cell_setting 'monoclinic'
loop_
_space_group_symop_operation_xyz
x,y,z
-x,y,-z
-x,-y,-z
x,-y,z
1/2+x,1/2+y,z
1/2-x,1/2+y,-z
1/2-x,1/2-y,-z
1/2+x,1/2-y,z
loop_
_atom_site_type_symbol
_atom_site_label
_atom_site_fract_x
_atom_site_fract_y
_atom_site_fract_z
Si Si1 0.058612 0.676294 0.899228
Si Si2 0.212243 0.821301 0.878688
Si Si3 0.764813 0.677161 0.286802
Si Si4 0.888628 0.319057 0.991020
Si Si5 0.797409 0.820950 0.628135
Si Si6 0.519436 0.321310 0.643351
Si Si7 0.582042 0.321544 0.557703
Si Si8 0.824462 0.676684 0.820031
O O1 0.076747 0.500000 0.900172
O O2 0.105651 0.758438 0.869018
O O3 0.936540 0.698548 0.869791
O O4 0.112803 0.731353 0.958150
O O5 0.298748 0.768496 0.935779
O O6 0.242932 0.775114 0.836936
O O7 0.212648 0.000000 0.879678
O O8 0.773730 0.500000 0.287609
O O9 0.716648 0.717975 0.322995
O O10 0.693197 0.736682 0.229640
O O11 0.878686 0.747945 0.310019
O O12 0.885796 0.500000 0.990769
O O13 0.000000 0.276512 0.000000
O O14 0.908132 0.774303 0.635317
O O15 0.694480 0.751758 0.580637
O O16 0.792389 0.000000 0.622832
O O17 0.526099 0.500000 0.650538
O O18 0.533929 0.287238 0.594352
O O19 0.500000 0.274762 0.500000
O O20 0.594725 0.500000 0.558359
O O21 0.813274 0.500000 0.809014
#
# Coordination Sequence:
#
# PCOD9224356 Si02
#       8
#     8   8   8   8   8   8   8   8
#     4  10  20  34  54  78 103 132 168 208 250 302
#     4  10  20  34  54  77 101 132 168 205 249 305
#     4  10  21  36  54  76 101 129 169 222 265 298
#     4   9  15  30  55  76  98 133 171 202 240 301
#     4   9  19  35  54  76 102 137 178 215 256 305
#     4   9  18  35  56  76 104 142 178 210 253 311
#     4   9  18  32  51  79 113 144 175 213 254 297
#     4  10  21  37  54  73 100 136 171 203 253 317
#
# _framework density 9.1235599999999994
#
# number of rings (size 3 to 8) (size 9 to 14) (size 15 to 20)
#    0.000    2.500    1.250    0.750    0.000    3.750 
#    0.000    3.750    0.000    0.750    0.000    0.000 
#    0.000    0.000    0.000    0.000    0.000    0.000 
#
# Total GULP energy -178404.357216 kJ/mol
# GULP energy per Si atom -5575.136163 kJ/mol
# Density = 0.910279 g / cm^3
# Si number density = 9.123560 Si / 1000 Ang^3
#
#
#
# Elastic Constant Matrix: (Units=GPa)
#
#
# Indices 1 2 3 4 5 6 
#
# 1 88.0861 16.6745 -6.4622 0.0000 -4.9518 0.0000
# 2 16.6745 5.4328 16.4367 0.0000 -0.9274 0.0000
# 3 -6.4622 16.4367 60.1820 0.0000 -2.8567 0.0000
# 4 0.0000 0.0000 0.0000 23.4260 0.0000 3.1669
# 5 -4.9518 -0.9274 -2.8567 0.0000 13.5844 0.0000
# 6 0.0000 0.0000 0.0000 3.1669 0.0000 25.5038
#
#
#
# Elastic Compliance Matrix: (Units=1/GPa)
#
#
# Indices 1 2 3 4 5 6 
#
# 1 -0.003659 0.071386 -0.019920 0.000000 -0.000649 0.000000
# 2 0.071386 -0.331403 0.099329 0.000000 0.024285 0.000000
# 3 -0.019920 0.099329 -0.012802 0.000000 -0.003172 0.000000
# 4 0.000000 0.000000 0.000000 0.043416 0.000000 -0.005391
# 5 -0.000649 0.024285 -0.003172 0.000000 0.074368 0.000000
# 6 0.000000 0.000000 0.000000 -0.005391 0.000000 0.039879
#
#
# Mechanical properties :
#
#
# Convention : Reuss Voigt Hill
#
# Bulk Modulus (GPa) = -21.61103 22.99987 0.69442
# Shear Modulus (GPa) = -9.85777 20.97298 5.55761
#
# Velocity S-wave (km/s) = -2.32682 3.39394 1.74710
# Velocity P-wave (km/s) = 4.36899 5.29060 2.10979
#
# Compressibility (1/GPa) = -0.04627266
#
# Stress axis : x y z
#
# Youngs Moduli (GPa) = -273.32365 -3.01748 -78.11422
#
# Poissons Ratio (x) = 0.21541 -1.55607
# Poissons Ratio (y) = 19.51154 7.75904
# Poissons Ratio (z) = -5.44471 0.29972
#
# Static dielectric constant tensor:
#      x y z
#    x 1.620110 0.000000 -0.011620 
#    y 0.000000 1.607180 0.000000 
#    z -0.011620 0.000000 1.635010 
# 
# From -- ./inp_files/375114.got.cif
#   From: 2010.05.17/outbox.ucp.g08.bks.cvg/sg12_188_cif.got.tgz:375114.got - 2010.06.11 11:47:21.
