data_PCOD9224357
_publ_section_title
;
Structure prediction by ZEFSAII (Michael W. Deem and Ramdas Pophale) SiO2 
 PCOD9224357
Probable space group: C 2/M
;
_chemical_formula_sum "Si O2"
_cell_formula_units_Z 24
_cell_length_a 15.000000
_cell_length_b 18.000000
_cell_length_c 18.000000
_cell_angle_alpha 90.000000
_cell_angle_beta 30.000000
_cell_angle_gamma 90.000000
_cell_volume 2430.000000
_symmetry_space_group_name_H-M "C 2/M"
_symmetry_group_IT_number 12
_symmetry_cell_setting 'monoclinic'
loop_
_space_group_symop_operation_xyz
x,y,z
-x,y,-z
-x,-y,-z
x,-y,z
1/2+x,1/2+y,z
1/2-x,1/2+y,-z
1/2-x,1/2-y,-z
1/2+x,1/2-y,z
loop_
_atom_site_type_symbol
_atom_site_label
_atom_site_fract_x
_atom_site_fract_y
_atom_site_fract_z
Si Si1 0.125990 0.416282 0.744215
Si Si2 0.435368 0.916193 0.389806
Si Si3 0.319238 0.409653 0.091849
Si Si4 0.406795 0.318663 0.341941
Si Si5 0.845596 0.219952 0.556927
Si Si6 0.774551 0.088884 0.949619
O O1 0.174058 0.500000 0.733140
O O2 0.085636 0.419153 0.684516
O O3 0.283274 0.357546 0.639045
O O4 0.933427 0.396152 0.917376
O O5 0.631863 0.883211 0.262247
O O6 0.264800 0.872516 0.539984
O O7 0.430042 0.000000 0.422845
O O8 0.314632 0.500000 0.101508
O O9 0.500000 0.383045 0.000000
O O10 0.312909 0.393877 0.008813
O O11 0.346362 0.259173 0.323096
O O12 0.413602 0.289445 0.422234
O O13 0.586574 0.362248 0.195767
O O14 0.000000 0.251774 0.500000
O O15 0.802773 0.000000 0.919100
#
# Coordination Sequence:
#
# PCOD9224357 Si02
#       6
#     8   8   8   8   8   8
#     4   8  16  33  55  76  99 130 168 210 259 311
#     4   8  14  27  48  72 101 137 169 201 252 309
#     4   8  14  25  42  68 103 139 172 204 244 300
#     4  10  20  34  54  77 105 136 171 215 257 298
#     4  10  22  38  53  73 104 141 176 208 254 315
#     4   9  17  31  54  81 105 132 170 216 260 301
#
# _framework density 9.8765429999999999
#
# number of rings (size 3 to 8) (size 9 to 14) (size 15 to 20)
#    0.000    3.167    0.000    2.500    0.000    3.000 
#    0.000    0.833    0.000    7.000    0.000    0.000 
#    0.000    0.000    0.000    0.000    0.000    0.000 
#
# Total GULP energy -133626.175536 kJ/mol
# GULP energy per Si atom -5567.757314 kJ/mol
# Density = 0.985406 g / cm^3
# Si number density = 9.876543 Si / 1000 Ang^3
#
#
#
# Elastic Constant Matrix: (Units=GPa)
#
#
# Indices 1 2 3 4 5 6 
#
# 1 51.8481 1.4097 -2.1866 -0.0063 -8.8441 0.0023
# 2 1.4097 43.7073 34.5414 -0.0153 -0.2901 0.0103
# 3 -2.1866 34.5414 71.7908 -0.0160 -5.5468 0.0136
# 4 -0.0063 -0.0153 -0.0160 16.4106 0.0090 7.4826
# 5 -8.8441 -0.2901 -5.5468 0.0090 13.5082 -0.0058
# 6 0.0023 0.0103 0.0136 7.4826 -0.0058 7.1795
#
#
#
# Elastic Compliance Matrix: (Units=1/GPa)
#
#
# Indices 1 2 3 4 5 6 
#
# 1 0.022252 -0.003423 0.003558 -0.000003 0.015956 0.000007
# 2 -0.003423 0.038043 -0.019125 0.000061 -0.009278 -0.000088
# 3 0.003558 -0.019125 0.024154 0.000010 0.011837 -0.000020
# 4 -0.000003 0.000061 0.000010 0.116116 -0.000126 -0.121019
# 5 0.015956 -0.009278 0.011837 -0.000126 0.089137 0.000189
# 6 0.000007 -0.000088 -0.000020 -0.121019 0.000189 0.265413
#
#
# Mechanical properties :
#
#
# Convention : Reuss Voigt Hill
#
# Bulk Modulus (GPa) = 21.52048 26.09726 23.80887
# Shear Modulus (GPa) = 8.21576 16.32510 12.27043
#
# Velocity S-wave (km/s) = 2.04163 2.87794 2.49507
# Velocity P-wave (km/s) = 4.05907 4.92786 4.51441
#
# Compressibility (1/GPa) = 0.04646738
#
# Stress axis : x y z
#
# Youngs Moduli (GPa) = 44.93977 26.28632 41.40101
#
# Poissons Ratio (x) = 0.08999 -0.14729
# Poissons Ratio (y) = 0.15385 0.79179
# Poissons Ratio (z) = -0.15988 0.50272
#
# Static dielectric constant tensor:
#      x y z
#    x 1.654360 0.000000 0.004940 
#    y 0.000000 1.799460 0.000000 
#    z 0.004940 0.000000 1.713810 
# 
# From -- ./inp_files/271598.got.cif
#   From: 2010.05.17/outbox.ucp.g08.bks.cvg/sg12_136_cif.got.tgz:271598.got - 2010.06.11 11:47:21.
