data_PCOD9224736
_publ_section_title
;
Structure prediction by ZEFSAII (Michael W. Deem and Ramdas Pophale) SiO2 
 PCOD9224736
Probable space group: C 2/M
;
_chemical_formula_sum "Si O2"
_cell_formula_units_Z 32
_cell_length_a 15.000000
_cell_length_b 9.000000
_cell_length_c 27.000000
_cell_angle_alpha 90.000000
_cell_angle_beta 70.000000
_cell_angle_gamma 90.000000
_cell_volume 3425.179603
_symmetry_space_group_name_H-M "C 2/M"
_symmetry_group_IT_number 12
_symmetry_cell_setting 'monoclinic'
loop_
_space_group_symop_operation_xyz
x,y,z
-x,y,-z
-x,-y,-z
x,-y,z
1/2+x,1/2+y,z
1/2-x,1/2+y,-z
1/2-x,1/2-y,-z
1/2+x,1/2-y,z
loop_
_atom_site_type_symbol
_atom_site_label
_atom_site_fract_x
_atom_site_fract_y
_atom_site_fract_z
Si Si1 0.002376 0.677401 0.943023
Si Si2 0.199839 0.676964 0.751287
Si Si3 0.550112 0.178937 0.648232
Si Si4 0.003645 0.823276 0.758563
Si Si5 0.268879 0.676024 0.632896
Si Si6 0.542718 0.820972 0.438894
Si Si7 0.387567 0.822896 0.870262
Si Si8 0.285220 0.825818 0.136840
O O1 0.984127 0.500000 0.950764
O O2 0.105565 0.695249 0.898715
O O3 0.929536 0.732576 0.914770
O O4 0.000000 0.736877 0.000000
O O5 0.174088 0.500000 0.753380
O O6 0.108442 0.775845 0.756886
O O7 0.270533 0.704745 0.692035
O O8 0.230948 0.704904 0.801603
O O9 0.495879 0.255500 0.704630
O O10 0.662244 0.212258 0.634679
O O11 0.514731 0.224196 0.600193
O O12 0.539265 0.000000 0.655041
O O13 0.937058 0.752951 0.813315
O O14 0.991146 0.000000 0.758982
O O15 0.282942 0.500000 0.622984
O O16 0.350762 0.763526 0.589482
O O17 0.500000 0.770218 0.500000
O O18 0.542164 0.000000 0.439731
O O19 0.278853 0.778227 0.884648
O O20 0.402842 0.000000 0.864355
O O21 0.261730 0.000000 0.133194
#
# Coordination Sequence:
#
# PCOD9224736 Si02
#       8
#     8   8   8   8   8   8   8   8
#     4   9  19  38  62  83 112 157 199 234 282 343
#     4   9  18  36  58  82 117 155 185 228 293 348
#     4   9  20  39  58  80 114 154 186 226 290 344
#     4  11  21  34  57  87 117 148 192 239 284 341
#     4   9  19  35  56  81 112 148 188 227 278 343
#     4  10  22  39  58  82 113 148 190 235 280 335
#     4  11  22  37  57  85 118 153 192 236 290 342
#     4  10  20  36  58  86 118 153 191 234 285 342
#
# _framework density 9.3425759999999993
#
# number of rings (size 3 to 8) (size 9 to 14) (size 15 to 20)
#    0.000    2.250    1.250    2.250    1.750    4.250 
#    0.000    0.000    0.000    2.625    0.000    0.000 
#    0.000    0.000    0.000    0.000    0.000    0.000 
#
# Total GULP energy -178505.045750 kJ/mol
# GULP energy per Si atom -5578.282680 kJ/mol
# Density = 0.932131 g / cm^3
# Si number density = 9.342576 Si / 1000 Ang^3
#
#
#
# Elastic Constant Matrix: (Units=GPa)
#
#
# Indices 1 2 3 4 5 6 
#
# 1 52.7509 16.9729 22.8112 0.0000 28.4381 0.0000
# 2 16.9729 31.7878 18.1369 0.0000 11.7334 0.0000
# 3 22.8112 18.1369 100.0740 0.0000 33.4147 0.0000
# 4 0.0000 0.0000 0.0000 15.3620 0.0000 -3.2399
# 5 28.4381 11.7334 33.4147 0.0000 28.0353 0.0000
# 6 0.0000 0.0000 0.0000 -3.2399 0.0000 24.7089
#
#
#
# Elastic Compliance Matrix: (Units=1/GPa)
#
#
# Indices 1 2 3 4 5 6 
#
# 1 0.048580 -0.010660 0.009672 0.000000 -0.056344 0.000000
# 2 -0.010660 0.039946 -0.004714 0.000000 -0.000287 0.000000
# 3 0.009672 -0.004714 0.018702 0.000000 -0.030129 0.000000
# 4 0.000000 0.000000 0.000000 0.066947 0.000000 0.008778
# 5 -0.056344 -0.000287 -0.030129 0.000000 0.128852 0.000000
# 6 0.000000 0.000000 0.000000 0.008778 0.000000 0.041622
#
#
# Mechanical properties :
#
#
# Convention : Reuss Voigt Hill
#
# Bulk Modulus (GPa) = 10.43585 33.38386 21.90985
# Shear Modulus (GPa) = 12.88679 22.06735 17.47707
#
# Velocity S-wave (km/s) = 2.62903 3.44031 3.06166
# Velocity P-wave (km/s) = 3.84876 5.80399 4.92439
#
# Compressibility (1/GPa) = 0.09582357
#
# Stress axis : x y z
#
# Youngs Moduli (GPa) = 20.58479 25.03396 53.46949
#
# Poissons Ratio (x) = 0.26685 -0.51714
# Poissons Ratio (y) = 0.21943 0.25205
# Poissons Ratio (z) = -0.19909 0.11801
#
# Static dielectric constant tensor:
#      x y z
#    x 1.676710 0.000000 0.005660 
#    y 0.000000 1.625870 0.000000 
#    z 0.005660 0.000000 1.644710 
# 
# From -- ./inp_files/359746.got.cif
#   From: 2010.05.17/outbox.ucp.g08.bks.cvg/sg12_180_cif.got.tgz:359746.got - 2010.06.11 11:47:21.
