data_PCOD9224088
_publ_section_title
;
Structure prediction by ZEFSAII (Michael W. Deem and Ramdas Pophale) SiO2 
 PCOD9224088
Probable space group: C 2/M
;
_chemical_formula_sum "Si O2"
_cell_formula_units_Z 28
_cell_length_a 15.000000
_cell_length_b 21.000000
_cell_length_c 18.000000
_cell_angle_alpha 90.000000
_cell_angle_beta 150.000000
_cell_angle_gamma 90.000000
_cell_volume 2835.000000
_symmetry_space_group_name_H-M "C 2/M"
_symmetry_group_IT_number 12
_symmetry_cell_setting 'monoclinic'
loop_
_space_group_symop_operation_xyz
x,y,z
-x,y,-z
-x,-y,-z
x,-y,z
1/2+x,1/2+y,z
1/2-x,1/2+y,-z
1/2-x,1/2-y,-z
1/2+x,1/2-y,z
loop_
_atom_site_type_symbol
_atom_site_label
_atom_site_fract_x
_atom_site_fract_y
_atom_site_fract_z
Si Si1 0.985459 0.651387 0.405014
Si Si2 0.618140 0.294565 0.676273
Si Si3 0.384012 0.312558 0.651068
Si Si4 0.872475 0.677736 0.726839
Si Si5 0.392951 0.428340 0.120680
Si Si6 0.870216 0.372826 0.963083
Si Si7 0.929175 0.425328 0.223577
O O1 0.881343 0.718539 0.331591
O O2 0.908711 0.601086 0.291860
O O3 0.000000 0.627995 0.500000
O O4 0.178833 0.670102 0.513045
O O5 0.448367 0.311092 0.610157
O O6 0.688401 0.318483 0.644053
O O7 0.766794 0.322003 0.838557
O O8 0.407699 0.243023 0.706538
O O9 0.483066 0.367940 0.770266
O O10 0.917793 0.616839 0.707253
O O11 0.025358 0.666636 0.899167
O O12 0.472031 0.500000 0.173076
O O13 0.257631 0.423685 0.092094
O O14 0.260684 0.417556 0.955607
O O15 0.000000 0.407200 0.000000
O O16 0.974927 0.500000 0.254502
#
# Coordination Sequence:
#
# PCOD9224088 Si02
#       7
#     8   8   8   8   8   8   8
#     4  12  24  39  60  91 119 159 202 254 308 355
#     4  10  20  35  57  92 123 153 196 245 305 357
#     4  11  22  36  62  90 121 157 200 257 301 354
#     4  10  19  36  62  91 122 155 203 252 300 356
#     4   9  20  38  59  85 119 159 200 244 300 362
#     4   8  17  31  55  91 121 154 191 244 295 358
#     4  10  23  42  64  88 123 166 203 246 302 366
#
# _framework density 9.8765429999999999
#
# number of rings (size 3 to 8) (size 9 to 14) (size 15 to 20)
#    0.000    2.000    2.857    0.429    2.000    2.857 
#    0.000    7.857    0.000    2.571    0.000    0.000 
#    0.000    0.000    0.000    0.000    0.000    0.000 
#
# Total GULP energy -155868.678940 kJ/mol
# GULP energy per Si atom -5566.738534 kJ/mol
# Density = 0.985406 g / cm^3
# Si number density = 9.876543 Si / 1000 Ang^3
#
#
#
# Elastic Constant Matrix: (Units=GPa)
#
#
# Indices 1 2 3 4 5 6 
#
# 1 114.0512 35.8535 38.5818 -0.0252 -31.6507 0.0098
# 2 35.8535 139.9536 53.7874 -0.0199 -17.5257 0.0094
# 3 38.5818 53.7874 36.3927 -0.0385 -15.1178 0.0218
# 4 -0.0252 -0.0199 -0.0385 4.6713 -0.0203 7.5854
# 5 -31.6507 -17.5257 -15.1178 -0.0203 35.9638 0.0100
# 6 0.0098 0.0094 0.0218 7.5854 0.0100 19.9239
#
#
#
# Elastic Compliance Matrix: (Units=1/GPa)
#
#
# Indices 1 2 3 4 5 6 
#
# 1 0.016918 0.005283 -0.022401 -0.000134 0.008047 0.000061
# 2 0.005283 0.018407 -0.032893 -0.000537 -0.000208 0.000229
# 3 -0.022401 -0.032893 0.102980 0.002005 0.007546 -0.000853
# 4 -0.000134 -0.000537 0.002005 0.560784 0.000839 -0.213502
# 5 0.008047 -0.000208 0.007546 0.000839 0.037959 -0.000351
# 6 0.000061 0.000229 -0.000853 -0.213502 -0.000351 0.131476
#
#
# Mechanical properties :
#
#
# Convention : Reuss Voigt Hill
#
# Bulk Modulus (GPa) = 26.12217 60.76032 43.44124
# Shear Modulus (GPa) = 5.09524 22.92344 14.00934
#
# Velocity S-wave (km/s) = 1.60781 3.41031 2.66601
# Velocity P-wave (km/s) = 4.08654 6.80688 5.61397
#
# Compressibility (1/GPa) = 0.03828166
#
# Stress axis : x y z
#
# Youngs Moduli (GPa) = 59.10718 54.32606 9.71067
#
# Poissons Ratio (x) = -0.28700 0.21753
# Poissons Ratio (y) = -0.31225 0.31942
# Poissons Ratio (z) = 1.32408 1.78696
#
# Static dielectric constant tensor:
#      x y z
#    x 1.764370 0.000000 0.020690 
#    y 0.000000 1.676720 0.000000 
#    z 0.020690 0.000000 1.786910 
# 
# From -- ./inp_files/272403.got.cif
#   From: 2010.05.17/outbox.ucp.g08.bks.cvg/sg12_137_cif.got.tgz:272403.got - 2010.06.11 11:47:21.
