data_PCOD9224408
_publ_section_title
;
Structure prediction by ZEFSAII (Michael W. Deem and Ramdas Pophale) SiO2 
 PCOD9224408
Probable space group: C 2/M
;
_chemical_formula_sum "Si O2"
_cell_formula_units_Z 32
_cell_length_a 24.000000
_cell_length_b 9.000000
_cell_length_c 30.000000
_cell_angle_alpha 90.000000
_cell_angle_beta 30.000000
_cell_angle_gamma 90.000000
_cell_volume 3240.000000
_symmetry_space_group_name_H-M "C 2/M"
_symmetry_group_IT_number 12
_symmetry_cell_setting 'monoclinic'
loop_
_space_group_symop_operation_xyz
x,y,z
-x,y,-z
-x,-y,-z
x,-y,z
1/2+x,1/2+y,z
1/2-x,1/2+y,-z
1/2-x,1/2-y,-z
1/2+x,1/2-y,z
loop_
_atom_site_type_symbol
_atom_site_label
_atom_site_fract_x
_atom_site_fract_y
_atom_site_fract_z
Si Si1 0.916353 0.673514 0.366973
Si Si2 0.868696 0.823038 0.083589
Si Si3 0.549477 0.676307 0.205460
Si Si4 0.702100 0.178595 0.959411
Si Si5 0.376473 0.820195 0.577604
Si Si6 0.211792 0.677056 0.457230
Si Si7 0.693934 0.321717 0.775447
Si Si8 0.487446 0.822695 0.162125
O O1 0.935398 0.500000 0.345004
O O2 0.890761 0.691134 0.436976
O O3 0.809234 0.730577 0.413326
O O4 0.014696 0.769886 0.278408
O O5 0.826687 0.741035 0.069102
O O6 0.807144 0.780010 0.172017
O O7 0.855654 0.000000 0.086041
O O8 0.000000 0.793557 0.000000
O O9 0.540906 0.500000 0.207820
O O10 0.675742 0.727362 0.110766
O O11 0.473567 0.749525 0.220008
O O12 0.701895 0.000000 0.957304
O O13 0.607418 0.223582 0.059632
O O14 0.500000 0.761968 0.500000
O O15 0.320031 0.771776 0.570272
O O16 0.304357 0.788738 0.671168
O O17 0.382514 0.000000 0.569104
O O18 0.242150 0.500000 0.435259
O O19 0.673081 0.500000 0.787909
O O20 0.598481 0.238411 0.814383
O O21 0.480694 0.000000 0.170316
#
# Coordination Sequence:
#
# PCOD9224408 Si02
#       8
#     8   8   8   8   8   8   8   8
#     4  10  20  34  55  83 111 142 183 229 279 333
#     4  10  20  35  56  83 113 145 186 230 273 328
#     4  11  23  38  55  79 113 148 186 228 282 344
#     4  10  23  39  56  80 110 149 187 230 285 336
#     4   9  18  33  54  80 108 139 180 226 269 319
#     4   9  18  34  57  82 109 143 183 228 280 330
#     4  10  20  35  58  85 112 148 187 226 277 331
#     4  11  22  37  58  83 110 142 186 234 283 337
#
# _framework density 9.8765429999999999
#
# number of rings (size 3 to 8) (size 9 to 14) (size 15 to 20)
#    0.000    2.000    1.250    2.250    0.000    4.750 
#    0.000    2.500    0.000    1.500    0.000    0.000 
#    0.000    0.000    0.000    0.000    0.000    0.000 
#
# Total GULP energy -178611.931039 kJ/mol
# GULP energy per Si atom -5581.622845 kJ/mol
# Density = 0.985406 g / cm^3
# Si number density = 9.876543 Si / 1000 Ang^3
#
#
#
# Elastic Constant Matrix: (Units=GPa)
#
#
# Indices 1 2 3 4 5 6 
#
# 1 60.7338 1.5863 12.5026 -0.0042 19.3803 0.0059
# 2 1.5863 8.8568 15.8929 -0.0055 5.1217 0.0092
# 3 12.5026 15.8929 76.1169 -0.0011 10.8354 0.0017
# 4 -0.0042 -0.0055 -0.0011 18.9232 0.0011 8.5307
# 5 19.3803 5.1217 10.8354 0.0011 30.1452 -0.0022
# 6 0.0059 0.0092 0.0017 8.5307 -0.0022 19.7443
#
#
#
# Elastic Compliance Matrix: (Units=1/GPa)
#
#
# Indices 1 2 3 4 5 6 
#
# 1 0.021564 0.011428 -0.003876 0.000018 -0.014411 -0.000021
# 2 0.011428 0.196438 -0.039096 0.000126 -0.026669 -0.000148
# 3 -0.003876 -0.039096 0.021750 -0.000023 0.001317 0.000028
# 4 0.000018 0.000126 -0.000023 0.065628 -0.000029 -0.028355
# 5 -0.014411 -0.026669 0.001317 -0.000029 0.046496 0.000034
# 6 -0.000021 -0.000148 0.000028 -0.028355 0.000034 0.062899
#
#
# Mechanical properties :
#
#
# Convention : Reuss Voigt Hill
#
# Bulk Modulus (GPa) = 5.66054 22.85236 14.25645
# Shear Modulus (GPa) = 9.31529 21.47759 15.39644
#
# Velocity S-wave (km/s) = 2.17396 3.30101 2.79488
# Velocity P-wave (km/s) = 3.02875 5.11106 4.20097
#
# Compressibility (1/GPa) = 0.17666165
#
# Stress axis : x y z
#
# Youngs Moduli (GPa) = 46.37460 5.09066 45.97670
#
# Poissons Ratio (x) = -0.05817 0.17823
# Poissons Ratio (y) = -0.52995 1.79752
# Poissons Ratio (z) = 0.17977 0.19903
#
# Static dielectric constant tensor:
#      x y z
#    x 1.639670 0.000000 -0.010770 
#    y 0.000000 1.659530 0.000010 
#    z -0.010770 0.000010 1.774490 
# 
# From -- ./inp_files/382222.got.cif
#   From: 2010.05.17/outbox.ucp.g08.bks.cvg/sg12_192_cif.got.tgz:382222.got - 2010.06.11 11:47:21.
