data_PCOD9224027
_publ_section_title
;
Structure prediction by ZEFSAII (Michael W. Deem and Ramdas Pophale) SiO2 
 PCOD9224027
Probable space group: C 2/M
;
_chemical_formula_sum "Si O2"
_cell_formula_units_Z 28
_cell_length_a 24.000000
_cell_length_b 9.000000
_cell_length_c 15.000000
_cell_angle_alpha 90.000000
_cell_angle_beta 120.000000
_cell_angle_gamma 90.000000
_cell_volume 2805.922308
_symmetry_space_group_name_H-M "C 2/M"
_symmetry_group_IT_number 12
_symmetry_cell_setting 'monoclinic'
loop_
_space_group_symop_operation_xyz
x,y,z
-x,y,-z
-x,-y,-z
x,-y,z
1/2+x,1/2+y,z
1/2-x,1/2+y,-z
1/2-x,1/2-y,-z
1/2+x,1/2-y,z
loop_
_atom_site_type_symbol
_atom_site_label
_atom_site_fract_x
_atom_site_fract_y
_atom_site_fract_z
Si Si1 0.800882 0.825208 0.605115
Si Si2 0.925725 0.332316 0.687211
Si Si3 0.279929 0.679869 0.791294
Si Si4 0.000053 0.171831 0.894643
Si Si5 0.149497 0.824692 0.974559
Si Si6 0.532654 0.171803 0.619867
Si Si7 0.660764 0.321955 0.784458
O O1 0.750000 0.750000 0.500000
O O2 0.870095 0.783219 0.622685
O O3 0.799043 0.771998 0.707019
O O4 0.789779 0.000000 0.597218
O O5 0.899975 0.500000 0.670205
O O6 0.956615 0.283973 0.805368
O O7 0.979600 0.325637 0.654707
O O8 0.282260 0.500000 0.793225
O O9 0.209996 0.740500 0.758963
O O10 0.322577 0.734831 0.909798
O O11 0.072613 0.186401 0.917741
O O12 0.978416 0.000000 0.862859
O O13 0.000000 0.197280 0.000000
O O14 0.171345 0.766067 0.895437
O O15 0.165557 0.000000 0.986464
O O16 0.500000 0.212596 0.500000
O O17 0.590018 0.277458 0.695873
O O18 0.556079 0.000000 0.630356
O O19 0.668975 0.500000 0.789353
#
# Coordination Sequence:
#
# PCOD9224027 Si02
#       7
#     8   8   8   8   8   8   8
#     4  11  25  44  66  89 120 162 206 253 305 361
#     4  11  23  40  63  92 124 157 202 255 304 357
#     4  10  22  41  63  86 119 165 206 241 296 368
#     4  10  19  35  61  88 121 164 205 245 299 365
#     4   9  18  35  58  88 122 156 199 243 293 359
#     4  10  23  42  63  87 120 164 206 244 299 367
#     4  11  22  37  61  94 126 155 196 254 305 350
#
# _framework density 9.9788940000000004
#
# number of rings (size 3 to 8) (size 9 to 14) (size 15 to 20)
#    0.000    1.714    1.429    2.571    2.000    4.571 
#    0.000    1.429    0.000    0.000    0.000    0.000 
#    0.000    0.000    0.000    0.000    0.000    0.000 
#
# Total GULP energy -156306.920343 kJ/mol
# GULP energy per Si atom -5582.390012 kJ/mol
# Density = 0.995618 g / cm^3
# Si number density = 9.978894 Si / 1000 Ang^3
#
#
#
# Elastic Constant Matrix: (Units=GPa)
#
#
# Indices 1 2 3 4 5 6 
#
# 1 21.8914 7.6778 4.7828 0.0000 1.4283 0.0000
# 2 7.6778 11.3112 26.4262 0.0000 -5.4472 0.0000
# 3 4.7828 26.4262 87.3372 0.0000 7.0935 0.0000
# 4 0.0000 0.0000 0.0000 32.6430 0.0000 3.9066
# 5 1.4283 -5.4472 7.0935 0.0000 15.3632 0.0000
# 6 0.0000 0.0000 0.0000 3.9066 0.0000 23.5082
#
#
#
# Elastic Compliance Matrix: (Units=1/GPa)
#
#
# Indices 1 2 3 4 5 6 
#
# 1 0.010012 0.115924 -0.040402 0.000000 0.058826 0.000000
# 2 0.115924 -0.369409 0.121496 0.000000 -0.197853 0.000000
# 3 -0.040402 0.121496 -0.027952 0.000000 0.059740 0.000000
# 4 0.000000 0.000000 0.000000 0.031256 0.000000 -0.005194
# 5 0.058826 -0.197853 0.059740 0.000000 -0.038112 0.000000
# 6 0.000000 0.000000 0.000000 -0.005194 0.000000 0.043401
#
#
# Mechanical properties :
#
#
# Convention : Reuss Voigt Hill
#
# Bulk Modulus (GPa) = 149.53378 22.03482 85.78430
# Shear Modulus (GPa) = -6.73301 19.74640 6.50670
#
# Velocity S-wave (km/s) = -1.83874 3.14890 1.80757
# Velocity P-wave (km/s) = 8.40118 4.92803 6.88713
#
# Compressibility (1/GPa) = 0.00668745
#
# Stress axis : x y z
#
# Youngs Moduli (GPa) = 99.88178 -2.70703 -35.77618
#
# Poissons Ratio (x) = 0.31381 -1.44543
# Poissons Ratio (y) = -11.57870 4.34666
# Poissons Ratio (z) = 4.03543 0.32889
#
# Static dielectric constant tensor:
#      x y z
#    x 1.710720 0.000000 0.019850 
#    y 0.000000 1.691330 0.000000 
#    z 0.019850 0.000000 1.723590 
# 
# From -- ./inp_files/238903.got.cif
#   From: 2010.05.17/outbox.ucp.g08.bks.cvg/sg12_120_cif.got.tgz:238903.got - 2010.06.11 11:47:21.
