data_PCOD9224577
_publ_section_title
;
Structure prediction by ZEFSAII (Michael W. Deem and Ramdas Pophale) SiO2 
 PCOD9224577
Probable space group: C 2/M
;
_chemical_formula_sum "Si O2"
_cell_formula_units_Z 24
_cell_length_a 30.000000
_cell_length_b 9.000000
_cell_length_c 9.000000
_cell_angle_alpha 90.000000
_cell_angle_beta 90.000000
_cell_angle_gamma 90.000000
_cell_volume 2430.000000
_symmetry_space_group_name_H-M "C 2/M"
_symmetry_group_IT_number 12
_symmetry_cell_setting 'monoclinic'
loop_
_space_group_symop_operation_xyz
x,y,z
-x,y,-z
-x,-y,-z
x,-y,z
1/2+x,1/2+y,z
1/2-x,1/2+y,-z
1/2-x,1/2-y,-z
1/2+x,1/2-y,z
loop_
_atom_site_type_symbol
_atom_site_label
_atom_site_fract_x
_atom_site_fract_y
_atom_site_fract_z
Si Si1 0.215656 0.834787 0.101297
Si Si2 0.028008 0.667546 0.148822
Si Si3 0.461643 0.172406 0.376470
Si Si4 0.372988 0.676749 0.304256
Si Si5 0.279634 0.166604 0.382045
Si Si6 0.617106 0.676975 0.048225
O O1 0.243920 0.844329 0.249770
O O2 0.165536 0.772509 0.110362
O O3 0.209048 0.000000 0.036953
O O4 0.250000 0.750000 0.000000
O O5 0.036570 0.500000 0.208690
O O6 0.074966 0.744626 0.122602
O O7 0.991240 0.748824 0.248802
O O8 0.000000 0.652073 0.000000
O O9 0.500000 0.168642 0.500000
O O10 0.414799 0.255308 0.395193
O O11 0.450298 0.000000 0.338471
O O12 0.370734 0.500000 0.326482
O O13 0.325269 0.748773 0.342342
O O14 0.382337 0.706599 0.129078
O O15 0.250000 0.250000 0.500000
O O16 0.291913 0.000000 0.429272
O O17 0.612698 0.500000 0.071522
#
# Coordination Sequence:
#
# PCOD9224577 Si02
#       6
#     8   8   8   8   8   8
#     4  10  21  38  60  88 118 153 197 247 296 350
#     4  10  20  35  57  84 112 147 194 240 284 343
#     4  10  22  40  60  85 120 156 196 245 298 356
#     4  11  22  38  62  88 118 156 198 245 302 362
#     4  11  24  41  63  89 123 162 201 248 302 360
#     4  10  21  36  58  88 119 150 193 245 296 348
#
# _framework density 9.8765429999999999
#
# number of rings (size 3 to 8) (size 9 to 14) (size 15 to 20)
#    0.000    1.667    3.333    1.000    0.000    4.667 
#    0.000    3.333    0.000    0.000    0.000    0.000 
#    0.000    0.000    0.000    0.000    0.000    0.000 
#
# Total GULP energy -133616.613042 kJ/mol
# GULP energy per Si atom -5567.358877 kJ/mol
# Density = 0.985406 g / cm^3
# Si number density = 9.876543 Si / 1000 Ang^3
#
#
#
# Elastic Constant Matrix: (Units=GPa)
#
#
# Indices 1 2 3 4 5 6 
#
# 1 188.0051 55.0538 21.0892 0.0000 5.4321 0.0000
# 2 55.0538 74.4831 23.2084 0.0000 -2.8661 0.0000
# 3 21.0892 23.2084 38.7239 0.0000 -4.4081 0.0000
# 4 0.0000 0.0000 0.0000 16.2163 0.0000 5.5080
# 5 5.4321 -2.8661 -4.4081 0.0000 22.9504 0.0000
# 6 0.0000 0.0000 0.0000 5.5080 0.0000 60.0570
#
#
#
# Elastic Compliance Matrix: (Units=1/GPa)
#
#
# Indices 1 2 3 4 5 6 
#
# 1 0.006946 -0.004873 -0.001144 0.000000 -0.002472 0.000000
# 2 -0.004873 0.019928 -0.009073 0.000000 0.001899 0.000000
# 3 -0.001144 -0.009073 0.032497 0.000000 0.005379 0.000000
# 4 0.000000 0.000000 0.000000 0.063649 0.000000 -0.005837
# 5 -0.002472 0.001899 0.005379 0.000000 0.045428 0.000000
# 6 0.000000 0.000000 0.000000 -0.005837 0.000000 0.017186
#
#
# Mechanical properties :
#
#
# Convention : Reuss Voigt Hill
#
# Bulk Modulus (GPa) = 34.25730 55.54608 44.90169
# Shear Modulus (GPa) = 22.16872 33.30212 27.73542
#
# Velocity S-wave (km/s) = 3.35370 4.11045 3.75121
# Velocity P-wave (km/s) = 5.69006 7.12102 6.44538
#
# Compressibility (1/GPa) = 0.02919086
#
# Stress axis : x y z
#
# Youngs Moduli (GPa) = 143.97691 50.18152 30.77202
#
# Poissons Ratio (x) = 0.24451 0.03520
# Poissons Ratio (y) = 0.70153 0.27921
# Poissons Ratio (z) = 0.16467 0.45532
#
# Static dielectric constant tensor:
#      x y z
#    x 1.656300 0.000000 -0.014050 
#    y 0.000000 1.728220 0.000000 
#    z -0.014050 0.000000 1.589080 
# 
# From -- ./inp_files/108663.got.cif
#   From: 2010.05.17/outbox.ucp.g08.bks.cvg/sg12_55_cif.got.tgz:108663.got - 2010.06.11 11:47:21.
