data_PCOD9224081
_publ_section_title
;
Structure prediction by ZEFSAII (Michael W. Deem and Ramdas Pophale) SiO2 
 PCOD9224081
Probable space group: C 2/M
;
_chemical_formula_sum "Si O2"
_cell_formula_units_Z 32
_cell_length_a 18.000000
_cell_length_b 9.000000
_cell_length_c 30.000000
_cell_angle_alpha 90.000000
_cell_angle_beta 40.000000
_cell_angle_gamma 90.000000
_cell_volume 3123.947783
_symmetry_space_group_name_H-M "C 2/M"
_symmetry_group_IT_number 12
_symmetry_cell_setting 'monoclinic'
loop_
_space_group_symop_operation_xyz
x,y,z
-x,y,-z
-x,-y,-z
x,-y,z
1/2+x,1/2+y,z
1/2-x,1/2+y,-z
1/2-x,1/2-y,-z
1/2+x,1/2-y,z
loop_
_atom_site_type_symbol
_atom_site_label
_atom_site_fract_x
_atom_site_fract_y
_atom_site_fract_z
Si Si1 0.158315 0.318871 0.342131
Si Si2 0.828482 0.672718 0.400076
Si Si3 0.904248 0.324609 0.467505
Si Si4 0.611074 0.321561 0.716224
Si Si5 0.635618 0.676947 0.164000
Si Si6 0.452658 0.328501 0.067368
Si Si7 0.210539 0.319953 0.217403
Si Si8 0.294724 0.668951 0.022212
O O1 0.157941 0.500000 0.343593
O O2 0.271388 0.264927 0.315695
O O3 0.172296 0.276771 0.284167
O O4 0.034079 0.274211 0.418291
O O5 0.832865 0.500000 0.386342
O O6 0.885442 0.688655 0.422700
O O7 0.697345 0.730897 0.464034
O O8 0.888878 0.766647 0.334262
O O9 0.890547 0.500000 0.485251
O O10 0.615174 0.500000 0.714867
O O11 0.491523 0.280097 0.795497
O O12 0.647166 0.500000 0.157313
O O13 0.640001 0.738966 0.211719
O O14 0.740763 0.750401 0.089525
O O15 0.421089 0.500000 0.069422
O O16 0.342727 0.274980 0.145012
O O17 0.500000 0.255095 0.000000
O O18 0.567403 0.330460 0.043550
O O19 0.199117 0.500000 0.219469
O O20 0.255383 0.500000 0.042123
O O21 0.250000 0.750000 0.000000
#
# Coordination Sequence:
#
# PCOD9224081 Si02
#       8
#     8   8   8   8   8   8   8   8
#     4   9  19  35  58  83 105 144 195 233 266 321
#     4  10  20  35  58  86 112 143 180 225 281 332
#     4   9  18  35  58  83 109 141 186 230 270 324
#     4  10  22  38  56  80 113 151 189 228 273 329
#     4  11  23  38  57  83 115 150 186 230 286 338
#     4   9  17  33  58  85 107 141 190 231 274 330
#     4  10  19  36  62  83 107 145 192 238 275 327
#     4  11  23  39  60  85 114 149 189 233 284 338
#
# _framework density 10.243449
#
# number of rings (size 3 to 8) (size 9 to 14) (size 15 to 20)
#    0.000    2.125    1.250    1.875    1.750    3.000 
#    0.000    6.250    0.000    0.000    0.000    0.000 
#    0.000    0.000    0.000    0.000    0.000    0.000 
#
# Total GULP energy -178434.243138 kJ/mol
# GULP energy per Si atom -5576.070098 kJ/mol
# Density = 1.022013 g / cm^3
# Si number density = 10.243449 Si / 1000 Ang^3
#
#
#
# Elastic Constant Matrix: (Units=GPa)
#
#
# Indices 1 2 3 4 5 6 
#
# 1 41.7077 24.2878 23.1349 -0.0001 -21.3316 0.0004
# 2 24.2878 7.3890 1.6498 -0.0004 -12.6539 0.0017
# 3 23.1349 1.6498 76.3743 0.0000 -31.9823 0.0000
# 4 -0.0001 -0.0004 0.0000 13.7730 0.0000 4.7474
# 5 -21.3316 -12.6539 -31.9823 0.0000 33.5952 0.0000
# 6 0.0004 0.0017 0.0000 4.7474 0.0000 19.7692
#
#
#
# Elastic Compliance Matrix: (Units=1/GPa)
#
#
# Indices 1 2 3 4 5 6 
#
# 1 -0.000969 0.060802 0.013823 0.000004 0.035446 -0.000006
# 2 0.060802 -0.100738 -0.026547 -0.000006 -0.024610 0.000009
# 3 0.013823 -0.026547 0.014913 -0.000002 0.012975 0.000002
# 4 0.000004 -0.000006 -0.000002 0.079158 -0.000001 -0.019009
# 5 0.035446 -0.024610 0.012975 -0.000001 0.055355 0.000002
# 6 -0.000006 0.000009 0.000002 -0.019009 0.000002 0.055149
#
#
# Mechanical properties :
#
#
# Convention : Reuss Voigt Hill
#
# Bulk Modulus (GPa) = 106.82103 24.84622 65.83363
# Shear Modulus (GPa) = 508.53107 18.52070 263.52588
#
# Velocity S-wave (km/s) = 15.77217 3.00997 11.35388
# Velocity P-wave (km/s) = 19.59429 4.92281 14.28584
#
# Compressibility (1/GPa) = 0.00936145
#
# Stress axis : x y z
#
# Youngs Moduli (GPa) = -1031.54100 -9.92674 67.05578
#
# Poissons Ratio (x) = 0.60356 -0.92694
# Poissons Ratio (y) = 62.71958 1.78014
# Poissons Ratio (z) = 14.25937 -0.26353
#
# Static dielectric constant tensor:
#      x y z
#    x 1.772430 0.000000 -0.020590 
#    y 0.000000 1.689160 0.000000 
#    z -0.020590 0.000000 1.690490 
# 
# From -- ./inp_files/378078.got.cif
#   From: 2010.05.17/outbox.ucp.g08.bks.cvg/sg12_190_cif.got.tgz:378078.got - 2010.06.11 11:47:21.
