data_PCOD9224309
_publ_section_title
;
Structure prediction by ZEFSAII (Michael W. Deem and Ramdas Pophale) SiO2 
 PCOD9224309
Probable space group: C 2/M
;
_chemical_formula_sum "Si O2"
_cell_formula_units_Z 28
_cell_length_a 18.000000
_cell_length_b 9.000000
_cell_length_c 30.000000
_cell_angle_alpha 90.000000
_cell_angle_beta 40.000000
_cell_angle_gamma 90.000000
_cell_volume 3123.947783
_symmetry_space_group_name_H-M "C 2/M"
_symmetry_group_IT_number 12
_symmetry_cell_setting 'monoclinic'
loop_
_space_group_symop_operation_xyz
x,y,z
-x,y,-z
-x,-y,-z
x,-y,z
1/2+x,1/2+y,z
1/2-x,1/2+y,-z
1/2-x,1/2-y,-z
1/2+x,1/2-y,z
loop_
_atom_site_type_symbol
_atom_site_label
_atom_site_fract_x
_atom_site_fract_y
_atom_site_fract_z
Si Si1 0.001104 0.320768 0.132651
Si Si2 0.971356 0.178815 0.288934
Si Si3 0.191389 0.320981 0.711027
Si Si4 0.547630 0.680621 0.429981
Si Si5 0.873682 0.820241 0.431046
Si Si6 0.412828 0.324953 0.998601
Si Si7 0.333849 0.320818 0.867701
O O1 0.013770 0.500000 0.125073
O O2 0.031646 0.251246 0.070765
O O3 0.089230 0.250860 0.128222
O O4 0.873988 0.286661 0.212196
O O5 0.883697 0.250331 0.293929
O O6 0.931520 0.224407 0.356985
O O7 0.098904 0.214393 0.209910
O O8 0.962230 0.000000 0.291500
O O9 0.188280 0.500000 0.708272
O O10 0.323301 0.271369 0.643094
O O11 0.500000 0.732248 0.500000
O O12 0.550743 0.500000 0.430516
O O13 0.459839 0.721734 0.431315
O O14 0.750000 0.750000 0.500000
O O15 0.862070 0.000000 0.435689
O O16 0.391783 0.500000 0.998931
O O17 0.500000 0.313466 0.000000
O O18 0.293373 0.246207 0.067824
O O19 0.330636 0.500000 0.873734
#
# Coordination Sequence:
#
# PCOD9224309 Si02
#       7
#     8   8   8   8   8   8   8
#     4  10  20  35  57  82 107 137 176 219 262 316
#     4   9  19  34  53  78 106 135 167 211 263 309
#     4   9  18  33  55  80 103 133 173 213 254 307
#     4   9  17  30  50  75 102 134 171 211 253 297
#     4  10  20  34  52  75 104 137 174 214 257 306
#     4  11  24  39  54  76 108 142 177 220 267 313
#     4  10  20  36  58  80 105 139 177 217 265 320
#
# _framework density 8.9630179999999999
#
# number of rings (size 3 to 8) (size 9 to 14) (size 15 to 20)
#    0.000    2.286    0.000    2.571    0.000    5.143 
#    0.000    3.571    0.000    2.571    0.000    0.000 
#    0.000    0.000    0.000    0.000    0.000    0.000 
#
# Total GULP energy -156144.164789 kJ/mol
# GULP energy per Si atom -5576.577314 kJ/mol
# Density = 0.894262 g / cm^3
# Si number density = 8.963018 Si / 1000 Ang^3
#
#
#
# Elastic Constant Matrix: (Units=GPa)
#
#
# Indices 1 2 3 4 5 6 
#
# 1 91.7225 32.2350 100.5009 0.0000 5.2018 -0.0002
# 2 32.2350 55.1961 59.3530 0.0000 3.5639 -0.0005
# 3 100.5009 59.3530 233.5537 0.0000 6.9051 0.0000
# 4 0.0000 0.0000 0.0000 29.2188 0.0000 1.1848
# 5 5.2018 3.5639 6.9051 0.0000 39.1820 0.0000
# 6 -0.0002 -0.0005 0.0000 1.1848 0.0000 21.2445
#
#
#
# Elastic Compliance Matrix: (Units=1/GPa)
#
#
# Indices 1 2 3 4 5 6 
#
# 1 0.021158 -0.003484 -0.008188 0.000000 -0.001049 0.000000
# 2 -0.003484 0.025556 -0.004966 0.000000 -0.000987 0.000001
# 3 -0.008188 -0.004966 0.009069 0.000000 -0.000059 0.000000
# 4 0.000000 0.000000 0.000000 0.034302 0.000000 -0.001913
# 5 -0.001049 -0.000987 -0.000059 0.000000 0.025761 0.000000
# 6 0.000000 0.000001 0.000000 -0.001913 0.000000 0.047178
#
#
# Mechanical properties :
#
#
# Convention : Reuss Voigt Hill
#
# Bulk Modulus (GPa) = 44.43202 84.96114 64.69658
# Shear Modulus (GPa) = 24.53349 30.48794 27.51071
#
# Velocity S-wave (km/s) = 3.70347 4.12850 3.92175
# Velocity P-wave (km/s) = 6.56717 8.38000 7.52835
#
# Compressibility (1/GPa) = 0.02250629
#
# Stress axis : x y z
#
# Youngs Moduli (GPa) = 47.26277 39.13020 110.26600
#
# Poissons Ratio (x) = 0.13633 0.90289
# Poissons Ratio (y) = 0.16466 0.54759
# Poissons Ratio (z) = 0.38700 0.19432
#
# Static dielectric constant tensor:
#      x y z
#    x 1.593520 0.000000 -0.005180 
#    y 0.000000 1.600890 0.000000 
#    z -0.005180 0.000000 1.627660 
# 
# From -- ./inp_files/377625.got.cif
#   From: 2010.05.17/outbox.ucp.g08.bks.cvg/sg12_189_cif.got.tgz:377625.got - 2010.06.11 11:47:21.
