data_PCOD9224664
_publ_section_title
;
Structure prediction by ZEFSAII (Michael W. Deem and Ramdas Pophale) SiO2 
 PCOD9224664
Probable space group: C 2/M
;
_chemical_formula_sum "Si O2"
_cell_formula_units_Z 24
_cell_length_a 9.000000
_cell_length_b 30.000000
_cell_length_c 18.000000
_cell_angle_alpha 90.000000
_cell_angle_beta 30.000000
_cell_angle_gamma 90.000000
_cell_volume 2430.000000
_symmetry_space_group_name_H-M "C 2/M"
_symmetry_group_IT_number 12
_symmetry_cell_setting 'monoclinic'
loop_
_space_group_symop_operation_xyz
x,y,z
-x,y,-z
-x,-y,-z
x,-y,z
1/2+x,1/2+y,z
1/2-x,1/2+y,-z
1/2-x,1/2-y,-z
1/2+x,1/2-y,z
loop_
_atom_site_type_symbol
_atom_site_label
_atom_site_fract_x
_atom_site_fract_y
_atom_site_fract_z
Si Si1 0.517769 0.800433 0.160708
Si Si2 0.678780 0.705537 0.816382
Si Si3 0.340659 0.050746 0.759086
Si Si4 0.813515 0.374554 0.654180
Si Si5 0.687027 0.130262 0.855233
Si Si6 0.626365 0.949639 0.085456
O O1 0.388396 0.754611 0.184724
O O2 0.587761 0.795351 0.217156
O O3 0.305005 0.838728 0.220828
O O4 0.851088 0.810592 0.985168
O O5 0.795044 0.671973 0.704728
O O6 0.422805 0.087340 0.663134
O O7 0.449156 0.060470 0.795671
O O8 0.426360 0.000000 0.702246
O O9 0.981992 0.051871 0.922104
O O10 0.486544 0.383798 0.764668
O O11 0.000000 0.371349 0.500000
O O12 0.516089 0.086360 0.905153
O O13 0.500000 0.155915 0.000000
O O14 0.529020 0.000000 0.111540
#
# Coordination Sequence:
#
# PCOD9224664 Si02
#       6
#     8   8   8   8   8   8
#     4  10  20  35  64  87 111 141 195 245 284 332
#     4  10  20  37  59  88 114 148 186 240 290 337
#     4   9  18  36  60  86 117 154 194 238 293 341
#     4  12  25  39  55  84 125 158 189 233 292 352
#     4  12  21  35  58  88 116 149 197 239 281 339
#     4   9  18  34  61  91 115 145 196 253 288 327
#
# _framework density 9.8765429999999999
#
# number of rings (size 3 to 8) (size 9 to 14) (size 15 to 20)
#    0.000    1.667    3.333    3.000    2.333    4.000 
#    0.000    6.667    0.000    2.000    0.000    0.000 
#    0.000    0.000    0.000    0.000    0.000    0.000 
#
# Total GULP energy -133868.652199 kJ/mol
# GULP energy per Si atom -5577.860508 kJ/mol
# Density = 0.985406 g / cm^3
# Si number density = 9.876543 Si / 1000 Ang^3
#
#
#
# Elastic Constant Matrix: (Units=GPa)
#
#
# Indices 1 2 3 4 5 6 
#
# 1 96.8510 40.4918 11.8491 0.0000 16.2132 0.0000
# 2 40.4918 55.4374 24.7827 0.0000 26.2445 0.0000
# 3 11.8491 24.7827 43.8813 0.0000 29.7235 0.0000
# 4 0.0000 0.0000 0.0000 18.4915 0.0000 17.9699
# 5 16.2132 26.2445 29.7235 0.0000 23.6518 0.0000
# 6 0.0000 0.0000 0.0000 17.9699 0.0000 44.4040
#
#
#
# Elastic Compliance Matrix: (Units=1/GPa)
#
#
# Indices 1 2 3 4 5 6 
#
# 1 0.015170 -0.011168 0.005788 0.000000 -0.005280 0.000000
# 2 -0.011168 0.070654 0.074161 0.000001 -0.163943 0.000000
# 3 0.005788 0.074161 0.253915 0.000002 -0.405356 -0.000001
# 4 0.000000 0.000001 0.000002 0.089132 -0.000003 -0.036071
# 5 -0.005280 -0.163943 -0.405356 -0.000003 0.737229 0.000002
# 6 0.000000 0.000000 -0.000001 -0.036071 0.000002 0.037118
#
#
# Mechanical properties :
#
#
# Convention : Reuss Voigt Hill
#
# Bulk Modulus (GPa) = 2.09511 38.93522 20.51516
# Shear Modulus (GPa) = 4.08244 25.24587 14.66416
#
# Velocity S-wave (km/s) = 1.43917 3.57889 2.72761
# Velocity P-wave (km/s) = 1.95565 6.06891 4.50867
#
# Compressibility (1/GPa) = 0.47730127
#
# Stress axis : x y z
#
# Youngs Moduli (GPa) = 65.91910 14.15347 3.93832
#
# Poissons Ratio (x) = 0.15806 -0.02279
# Poissons Ratio (y) = 0.73618 -0.29207
# Poissons Ratio (z) = -0.38151 -1.04964
#
# Static dielectric constant tensor:
#      x y z
#    x 1.640980 0.000000 0.095560 
#    y 0.000000 1.679670 0.000000 
#    z 0.095560 0.000000 1.543300 
# 
# From -- ./inp_files/200240.got.cif
#   From: 2010.05.17/outbox.ucp.g08.bks.cvg/sg12_101_cif.got.tgz:200240.got - 2010.06.11 11:47:21.
