data_PCOD9224983
_publ_section_title
;
Structure prediction by ZEFSAII (Michael W. Deem and Ramdas Pophale) SiO2 
 PCOD9224983
Probable space group: C 2/M
;
_chemical_formula_sum "Si O2"
_cell_formula_units_Z 32
_cell_length_a 15.000000
_cell_length_b 27.000000
_cell_length_c 12.000000
_cell_angle_alpha 90.000000
_cell_angle_beta 40.000000
_cell_angle_gamma 90.000000
_cell_volume 3123.947783
_symmetry_space_group_name_H-M "C 2/M"
_symmetry_group_IT_number 12
_symmetry_cell_setting 'monoclinic'
loop_
_space_group_symop_operation_xyz
x,y,z
-x,y,-z
-x,-y,-z
x,-y,z
1/2+x,1/2+y,z
1/2-x,1/2+y,-z
1/2-x,1/2-y,-z
1/2+x,1/2-y,z
loop_
_atom_site_type_symbol
_atom_site_label
_atom_site_fract_x
_atom_site_fract_y
_atom_site_fract_z
Si Si1 0.146650 0.312005 0.344181
Si Si2 0.139634 0.940601 0.606576
Si Si3 0.382838 0.875404 0.960957
Si Si4 0.309808 0.871249 0.281046
Si Si5 0.680174 0.446387 0.037577
Si Si6 0.342726 0.401467 0.164057
Si Si7 0.597366 0.767995 0.168762
Si Si8 0.119564 0.743649 0.784993
O O1 0.248088 0.356361 0.216025
O O2 0.091401 0.273473 0.305289
O O3 0.250042 0.279580 0.321524
O O4 0.000000 0.339455 0.500000
O O5 0.202549 0.904267 0.452802
O O6 0.187189 0.920201 0.682715
O O7 0.972851 0.935560 0.769274
O O8 0.170540 0.000000 0.564624
O O9 0.538775 0.893082 0.833086
O O10 0.403595 0.821699 0.887488
O O11 0.301463 0.873781 0.155638
O O12 0.293867 0.908181 0.965672
O O13 0.320529 0.811816 0.291964
O O14 0.722410 0.500000 0.038125
O O15 0.668750 0.444601 0.915240
O O16 0.500000 0.382960 0.000000
O O17 0.472106 0.739214 0.232344
O O18 0.750000 0.750000 0.000000
O O19 0.000000 0.742234 0.000000
#
# Coordination Sequence:
#
# PCOD9224983 Si02
#       8
#     8   8   8   8   8   8   8   8
#     4  12  26  40  60 101 131 161 214 267 319 377
#     4  10  23  41  63  92 125 163 206 264 325 371
#     4  10  20  38  62  90 118 163 209 250 311 375
#     4  10  21  41  62  86 124 164 208 255 309 372
#     4  10  21  40  65  92 120 158 211 262 315 380
#     4  10  22  41  65  90 126 168 209 256 318 384
#     4  11  21  39  68  86 123 172 212 257 312 381
#     4  11  21  43  64  88 127 173 211 251 310 379
#
# _framework density 10.243449
#
# number of rings (size 3 to 8) (size 9 to 14) (size 15 to 20)
#    0.000    1.500    5.000    0.750    3.500    3.500 
#    4.500    2.500    0.000    2.250    0.000    0.000 
#    0.000    0.000    0.000    0.000    0.000    0.000 
#
# Total GULP energy -178139.777493 kJ/mol
# GULP energy per Si atom -5566.868047 kJ/mol
# Density = 1.022013 g / cm^3
# Si number density = 10.243449 Si / 1000 Ang^3
#
#
#
# Elastic Constant Matrix: (Units=GPa)
#
#
# Indices 1 2 3 4 5 6 
#
# 1 114.4637 25.8843 17.0194 0.0000 -20.3060 0.0000
# 2 25.8843 57.4724 27.6174 0.0000 -22.0195 0.0000
# 3 17.0194 27.6174 36.0030 0.0000 -5.2448 0.0000
# 4 0.0000 0.0000 0.0000 5.3710 0.0000 8.3686
# 5 -20.3060 -22.0195 -5.2448 0.0000 14.7263 0.0000
# 6 0.0000 0.0000 0.0000 8.3686 0.0000 5.3402
#
#
#
# Elastic Compliance Matrix: (Units=1/GPa)
#
#
# Indices 1 2 3 4 5 6 
#
# 1 0.013194 0.010228 -0.009708 0.000000 0.030029 0.000000
# 2 0.010228 0.084313 -0.051777 0.000000 0.121733 -0.000001
# 3 -0.009708 -0.051777 0.062075 0.000000 -0.068699 0.000000
# 4 0.000000 0.000000 0.000000 -0.129143 0.000001 0.202378
# 5 0.030029 0.121733 -0.068699 0.000001 0.266866 -0.000001
# 6 0.000000 -0.000001 0.000000 0.202378 -0.000001 -0.129886
#
#
# Mechanical properties :
#
#
# Convention : Reuss Voigt Hill
#
# Bulk Modulus (GPa) = 17.52322 38.77571 28.14946
# Shear Modulus (GPa) = 17.30362 14.24869 15.77616
#
# Velocity S-wave (km/s) = 2.90939 2.64010 2.77801
# Velocity P-wave (km/s) = 4.45623 5.31617 4.90508
#
# Compressibility (1/GPa) = 0.05706715
#
# Stress axis : x y z
#
# Youngs Moduli (GPa) = 75.79083 11.86051 16.10967
#
# Poissons Ratio (x) = -0.12131 0.15640
# Poissons Ratio (y) = -0.77518 0.83411
# Poissons Ratio (z) = 0.73580 0.61410
#
# Static dielectric constant tensor:
#      x y z
#    x 1.119920 0.000000 0.252380 
#    y 0.000000 1.730290 0.000000 
#    z 0.252380 0.000000 1.667550 
# 
# From -- ./inp_files/149740.got.cif
#   From: 2010.05.17/outbox.ucp.g08.bks.cvg/sg12_75_cif.got.tgz:149740.got - 2010.06.11 11:47:21.
