data_PCOD9224040
_publ_section_title
;
Structure prediction by ZEFSAII (Michael W. Deem and Ramdas Pophale) SiO2 
 PCOD9224040
Probable space group: C 2/M
;
_chemical_formula_sum "Si O2"
_cell_formula_units_Z 24
_cell_length_a 30.000000
_cell_length_b 21.000000
_cell_length_c 24.000000
_cell_angle_alpha 90.000000
_cell_angle_beta 170.000000
_cell_angle_gamma 90.000000
_cell_volume 2625.560446
_symmetry_space_group_name_H-M "C 2/M"
_symmetry_group_IT_number 12
_symmetry_cell_setting 'monoclinic'
loop_
_space_group_symop_operation_xyz
x,y,z
-x,y,-z
-x,-y,-z
x,-y,z
1/2+x,1/2+y,z
1/2-x,1/2+y,-z
1/2-x,1/2-y,-z
1/2+x,1/2-y,z
loop_
_atom_site_type_symbol
_atom_site_label
_atom_site_fract_x
_atom_site_fract_y
_atom_site_fract_z
Si Si1 0.436129 0.692309 0.216417
Si Si2 0.894463 0.430334 0.697588
Si Si3 0.593186 0.569384 0.740912
Si Si4 0.848256 0.382929 0.871813
Si Si5 0.002946 0.247932 0.067264
Si Si6 0.430969 0.311092 0.737976
O O1 0.413014 0.627518 0.223188
O O2 0.721620 0.718178 0.582043
O O3 0.382245 0.683098 0.084546
O O4 0.250000 0.750000 0.000000
O O5 0.771168 0.500000 0.549882
O O6 0.726938 0.375073 0.464756
O O7 0.129755 0.433993 0.944985
O O8 0.999982 0.410566 0.888694
O O9 0.522260 0.500000 0.677715
O O10 0.413014 0.582954 0.465713
O O11 0.000000 0.389211 0.000000
O O12 0.808586 0.307524 0.832021
O O13 0.966143 0.200326 0.073412
O O14 0.000000 0.223371 0.000000
O O15 0.250000 0.250000 0.500000
#
# Coordination Sequence:
#
# PCOD9224040 Si02
#       6
#     8   8   8   8   8   8
#     4  11  21  35  55  80 106 144 185 227 269 317
#     4  11  22  35  53  78 111 149 185 222 270 320
#     4  11  22  34  50  80 116 149 180 219 267 328
#     4  11  19  34  50  76 112 148 180 212 266 328
#     4  10  19  37  54  78 107 144 184 223 271 322
#     4  10  19  36  56  74 103 143 182 230 264 318
#
# _framework density 9.1409059999999993
#
# number of rings (size 3 to 8) (size 9 to 14) (size 15 to 20)
#    0.000    1.333    6.667    3.000    0.000    4.667 
#    0.000    0.833    0.000    0.500    0.000    0.000 
#    0.000    5.333    0.000    0.000    0.000    0.000 
#
# Total GULP energy -133695.982288 kJ/mol
# GULP energy per Si atom -5570.665929 kJ/mol
# Density = 0.912010 g / cm^3
# Si number density = 9.140906 Si / 1000 Ang^3
#
#
#
# Elastic Constant Matrix: (Units=GPa)
#
#
# Indices 1 2 3 4 5 6 
#
# 1 145.5338 63.7841 22.8311 0.0946 -28.0518 -0.2212
# 2 63.7841 138.7994 40.6040 0.0784 -13.2324 -0.1935
# 3 22.8311 40.6040 20.7721 -0.1764 3.4742 -0.1042
# 4 0.0946 0.0784 -0.1764 4.1986 0.0608 8.1150
# 5 -28.0518 -13.2324 3.4742 0.0608 21.0015 -0.2340
# 6 -0.2212 -0.1935 -0.1042 8.1150 -0.2340 16.8107
#
#
#
# Elastic Compliance Matrix: (Units=1/GPa)
#
#
# Indices 1 2 3 4 5 6 
#
# 1 0.015515 0.005450 -0.033014 -0.047783 0.030019 0.023546
# 2 0.005450 0.027915 -0.067121 -0.073649 0.036586 0.036039
# 3 -0.033014 -0.067121 0.238544 0.250621 -0.127939 -0.122491
# 4 -0.047783 -0.073649 0.250621 3.860858 -0.183649 -1.866227
# 5 0.030019 0.036586 -0.127939 -0.183649 0.133468 0.090533
# 6 0.023546 0.036039 -0.122491 -1.866227 0.090533 0.961593
#
#
# Mechanical properties :
#
#
# Convention : Reuss Voigt Hill
#
# Bulk Modulus (GPa) = 10.79871 62.17151 36.48511
# Shear Modulus (GPa) = 0.91606 20.26124 10.58865
#
# Velocity S-wave (km/s) = 0.70864 3.33269 2.40925
# Velocity P-wave (km/s) = 2.56694 6.99215 5.26685
#
# Compressibility (1/GPa) = 0.09260363
#
# Stress axis : x y z
#
# Youngs Moduli (GPa) = 64.45374 35.82241 4.19209
#
# Poissons Ratio (x) = -0.19522 0.13840
# Poissons Ratio (y) = -0.35126 0.28138
# Poissons Ratio (z) = 2.12789 2.40444
#
# Static dielectric constant tensor:
#      x y z
#    x 1.689560 0.001180 -0.051190 
#    y 0.001180 1.447700 -0.009320 
#    z -0.051190 -0.009320 3.390580 
# 
# From -- ./inp_files/354443.got.cif
#   From: 2010.05.17/outbox.ucp.g08.bks.cvg/sg12_178_cif.got.tgz:354443.got - 2010.06.11 11:47:21.
