data_PCOD9224751
_publ_section_title
;
Structure prediction by ZEFSAII (Michael W. Deem and Ramdas Pophale) SiO2 
 PCOD9224751
Probable space group: C 2/M
;
_chemical_formula_sum "Si O2"
_cell_formula_units_Z 32
_cell_length_a 18.000000
_cell_length_b 9.000000
_cell_length_c 30.000000
_cell_angle_alpha 90.000000
_cell_angle_beta 40.000000
_cell_angle_gamma 90.000000
_cell_volume 3123.947783
_symmetry_space_group_name_H-M "C 2/M"
_symmetry_group_IT_number 12
_symmetry_cell_setting 'monoclinic'
loop_
_space_group_symop_operation_xyz
x,y,z
-x,y,-z
-x,-y,-z
x,-y,z
1/2+x,1/2+y,z
1/2-x,1/2+y,-z
1/2-x,1/2-y,-z
1/2+x,1/2-y,z
loop_
_atom_site_type_symbol
_atom_site_label
_atom_site_fract_x
_atom_site_fract_y
_atom_site_fract_z
Si Si1 0.072948 0.826092 0.926362
Si Si2 0.942676 0.826774 0.411837
Si Si3 0.644290 0.831079 0.285549
Si Si4 0.314663 0.671573 0.820106
Si Si5 0.082317 0.166749 0.823750
Si Si6 0.863599 0.169948 0.348026
Si Si7 0.891805 0.328354 0.520408
Si Si8 0.486011 0.166302 0.790843
O O1 0.192556 0.745354 0.872592
O O2 0.025662 0.816160 0.898298
O O3 0.094371 0.000000 0.924614
O O4 0.000000 0.764174 0.000000
O O5 0.060874 0.733605 0.360782
O O6 0.882947 0.799622 0.391555
O O7 0.872473 0.772416 0.486293
O O8 0.967376 0.000000 0.403040
O O9 0.620509 0.731377 0.253340
O O10 0.779079 0.826691 0.234888
O O11 0.614062 0.000000 0.289021
O O12 0.305453 0.500000 0.821926
O O13 0.378543 0.725550 0.834336
O O14 0.044081 0.298975 0.810500
O O15 0.055997 0.000000 0.818443
O O16 0.728584 0.171984 0.398453
O O17 0.925011 0.285772 0.288062
O O18 0.906505 0.000000 0.319892
O O19 0.912858 0.500000 0.496853
O O20 0.000000 0.278517 0.500000
O O21 0.446847 0.000000 0.802976
#
# Coordination Sequence:
#
# PCOD9224751 Si02
#       8
#     8   8   8   8   8   8   8   8
#     4   9  19  39  66  93 122 159 200 238 284 346
#     4  11  22  36  58  84 113 149 191 244 296 350
#     4  10  20  36  59  85 113 152 196 238 289 352
#     4  11  21  36  59  88 122 155 194 241 288 339
#     4   9  20  37  58  85 120 155 189 238 292 339
#     4  10  22  40  59  81 112 153 196 241 298 354
#     4  10  23  41  59  80 110 152 197 243 298 361
#     4  12  24  37  58  87 119 156 198 243 294 351
#
# _framework density 10.243449
#
# number of rings (size 3 to 8) (size 9 to 14) (size 15 to 20)
#    0.000    1.750    1.250    4.125    1.750    4.000 
#    0.000    0.625    0.000    0.000    0.000    0.000 
#    0.000    0.000    0.000    0.000    0.000    0.000 
#
# Total GULP energy -178313.250316 kJ/mol
# GULP energy per Si atom -5572.289072 kJ/mol
# Density = 1.022013 g / cm^3
# Si number density = 10.243449 Si / 1000 Ang^3
#
#
#
# Elastic Constant Matrix: (Units=GPa)
#
#
# Indices 1 2 3 4 5 6 
#
# 1 40.4048 20.5735 5.1227 -0.0001 1.6298 -0.0001
# 2 20.5735 53.1349 52.4945 -0.0001 13.0367 0.0000
# 3 5.1227 52.4945 25.1936 0.0000 7.7412 0.0000
# 4 -0.0001 -0.0001 0.0000 9.1302 -0.0001 3.0906
# 5 1.6298 13.0367 7.7412 -0.0001 -0.5996 -0.0001
# 6 -0.0001 0.0000 0.0000 3.0906 -0.0001 20.5803
#
#
#
# Elastic Compliance Matrix: (Units=1/GPa)
#
#
# Indices 1 2 3 4 5 6 
#
# 1 0.024277 0.004505 -0.013026 0.000000 -0.004225 0.000000
# 2 0.004505 -0.018020 0.030855 0.000000 0.018801 0.000000
# 3 -0.013026 0.030855 -0.043730 0.000001 0.070882 0.000000
# 4 0.000000 0.000000 0.000001 0.115393 -0.000002 -0.017329
# 5 -0.004225 0.018801 0.070882 -0.000002 -0.355380 -0.000001
# 6 0.000000 0.000000 0.000000 -0.017329 -0.000001 0.051193
#
#
# Mechanical properties :
#
#
# Convention : Reuss Voigt Hill
#
# Bulk Modulus (GPa) = 138.95454 30.56831 84.76143
# Shear Modulus (GPa) = -18.61936 8.52502 -5.04717
#
# Velocity S-wave (km/s) = -3.01797 2.04212 -1.57129
# Velocity P-wave (km/s) = 7.47189 4.52920 6.17830
#
# Compressibility (1/GPa) = 0.00719660
#
# Stress axis : x y z
#
# Youngs Moduli (GPa) = 41.19066 -55.49293 -22.86780
#
# Poissons Ratio (x) = 0.25002 -0.29787
# Poissons Ratio (y) = -0.18558 0.70559
# Poissons Ratio (z) = 0.53654 1.71223
#
# Static dielectric constant tensor:
#      x y z
#    x 1.760640 0.000000 0.029500 
#    y 0.000000 1.651900 0.000000 
#    z 0.029500 0.000000 1.891360 
# 
# From -- ./inp_files/378201.got.cif
#   From: 2010.05.17/outbox.ucp.g08.bks.cvg/sg12_190_cif.got.tgz:378201.got - 2010.06.11 11:47:21.
