data_PCOD9224835
_publ_section_title
;
Structure prediction by ZEFSAII (Michael W. Deem and Ramdas Pophale) SiO2 
 PCOD9224835
Probable space group: C 2/M
;
_chemical_formula_sum "Si O2"
_cell_formula_units_Z 28
_cell_length_a 9.000000
_cell_length_b 24.000000
_cell_length_c 15.000000
_cell_angle_alpha 90.000000
_cell_angle_beta 120.000000
_cell_angle_gamma 90.000000
_cell_volume 2805.922308
_symmetry_space_group_name_H-M "C 2/M"
_symmetry_group_IT_number 12
_symmetry_cell_setting 'monoclinic'
loop_
_space_group_symop_operation_xyz
x,y,z
-x,y,-z
-x,-y,-z
x,-y,z
1/2+x,1/2+y,z
1/2-x,1/2+y,-z
1/2-x,1/2-y,-z
1/2+x,1/2-y,z
loop_
_atom_site_type_symbol
_atom_site_label
_atom_site_fract_x
_atom_site_fract_y
_atom_site_fract_z
Si Si1 0.784594 0.267350 0.614182
Si Si2 0.437535 0.850887 0.245452
Si Si3 0.013462 0.435444 0.605873
Si Si4 0.866518 0.937791 0.538118
Si Si5 0.121110 0.349868 0.121252
Si Si6 0.673141 0.728600 0.071347
Si Si7 0.028753 0.830459 0.681845
O O1 0.750000 0.250000 0.500000
O O2 0.633697 0.294205 0.633996
O O3 0.924894 0.316002 0.656765
O O4 0.889323 0.212853 0.681278
O O5 0.378279 0.899396 0.293253
O O6 0.531417 0.871899 0.183794
O O7 0.299817 0.808252 0.166171
O O8 0.064679 0.500000 0.621162
O O9 0.812952 0.431885 0.568003
O O10 0.000000 0.414931 0.500000
O O11 0.000000 0.940342 0.500000
O O12 0.923407 0.883659 0.611925
O O13 0.862277 0.000000 0.581668
O O14 0.115797 0.282629 0.110255
O O15 0.326816 0.353929 0.205105
O O16 0.000000 0.368609 0.000000
O O17 0.500000 0.695168 0.000000
O O18 0.750000 0.750000 0.000000
#
# Coordination Sequence:
#
# PCOD9224835 Si02
#       7
#     8   8   8   8   8   8   8
#     4  11  22  33  49  79 122 152 183 241 302 363
#     4  11  21  37  60  87 118 163 199 244 316 366
#     4  10  23  44  66  90 118 157 213 261 302 365
#     4  10  20  39  64  84 113 158 204 249 296 360
#     4  10  20  37  57  83 122 157 203 250 290 363
#     4  11  20  37  58  85 123 164 203 245 297 370
#     4  11  22  36  53  83 118 152 196 239 300 364
#
# _framework density 9.9788940000000004
#
# number of rings (size 3 to 8) (size 9 to 14) (size 15 to 20)
#    0.000    1.429    4.286    3.857    0.000    2.286 
#    2.571    0.000    0.000    2.143    0.000    0.000 
#    0.000    0.000    0.000    0.000    0.000    0.000 
#
# Total GULP energy -155873.931088 kJ/mol
# GULP energy per Si atom -5566.926110 kJ/mol
# Density = 0.995618 g / cm^3
# Si number density = 9.978894 Si / 1000 Ang^3
#
#
#
# Elastic Constant Matrix: (Units=GPa)
#
#
# Indices 1 2 3 4 5 6 
#
# 1 61.0246 21.2776 17.4383 0.0000 0.3547 0.0000
# 2 21.2776 96.4057 33.5329 0.0000 -8.0003 0.0000
# 3 17.4383 33.5329 125.7697 0.0000 -6.3093 0.0000
# 4 0.0000 0.0000 0.0000 35.9906 0.0000 -0.7063
# 5 0.3547 -8.0003 -6.3093 0.0000 28.9854 0.0000
# 6 0.0000 0.0000 0.0000 -0.7063 0.0000 16.8854
#
#
#
# Elastic Compliance Matrix: (Units=1/GPa)
#
#
# Indices 1 2 3 4 5 6 
#
# 1 0.018104 -0.003554 -0.001641 0.000000 -0.001560 0.000000
# 2 -0.003554 0.012316 -0.002647 0.000000 0.002867 0.000000
# 3 -0.001641 -0.002647 0.008946 0.000000 0.001237 0.000000
# 4 0.000000 0.000000 0.000000 0.027808 0.000000 0.001163
# 5 -0.001560 0.002867 0.001237 0.000000 0.035580 0.000000
# 6 0.000000 0.000000 0.000000 0.001163 0.000000 0.059271
#
#
# Mechanical properties :
#
#
# Convention : Reuss Voigt Hill
#
# Bulk Modulus (GPa) = 42.22640 47.52197 44.87418
# Shear Modulus (GPa) = 26.93911 30.43569 28.68740
#
# Velocity S-wave (km/s) = 3.67795 3.90937 3.79542
# Velocity P-wave (km/s) = 6.26420 6.65135 6.46068
#
# Compressibility (1/GPa) = 0.02368187
#
# Stress axis : x y z
#
# Youngs Moduli (GPa) = 55.23616 81.19550 111.77757
#
# Poissons Ratio (x) = 0.28861 0.18340
# Poissons Ratio (y) = 0.19634 0.29588
# Poissons Ratio (z) = 0.09063 0.21493
#
# Static dielectric constant tensor:
#      x y z
#    x 1.787310 0.000000 0.011270 
#    y 0.000000 1.769220 0.000000 
#    z 0.011270 0.000000 1.773280 
# 
# From -- ./inp_files/198988.got.cif
#   From: 2010.05.17/outbox.ucp.g08.bks.cvg/sg12_100_cif.got.tgz:198988.got - 2010.06.11 11:47:21.
