data_PCOD9224688
_publ_section_title
;
Structure prediction by ZEFSAII (Michael W. Deem and Ramdas Pophale) SiO2 
 PCOD9224688
Probable space group: C 2/M
;
_chemical_formula_sum "Si O2"
_cell_formula_units_Z 32
_cell_length_a 30.000000
_cell_length_b 9.000000
_cell_length_c 24.000000
_cell_angle_alpha 90.000000
_cell_angle_beta 30.000000
_cell_angle_gamma 90.000000
_cell_volume 3240.000000
_symmetry_space_group_name_H-M "C 2/M"
_symmetry_group_IT_number 12
_symmetry_cell_setting 'monoclinic'
loop_
_space_group_symop_operation_xyz
x,y,z
-x,y,-z
-x,-y,-z
x,-y,z
1/2+x,1/2+y,z
1/2-x,1/2+y,-z
1/2-x,1/2-y,-z
1/2+x,1/2-y,z
loop_
_atom_site_type_symbol
_atom_site_label
_atom_site_fract_x
_atom_site_fract_y
_atom_site_fract_z
Si Si1 0.250260 0.179401 0.233070
Si Si2 0.587822 0.679711 0.761098
Si Si3 0.754332 0.178821 0.633644
Si Si4 0.454383 0.673455 0.711191
Si Si5 0.889613 0.819402 0.388312
Si Si6 0.434435 0.682203 0.618900
Si Si7 0.881475 0.821470 0.008915
Si Si8 0.755842 0.672328 0.052908
O O1 0.225171 0.214689 0.324075
O O2 0.166127 0.226250 0.286286
O O3 0.338049 0.255195 0.112292
O O4 0.260186 0.000000 0.217849
O O5 0.593258 0.500000 0.757585
O O6 0.657775 0.752621 0.726731
O O7 0.620319 0.731320 0.664342
O O8 0.484916 0.718612 0.885645
O O9 0.822792 0.228012 0.510328
O O10 0.751686 0.000000 0.633028
O O11 0.479638 0.500000 0.683822
O O12 0.510392 0.731185 0.701951
O O13 0.480420 0.742503 0.624733
O O14 0.348716 0.676018 0.819651
O O15 0.883069 0.000000 0.392119
O O16 0.500000 0.726381 0.500000
O O17 0.433089 0.500000 0.622810
O O18 0.820420 0.757045 0.025072
O O19 0.875392 0.000000 0.015934
O O20 0.783233 0.500000 0.020170
O O21 0.750000 0.750000 0.000000
#
# Coordination Sequence:
#
# PCOD9224688 Si02
#       8
#     8   8   8   8   8   8   8   8
#     4  10  20  36  56  85 118 147 186 238 290 343
#     4  10  22  39  58  79 110 151 196 242 292 348
#     4  10  21  36  59  87 112 141 186 243 299 347
#     4   9  16  28  50  80 111 142 176 216 268 329
#     4   9  17  33  56  85 115 142 181 238 291 343
#     4   9  15  26  49  81 111 139 176 222 273 334
#     4  11  23  39  58  82 114 156 199 240 283 338
#     4  11  21  35  56  84 117 153 190 232 279 334
#
# _framework density 9.8765429999999999
#
# number of rings (size 3 to 8) (size 9 to 14) (size 15 to 20)
#    0.000    2.125    1.250    2.625    0.000    7.000 
#    0.000    2.500    0.000    1.875    0.000    0.000 
#    0.000    0.000    0.000    0.000    0.000    0.000 
#
# Total GULP energy -178147.062739 kJ/mol
# GULP energy per Si atom -5567.095711 kJ/mol
# Density = 0.985406 g / cm^3
# Si number density = 9.876543 Si / 1000 Ang^3
#
#
#
# Elastic Constant Matrix: (Units=GPa)
#
#
# Indices 1 2 3 4 5 6 
#
# 1 75.0614 7.0741 13.6491 -0.0013 -3.2115 -0.0012
# 2 7.0741 11.5736 19.9500 0.0019 -2.5715 -0.0004
# 3 13.6491 19.9500 69.0658 0.0101 8.8047 -0.0069
# 4 -0.0013 0.0019 0.0101 21.3686 -0.0027 0.5134
# 5 -3.2115 -2.5715 8.8047 -0.0027 27.8041 -0.0002
# 6 -0.0012 -0.0004 -0.0069 0.5134 -0.0002 23.3972
#
#
#
# Elastic Compliance Matrix: (Units=1/GPa)
#
#
# Indices 1 2 3 4 5 6 
#
# 1 0.014193 -0.006412 -0.001132 0.000002 0.001405 0.000000
# 2 -0.006412 0.209915 -0.064346 0.000016 0.039050 -0.000016
# 3 -0.001132 -0.064346 0.035498 -0.000013 -0.017323 0.000010
# 4 0.000002 0.000016 -0.000013 0.046822 0.000010 -0.001028
# 5 0.001405 0.039050 -0.017323 0.000010 0.045225 -0.000004
# 6 0.000000 -0.000016 0.000010 -0.001028 -0.000004 0.042763
#
#
# Mechanical properties :
#
#
# Convention : Reuss Voigt Hill
#
# Bulk Modulus (GPa) = 8.63365 26.33858 17.48612
# Shear Modulus (GPa) = 8.66846 22.18247 15.42546
#
# Velocity S-wave (km/s) = 2.09712 3.35474 2.79752
# Velocity P-wave (km/s) = 3.20065 5.32621 4.39390
#
# Compressibility (1/GPa) = 0.11582587
#
# Stress axis : x y z
#
# Youngs Moduli (GPa) = 70.45920 4.76383 28.17079
#
# Poissons Ratio (x) = 0.03054 0.03188
# Poissons Ratio (y) = 0.45177 1.81268
# Poissons Ratio (z) = 0.07975 0.30653
#
# Static dielectric constant tensor:
#      x y z
#    x 2.326080 0.000130 0.939680 
#    y 0.000130 1.591230 0.000210 
#    z 0.939680 0.000210 3.263630 
# 
# From -- ./inp_files/353321.got.cif
#   From: 2010.05.17/outbox.ucp.g08.bks.cvg/sg12_177_cif.got.tgz:353321.got - 2010.06.11 11:47:21.
