data_PCOD9224774
_publ_section_title
;
Structure prediction by ZEFSAII (Michael W. Deem and Ramdas Pophale) SiO2 
 PCOD9224774
Probable space group: C 2/M
;
_chemical_formula_sum "Si O2"
_cell_formula_units_Z 28
_cell_length_a 18.000000
_cell_length_b 9.000000
_cell_length_c 18.000000
_cell_angle_alpha 90.000000
_cell_angle_beta 110.000000
_cell_angle_gamma 90.000000
_cell_volume 2740.143682
_symmetry_space_group_name_H-M "C 2/M"
_symmetry_group_IT_number 12
_symmetry_cell_setting 'monoclinic'
loop_
_space_group_symop_operation_xyz
x,y,z
-x,y,-z
-x,-y,-z
x,-y,z
1/2+x,1/2+y,z
1/2-x,1/2+y,-z
1/2-x,1/2-y,-z
1/2+x,1/2-y,z
loop_
_atom_site_type_symbol
_atom_site_label
_atom_site_fract_x
_atom_site_fract_y
_atom_site_fract_z
Si Si1 0.461079 0.331655 0.559454
Si Si2 0.810613 0.320917 0.578256
Si Si3 0.588148 0.668537 0.727141
Si Si4 0.889480 0.325091 0.887149
Si Si5 0.256015 0.819844 0.724330
Si Si6 0.667725 0.672328 0.986474
Si Si7 0.951273 0.328633 0.150003
O O1 0.500000 0.260694 0.500000
O O2 0.430525 0.500000 0.530465
O O3 0.394513 0.241229 0.579705
O O4 0.535397 0.348316 0.637434
O O5 0.810182 0.500000 0.575979
O O6 0.750000 0.250000 0.500000
O O7 0.783041 0.272718 0.651564
O O8 0.597911 0.500000 0.761769
O O9 0.672664 0.730389 0.729577
O O10 0.539400 0.780077 0.762595
O O11 0.880186 0.500000 0.901467
O O12 0.823001 0.279557 0.806008
O O13 0.877494 0.236064 0.957818
O O14 0.972516 0.306779 0.874744
O O15 0.251190 0.000000 0.719806
O O16 0.679578 0.500000 0.998795
O O17 0.750000 0.750000 0.000000
O O18 0.615311 0.716818 0.899119
O O19 0.926987 0.500000 0.134714
#
# Coordination Sequence:
#
# PCOD9224774 Si02
#       7
#     8   8   8   8   8   8   8
#     4  10  21  38  59  85 119 158 198 241 293 350
#     4  11  22  38  60  86 117 154 198 245 295 351
#     4  10  20  36  60  86 115 155 201 245 289 342
#     4  10  21  39  62  87 118 156 195 236 287 347
#     4   9  19  37  60  84 113 153 195 237 290 347
#     4  12  25  41  62  88 118 152 194 243 294 349
#     4  11  23  39  60  88 122 158 196 239 289 345
#
# _framework density 10.218442
#
# number of rings (size 3 to 8) (size 9 to 14) (size 15 to 20)
#    0.000    1.571    0.000    5.143    0.000    8.286 
#    0.000    4.286    0.000    0.000    0.000    0.000 
#    0.000    0.000    0.000    0.000    0.000    0.000 
#
# Total GULP energy -156199.631252 kJ/mol
# GULP energy per Si atom -5578.558259 kJ/mol
# Density = 1.019518 g / cm^3
# Si number density = 10.218442 Si / 1000 Ang^3
#
#
#
# Elastic Constant Matrix: (Units=GPa)
#
#
# Indices 1 2 3 4 5 6 
#
# 1 50.4575 49.0551 5.2845 0.0000 -1.2311 0.0000
# 2 49.0551 50.4173 22.4771 0.0000 -4.0160 0.0000
# 3 5.2845 22.4771 50.5518 0.0000 -1.6489 0.0000
# 4 0.0000 0.0000 0.0000 19.0907 0.0000 -5.1787
# 5 -1.2311 -4.0160 -1.6489 0.0000 35.1195 0.0000
# 6 0.0000 0.0000 0.0000 -5.1787 0.0000 22.3168
#
#
#
# Elastic Compliance Matrix: (Units=1/GPa)
#
#
# Indices 1 2 3 4 5 6 
#
# 1 -0.233979 0.271836 -0.095809 0.000000 0.018385 0.000000
# 2 0.271836 -0.290889 0.100302 0.000000 -0.019026 0.000000
# 3 -0.095809 0.100302 -0.014559 0.000000 0.007428 0.000000
# 4 0.000000 0.000000 0.000000 0.055900 0.000000 0.012972
# 5 0.018385 -0.019026 0.007428 0.000000 0.027292 0.000000
# 6 0.000000 0.000000 0.000000 0.012972 0.000000 0.047820
#
#
# Mechanical properties :
#
#
# Convention : Reuss Voigt Hill
#
# Bulk Modulus (GPa) = 75.57644 33.89557 54.73600
# Shear Modulus (GPa) = -5.22650 20.27939 7.52644
#
# Velocity S-wave (km/s) = -1.60092 3.15349 1.92114
# Velocity P-wave (km/s) = 5.80030 5.46633 5.63579
#
# Compressibility (1/GPa) = 0.01323164
#
# Stress axis : x y z
#
# Youngs Moduli (GPa) = -4.27389 -3.43774 -68.68839
#
# Poissons Ratio (x) = 0.93450 -6.58094
# Poissons Ratio (y) = 1.16179 6.88960
# Poissons Ratio (z) = -0.40948 0.34481
#
# Static dielectric constant tensor:
#      x y z
#    x 0.000000 0.000000 0.000000 
#    y 0.000000 0.000000 0.000000 
#    z 0.000000 0.000000 0.000000 
# 
# From -- ./inp_files/275645.got.cif
#   From: 2010.05.17/outbox.ucp.g08.bks.cvg/sg12_138_cif.got.tgz:275645.got - 2010.06.11 11:47:21.
