data_PCOD9224943
_publ_section_title
;
Structure prediction by ZEFSAII (Michael W. Deem and Ramdas Pophale) SiO2 
 PCOD9224943
Probable space group: C 2/M
;
_chemical_formula_sum "Si O2"
_cell_formula_units_Z 24
_cell_length_a 21.000000
_cell_length_b 9.000000
_cell_length_c 15.000000
_cell_angle_alpha 90.000000
_cell_angle_beta 90.000000
_cell_angle_gamma 90.000000
_cell_volume 2835.000000
_symmetry_space_group_name_H-M "C 2/M"
_symmetry_group_IT_number 12
_symmetry_cell_setting 'monoclinic'
loop_
_space_group_symop_operation_xyz
x,y,z
-x,y,-z
-x,-y,-z
x,-y,z
1/2+x,1/2+y,z
1/2-x,1/2+y,-z
1/2-x,1/2-y,-z
1/2+x,1/2-y,z
loop_
_atom_site_type_symbol
_atom_site_label
_atom_site_fract_x
_atom_site_fract_y
_atom_site_fract_z
Si Si1 0.631273 0.679540 0.706122
Si Si2 0.371911 0.819270 0.704913
Si Si3 0.249331 0.180735 0.400068
Si Si4 0.325161 0.678374 0.095094
Si Si5 0.825425 0.678344 0.903782
Si Si6 0.504112 0.679228 0.393016
O O1 0.641477 0.500000 0.699783
O O2 0.687589 0.762607 0.652443
O O3 0.638002 0.718158 0.812378
O O4 0.562796 0.711168 0.659076
O O5 0.312342 0.745597 0.652273
O O6 0.362505 0.782165 0.811379
O O7 0.436941 0.758681 0.658484
O O8 0.369134 0.000000 0.697559
O O9 0.250000 0.250000 0.500000
O O10 0.247263 0.000000 0.403541
O O11 0.329779 0.500000 0.085509
O O12 0.249925 0.715971 0.108981
O O13 0.344996 0.750083 0.999544
O O14 0.829868 0.500000 0.913059
O O15 0.500000 0.718089 0.500000
O O16 0.514003 0.500000 0.389240
#
# Coordination Sequence:
#
# PCOD9224943 Si02
#       6
#     8   8   8   8   8   8
#     4  10  20  38  59  83 118 152 189 240 293 341
#     4  11  22  39  60  84 117 152 191 239 290 341
#     4  12  24  37  58  86 115 147 191 240 288 342
#     4   9  17  32  55  82 113 149 187 231 287 343
#     4   9  18  33  54  82 114 147 186 234 286 338
#     4  10  22  39  59  83 114 154 195 236 288 350
#
# _framework density 8.4656079999999996
#
# number of rings (size 3 to 8) (size 9 to 14) (size 15 to 20)
#    0.000    1.833    1.667    3.000    0.000    4.333 
#    0.000    0.833    0.000    5.000    0.000    0.000 
#    0.000    0.000    0.000    0.000    0.000    0.000 
#
# Total GULP energy -133878.001513 kJ/mol
# GULP energy per Si atom -5578.250063 kJ/mol
# Density = 0.844634 g / cm^3
# Si number density = 8.465608 Si / 1000 Ang^3
#
#
#
# Elastic Constant Matrix: (Units=GPa)
#
#
# Indices 1 2 3 4 5 6 
#
# 1 133.6971 50.8402 83.6991 0.0000 -1.7496 0.0000
# 2 50.8402 81.4602 59.0396 0.0000 -4.0455 0.0000
# 3 83.6991 59.0396 212.9814 0.0000 -1.1540 0.0000
# 4 0.0000 0.0000 0.0000 38.9409 0.0000 -5.3172
# 5 -1.7496 -4.0455 -1.1540 0.0000 39.1806 0.0000
# 6 0.0000 0.0000 0.0000 -5.3172 0.0000 30.7373
#
#
#
# Elastic Compliance Matrix: (Units=1/GPa)
#
#
# Indices 1 2 3 4 5 6 
#
# 1 0.011227 -0.004772 -0.003090 0.000000 -0.000082 0.000000
# 2 -0.004772 0.017475 -0.002961 0.000000 0.001504 0.000000
# 3 -0.003090 -0.002961 0.006729 0.000000 -0.000245 0.000000
# 4 0.000000 0.000000 0.000000 0.026301 0.000000 0.004550
# 5 -0.000082 0.001504 -0.000245 0.000000 0.025667 0.000000
# 6 0.000000 0.000000 0.000000 0.004550 0.000000 0.033321
#
#
# Mechanical properties :
#
#
# Convention : Reuss Voigt Hill
#
# Bulk Modulus (GPa) = 72.53633 90.58850 81.56242
# Shear Modulus (GPa) = 34.02280 37.40908 35.71594
#
# Velocity S-wave (km/s) = 4.48758 4.70560 4.59788
# Velocity P-wave (km/s) = 8.35380 9.11831 8.74441
#
# Compressibility (1/GPa) = 0.01378619
#
# Stress axis : x y z
#
# Youngs Moduli (GPa) = 89.06725 57.22624 148.61219
#
# Poissons Ratio (x) = 0.27307 0.45920
# Poissons Ratio (y) = 0.42501 0.43998
# Poissons Ratio (z) = 0.27521 0.16943
#
# Static dielectric constant tensor:
#      x y z
#    x 1.564730 0.000000 0.005810 
#    y 0.000000 1.572900 0.000000 
#    z 0.005810 0.000000 1.582280 
# 
# From -- ./inp_files/229294.got.cif
#   From: 2010.05.17/outbox.ucp.g08.bks.cvg/sg12_115_cif.got.tgz:229294.got - 2010.06.11 11:47:21.
