data_PCOD9224278
_publ_section_title
;
Structure prediction by ZEFSAII (Michael W. Deem and Ramdas Pophale) SiO2 
 PCOD9224278
Probable space group: C 2/M
;
_chemical_formula_sum "Si O2"
_cell_formula_units_Z 32
_cell_length_a 21.000000
_cell_length_b 9.000000
_cell_length_c 24.000000
_cell_angle_alpha 90.000000
_cell_angle_beta 130.000000
_cell_angle_gamma 90.000000
_cell_volume 3474.777594
_symmetry_space_group_name_H-M "C 2/M"
_symmetry_group_IT_number 12
_symmetry_cell_setting 'monoclinic'
loop_
_space_group_symop_operation_xyz
x,y,z
-x,y,-z
-x,-y,-z
x,-y,z
1/2+x,1/2+y,z
1/2-x,1/2+y,-z
1/2-x,1/2-y,-z
1/2+x,1/2-y,z
loop_
_atom_site_type_symbol
_atom_site_label
_atom_site_fract_x
_atom_site_fract_y
_atom_site_fract_z
Si Si1 0.924605 0.832089 0.500622
Si Si2 0.274078 0.822736 0.352008
Si Si3 0.110458 0.328274 0.300914
Si Si4 0.043669 0.820783 0.848236
Si Si5 0.782050 0.820674 0.803153
Si Si6 0.853748 0.178052 0.199713
Si Si7 0.974736 0.180428 0.924480
Si Si8 0.494488 0.828102 0.648637
O O1 0.850479 0.751964 0.426393
O O2 0.958552 0.744351 0.572989
O O3 0.000000 0.840413 0.500000
O O4 0.899734 0.000000 0.502678
O O5 0.191131 0.769143 0.336176
O O6 0.261692 0.778983 0.280074
O O7 0.282084 0.000000 0.358305
O O8 0.125581 0.500000 0.293736
O O9 0.077708 0.325070 0.345573
O O10 0.035995 0.258598 0.223250
O O11 0.119865 0.783674 0.849391
O O12 0.038453 0.778681 0.910532
O O13 0.033412 0.000000 0.839204
O O14 0.730823 0.749137 0.824901
O O15 0.879376 0.776300 0.857098
O O16 0.779036 0.000000 0.806068
O O17 0.927629 0.240911 0.280784
O O18 0.850483 0.000000 0.202510
O O19 0.974876 0.000000 0.926325
O O20 0.000000 0.234525 0.000000
O O21 0.519228 0.000000 0.653132
#
# Coordination Sequence:
#
# PCOD9224278 Si02
#       8
#     8   8   8   8   8   8   8   8
#     4  11  24  39  54  76 106 141 182 228 281 330
#     4  11  22  36  56  79 106 143 185 228 273 325
#     4  10  20  34  55  82 108 139 179 227 276 323
#     4   9  17  34  56  81 111 145 187 224 269 329
#     4  10  20  35  56  83 111 142 186 232 272 326
#     4  10  20  33  55  82 112 149 184 229 278 325
#     4   9  17  33  59  86 110 142 186 230 270 322
#     4  10  21  37  56  79 108 143 185 227 274 328
#
# _framework density 9.2092220000000005
#
# number of rings (size 3 to 8) (size 9 to 14) (size 15 to 20)
#    0.000    2.000    1.250    2.625    0.000    6.500 
#    0.000    0.625    0.000    1.500    0.000    0.000 
#    0.000    0.000    0.000    0.000    0.000    0.000 
#
# Total GULP energy -178536.380523 kJ/mol
# GULP energy per Si atom -5579.261891 kJ/mol
# Density = 0.918826 g / cm^3
# Si number density = 9.209222 Si / 1000 Ang^3
#
#
#
# Elastic Constant Matrix: (Units=GPa)
#
#
# Indices 1 2 3 4 5 6 
#
# 1 92.9020 21.7763 26.0841 0.0000 -16.7415 0.0000
# 2 21.7763 42.5611 10.0215 0.0000 -11.8198 0.0000
# 3 26.0841 10.0215 55.3101 0.0000 -32.8923 0.0000
# 4 0.0000 0.0000 0.0000 15.6005 0.0000 1.3036
# 5 -16.7415 -11.8198 -32.8923 0.0000 27.0381 0.0000
# 6 0.0000 0.0000 0.0000 1.3036 0.0000 31.1048
#
#
#
# Elastic Compliance Matrix: (Units=1/GPa)
#
#
# Indices 1 2 3 4 5 6 
#
# 1 0.013654 -0.006075 -0.006835 0.000000 -0.002516 0.000000
# 2 -0.006075 0.030364 0.010921 0.000000 0.022797 0.000000
# 3 -0.006835 0.010921 0.071042 0.000000 0.086966 0.000000
# 4 0.000000 0.000000 0.000000 0.064326 0.000000 -0.002696
# 5 -0.002516 0.022797 0.086966 0.000000 0.151188 0.000000
# 6 0.000000 0.000000 0.000000 -0.002696 0.000000 0.032262
#
#
# Mechanical properties :
#
#
# Convention : Reuss Voigt Hill
#
# Bulk Modulus (GPa) = 9.00242 34.05968 21.53105
# Shear Modulus (GPa) = 12.38110 23.60810 17.99460
#
# Velocity S-wave (km/s) = 2.59552 3.58406 3.12907
# Velocity P-wave (km/s) = 3.72567 5.97157 4.97696
#
# Compressibility (1/GPa) = 0.11108130
#
# Stress axis : x y z
#
# Youngs Moduli (GPa) = 73.24068 32.93406 14.07614
#
# Poissons Ratio (x) = 0.20009 0.09620
# Poissons Ratio (y) = 0.44496 -0.15372
# Poissons Ratio (z) = 0.50057 -0.35967
#
# Static dielectric constant tensor:
#      x y z
#    x 1.652280 0.000000 -0.021790 
#    y 0.000000 1.627300 0.000000 
#    z -0.021790 0.000000 1.610270 
# 
# From -- ./inp_files/346280.got.cif
#   From: 2010.05.17/outbox.ucp.g08.bks.cvg/sg12_174_cif.got.tgz:346280.got - 2010.06.11 11:47:21.
