data_PCOD9224178
_publ_section_title
;
Structure prediction by ZEFSAII (Michael W. Deem and Ramdas Pophale) SiO2 
 PCOD9224178
Probable space group: C 2/M
;
_chemical_formula_sum "Si O2"
_cell_formula_units_Z 32
_cell_length_a 15.000000
_cell_length_b 27.000000
_cell_length_c 12.000000
_cell_angle_alpha 90.000000
_cell_angle_beta 140.000000
_cell_angle_gamma 90.000000
_cell_volume 3123.947783
_symmetry_space_group_name_H-M "C 2/M"
_symmetry_group_IT_number 12
_symmetry_cell_setting 'monoclinic'
loop_
_space_group_symop_operation_xyz
x,y,z
-x,y,-z
-x,-y,-z
x,-y,z
1/2+x,1/2+y,z
1/2-x,1/2+y,-z
1/2-x,1/2-y,-z
1/2+x,1/2-y,z
loop_
_atom_site_type_symbol
_atom_site_label
_atom_site_fract_x
_atom_site_fract_y
_atom_site_fract_z
Si Si1 0.704187 0.731613 0.232333
Si Si2 0.939343 0.738882 0.122652
Si Si3 0.988159 0.373763 0.212728
Si Si4 0.726489 0.357225 0.404345
Si Si5 0.685032 0.057387 0.254659
Si Si6 0.748706 0.558620 0.941700
Si Si7 0.440107 0.701623 0.558760
Si Si8 0.069985 0.942500 0.335686
O O1 0.583006 0.756421 0.190751
O O2 0.702388 0.675640 0.273042
O O3 0.843460 0.756586 0.410329
O O4 0.671960 0.739531 0.071670
O O5 0.924459 0.680049 0.124529
O O6 0.958206 0.770552 0.254780
O O7 0.110202 0.363900 0.418349
O O8 0.077280 0.403083 0.202357
O O9 0.859962 0.409691 0.116883
O O10 0.655505 0.331268 0.447620
O O11 0.648935 0.409119 0.322487
O O12 0.711511 0.065380 0.150160
O O13 0.831628 0.061341 0.460499
O O14 0.635844 0.000000 0.224183
O O15 0.758545 0.500000 0.975545
O O16 0.588324 0.574395 0.800267
O O17 0.500000 0.677025 0.500000
O O18 0.066671 0.000000 0.302416
#
# Coordination Sequence:
#
# PCOD9224178 Si02
#       8
#     8   8   8   8   8   8   8   8
#     4  10  20  38  60  79 116 160 197 249 292 343
#     4  10  21  36  58  84 110 159 204 242 293 352
#     4  11  19  30  54  76 113 154 203 239 288 356
#     4  10  20  38  59  81 118 162 205 240 296 354
#     4   9  18  29  45  73 110 156 202 238 287 358
#     4  10  20  31  46  77 120 156 192 246 303 353
#     4  11  22  38  58  85 122 154 195 248 299 350
#     4   9  19  34  52  77 115 155 195 246 294 353
#
# _framework density 10.243449
#
# number of rings (size 3 to 8) (size 9 to 14) (size 15 to 20)
#    0.000    2.000    2.500    1.875    3.500    6.500 
#    0.000    2.500    0.000    0.000    0.000    7.000 
#    0.000    4.500    0.000    0.125    0.000    0.125 
#
# Total GULP energy -178584.085664 kJ/mol
# GULP energy per Si atom -5580.752677 kJ/mol
# Density = 1.022013 g / cm^3
# Si number density = 10.243449 Si / 1000 Ang^3
#
#
#
# Elastic Constant Matrix: (Units=GPa)
#
#
# Indices 1 2 3 4 5 6 
#
# 1 27.0879 11.5144 48.0302 0.0000 9.4072 0.0000
# 2 11.5144 81.9085 52.9524 0.0000 4.9907 0.0000
# 3 48.0302 52.9524 120.3260 0.0000 7.6616 0.0000
# 4 0.0000 0.0000 0.0000 31.6995 0.0000 9.6992
# 5 9.4072 4.9907 7.6616 0.0000 28.1022 0.0000
# 6 0.0000 0.0000 0.0000 9.6992 0.0000 15.2831
#
#
#
# Elastic Compliance Matrix: (Units=1/GPa)
#
#
# Indices 1 2 3 4 5 6 
#
# 1 0.210576 0.035970 -0.096668 0.000000 -0.050524 0.000000
# 2 0.035970 0.023235 -0.023970 0.000000 -0.009632 0.000000
# 3 -0.096668 -0.023970 0.056088 0.000000 0.021325 0.000000
# 4 0.000000 0.000000 0.000000 0.039148 0.000000 -0.024845
# 5 -0.050524 -0.009632 0.021325 0.000000 0.048394 0.000000
# 6 0.000000 0.000000 0.000000 -0.024845 0.000000 0.081199
#
#
# Mechanical properties :
#
#
# Convention : Reuss Voigt Hill
#
# Bulk Modulus (GPa) = 8.29430 50.47960 29.38695
# Shear Modulus (GPa) = 7.48320 22.80532 15.14426
#
# Velocity S-wave (km/s) = 1.91327 3.34003 2.72180
# Velocity P-wave (km/s) = 2.98968 6.29030 4.92474
#
# Compressibility (1/GPa) = 0.12056476
#
# Stress axis : x y z
#
# Youngs Moduli (GPa) = 4.74888 43.03784 17.82910
#
# Poissons Ratio (x) = -1.54809 1.72350
# Poissons Ratio (y) = -0.17082 0.42737
# Poissons Ratio (z) = 0.45906 1.03162
#
# Static dielectric constant tensor:
#      x y z
#    x 1.736390 0.000000 0.031850 
#    y 0.000000 1.759790 0.000000 
#    z 0.031850 0.000000 1.745930 
# 
# From -- ./inp_files/149810.got.cif
#   From: 2010.05.17/outbox.ucp.g08.bks.cvg/sg12_75_cif.got.tgz:149810.got - 2010.06.11 11:47:21.
