data_PCOD9224179
_publ_section_title
;
Structure prediction by ZEFSAII (Michael W. Deem and Ramdas Pophale) SiO2 
 PCOD9224179
Probable space group: C 2/M
;
_chemical_formula_sum "Si O2"
_cell_formula_units_Z 32
_cell_length_a 30.000000
_cell_length_b 9.000000
_cell_length_c 24.000000
_cell_angle_alpha 90.000000
_cell_angle_beta 30.000000
_cell_angle_gamma 90.000000
_cell_volume 3240.000000
_symmetry_space_group_name_H-M "C 2/M"
_symmetry_group_IT_number 12
_symmetry_cell_setting 'monoclinic'
loop_
_space_group_symop_operation_xyz
x,y,z
-x,y,-z
-x,-y,-z
x,-y,z
1/2+x,1/2+y,z
1/2-x,1/2+y,-z
1/2-x,1/2-y,-z
1/2+x,1/2-y,z
loop_
_atom_site_type_symbol
_atom_site_label
_atom_site_fract_x
_atom_site_fract_y
_atom_site_fract_z
Si Si1 0.615701 0.821875 0.918888
Si Si2 0.151370 0.326962 0.182326
Si Si3 0.993504 0.677825 0.570769
Si Si4 0.153566 0.174153 0.986018
Si Si5 0.959012 0.822006 0.792682
Si Si6 0.100717 0.826104 0.551795
Si Si7 0.287315 0.825997 0.403582
Si Si8 0.912275 0.319413 0.172842
O O1 0.634320 0.772464 0.835265
O O2 0.621179 0.000000 0.913038
O O3 0.671571 0.753631 0.908197
O O4 0.514937 0.782111 0.048238
O O5 0.129990 0.500000 0.192329
O O6 0.099329 0.290865 0.296259
O O7 0.113884 0.224384 0.174261
O O8 0.256190 0.313759 0.076398
O O9 0.003835 0.500000 0.557643
O O10 0.000000 0.733284 0.500000
O O11 0.066384 0.742661 0.534538
O O12 0.074001 0.235974 0.111558
O O13 0.136707 0.000000 0.992960
O O14 0.049882 0.771894 0.663450
O O15 0.962905 0.000000 0.794310
O O16 0.204983 0.816478 0.449583
O O17 0.076889 0.000000 0.571311
O O18 0.250000 0.750000 0.500000
O O19 0.369895 0.764702 0.276966
O O20 0.303653 0.000000 0.398966
O O21 0.906545 0.500000 0.181651
#
# Coordination Sequence:
#
# PCOD9224179 Si02
#       8
#     8   8   8   8   8   8   8   8
#     4   9  18  34  55  74  95 132 173 207 248 298
#     4   9  18  32  47  68  97 129 163 200 242 291
#     4   9  18  33  52  72  98 132 167 205 249 299
#     4  10  20  31  47  73 103 128 158 205 255 296
#     4   9  18  32  48  67  98 133 160 197 247 295
#     4   9  19  34  50  72 101 132 166 205 253 304
#     4  10  21  36  55  79 106 136 172 215 260 307
#     4   8  17  36  55  72 100 132 167 211 252 294
#
# _framework density 9.8765429999999999
#
# number of rings (size 3 to 8) (size 9 to 14) (size 15 to 20)
#    0.000    2.875    0.000    1.125    1.750    2.750 
#    0.000    1.875    0.000    0.000    0.000    0.000 
#    0.000    0.000    0.000    0.000    0.000    0.000 
#
# Total GULP energy -178199.289065 kJ/mol
# GULP energy per Si atom -5568.727783 kJ/mol
# Density = 0.985406 g / cm^3
# Si number density = 9.876543 Si / 1000 Ang^3
#
#
#
# Elastic Constant Matrix: (Units=GPa)
#
#
# Indices 1 2 3 4 5 6 
#
# 1 45.5397 2.7516 22.5589 -0.0051 18.9431 -0.0060
# 2 2.7516 -6.9236 14.6519 0.0028 0.3525 0.0006
# 3 22.5589 14.6519 73.0766 0.0059 27.8338 0.0092
# 4 -0.0051 0.0028 0.0059 17.3561 -0.0073 3.1296
# 5 18.9431 0.3525 27.8338 -0.0073 34.0503 -0.0106
# 6 -0.0060 0.0006 0.0092 3.1296 -0.0106 13.2977
#
#
#
# Elastic Compliance Matrix: (Units=1/GPa)
#
#
# Indices 1 2 3 4 5 6 
#
# 1 0.029383 0.001429 -0.004538 0.000004 -0.012652 0.000005
# 2 0.001429 -0.090617 0.025663 0.000003 -0.020835 -0.000031
# 3 -0.004538 0.025663 0.013184 -0.000011 -0.008518 -0.000016
# 4 0.000004 0.000003 -0.000011 0.060170 0.000015 -0.014161
# 5 -0.012652 -0.020835 -0.008518 0.000015 0.043585 0.000032
# 6 0.000005 -0.000031 -0.000016 -0.014161 0.000032 0.078534
#
#
# Mechanical properties :
#
#
# Convention : Reuss Voigt Hill
#
# Bulk Modulus (GPa) = -340.01186 21.29083 -159.36052
# Shear Modulus (GPa) = 56.72097 17.72284 37.22191
#
# Velocity S-wave (km/s) = 5.36445 2.99861 4.34563
# Velocity P-wave (km/s) = 11.58166 4.77397 7.46137
#
# Compressibility (1/GPa) = -0.00294107
#
# Stress axis : x y z
#
# Youngs Moduli (GPa) = 34.03280 -11.03545 75.84877
#
# Poissons Ratio (x) = 0.01577 0.34423
# Poissons Ratio (y) = -0.04864 -1.94654
# Poissons Ratio (z) = 0.15445 0.28321
#
# Static dielectric constant tensor:
#      x y z
#    x 1.720940 0.000000 -0.011960 
#    y 0.000000 1.680420 0.000000 
#    z -0.011960 0.000000 1.754510 
# 
# From -- ./inp_files/244222.got.cif
#   From: 2010.05.17/outbox.ucp.g08.bks.cvg/sg12_123_cif.got.tgz:244222.got - 2010.06.11 11:47:21.
