data_PCOD9224734
_publ_section_title
;
Structure prediction by ZEFSAII (Michael W. Deem and Ramdas Pophale) SiO2 
 PCOD9224734
Probable space group: C 2/M
;
_chemical_formula_sum "Si O2"
_cell_formula_units_Z 32
_cell_length_a 18.000000
_cell_length_b 9.000000
_cell_length_c 21.000000
_cell_angle_alpha 90.000000
_cell_angle_beta 90.000000
_cell_angle_gamma 90.000000
_cell_volume 3402.000000
_symmetry_space_group_name_H-M "C 2/M"
_symmetry_group_IT_number 12
_symmetry_cell_setting 'monoclinic'
loop_
_space_group_symop_operation_xyz
x,y,z
-x,y,-z
-x,-y,-z
x,-y,z
1/2+x,1/2+y,z
1/2-x,1/2+y,-z
1/2-x,1/2-y,-z
1/2+x,1/2-y,z
loop_
_atom_site_type_symbol
_atom_site_label
_atom_site_fract_x
_atom_site_fract_y
_atom_site_fract_z
Si Si1 0.428011 0.822528 0.866838
Si Si2 0.408290 0.675246 0.351117
Si Si3 0.713964 0.667643 0.303690
Si Si4 0.578903 0.324225 0.901400
Si Si5 0.545969 0.328732 0.270721
Si Si6 0.824486 0.824690 0.971391
Si Si7 0.787003 0.680106 0.435700
Si Si8 0.317437 0.327693 0.217696
O O1 0.504378 0.771292 0.900733
O O2 0.442435 0.759731 0.795158
O O3 0.360571 0.751410 0.908530
O O4 0.419472 0.000000 0.865233
O O5 0.412267 0.500000 0.368098
O O6 0.487927 0.728185 0.323908
O O7 0.367537 0.760528 0.409336
O O8 0.362052 0.686288 0.284567
O O9 0.744382 0.500000 0.300100
O O10 0.626113 0.665744 0.302174
O O11 0.738602 0.725190 0.373069
O O12 0.742694 0.746592 0.239458
O O13 0.561459 0.500000 0.890655
O O14 0.633960 0.276586 0.842908
O O15 0.618311 0.312686 0.969498
O O16 0.522469 0.500000 0.254808
O O17 0.811845 0.000000 0.958460
O O18 0.750000 0.750000 0.000000
O O19 0.787972 0.500000 0.442374
O O20 0.750000 0.750000 0.500000
O O21 0.301239 0.500000 0.205504
#
# Coordination Sequence:
#
# PCOD9224734 Si02
#       8
#     8   8   8   8   8   8   8   8
#     4  12  25  39  59  86 116 153 197 241 290 350
#     4   9  17  33  58  83 110 145 184 227 279 334
#     4   9  20  35  55  84 115 147 187 235 281 329
#     4  10  21  40  62  83 111 150 194 240 294 350
#     4  10  20  38  60  84 116 152 189 237 294 343
#     4  11  25  43  62  84 115 152 194 244 298 354
#     4  10  20  36  58  85 116 150 191 229 273 331
#     4   9  17  32  55  82 110 142 182 229 282 341
#
# _framework density 9.4062319999999993
#
# number of rings (size 3 to 8) (size 9 to 14) (size 15 to 20)
#    0.000    2.000    1.250    2.250    1.750    4.500 
#    0.000    0.625    0.000    3.750    0.000    0.000 
#    0.000    0.000    0.000    0.000    0.000    0.000 
#
# Total GULP energy -178325.761432 kJ/mol
# GULP energy per Si atom -5572.680045 kJ/mol
# Density = 0.938482 g / cm^3
# Si number density = 9.406232 Si / 1000 Ang^3
#
#
#
# Elastic Constant Matrix: (Units=GPa)
#
#
# Indices 1 2 3 4 5 6 
#
# 1 96.5129 42.5166 39.2428 0.0000 -37.8933 0.0000
# 2 42.5166 90.4887 48.8012 0.0000 -27.3214 0.0000
# 3 39.2428 48.8012 106.4310 0.0000 -44.0622 0.0000
# 4 0.0000 0.0000 0.0000 28.4949 0.0000 -12.5584
# 5 -37.8933 -27.3214 -44.0622 0.0000 47.3880 0.0000
# 6 0.0000 0.0000 0.0000 -12.5584 0.0000 27.6196
#
#
#
# Elastic Compliance Matrix: (Units=1/GPa)
#
#
# Indices 1 2 3 4 5 6 
#
# 1 0.016559 -0.004799 0.000701 0.000000 0.011126 0.000000
# 2 -0.004799 0.016457 -0.005588 0.000000 0.000455 0.000000
# 3 0.000701 -0.005588 0.017231 0.000000 0.013360 0.000000
# 4 0.000000 0.000000 0.000000 0.043889 0.000000 0.019956
# 5 0.011126 0.000455 0.013360 0.000000 0.042684 0.000000
# 6 0.000000 0.000000 0.000000 0.019956 0.000000 0.045280
#
#
# Mechanical properties :
#
#
# Convention : Reuss Voigt Hill
#
# Bulk Modulus (GPa) = 32.38949 61.61710 47.00329
# Shear Modulus (GPa) = 23.61133 31.55863 27.58498
#
# Velocity S-wave (km/s) = 3.54657 4.10022 3.83340
# Velocity P-wave (km/s) = 5.83312 7.43237 6.68077
#
# Compressibility (1/GPa) = 0.03087421
#
# Stress axis : x y z
#
# Youngs Moduli (GPa) = 60.39137 60.76438 58.03617
#
# Poissons Ratio (x) = 0.29161 -0.04069
# Poissons Ratio (y) = 0.28982 0.32432
# Poissons Ratio (z) = -0.04235 0.33956
#
# Static dielectric constant tensor:
#      x y z
#    x 1.726310 0.000000 0.019130 
#    y 0.000000 1.678010 0.000000 
#    z 0.019130 0.000000 1.638830 
# 
# From -- ./inp_files/314053.got.cif
#   From: 2010.05.17/outbox.ucp.g08.bks.cvg/sg12_158_cif.got.tgz:314053.got - 2010.06.11 11:47:21.
