data_PCOD9224173
_publ_section_title
;
Structure prediction by ZEFSAII (Michael W. Deem and Ramdas Pophale) SiO2 
 PCOD9224173
Probable space group: C 2/M
;
_chemical_formula_sum "Si O2"
_cell_formula_units_Z 26
_cell_length_a 9.000000
_cell_length_b 24.000000
_cell_length_c 27.000000
_cell_angle_alpha 90.000000
_cell_angle_beta 30.000000
_cell_angle_gamma 90.000000
_cell_volume 2916.000000
_symmetry_space_group_name_H-M "C 2/M"
_symmetry_group_IT_number 12
_symmetry_cell_setting 'monoclinic'
loop_
_space_group_symop_operation_xyz
x,y,z
-x,y,-z
-x,-y,-z
x,-y,z
1/2+x,1/2+y,z
1/2-x,1/2+y,-z
1/2-x,1/2-y,-z
1/2+x,1/2-y,z
loop_
_atom_site_type_symbol
_atom_site_label
_atom_site_fract_x
_atom_site_fract_y
_atom_site_fract_z
Si Si1 0.116777 0.142362 0.718443
Si Si2 0.000000 0.798448 0.000000
Si Si3 0.709726 0.360357 0.845421
Si Si4 0.835011 0.933679 0.885225
Si Si5 0.210989 0.812621 0.488284
Si Si6 0.423027 0.267735 0.196416
Si Si7 0.369011 0.656432 0.684002
O O1 0.471633 0.157781 0.616467
O O2 0.974815 0.197936 0.784462
O O3 0.975884 0.095037 0.795113
O O4 0.026131 0.132733 0.687730
O O5 0.015435 0.836480 0.946731
O O6 0.294756 0.760924 0.910923
O O7 0.554381 0.412887 0.865275
O O8 0.717119 0.312221 0.800904
O O9 0.043809 0.369369 0.767974
O O10 0.831100 0.000000 0.880464
O O11 0.500000 0.915976 0.000000
O O12 0.250000 0.750000 0.500000
O O13 0.000000 0.810847 0.500000
O O14 0.055075 0.844546 0.579526
O O15 0.200861 0.220534 0.279957
#
# Coordination Sequence:
#
# PCOD9224173 Si02
#       7
#     8   4   8   8   8   8   8
#     4  11  23  37  61  85 121 163 200 253 298 357
#     4  10  20  30  53  80 121 154 194 240 288 370
#     4  10  22  35  56  83 116 160 199 251 298 361
#     4  10  24  45  66  84 112 157 211 262 312 356
#     4  12  23  36  57  88 128 169 202 236 287 357
#     4  10  20  32  50  81 121 166 197 229 290 366
#     4  11  21  36  56  88 128 154 201 236 300 364
#
# _framework density 8.9163239999999995
#
# number of rings (size 3 to 8) (size 9 to 14) (size 15 to 20)
#    0.000    1.385    1.538    5.538    8.615    0.000 
#    0.000    1.154    0.000    6.000    0.000    0.000 
#    0.000    0.000    0.000    0.000    0.000    0.000 
#
# Total GULP energy -145059.921417 kJ/mol
# GULP energy per Si atom -5579.227747 kJ/mol
# Density = 0.889603 g / cm^3
# Si number density = 8.916324 Si / 1000 Ang^3
#
#
#
# Elastic Constant Matrix: (Units=GPa)
#
#
# Indices 1 2 3 4 5 6 
#
# 1 150.2728 25.7745 60.2598 -0.0471 5.6846 -0.0705
# 2 25.7745 55.9065 38.7734 -0.2132 -0.9073 0.0159
# 3 60.2598 38.7734 156.8057 -0.2704 11.4686 -0.0580
# 4 -0.0471 -0.2132 -0.2704 24.4311 0.0319 1.6157
# 5 5.6846 -0.9073 11.4686 0.0319 35.9478 0.0151
# 6 -0.0705 0.0159 -0.0580 1.6157 0.0151 11.2632
#
#
#
# Elastic Compliance Matrix: (Units=1/GPa)
#
#
# Indices 1 2 3 4 5 6 
#
# 1 0.008037 -0.001927 -0.002576 -0.000032 -0.000498 0.000045
# 2 -0.001927 0.022240 -0.004937 0.000139 0.002441 -0.000092
# 3 -0.002576 -0.004937 0.008772 0.000050 -0.002516 0.000032
# 4 -0.000032 0.000139 0.000050 0.041325 -0.000042 -0.005928
# 5 -0.000498 0.002441 -0.002516 -0.000042 0.028761 -0.000052
# 6 0.000045 -0.000092 0.000032 -0.005928 -0.000052 0.089636
#
#
# Mechanical properties :
#
#
# Convention : Reuss Voigt Hill
#
# Bulk Modulus (GPa) = 49.58095 68.06669 58.82382
# Shear Modulus (GPa) = 22.28433 30.20691 26.24562
#
# Velocity S-wave (km/s) = 3.53885 4.12018 3.84053
# Velocity P-wave (km/s) = 6.67546 7.80302 7.26116
#
# Compressibility (1/GPa) = 0.02016904
#
# Stress axis : x y z
#
# Youngs Moduli (GPa) = 124.42815 44.96485 113.99927
#
# Poissons Ratio (x) = 0.08665 0.29362
# Poissons Ratio (y) = 0.23979 0.56281
# Poissons Ratio (z) = 0.32048 0.22199
#
# Static dielectric constant tensor:
#      x y z
#    x 1.649980 -0.000020 -0.002160 
#    y -0.000020 1.601310 0.000090 
#    z -0.002160 0.000090 1.627770 
# 
# From -- ./inp_files/357036.got.cif
#   From: 2010.05.17/outbox.ucp.g08.bks.cvg/sg12_179_cif.got.tgz:357036.got - 2010.06.11 11:47:21.
