data_PCOD9224749
_publ_section_title
;
Structure prediction by ZEFSAII (Michael W. Deem and Ramdas Pophale) SiO2 
 PCOD9224749
Probable space group: C 2/M
;
_chemical_formula_sum "Si O2"
_cell_formula_units_Z 28
_cell_length_a 21.000000
_cell_length_b 9.000000
_cell_length_c 30.000000
_cell_angle_alpha 90.000000
_cell_angle_beta 150.000000
_cell_angle_gamma 90.000000
_cell_volume 2835.000000
_symmetry_space_group_name_H-M "C 2/M"
_symmetry_group_IT_number 12
_symmetry_cell_setting 'monoclinic'
loop_
_space_group_symop_operation_xyz
x,y,z
-x,y,-z
-x,-y,-z
x,-y,z
1/2+x,1/2+y,z
1/2-x,1/2+y,-z
1/2-x,1/2-y,-z
1/2+x,1/2-y,z
loop_
_atom_site_type_symbol
_atom_site_label
_atom_site_fract_x
_atom_site_fract_y
_atom_site_fract_z
Si Si1 0.384308 0.819843 0.097567
Si Si2 0.649864 0.177758 0.598221
Si Si3 0.153424 0.679780 0.213453
Si Si4 0.638395 0.821676 0.814328
Si Si5 0.855056 0.328025 0.896043
Si Si6 0.557382 0.171737 0.376935
Si Si7 0.306605 0.669856 0.465117
O O1 0.513422 0.778421 0.148863
O O2 0.399331 0.775823 0.158743
O O3 0.373339 0.000000 0.088257
O O4 0.250000 0.750000 0.000000
O O5 0.500000 0.220590 0.500000
O O6 0.730982 0.250250 0.687671
O O7 0.713859 0.232139 0.590921
O O8 0.654057 0.000000 0.605454
O O9 0.161962 0.500000 0.221874
O O10 0.158655 0.719978 0.164045
O O11 0.776475 0.769046 0.883327
O O12 0.549365 0.764973 0.720356
O O13 0.627933 0.000000 0.807289
O O14 0.811772 0.500000 0.872402
O O15 0.000000 0.323915 0.000000
O O16 0.582342 0.263532 0.436620
O O17 0.683414 0.171135 0.422417
O O18 0.530125 0.000000 0.372603
O O19 0.331940 0.500000 0.467288
#
# Coordination Sequence:
#
# PCOD9224749 Si02
#       7
#     8   8   8   8   8   8   8
#     4  10  21  39  63  91 121 156 199 249 305 361
#     4  11  25  41  58  83 119 161 204 252 302 357
#     4  10  22  41  64  89 121 161 206 253 302 361
#     4  10  21  36  58  85 116 151 191 238 292 354
#     4  10  22  40  61  87 120 156 195 244 298 354
#     4   9  19  36  57  83 115 150 187 237 294 346
#     4  10  20  36  59  84 114 151 193 239 288 348
#
# _framework density 9.8765429999999999
#
# number of rings (size 3 to 8) (size 9 to 14) (size 15 to 20)
#    0.000    2.000    0.000    2.571    2.000    7.714 
#    0.000    1.429    0.000    0.000    0.000    0.000 
#    0.000    0.000    0.000    0.000    0.000    0.000 
#
# Total GULP energy -156307.392307 kJ/mol
# GULP energy per Si atom -5582.406868 kJ/mol
# Density = 0.985406 g / cm^3
# Si number density = 9.876543 Si / 1000 Ang^3
#
#
#
# Elastic Constant Matrix: (Units=GPa)
#
#
# Indices 1 2 3 4 5 6 
#
# 1 62.4402 5.2482 -5.9540 0.0000 -11.8047 0.0000
# 2 5.2482 19.3630 15.3693 0.0000 -0.4972 0.0001
# 3 -5.9540 15.3693 74.0267 0.0003 -9.1925 0.0000
# 4 0.0000 0.0000 0.0003 37.5210 0.0001 -1.8462
# 5 -11.8047 -0.4972 -9.1925 0.0001 32.6331 0.0000
# 6 0.0000 0.0001 0.0000 -1.8462 0.0000 20.0752
#
#
#
# Elastic Compliance Matrix: (Units=1/GPa)
#
#
# Indices 1 2 3 4 5 6 
#
# 1 0.018559 -0.008118 0.004141 0.000000 0.007756 0.000000
# 2 -0.008118 0.065629 -0.015046 0.000000 -0.006175 0.000000
# 3 0.004141 -0.015046 0.017744 0.000000 0.006267 0.000000
# 4 0.000000 0.000000 0.000000 0.026773 0.000000 0.002462
# 5 0.007756 -0.006175 0.006267 0.000000 0.035121 0.000000
# 6 0.000000 0.000000 0.000000 0.002462 0.000000 0.050039
#
#
# Mechanical properties :
#
#
# Convention : Reuss Voigt Hill
#
# Bulk Modulus (GPa) = 15.65266 20.57299 18.11283
# Shear Modulus (GPa) = 18.30122 27.45695 22.87909
#
# Velocity S-wave (km/s) = 3.04715 3.73233 3.40700
# Velocity P-wave (km/s) = 4.50794 5.38622 4.96653
#
# Compressibility (1/GPa) = 0.06388690
#
# Stress axis : x y z
#
# Youngs Moduli (GPa) = 53.88227 15.23708 56.35792
#
# Poissons Ratio (x) = 0.12370 -0.23340
# Poissons Ratio (y) = 0.43743 0.84794
# Poissons Ratio (z) = -0.22315 0.22925
#
# Static dielectric constant tensor:
#      x y z
#    x 1.690970 0.000000 0.025310 
#    y 0.000000 1.680470 0.000000 
#    z 0.025310 0.000000 1.732990 
# 
# From -- ./inp_files/380711.got.cif
#   From: 2010.05.17/outbox.ucp.g08.bks.cvg/sg12_191_cif.got.tgz:380711.got - 2010.06.11 11:47:21.
