data_PCOD9224559
_publ_section_title
;
Structure prediction by ZEFSAII (Michael W. Deem and Ramdas Pophale) SiO2 
 PCOD9224559
Probable space group: C 2/M
;
_chemical_formula_sum "Si O2"
_cell_formula_units_Z 28
_cell_length_a 15.000000
_cell_length_b 27.000000
_cell_length_c 9.000000
_cell_angle_alpha 90.000000
_cell_angle_beta 60.000000
_cell_angle_gamma 90.000000
_cell_volume 3156.662597
_symmetry_space_group_name_H-M "C 2/M"
_symmetry_group_IT_number 12
_symmetry_cell_setting 'monoclinic'
loop_
_space_group_symop_operation_xyz
x,y,z
-x,y,-z
-x,-y,-z
x,-y,z
1/2+x,1/2+y,z
1/2-x,1/2+y,-z
1/2-x,1/2-y,-z
1/2+x,1/2-y,z
loop_
_atom_site_type_symbol
_atom_site_label
_atom_site_fract_x
_atom_site_fract_y
_atom_site_fract_z
Si Si1 0.471742 0.694129 0.196252
Si Si2 0.156988 0.444560 0.683192
Si Si3 0.898382 0.869120 0.682215
Si Si4 0.267359 0.346051 0.507584
Si Si5 0.771026 0.558286 0.044424
Si Si6 0.455624 0.798340 0.370146
Si Si7 0.958920 0.404417 0.706073
O O1 0.554501 0.666736 0.232614
O O2 0.360617 0.668718 0.321515
O O3 0.468495 0.750586 0.256881
O O4 0.500000 0.691224 0.000000
O O5 0.192461 0.500000 0.617466
O O6 0.226171 0.402707 0.545367
O O7 0.165464 0.437979 0.853471
O O8 0.040156 0.436987 0.729914
O O9 0.820739 0.842132 0.628364
O O10 0.832205 0.911124 0.824175
O O11 0.000000 0.885932 0.500000
O O12 0.165134 0.314694 0.547657
O O13 0.750014 0.500000 0.034257
O O14 0.843820 0.579738 0.851247
O O15 0.500000 0.787098 0.500000
O O16 0.520454 0.847005 0.269358
O O17 0.000000 0.408759 0.500000
#
# Coordination Sequence:
#
# PCOD9224559 Si02
#       7
#     8   8   8   8   8   8   8
#     4  11  23  37  56  82 110 142 187 237 282 328
#     4   9  18  33  55  80 107 144 186 226 268 322
#     4   9  20  39  59  80 111 148 190 235 274 320
#     4   9  19  38  59  79 111 150 185 227 276 330
#     4  10  20  35  57  82 109 145 187 228 273 326
#     4  10  21  38  58  80 111 148 184 222 275 339
#     4  10  21  34  51  81 117 147 178 222 277 338
#
# _framework density 8.8701279999999993
#
# number of rings (size 3 to 8) (size 9 to 14) (size 15 to 20)
#    0.000    2.286    0.000    2.571    0.000    9.429 
#    0.000    4.286    0.000    0.857    0.000    0.000 
#    0.000    0.000    0.000    0.000    0.000    0.000 
#
# Total GULP energy -155994.824513 kJ/mol
# GULP energy per Si atom -5571.243733 kJ/mol
# Density = 0.884994 g / cm^3
# Si number density = 8.870128 Si / 1000 Ang^3
#
#
#
# Elastic Constant Matrix: (Units=GPa)
#
#
# Indices 1 2 3 4 5 6 
#
# 1 109.3236 42.9299 51.5274 0.0000 -10.7275 0.0000
# 2 42.9299 111.3358 83.0080 0.0000 -9.4497 0.0000
# 3 51.5274 83.0080 141.9691 0.0000 -14.4444 0.0000
# 4 0.0000 0.0000 0.0000 21.2293 0.0000 2.2377
# 5 -10.7275 -9.4497 -14.4444 0.0000 21.9093 0.0000
# 6 0.0000 0.0000 0.0000 2.2377 0.0000 24.9910
#
#
#
# Elastic Compliance Matrix: (Units=1/GPa)
#
#
# Indices 1 2 3 4 5 6 
#
# 1 0.011541 -0.002305 -0.002538 0.000000 0.002984 0.000000
# 2 -0.002305 0.016396 -0.008731 0.000000 0.000187 0.000000
# 3 -0.002538 -0.008731 0.013463 0.000000 0.003868 0.000000
# 4 0.000000 0.000000 0.000000 0.047553 0.000000 -0.004258
# 5 0.002984 0.000187 0.003868 0.000000 0.049734 0.000000
# 6 0.000000 0.000000 0.000000 -0.004258 0.000000 0.040396
#
#
# Mechanical properties :
#
#
# Convention : Reuss Voigt Hill
#
# Bulk Modulus (GPa) = 70.15902 79.72878 74.94390
# Shear Modulus (GPa) = 23.69872 25.97014 24.83443
#
# Velocity S-wave (km/s) = 3.65892 3.83026 3.74557
# Velocity P-wave (km/s) = 7.58183 8.03748 7.81297
#
# Compressibility (1/GPa) = 0.01425333
#
# Stress axis : x y z
#
# Youngs Moduli (GPa) = 86.64696 60.99051 74.27638
#
# Poissons Ratio (x) = 0.14058 0.18848
# Poissons Ratio (y) = 0.19972 0.64851
# Poissons Ratio (z) = 0.21987 0.53251
#
# Static dielectric constant tensor:
#      x y z
#    x 1.618940 0.000000 0.006920 
#    y 0.000000 1.619460 0.000000 
#    z 0.006920 0.000000 1.605350 
# 
# From -- ./inp_files/66856.got.cif
#   From: 2010.05.17/outbox.ucp.g08.bks.cvg/sg12_34_cif.got.tgz:66856.got - 2010.06.11 11:47:21.
