data_PCOD9224826
_publ_section_title
;
Structure prediction by ZEFSAII (Michael W. Deem and Ramdas Pophale) SiO2 
 PCOD9224826
Probable space group: C 2/M
;
_chemical_formula_sum "Si O2"
_cell_formula_units_Z 28
_cell_length_a 21.000000
_cell_length_b 15.000000
_cell_length_c 9.000000
_cell_angle_alpha 90.000000
_cell_angle_beta 90.000000
_cell_angle_gamma 90.000000
_cell_volume 2835.000000
_symmetry_space_group_name_H-M "C 2/M"
_symmetry_group_IT_number 12
_symmetry_cell_setting 'monoclinic'
loop_
_space_group_symop_operation_xyz
x,y,z
-x,y,-z
-x,-y,-z
x,-y,z
1/2+x,1/2+y,z
1/2-x,1/2+y,-z
1/2-x,1/2-y,-z
1/2+x,1/2-y,z
loop_
_atom_site_type_symbol
_atom_site_label
_atom_site_fract_x
_atom_site_fract_y
_atom_site_fract_z
Si Si1 0.013941 0.401672 0.828404
Si Si2 0.093217 0.400817 0.415771
Si Si3 0.569833 0.397540 0.554784
Si Si4 0.609055 0.222252 0.698029
Si Si5 0.258176 0.765915 0.170671
Si Si6 0.815358 0.100100 0.659964
Si Si7 0.758876 0.402817 0.640709
O O1 0.041327 0.500000 0.788864
O O2 0.954001 0.386457 0.720579
O O3 0.058926 0.318338 0.808841
O O4 0.000000 0.406816 0.000000
O O5 0.078400 0.500000 0.475275
O O6 0.092354 0.326883 0.542843
O O7 0.165467 0.403641 0.362406
O O8 0.500000 0.371500 0.500000
O O9 0.568342 0.500000 0.609286
O O10 0.598763 0.326498 0.668700
O O11 0.615559 0.395711 0.411739
O O12 0.676875 0.193023 0.764237
O O13 0.199287 0.824909 0.223377
O O14 0.259944 0.670741 0.246053
O O15 0.250000 0.750000 0.000000
O O16 0.768051 0.118659 0.521692
O O17 0.802765 0.000000 0.714437
O O18 0.733241 0.500000 0.678288
#
# Coordination Sequence:
#
# PCOD9224826 Si02
#       7
#     8   8   8   8   8   8   8
#     4  10  23  40  58  88 127 161 194 238 297 365
#     4  10  20  36  63  92 116 150 198 242 293 356
#     4  10  21  38  64  92 112 145 202 259 302 346
#     4  12  22  38  60  87 117 160 200 247 293 357
#     4  12  26  38  56  91 126 159 199 248 304 367
#     4  10  20  40  65  87 117 155 202 255 304 359
#     4  10  20  38  63  84 111 155 200 248 297 351
#
# _framework density 9.8765429999999999
#
# number of rings (size 3 to 8) (size 9 to 14) (size 15 to 20)
#    0.000    1.429    2.857    3.000    2.000    2.286 
#    0.000    0.000    0.000    0.429    0.000    0.000 
#    0.000    0.000    0.000    0.000    0.000    0.000 
#
# Total GULP energy -156020.936619 kJ/mol
# GULP energy per Si atom -5572.176308 kJ/mol
# Density = 0.985406 g / cm^3
# Si number density = 9.876543 Si / 1000 Ang^3
#
#
#
# Elastic Constant Matrix: (Units=GPa)
#
#
# Indices 1 2 3 4 5 6 
#
# 1 49.5406 10.9252 47.8094 0.0000 -23.6295 0.0000
# 2 10.9252 53.4066 83.7426 0.0000 -6.3586 0.0000
# 3 47.8094 83.7426 42.1441 0.0000 8.9454 0.0000
# 4 0.0000 0.0000 0.0000 35.3015 0.0000 -7.6084
# 5 -23.6295 -6.3586 8.9454 0.0000 -17.8603 0.0000
# 6 0.0000 0.0000 0.0000 -7.6084 0.0000 26.8529
#
#
#
# Elastic Compliance Matrix: (Units=1/GPa)
#
#
# Indices 1 2 3 4 5 6 
#
# 1 0.013334 -0.006836 0.001523 0.000000 -0.014444 0.000000
# 2 -0.006836 -0.008469 0.019907 0.000000 0.022030 0.000000
# 3 0.001523 0.019907 -0.014123 0.000000 -0.016176 0.000000
# 4 0.000000 0.000000 0.000000 0.030170 0.000000 0.008548
# 5 -0.014444 0.022030 -0.016176 0.000000 -0.052826 0.000000
# 6 0.000000 0.000000 0.000000 0.008548 0.000000 0.039662
#
#
# Mechanical properties :
#
#
# Convention : Reuss Voigt Hill
#
# Bulk Modulus (GPa) = 50.17378 47.78287 48.97832
# Shear Modulus (GPa) = -337.91696 9.03311 -164.44193
#
# Velocity S-wave (km/s) = -13.09358 2.14078 -9.13397
# Velocity P-wave (km/s) = 14.25249 5.50937 9.29463
#
# Compressibility (1/GPa) = 0.01993073
#
# Stress axis : x y z
#
# Youngs Moduli (GPa) = 74.99877 -118.08140 -70.80890
#
# Poissons Ratio (x) = -0.80721 0.10787
# Poissons Ratio (y) = 0.51269 1.40958
# Poissons Ratio (z) = -0.11426 2.35063
#
# Static dielectric constant tensor:
#      x y z
#    x 1.776270 0.000000 0.013030 
#    y 0.000000 1.792840 0.000000 
#    z 0.013030 0.000000 1.668330 
# 
# From -- ./inp_files/86378.got.cif
#   From: 2010.05.17/outbox.ucp.g08.bks.cvg/sg12_44_cif.got.tgz:86378.got - 2010.06.11 11:47:21.
