data_PCOD9224795
_publ_section_title
;
Structure prediction by ZEFSAII (Michael W. Deem and Ramdas Pophale) SiO2 
 PCOD9224795
Probable space group: C 2/M
;
_chemical_formula_sum "Si O2"
_cell_formula_units_Z 28
_cell_length_a 15.000000
_cell_length_b 9.000000
_cell_length_c 27.000000
_cell_angle_alpha 90.000000
_cell_angle_beta 120.000000
_cell_angle_gamma 90.000000
_cell_volume 3156.662597
_symmetry_space_group_name_H-M "C 2/M"
_symmetry_group_IT_number 12
_symmetry_cell_setting 'monoclinic'
loop_
_space_group_symop_operation_xyz
x,y,z
-x,y,-z
-x,-y,-z
x,-y,z
1/2+x,1/2+y,z
1/2-x,1/2+y,-z
1/2-x,1/2-y,-z
1/2+x,1/2-y,z
loop_
_atom_site_type_symbol
_atom_site_label
_atom_site_fract_x
_atom_site_fract_y
_atom_site_fract_z
Si Si1 0.024155 0.818006 0.863756
Si Si2 0.698689 0.822628 0.557249
Si Si3 0.599740 0.679139 0.996711
Si Si4 0.081301 0.820811 0.433053
Si Si5 0.724704 0.818139 0.873730
Si Si6 0.141854 0.318956 0.656122
Si Si7 0.294019 0.182998 0.786336
O O1 0.112405 0.748580 0.853679
O O2 0.912786 0.746725 0.818294
O O3 0.017239 0.000000 0.859167
O O4 0.069206 0.778316 0.931704
O O5 0.816109 0.790103 0.571922
O O6 0.617999 0.740670 0.497587
O O7 0.685048 0.789205 0.612036
O O8 0.682048 0.000000 0.546324
O O9 0.605982 0.500000 0.997221
O O10 0.698988 0.724202 0.058180
O O11 0.500000 0.725098 0.000000
O O12 0.976420 0.746018 0.381631
O O13 0.066718 0.000000 0.431395
O O14 0.758843 0.746313 0.830699
O O15 0.725420 0.000000 0.870460
O O16 0.139192 0.500000 0.662572
O O17 0.216678 0.246588 0.720440
O O18 0.293189 0.000000 0.784847
#
# Coordination Sequence:
#
# PCOD9224795 Si02
#       7
#     8   8   8   8   8   8   8
#     4  11  22  40  64  90 122 158 198 247 304 360
#     4   9  20  38  60  87 120 156 193 235 291 354
#     4   9  17  34  62  91 120 155 194 244 301 359
#     4  10  20  36  60  91 123 153 192 243 292 346
#     4  11  22  40  64  90 121 157 200 247 302 363
#     4  11  23  40  61  84 116 159 201 243 298 357
#     4  12  26  43  60  85 119 159 207 254 302 359
#
# _framework density 8.8701279999999993
#
# number of rings (size 3 to 8) (size 9 to 14) (size 15 to 20)
#    0.000    1.571    1.429    3.857    0.000    4.571 
#    0.000    7.143    0.000    0.000    0.000    0.000 
#    0.000    0.000    0.000    0.000    0.000    0.000 
#
# Total GULP energy -156027.616051 kJ/mol
# GULP energy per Si atom -5572.414859 kJ/mol
# Density = 0.884994 g / cm^3
# Si number density = 8.870128 Si / 1000 Ang^3
#
#
#
# Elastic Constant Matrix: (Units=GPa)
#
#
# Indices 1 2 3 4 5 6 
#
# 1 136.6487 43.8083 70.7939 0.0000 21.0083 0.0000
# 2 43.8083 113.0836 61.6704 0.0000 12.4535 0.0000
# 3 70.7939 61.6704 176.3322 0.0000 25.2490 0.0000
# 4 0.0000 0.0000 0.0000 40.9082 0.0000 5.9450
# 5 21.0083 12.4535 25.2490 0.0000 38.2438 0.0000
# 6 0.0000 0.0000 0.0000 5.9450 0.0000 31.4405
#
#
#
# Elastic Compliance Matrix: (Units=1/GPa)
#
#
# Indices 1 2 3 4 5 6 
#
# 1 0.009872 -0.001940 -0.002870 0.000000 -0.002896 0.000000
# 2 -0.001940 0.011354 -0.003109 0.000000 -0.000579 0.000000
# 3 -0.002870 -0.003109 0.008327 0.000000 -0.002909 0.000000
# 4 0.000000 0.000000 0.000000 0.025136 0.000000 -0.004753
# 5 -0.002896 -0.000579 -0.002909 0.000000 0.029848 0.000000
# 6 0.000000 0.000000 0.000000 -0.004753 0.000000 0.032705
#
#
# Mechanical properties :
#
#
# Convention : Reuss Voigt Hill
#
# Bulk Modulus (GPa) = 72.91578 86.51220 79.71399
# Shear Modulus (GPa) = 36.32332 38.77130 37.54731
#
# Velocity S-wave (km/s) = 4.52985 4.68000 4.60554
# Velocity P-wave (km/s) = 8.27952 8.83601 8.56229
#
# Compressibility (1/GPa) = 0.01371445
#
# Stress axis : x y z
#
# Youngs Moduli (GPa) = 101.29312 88.07503 120.08666
#
# Poissons Ratio (x) = 0.17089 0.34468
# Poissons Ratio (y) = 0.19654 0.37336
# Poissons Ratio (z) = 0.29073 0.27383
#
# Static dielectric constant tensor:
#      x y z
#    x 1.647310 0.000000 -0.017220 
#    y 0.000000 1.605610 0.000000 
#    z -0.017220 0.000000 1.604530 
# 
# From -- ./inp_files/360027.got.cif
#   From: 2010.05.17/outbox.ucp.g08.bks.cvg/sg12_181_cif.got.tgz:360027.got - 2010.06.11 11:47:21.
