data_PCOD9224784
_publ_section_title
;
Structure prediction by ZEFSAII (Michael W. Deem and Ramdas Pophale) SiO2 
 PCOD9224784
Probable space group: C 2/M
;
_chemical_formula_sum "Si O2"
_cell_formula_units_Z 25
_cell_length_a 30.000000
_cell_length_b 18.000000
_cell_length_c 15.000000
_cell_angle_alpha 90.000000
_cell_angle_beta 20.000000
_cell_angle_gamma 90.000000
_cell_volume 2770.363161
_symmetry_space_group_name_H-M "C 2/M"
_symmetry_group_IT_number 12
_symmetry_cell_setting 'monoclinic'
loop_
_space_group_symop_operation_xyz
x,y,z
-x,y,-z
-x,-y,-z
x,-y,z
1/2+x,1/2+y,z
1/2-x,1/2+y,-z
1/2-x,1/2-y,-z
1/2+x,1/2-y,z
loop_
_atom_site_type_symbol
_atom_site_label
_atom_site_fract_x
_atom_site_fract_y
_atom_site_fract_z
Si Si1 0.377290 0.410981 0.074216
Si Si2 0.333457 0.859649 0.388216
Si Si3 0.133893 0.203704 0.411628
Si Si4 0.344231 0.415776 0.776207
Si Si5 0.666599 0.328718 0.026523
Si Si6 0.620705 0.695231 0.646064
Si Si7 0.000000 0.500000 0.000000
O O1 0.398206 0.500000 0.043453
O O2 0.254722 0.383408 0.361945
O O3 0.355312 0.387698 0.012408
O O4 0.498335 0.360840 0.881543
O O5 0.406503 0.781368 0.274558
O O6 0.236008 0.836719 0.490775
O O7 0.415376 0.932378 0.208449
O O8 0.174301 0.130885 0.279178
O O9 0.158657 0.196004 0.470393
O O10 0.976396 0.210494 0.694477
O O11 0.221211 0.271128 0.211494
O O12 0.500000 0.420100 0.500000
O O13 0.293882 0.500000 0.865964
O O14 0.295707 0.369841 0.952901
#
# Coordination Sequence:
#
# PCOD9224784 Si02
#       7
#     8   8   8   8   8   8   2
#     4  11  22  40  63  90 119 156 209 253 298 363
#     4  11  24  42  58  88 122 158 199 250 309 364
#     4  10  20  36  60  88 115 157 206 248 303 368
#     4   9  18  34  57  87 122 155 200 255 305 356
#     4  10  20  36  60  89 119 159 198 255 307 365
#     4  10  24  39  64  85 119 162 206 251 302 359
#     4  12  28  40  62  88 126 162 196 250 320 372
#
# _framework density 9.0240880000000008
#
# number of rings (size 3 to 8) (size 9 to 14) (size 15 to 20)
#    0.000    1.760    2.400    1.440    5.600    4.480 
#    0.000    0.000    0.000    2.880    0.000    0.000 
#    0.000    0.000    0.000    0.000    0.000    0.000 
#
# Total GULP energy -139258.908645 kJ/mol
# GULP energy per Si atom -5570.356346 kJ/mol
# Density = 0.900355 g / cm^3
# Si number density = 9.024088 Si / 1000 Ang^3
#
#
#
# Elastic Constant Matrix: (Units=GPa)
#
#
# Indices 1 2 3 4 5 6 
#
# 1 71.6559 35.3828 19.7341 0.0000 15.9391 0.0000
# 2 35.3828 174.9475 55.8886 0.0000 5.5882 0.0000
# 3 19.7341 55.8886 92.0130 0.0001 22.0656 0.0000
# 4 0.0000 0.0000 0.0001 39.2895 0.0000 0.4439
# 5 15.9391 5.5882 22.0656 0.0000 20.3310 0.0000
# 6 0.0000 0.0000 0.0000 0.4439 0.0000 25.1827
#
#
#
# Elastic Compliance Matrix: (Units=1/GPa)
#
#
# Indices 1 2 3 4 5 6 
#
# 1 0.018926 -0.004038 0.002279 0.000000 -0.016201 0.000000
# 2 -0.004038 0.008164 -0.005832 0.000000 0.007251 0.000000
# 3 0.002279 -0.005832 0.018879 0.000000 -0.020673 0.000000
# 4 0.000000 0.000000 0.000000 0.025457 0.000000 -0.000449
# 5 -0.016201 0.007251 -0.020673 0.000000 0.082331 0.000000
# 6 0.000000 0.000000 0.000000 -0.000449 0.000000 0.039718
#
#
# Mechanical properties :
#
#
# Convention : Reuss Voigt Hill
#
# Bulk Modulus (GPa) = 32.48134 62.29192 47.38663
# Shear Modulus (GPa) = 22.83950 32.13471 27.48711
#
# Velocity S-wave (km/s) = 3.56121 4.22417 3.90678
# Velocity P-wave (km/s) = 5.91149 7.64072 6.83105
#
# Compressibility (1/GPa) = 0.03078691
#
# Stress axis : x y z
#
# Youngs Moduli (GPa) = 52.83832 122.48786 52.96864
#
# Poissons Ratio (x) = 0.49463 -0.12071
# Poissons Ratio (y) = 0.21337 0.30889
# Poissons Ratio (z) = -0.12041 0.71431
#
# Static dielectric constant tensor:
#      x y z
#    x 1.620730 0.000000 0.017250 
#    y 0.000000 1.603340 0.000000 
#    z 0.017250 0.000000 1.639690 
# 
# From -- ./inp_files/251693.got.cif
#   From: 2010.05.17/outbox.ucp.g08.bks.cvg/sg12_126_cif.got.tgz:251693.got - 2010.06.11 11:47:21.
