data_PCOD9224720
_publ_section_title
;
Structure prediction by ZEFSAII (Michael W. Deem and Ramdas Pophale) SiO2 
 PCOD9224720
Probable space group: C 2/M
;
_chemical_formula_sum "Si O2"
_cell_formula_units_Z 24
_cell_length_a 27.000000
_cell_length_b 9.000000
_cell_length_c 15.000000
_cell_angle_alpha 90.000000
_cell_angle_beta 40.000000
_cell_angle_gamma 90.000000
_cell_volume 2342.960837
_symmetry_space_group_name_H-M "C 2/M"
_symmetry_group_IT_number 12
_symmetry_cell_setting 'monoclinic'
loop_
_space_group_symop_operation_xyz
x,y,z
-x,y,-z
-x,-y,-z
x,-y,z
1/2+x,1/2+y,z
1/2-x,1/2+y,-z
1/2-x,1/2-y,-z
1/2+x,1/2-y,z
loop_
_atom_site_type_symbol
_atom_site_label
_atom_site_fract_x
_atom_site_fract_y
_atom_site_fract_z
Si Si1 0.914416 0.677605 0.642786
Si Si2 0.179013 0.175747 0.724211
Si Si3 0.671227 0.322742 0.397559
Si Si4 0.911820 0.824323 0.975854
Si Si5 0.675069 0.823857 0.060269
Si Si6 0.082189 0.180407 0.692703
O O1 0.910942 0.500000 0.633566
O O2 0.852026 0.752027 0.664085
O O3 0.893052 0.706398 0.774572
O O4 0.000000 0.730337 0.500000
O O5 0.250669 0.261737 0.666894
O O6 0.147328 0.230769 0.673040
O O7 0.198406 0.000000 0.691133
O O8 0.110065 0.190508 0.890790
O O9 0.675244 0.500000 0.383811
O O10 0.605431 0.281545 0.560487
O O11 0.849819 0.743051 0.999498
O O12 0.997398 0.767832 0.836578
O O13 0.908515 0.000000 0.958955
O O14 0.686593 0.000000 0.037170
O O15 0.750000 0.750000 0.000000
O O16 0.081772 0.000000 0.700288
#
# Coordination Sequence:
#
# PCOD9224720 Si02
#       6
#     8   8   8   8   8   8
#     4  10  22  40  59  79 106 143 185 224 267 323
#     4  10  20  36  58  81 109 146 183 219 263 320
#     4  11  22  35  55  83 113 143 177 223 273 318
#     4  10  20  36  59  83 107 140 183 227 268 314
#     4  11  23  38  57  81 110 144 180 222 272 323
#     4   9  19  36  57  82 110 142 182 223 266 318
#
# _framework density 10.243449
#
# number of rings (size 3 to 8) (size 9 to 14) (size 15 to 20)
#    0.000    1.833    0.000    4.000    0.000    8.333 
#    0.000    2.500    0.000    2.000    0.000    0.000 
#    0.000    0.000    0.000    0.000    0.000    0.000 
#
# Total GULP energy -134129.680389 kJ/mol
# GULP energy per Si atom -5588.736683 kJ/mol
# Density = 1.022013 g / cm^3
# Si number density = 10.243449 Si / 1000 Ang^3
#
#
#
# Elastic Constant Matrix: (Units=GPa)
#
#
# Indices 1 2 3 4 5 6 
#
# 1 69.6203 2.4721 -14.2741 0.0004 8.5869 -0.0001
# 2 2.4721 15.0622 13.8195 0.0024 9.1804 -0.0012
# 3 -14.2741 13.8195 43.4348 0.0009 -6.2931 -0.0005
# 4 0.0004 0.0024 0.0009 21.9270 -0.0004 -0.9800
# 5 8.5869 9.1804 -6.2931 -0.0004 36.4473 0.0001
# 6 -0.0001 -0.0012 -0.0005 -0.9800 0.0001 15.3781
#
#
#
# Elastic Compliance Matrix: (Units=1/GPa)
#
#
# Indices 1 2 3 4 5 6 
#
# 1 0.016587 -0.011518 0.009200 0.000001 0.000582 0.000000
# 2 -0.011518 0.147931 -0.057290 -0.000014 -0.044440 0.000009
# 3 0.009200 -0.057290 0.047233 0.000004 0.020418 -0.000003
# 4 0.000001 -0.000014 0.000004 0.045736 0.000004 0.002915
# 5 0.000582 -0.044440 0.020418 0.000004 0.042019 -0.000003
# 6 0.000000 0.000009 -0.000003 0.002915 -0.000003 0.065213
#
#
# Mechanical properties :
#
#
# Convention : Reuss Voigt Hill
#
# Bulk Modulus (GPa) = 10.80680 14.68358 12.74519
# Shear Modulus (GPa) = 9.71289 23.15713 16.43501
#
# Velocity S-wave (km/s) = 2.17975 3.36570 2.83542
# Velocity P-wave (km/s) = 3.40904 4.72089 4.11754
#
# Compressibility (1/GPa) = 0.09253430
#
# Stress axis : x y z
#
# Youngs Moduli (GPa) = 60.28784 6.75991 21.17186
#
# Poissons Ratio (x) = 0.07786 -0.19478
# Poissons Ratio (y) = 0.69438 1.21294
# Poissons Ratio (z) = -0.55464 0.38728
#
# Static dielectric constant tensor:
#      x y z
#    x 1.670150 0.000000 -0.010600 
#    y 0.000000 1.680850 0.000000 
#    z -0.010600 0.000000 1.771390 
# 
# From -- ./inp_files/244642.got.cif
#   From: 2010.05.17/outbox.ucp.g08.bks.cvg/sg12_123_cif.got.tgz:244642.got - 2010.06.11 11:47:21.
