data_PCOD9224766
_publ_section_title
;
Structure prediction by ZEFSAII (Michael W. Deem and Ramdas Pophale) SiO2 
 PCOD9224766
Probable space group: C 2/M
;
_chemical_formula_sum "Si O2"
_cell_formula_units_Z 32
_cell_length_a 18.000000
_cell_length_b 24.000000
_cell_length_c 24.000000
_cell_angle_alpha 90.000000
_cell_angle_beta 20.000000
_cell_angle_gamma 90.000000
_cell_volume 3546.064846
_symmetry_space_group_name_H-M "C 2/M"
_symmetry_group_IT_number 12
_symmetry_cell_setting 'monoclinic'
loop_
_space_group_symop_operation_xyz
x,y,z
-x,y,-z
-x,-y,-z
x,-y,z
1/2+x,1/2+y,z
1/2-x,1/2+y,-z
1/2-x,1/2-y,-z
1/2+x,1/2-y,z
loop_
_atom_site_type_symbol
_atom_site_label
_atom_site_fract_x
_atom_site_fract_y
_atom_site_fract_z
Si Si1 0.998143 0.135689 0.860954
Si Si2 0.143185 0.435104 0.343209
Si Si3 0.003750 0.355458 0.061963
Si Si4 0.853049 0.435989 0.437158
Si Si5 0.516897 0.865346 0.759148
Si Si6 0.752698 0.564802 0.306628
Si Si7 0.593691 0.433981 0.185078
Si Si8 0.501339 0.761977 0.158844
O O1 0.992954 0.096149 0.809884
O O2 0.084058 0.198826 0.788584
O O3 0.152420 0.105606 0.796547
O O4 0.745310 0.137465 0.056988
O O5 0.212603 0.500000 0.295610
O O6 0.000000 0.425731 0.500000
O O7 0.999886 0.427250 0.388824
O O8 0.999087 0.301060 0.105185
O O9 0.802065 0.395554 0.219572
O O10 0.209127 0.395265 0.932522
O O11 0.000000 0.340405 0.000000
O O12 0.894871 0.500000 0.387572
O O13 0.901426 0.390181 0.356385
O O14 0.603774 0.433202 0.632168
O O15 0.601996 0.908587 0.746326
O O16 0.591892 0.803801 0.727701
O O17 0.500000 0.567998 0.500000
O O18 0.807032 0.500000 0.258815
O O19 0.648589 0.500000 0.137001
O O20 0.750000 0.750000 0.000000
#
# Coordination Sequence:
#
# PCOD9224766 Si02
#       8
#     8   8   8   8   8   8   8   8
#     4  11  20  39  66  83 112 156 207 233 288 354
#     4  10  20  36  59  89 123 149 184 243 298 345
#     4  11  23  39  61  88 117 152 202 243 284 344
#     4  10  22  37  57  91 126 150 185 243 301 348
#     4  10  21  38  59  82 118 153 197 236 293 347
#     4  10  21  36  56  84 121 157 186 235 299 347
#     4  11  21  36  63  89 116 157 195 233 290 358
#     4   9  19  42  63  81 112 159 195 246 285 335
#
# _framework density 9.0240880000000008
#
# number of rings (size 3 to 8) (size 9 to 14) (size 15 to 20)
#    0.000    1.750    5.000    1.125    1.750    3.000 
#    4.500    4.375    0.000    0.000    0.000    0.000 
#    0.000    0.000    0.000    0.000    0.000    0.000 
#
# Total GULP energy -178443.734189 kJ/mol
# GULP energy per Si atom -5576.366693 kJ/mol
# Density = 0.900355 g / cm^3
# Si number density = 9.024088 Si / 1000 Ang^3
#
#
#
# Elastic Constant Matrix: (Units=GPa)
#
#
# Indices 1 2 3 4 5 6 
#
# 1 77.7602 43.8571 17.2458 -0.0347 13.0127 0.0252
# 2 43.8571 128.3176 34.1796 0.2151 5.6319 -0.0118
# 3 17.2458 34.1796 62.3287 0.2520 2.8713 0.1869
# 4 -0.0347 0.2151 0.2520 20.2329 -0.0107 10.1674
# 5 13.0127 5.6319 2.8713 -0.0107 28.1048 0.0764
# 6 0.0252 -0.0118 0.1869 10.1674 0.0764 18.0709
#
#
#
# Elastic Compliance Matrix: (Units=1/GPa)
#
#
# Indices 1 2 3 4 5 6 
#
# 1 0.017276 -0.005172 -0.001631 0.000128 -0.006796 -0.000054
# 2 -0.005172 0.010724 -0.004482 -0.000133 0.000703 0.000133
# 3 -0.001631 -0.004482 0.018967 -0.000130 -0.000284 -0.000122
# 4 0.000128 -0.000133 -0.000130 0.068911 0.000112 -0.038771
# 5 -0.006796 0.000703 -0.000284 0.000112 0.038616 -0.000214
# 6 -0.000054 0.000133 -0.000122 -0.038771 -0.000214 0.077154
#
#
# Mechanical properties :
#
#
# Convention : Reuss Voigt Hill
#
# Bulk Modulus (GPa) = 40.98911 50.99684 45.99298
# Shear Modulus (GPa) = 19.05835 24.82331 21.94083
#
# Velocity S-wave (km/s) = 3.25310 3.71265 3.49044
# Velocity P-wave (km/s) = 6.07210 6.83342 6.46398
#
# Compressibility (1/GPa) = 0.02439672
#
# Stress axis : x y z
#
# Youngs Moduli (GPa) = 57.88276 93.24702 52.72282
#
# Poissons Ratio (x) = 0.48230 0.08600
# Poissons Ratio (y) = 0.29938 0.23631
# Poissons Ratio (z) = 0.09442 0.41794
#
# Static dielectric constant tensor:
#      x y z
#    x 1.620220 -0.000010 0.006320 
#    y -0.000010 1.620130 0.000030 
#    z 0.006320 0.000030 1.640620 
# 
# From -- ./inp_files/345017.got.cif
#   From: 2010.05.17/outbox.ucp.g08.bks.cvg/sg12_173_cif.got.tgz:345017.got - 2010.06.11 11:47:21.
