data_PCOD9224480
_publ_section_title
;
Structure prediction by ZEFSAII (Michael W. Deem and Ramdas Pophale) SiO2 
 PCOD9224480
Probable space group: C 2/M
;
_chemical_formula_sum "Si O2"
_cell_formula_units_Z 28
_cell_length_a 15.000000
_cell_length_b 9.000000
_cell_length_c 30.000000
_cell_angle_alpha 90.000000
_cell_angle_beta 50.000000
_cell_angle_gamma 90.000000
_cell_volume 3102.479995
_symmetry_space_group_name_H-M "C 2/M"
_symmetry_group_IT_number 12
_symmetry_cell_setting 'monoclinic'
loop_
_space_group_symop_operation_xyz
x,y,z
-x,y,-z
-x,-y,-z
x,-y,z
1/2+x,1/2+y,z
1/2-x,1/2+y,-z
1/2-x,1/2-y,-z
1/2+x,1/2-y,z
loop_
_atom_site_type_symbol
_atom_site_label
_atom_site_fract_x
_atom_site_fract_y
_atom_site_fract_z
Si Si1 0.586315 0.319429 0.264897
Si Si2 0.852743 0.323174 0.438991
Si Si3 0.925274 0.321003 0.918040
Si Si4 0.673770 0.180158 0.859676
Si Si5 0.662506 0.179757 0.662157
Si Si6 0.119470 0.680892 0.352583
Si Si7 0.704027 0.178519 0.949124
O O1 0.576054 0.500000 0.271025
O O2 0.699250 0.279602 0.199052
O O3 0.464629 0.250773 0.285769
O O4 0.616280 0.249983 0.303790
O O5 0.844985 0.500000 0.446400
O O6 0.750000 0.250000 0.500000
O O7 0.831952 0.290348 0.393089
O O8 0.985628 0.282821 0.410983
O O9 0.919306 0.500000 0.915190
O O10 0.831161 0.245929 0.916617
O O11 0.058832 0.271117 0.869839
O O12 0.879566 0.283272 0.982686
O O13 0.659410 0.227684 0.915442
O O14 0.670001 0.000000 0.860100
O O15 0.773319 0.250502 0.652971
O O16 0.661151 0.000000 0.669249
O O17 0.130063 0.500000 0.347774
O O18 0.712630 0.000000 0.946000
#
# Coordination Sequence:
#
# PCOD9224480 Si02
#       7
#     8   8   8   8   8   8   8
#     4  10  20  35  54  77 105 137 175 221 266 310
#     4   9  20  36  55  81 112 140 172 214 255 302
#     4   9  17  31  50  71  97 129 164 204 251 305
#     4   9  18  32  51  74  98 129 169 207 252 309
#     4  10  21  38  57  79 107 142 180 216 258 307
#     4  10  21  38  57  79 107 142 180 216 258 307
#     4   9  17  31  50  71  97 129 164 204 251 305
#
# _framework density 9.0250380000000003
#
# number of rings (size 3 to 8) (size 9 to 14) (size 15 to 20)
#    0.000    2.571    0.000    2.571    0.000    6.857 
#    0.000    9.286    0.000    3.429    0.000    0.000 
#    0.000    0.000    0.000    0.000    0.000    0.000 
#
# Total GULP energy -156016.087586 kJ/mol
# GULP energy per Si atom -5572.003128 kJ/mol
# Density = 0.900450 g / cm^3
# Si number density = 9.025038 Si / 1000 Ang^3
#
#
#
# Elastic Constant Matrix: (Units=GPa)
#
#
# Indices 1 2 3 4 5 6 
#
# 1 148.0224 32.9558 25.1807 0.0000 -31.5757 -0.0001
# 2 32.9558 43.1255 10.8765 0.0000 -8.6575 -0.0001
# 3 25.1807 10.8765 33.4643 0.0000 -22.4053 0.0000
# 4 0.0000 0.0000 0.0000 23.1217 0.0000 -4.6446
# 5 -31.5757 -8.6575 -22.4053 0.0000 28.3108 0.0000
# 6 -0.0001 -0.0001 0.0000 -4.6446 0.0000 35.9931
#
#
#
# Elastic Compliance Matrix: (Units=1/GPa)
#
#
# Indices 1 2 3 4 5 6 
#
# 1 0.010091 -0.005948 0.001399 0.000000 0.010543 0.000000
# 2 -0.005948 0.028855 -0.007310 0.000000 -0.003594 0.000000
# 3 0.001399 -0.007310 0.065415 0.000000 0.051094 0.000000
# 4 0.000000 0.000000 0.000000 0.044400 0.000000 0.005729
# 5 0.010543 -0.003594 0.051094 0.000000 0.086418 0.000000
# 6 0.000000 0.000000 0.000000 0.005729 0.000000 0.028522
#
#
# Mechanical properties :
#
#
# Convention : Reuss Voigt Hill
#
# Bulk Modulus (GPa) = 12.40016 40.29312 26.34664
# Shear Modulus (GPa) = 15.90838 27.85841 21.88340
#
# Velocity S-wave (km/s) = 2.97197 3.93287 3.48569
# Velocity P-wave (km/s) = 4.31991 6.55704 5.55231
#
# Compressibility (1/GPa) = 0.08064410
#
# Stress axis : x y z
#
# Youngs Moduli (GPa) = 99.09883 34.65587 15.28705
#
# Poissons Ratio (x) = 0.20612 -0.02138
# Poissons Ratio (y) = 0.58940 0.11174
# Poissons Ratio (z) = -0.13861 0.25332
#
# Static dielectric constant tensor:
#      x y z
#    x 1.611760 0.000000 -0.005080 
#    y 0.000000 1.606480 0.000000 
#    z -0.005080 0.000000 1.646670 
# 
# From -- ./inp_files/374952.got.cif
#   From: 2010.05.17/outbox.ucp.g08.bks.cvg/sg12_188_cif.got.tgz:374952.got - 2010.06.11 11:47:21.
