data_PCOD9224294
_publ_section_title
;
Structure prediction by ZEFSAII (Michael W. Deem and Ramdas Pophale) SiO2 
 PCOD9224294
Probable space group: C 2/M
;
_chemical_formula_sum "Si O2"
_cell_formula_units_Z 24
_cell_length_a 27.000000
_cell_length_b 9.000000
_cell_length_c 12.000000
_cell_angle_alpha 90.000000
_cell_angle_beta 60.000000
_cell_angle_gamma 90.000000
_cell_volume 2525.330077
_symmetry_space_group_name_H-M "C 2/M"
_symmetry_group_IT_number 12
_symmetry_cell_setting 'monoclinic'
loop_
_space_group_symop_operation_xyz
x,y,z
-x,y,-z
-x,-y,-z
x,-y,z
1/2+x,1/2+y,z
1/2-x,1/2+y,-z
1/2-x,1/2-y,-z
1/2+x,1/2-y,z
loop_
_atom_site_type_symbol
_atom_site_label
_atom_site_fract_x
_atom_site_fract_y
_atom_site_fract_z
Si Si1 0.611936 0.665638 0.039224
Si Si2 0.805288 0.328370 0.894096
Si Si3 0.023540 0.836680 0.326603
Si Si4 0.934009 0.673547 0.110181
Si Si5 0.366267 0.331046 0.637374
Si Si6 0.082359 0.329348 0.611604
O O1 0.637208 0.500000 0.019292
O O2 0.646749 0.783213 0.071152
O O3 0.552235 0.660108 0.172857
O O4 0.602821 0.719300 0.925353
O O5 0.797032 0.500000 0.899414
O O6 0.823286 0.269388 0.753915
O O7 0.750000 0.250000 0.000000
O O8 0.074078 0.821879 0.359376
O O9 0.978918 0.704959 0.375408
O O10 0.995713 0.000000 0.374460
O O11 0.919867 0.500000 0.104663
O O12 0.924316 0.702908 0.250837
O O13 0.000000 0.692431 0.000000
O O14 0.347486 0.500000 0.664292
O O15 0.375344 0.275772 0.502957
O O16 0.098086 0.500000 0.578683
#
# Coordination Sequence:
#
# PCOD9224294 Si02
#       6
#     8   8   8   8   8   8
#     4  10  20  34  54  81 110 143 186 227 270 320
#     4  11  22  39  63  86 109 136 173 223 278 328
#     4   9  18  31  47  70 104 143 179 222 268 318
#     4  10  20  34  50  74 111 153 192 228 265 314
#     4  10  21  36  52  76 108 140 179 224 273 325
#     4  11  21  31  48  74 107 148 188 223 266 319
#
# _framework density 9.5037079999999996
#
# number of rings (size 3 to 8) (size 9 to 14) (size 15 to 20)
#    0.000    1.833    1.667    4.500    0.000    7.000 
#    0.000    0.000    0.000    1.000    0.000    0.000 
#    0.000    0.000    0.000    0.000    0.000    0.000 
#
# Total GULP energy -133778.020567 kJ/mol
# GULP energy per Si atom -5574.084190 kJ/mol
# Density = 0.948208 g / cm^3
# Si number density = 9.503708 Si / 1000 Ang^3
#
#
#
# Elastic Constant Matrix: (Units=GPa)
#
#
# Indices 1 2 3 4 5 6 
#
# 1 -1.6649 25.2851 22.5251 0.0000 -3.3235 0.0000
# 2 25.2851 112.8854 77.7286 0.0000 5.6013 0.0000
# 3 22.5251 77.7286 82.9950 0.0000 9.9281 0.0000
# 4 0.0000 0.0000 0.0000 30.5132 0.0000 0.5205
# 5 -3.3235 5.6013 9.9281 0.0000 13.6980 0.0000
# 6 0.0000 0.0000 0.0000 0.5205 0.0000 21.1433
#
#
#
# Elastic Compliance Matrix: (Units=1/GPa)
#
#
# Indices 1 2 3 4 5 6 
#
# 1 -0.092403 0.005713 0.024843 0.000000 -0.042761 0.000000
# 2 0.005713 0.025290 -0.026458 0.000000 0.010221 0.000000
# 3 0.024843 -0.026458 0.030735 0.000000 -0.005430 0.000000
# 4 0.000000 0.000000 0.000000 0.032786 0.000000 -0.000807
# 5 -0.042761 0.010221 -0.005430 0.000000 0.062384 0.000000
# 6 0.000000 0.000000 0.000000 -0.000807 0.000000 0.047316
#
#
# Mechanical properties :
#
#
# Convention : Reuss Voigt Hill
#
# Bulk Modulus (GPa) = -35.48392 49.47702 6.99655
# Shear Modulus (GPa) = 56.48379 17.64934 37.06657
#
# Velocity S-wave (km/s) = 5.45722 3.05052 4.42080
# Velocity P-wave (km/s) = 4.58250 6.20439 5.45407
#
# Compressibility (1/GPa) = -0.02818178
#
# Stress axis : x y z
#
# Youngs Moduli (GPa) = -10.82222 39.54128 32.53574
#
# Poissons Ratio (x) = -0.22589 -0.80829
# Poissons Ratio (y) = 0.06183 0.86084
# Poissons Ratio (z) = 0.26886 1.04620
#
# Static dielectric constant tensor:
#      x y z
#    x 9.494430 0.000000 -1.910360 
#    y 0.000000 1.581350 0.000000 
#    z -1.910360 0.000000 2.132180 
# 
# From -- ./inp_files/172372.got.cif
#   From: 2010.05.17/outbox.ucp.g08.bks.cvg/sg12_87_cif.got.tgz:172372.got - 2010.06.11 11:47:21.
