data_PCOD9224768
_publ_section_title
;
Structure prediction by ZEFSAII (Michael W. Deem and Ramdas Pophale) SiO2 
 PCOD9224768
Probable space group: C 2/M
;
_chemical_formula_sum "Si O2"
_cell_formula_units_Z 24
_cell_length_a 9.000000
_cell_length_b 24.000000
_cell_length_c 12.000000
_cell_angle_alpha 90.000000
_cell_angle_beta 110.000000
_cell_angle_gamma 90.000000
_cell_volume 2435.683273
_symmetry_space_group_name_H-M "C 2/M"
_symmetry_group_IT_number 12
_symmetry_cell_setting 'monoclinic'
loop_
_space_group_symop_operation_xyz
x,y,z
-x,y,-z
-x,-y,-z
x,-y,z
1/2+x,1/2+y,z
1/2-x,1/2+y,-z
1/2-x,1/2-y,-z
1/2+x,1/2-y,z
loop_
_atom_site_type_symbol
_atom_site_label
_atom_site_fract_x
_atom_site_fract_y
_atom_site_fract_z
Si Si1 0.729930 0.932093 0.718986
Si Si2 0.312378 0.268807 0.138998
Si Si3 0.054795 0.886396 0.891188
Si Si4 0.378123 0.773700 0.693921
Si Si5 0.181964 0.671728 0.538160
Si Si6 0.124593 0.565770 0.941596
O O1 0.690495 0.887823 0.607722
O O2 0.639414 0.916637 0.813782
O O3 0.913992 0.919475 0.795010
O O4 0.708291 0.000000 0.692425
O O5 0.398142 0.328509 0.152788
O O6 0.433077 0.228641 0.238180
O O7 0.173311 0.276775 0.190939
O O8 0.250000 0.250000 0.000000
O O9 0.207478 0.923766 0.955990
O O10 0.000000 0.869137 0.000000
O O11 0.306013 0.716159 0.622184
O O12 0.306478 0.822198 0.594830
O O13 0.000000 0.692567 0.500000
O O14 0.093044 0.500000 0.925208
O O15 0.000000 0.590462 0.000000
#
# Coordination Sequence:
#
# PCOD9224768 Si02
#       6
#     8   8   8   8   8   8
#     4  10  21  39  66  93 122 169 227 270 313 379
#     4  12  24  39  65  97 128 160 205 268 327 385
#     4  10  20  36  59  89 132 166 208 259 323 387
#     4  11  24  43  63  94 126 172 211 257 321 387
#     4  11  23  41  67  86 127 173 220 258 308 387
#     4   9  19  35  59  92 131 169 207 263 330 381
#
# _framework density 9.8534980000000001
#
# number of rings (size 3 to 8) (size 9 to 14) (size 15 to 20)
#    0.000    1.500    3.333    2.000    2.333    5.000 
#    0.000    0.000    0.000    3.000    0.000    0.000 
#    0.000    0.000    0.000    0.000    0.000    0.000 
#
# Total GULP energy -133657.084445 kJ/mol
# GULP energy per Si atom -5569.045185 kJ/mol
# Density = 0.983107 g / cm^3
# Si number density = 9.853498 Si / 1000 Ang^3
#
#
#
# Elastic Constant Matrix: (Units=GPa)
#
#
# Indices 1 2 3 4 5 6 
#
# 1 53.3644 -3.6433 12.7118 0.0000 -7.2956 0.0000
# 2 -3.6433 79.5218 35.4208 0.0000 -7.2054 0.0000
# 3 12.7118 35.4208 141.3657 0.0000 -5.8423 0.0000
# 4 0.0000 0.0000 0.0000 42.7702 0.0000 0.3194
# 5 -7.2956 -7.2054 -5.8423 0.0000 34.4691 0.0000
# 6 0.0000 0.0000 0.0000 0.3194 0.0000 23.3817
#
#
#
# Elastic Compliance Matrix: (Units=1/GPa)
#
#
# Indices 1 2 3 4 5 6 
#
# 1 0.020011 0.002287 -0.002193 0.000000 0.004342 0.000000
# 2 0.002287 0.014612 -0.003747 0.000000 0.002903 0.000000
# 3 -0.002193 -0.003747 0.008216 0.000000 0.000145 0.000000
# 4 0.000000 0.000000 0.000000 0.023383 0.000000 -0.000319
# 5 0.004342 0.002903 0.000145 0.000000 0.030562 0.000000
# 6 0.000000 0.000000 0.000000 -0.000319 0.000000 0.042773
#
#
# Mechanical properties :
#
#
# Convention : Reuss Voigt Hill
#
# Bulk Modulus (GPa) = 28.14258 40.35895 34.25077
# Shear Modulus (GPa) = 31.50453 35.44169 33.47311
#
# Velocity S-wave (km/s) = 4.00265 4.24539 4.12581
# Velocity P-wave (km/s) = 5.97269 6.67496 6.33357
#
# Compressibility (1/GPa) = 0.03553334
#
# Stress axis : x y z
#
# Youngs Moduli (GPa) = 49.97196 68.43710 121.71564
#
# Poissons Ratio (x) = -0.15652 0.26693
# Poissons Ratio (y) = -0.11429 0.45605
# Poissons Ratio (z) = 0.10959 0.25642
#
# Static dielectric constant tensor:
#      x y z
#    x 1.859230 0.000000 -0.045210 
#    y 0.000000 1.718850 0.000000 
#    z -0.045210 0.000000 1.708150 
# 
# From -- ./inp_files/122422.got.cif
#   From: 2010.05.17/outbox.ucp.g08.bks.cvg/sg12_62_cif.got.tgz:122422.got - 2010.06.11 11:47:21.
