data_PCOD9224557
_publ_section_title
;
Structure prediction by ZEFSAII (Michael W. Deem and Ramdas Pophale) SiO2 
 PCOD9224557
Probable space group: C 2/M
;
_chemical_formula_sum "Si O2"
_cell_formula_units_Z 28
_cell_length_a 15.000000
_cell_length_b 15.000000
_cell_length_c 24.000000
_cell_angle_alpha 90.000000
_cell_angle_beta 30.000000
_cell_angle_gamma 90.000000
_cell_volume 2700.000000
_symmetry_space_group_name_H-M "C 2/M"
_symmetry_group_IT_number 12
_symmetry_cell_setting 'monoclinic'
loop_
_space_group_symop_operation_xyz
x,y,z
-x,y,-z
-x,-y,-z
x,-y,z
1/2+x,1/2+y,z
1/2-x,1/2+y,-z
1/2-x,1/2-y,-z
1/2+x,1/2-y,z
loop_
_atom_site_type_symbol
_atom_site_label
_atom_site_fract_x
_atom_site_fract_y
_atom_site_fract_z
Si Si1 0.290775 0.841005 0.447886
Si Si2 0.836570 0.316956 0.294131
Si Si3 0.561516 0.900397 0.903714
Si Si4 0.410657 0.404036 0.653727
Si Si5 0.197877 0.399130 0.095292
Si Si6 0.996818 0.213508 0.880275
Si Si7 0.304440 0.105151 0.774346
O O1 0.250000 0.750000 0.500000
O O2 0.285782 0.822569 0.384868
O O3 0.489262 0.875861 0.352768
O O4 0.117170 0.898710 0.555750
O O5 0.665709 0.331028 0.347582
O O6 0.948939 0.231364 0.213087
O O7 0.984785 0.393549 0.203336
O O8 0.775772 0.897995 0.778705
O O9 0.494589 0.810984 0.910160
O O10 0.502964 0.000000 0.915381
O O11 0.500000 0.894814 0.000000
O O12 0.379371 0.500000 0.642911
O O13 0.259925 0.500000 0.056086
O O14 0.223785 0.370007 0.145458
O O15 0.317261 0.338048 0.991411
O O16 0.161087 0.159400 0.817380
O O17 0.273217 0.000000 0.786114
#
# Coordination Sequence:
#
# PCOD9224557 Si02
#       7
#     8   8   8   8   8   8   8
#     4  11  22  37  57  79 108 145 187 233 280 333
#     4  10  22  36  53  81 112 143 183 235 285 328
#     4   9  18  32  51  79 114 147 179 219 270 332
#     4  10  20  35  57  82 106 139 182 226 276 327
#     4  10  20  35  57  85 115 148 189 234 281 334
#     4  11  20  35  57  82 113 150 188 228 282 341
#     4  10  21  36  57  86 115 146 189 238 281 326
#
# _framework density 10.370369999999999
#
# number of rings (size 3 to 8) (size 9 to 14) (size 15 to 20)
#    0.000    1.857    0.000    5.143    0.000    5.143 
#    0.000    0.000    0.000    4.286    0.000    2.000 
#    0.000    0.000    0.000    0.000    0.000    0.000 
#
# Total GULP energy -156093.065091 kJ/mol
# GULP energy per Si atom -5574.752325 kJ/mol
# Density = 1.034677 g / cm^3
# Si number density = 10.370370 Si / 1000 Ang^3
#
#
#
# Elastic Constant Matrix: (Units=GPa)
#
#
# Indices 1 2 3 4 5 6 
#
# 1 42.6830 17.5328 36.5797 -0.0002 -12.5686 -0.0001
# 2 17.5328 72.4113 47.6335 -0.0016 -3.0997 0.0006
# 3 36.5797 47.6335 129.9228 -0.0067 -14.5022 0.0018
# 4 -0.0002 -0.0016 -0.0067 25.5903 0.0016 -4.9940
# 5 -12.5686 -3.0997 -14.5022 0.0016 30.3370 0.0001
# 6 -0.0001 0.0006 0.0018 -4.9940 0.0001 11.3701
#
#
#
# Elastic Compliance Matrix: (Units=1/GPa)
#
#
# Indices 1 2 3 4 5 6 
#
# 1 0.033944 -0.002960 -0.007327 -0.000002 0.010258 0.000000
# 2 -0.002960 0.018514 -0.006212 0.000000 -0.002304 0.000000
# 3 -0.007327 -0.006212 0.012283 0.000003 0.002202 -0.000001
# 4 -0.000002 0.000000 0.000003 0.042741 -0.000002 0.018773
# 5 0.010258 -0.002304 0.002202 -0.000002 0.038030 -0.000001
# 6 0.000000 0.000000 -0.000001 0.018773 -0.000001 0.096195
#
#
# Mechanical properties :
#
#
# Convention : Reuss Voigt Hill
#
# Bulk Modulus (GPa) = 31.50167 49.83434 40.66800
# Shear Modulus (GPa) = 17.52632 23.01089 20.26860
#
# Velocity S-wave (km/s) = 2.91007 3.33446 3.12947
# Velocity P-wave (km/s) = 5.14904 6.23733 5.71913
#
# Compressibility (1/GPa) = 0.03174435
#
# Stress axis : x y z
#
# Youngs Moduli (GPa) = 29.46026 54.01265 81.41476
#
# Poissons Ratio (x) = 0.15988 0.59650
# Poissons Ratio (y) = 0.08720 0.50572
# Poissons Ratio (z) = 0.21584 0.33551
#
# Static dielectric constant tensor:
#      x y z
#    x 2.067130 0.000210 0.014420 
#    y 0.000210 -0.018410 0.000040 
#    z 0.014420 0.000040 1.749040 
# 
# From -- ./inp_files/340278.got.cif
#   From: 2010.05.17/outbox.ucp.g08.bks.cvg/sg12_171_cif.got.tgz:340278.got - 2010.06.11 11:47:21.
