data_PCOD9224089
_publ_section_title
;
Structure prediction by ZEFSAII (Michael W. Deem and Ramdas Pophale) SiO2 
 PCOD9224089
Probable space group: C 2/M
;
_chemical_formula_sum "Si O2"
_cell_formula_units_Z 32
_cell_length_a 30.000000
_cell_length_b 9.000000
_cell_length_c 15.000000
_cell_angle_alpha 90.000000
_cell_angle_beta 50.000000
_cell_angle_gamma 90.000000
_cell_volume 3102.479995
_symmetry_space_group_name_H-M "C 2/M"
_symmetry_group_IT_number 12
_symmetry_cell_setting 'monoclinic'
loop_
_space_group_symop_operation_xyz
x,y,z
-x,y,-z
-x,-y,-z
x,-y,z
1/2+x,1/2+y,z
1/2-x,1/2+y,-z
1/2-x,1/2-y,-z
1/2+x,1/2-y,z
loop_
_atom_site_type_symbol
_atom_site_label
_atom_site_fract_x
_atom_site_fract_y
_atom_site_fract_z
Si Si1 0.884600 0.682042 0.416254
Si Si2 0.450688 0.826804 0.500594
Si Si3 0.336370 0.173914 0.770898
Si Si4 0.736907 0.321562 0.420204
Si Si5 0.365464 0.322351 0.924118
Si Si6 0.080091 0.327285 0.821848
Si Si7 0.225359 0.321576 0.821787
Si Si8 0.443098 0.174016 0.954020
O O1 0.881939 0.500000 0.420459
O O2 0.934762 0.728437 0.421841
O O3 0.825225 0.753290 0.526366
O O4 0.890761 0.733106 0.305395
O O5 0.500000 0.755701 0.500000
O O6 0.392499 0.823514 0.634740
O O7 0.467831 0.000000 0.464253
O O8 0.351184 0.246058 0.847830
O O9 0.285878 0.264639 0.786257
O O10 0.319470 0.000000 0.804866
O O11 0.735520 0.500000 0.431534
O O12 0.750000 0.250000 0.500000
O O13 0.776880 0.288046 0.281925
O O14 0.362262 0.500000 0.920564
O O15 0.321723 0.259695 0.055958
O O16 0.426090 0.266977 0.889280
O O17 0.098595 0.500000 0.805143
O O18 0.084642 0.267609 0.916761
O O19 0.011801 0.325622 0.884373
O O20 0.220680 0.500000 0.836906
O O21 0.426283 0.000000 0.962945
#
# Coordination Sequence:
#
# PCOD9224089 Si02
#       8
#     8   8   8   8   8   8   8   8
#     4  10  19  36  62  92 124 159 202 248 297 353
#     4   9  19  34  59  94 125 156 200 247 291 347
#     4  11  22  40  65  90 119 155 197 248 299 354
#     4  11  25  42  63  90 124 162 203 248 302 362
#     4  12  26  40  59  88 120 154 197 247 302 360
#     4   8  17  33  60  88 118 156 197 244 290 349
#     4  11  24  44  65  86 117 156 199 248 300 358
#     4   9  18  37  59  87 119 155 201 244 292 347
#
# _framework density 10.314329000000001
#
# number of rings (size 3 to 8) (size 9 to 14) (size 15 to 20)
#    0.000    1.875    1.250    3.375    3.500    1.500 
#    0.000    1.875    0.000    1.875    0.000    0.000 
#    0.000    0.000    0.000    0.000    0.000    0.000 
#
# Total GULP energy -178581.099181 kJ/mol
# GULP energy per Si atom -5580.659349 kJ/mol
# Density = 1.029085 g / cm^3
# Si number density = 10.314329 Si / 1000 Ang^3
#
#
#
# Elastic Constant Matrix: (Units=GPa)
#
#
# Indices 1 2 3 4 5 6 
#
# 1 90.1470 14.3707 0.6356 0.0000 22.9720 0.0000
# 2 14.3707 70.4884 16.4994 0.0000 13.8568 0.0001
# 3 0.6356 16.4994 67.5735 0.0000 23.5794 0.0000
# 4 0.0000 0.0000 0.0000 21.2434 0.0000 3.6295
# 5 22.9720 13.8568 23.5794 0.0000 45.5977 0.0000
# 6 0.0000 0.0001 0.0000 3.6295 0.0000 25.0442
#
#
#
# Elastic Compliance Matrix: (Units=1/GPa)
#
#
# Indices 1 2 3 4 5 6 
#
# 1 0.013341 -0.001914 0.003031 0.000000 -0.007707 0.000000
# 2 -0.001914 0.015730 -0.003040 0.000000 -0.002244 0.000000
# 3 0.003031 -0.003040 0.019185 0.000000 -0.010524 0.000000
# 4 0.000000 0.000000 0.000000 0.048269 0.000000 -0.006995
# 5 -0.007707 -0.002244 -0.010524 0.000000 0.031938 0.000000
# 6 0.000000 0.000000 0.000000 -0.006995 0.000000 0.040943
#
#
# Mechanical properties :
#
#
# Convention : Reuss Voigt Hill
#
# Bulk Modulus (GPa) = 22.51786 32.35782 27.43784
# Shear Modulus (GPa) = 26.58820 31.49060 29.03940
#
# Velocity S-wave (km/s) = 3.59401 3.91134 3.75603
# Velocity P-wave (km/s) = 5.30680 6.00983 5.66922
#
# Compressibility (1/GPa) = 0.04440920
#
# Stress axis : x y z
#
# Youngs Moduli (GPa) = 74.95870 63.57428 52.12479
#
# Poissons Ratio (x) = 0.12170 -0.15800
# Poissons Ratio (y) = 0.14349 0.15845
# Poissons Ratio (z) = -0.22721 0.19325
#
# Static dielectric constant tensor:
#      x y z
#    x 1.793710 0.000000 -0.042090 
#    y 0.000000 1.685620 0.000000 
#    z -0.042090 0.000000 1.780700 
# 
# From -- ./inp_files/249651.got.cif
#   From: 2010.05.17/outbox.ucp.g08.bks.cvg/sg12_125_cif.got.tgz:249651.got - 2010.06.11 11:47:21.
