data_PCOD9224058
_publ_section_title
;
Structure prediction by ZEFSAII (Michael W. Deem and Ramdas Pophale) SiO2 
 PCOD9224058
Probable space group: C 2/M
;
_chemical_formula_sum "Si O2"
_cell_formula_units_Z 24
_cell_length_a 15.000000
_cell_length_b 9.000000
_cell_length_c 18.000000
_cell_angle_alpha 90.000000
_cell_angle_beta 90.000000
_cell_angle_gamma 90.000000
_cell_volume 2430.000000
_symmetry_space_group_name_H-M "C 2/M"
_symmetry_group_IT_number 12
_symmetry_cell_setting 'monoclinic'
loop_
_space_group_symop_operation_xyz
x,y,z
-x,y,-z
-x,-y,-z
x,-y,z
1/2+x,1/2+y,z
1/2-x,1/2+y,-z
1/2-x,1/2-y,-z
1/2+x,1/2-y,z
loop_
_atom_site_type_symbol
_atom_site_label
_atom_site_fract_x
_atom_site_fract_y
_atom_site_fract_z
Si Si1 0.078286 0.670585 0.178487
Si Si2 0.331041 0.823073 0.664456
Si Si3 0.893819 0.329933 0.501801
Si Si4 0.148194 0.324020 0.660935
Si Si5 0.592348 0.674485 0.808367
Si Si6 0.254804 0.675664 0.080337
O O1 0.046492 0.500000 0.169330
O O2 0.104520 0.688606 0.265160
O O3 0.164184 0.690967 0.127150
O O4 0.002810 0.786603 0.157952
O O5 0.366288 0.774744 0.583174
O O6 0.248470 0.717939 0.680981
O O7 0.306549 0.000000 0.661092
O O8 0.859808 0.500000 0.499478
O O9 0.864967 0.261226 0.423053
O O10 0.000000 0.332577 0.500000
O O11 0.129621 0.500000 0.659407
O O12 0.094140 0.250406 0.727484
O O13 0.607331 0.500000 0.797780
O O14 0.667509 0.732649 0.864767
O O15 0.270627 0.500000 0.069135
O O16 0.250000 0.750000 0.000000
#
# Coordination Sequence:
#
# PCOD9224058 Si02
#       6
#     8   8   8   8   8   8
#     4  10  21  40  64  90 120 159 202 243 294 357
#     4  10  19  36  59  81 117 160 199 247 299 348
#     4   9  18  32  52  79 112 155 202 247 295 347
#     4  11  21  34  56  86 117 155 205 248 293 352
#     4  11  23  41  63  90 122 159 200 244 299 355
#     4  10  23  43  65  90 122 156 194 241 299 360
#
# _framework density 9.8765429999999999
#
# number of rings (size 3 to 8) (size 9 to 14) (size 15 to 20)
#    0.000    1.833    1.667    2.500    0.000    6.000 
#    0.000    4.167    0.000    3.500    0.000    0.000 
#    0.000    0.000    0.000    0.000    0.000    0.000 
#
# Total GULP energy -133784.998193 kJ/mol
# GULP energy per Si atom -5574.374925 kJ/mol
# Density = 0.985406 g / cm^3
# Si number density = 9.876543 Si / 1000 Ang^3
#
#
#
# Elastic Constant Matrix: (Units=GPa)
#
#
# Indices 1 2 3 4 5 6 
#
# 1 34.8600 17.1691 25.2439 0.0000 -7.1291 0.0000
# 2 17.1691 22.8903 37.2365 0.0000 -7.0962 0.0000
# 3 25.2439 37.2365 122.9477 0.0000 -5.1146 0.0000
# 4 0.0000 0.0000 0.0000 13.8394 0.0000 -3.9091
# 5 -7.1291 -7.0962 -5.1146 0.0000 -20.6892 0.0000
# 6 0.0000 0.0000 0.0000 -3.9091 0.0000 23.6981
#
#
#
# Elastic Compliance Matrix: (Units=1/GPa)
#
#
# Indices 1 2 3 4 5 6 
#
# 1 0.045525 -0.038748 0.002265 0.000000 -0.002957 0.000000
# 2 -0.038748 0.109405 -0.025918 0.000000 -0.017766 0.000000
# 3 0.002265 -0.025918 0.015694 0.000000 0.004229 0.000000
# 4 0.000000 0.000000 0.000000 0.075789 0.000000 0.012502
# 5 -0.002957 -0.017766 0.004229 0.000000 -0.042268 0.000000
# 6 0.000000 0.000000 0.000000 0.012502 0.000000 0.044260
#
#
# Mechanical properties :
#
#
# Convention : Reuss Voigt Hill
#
# Bulk Modulus (GPa) = 21.82370 37.77743 29.80057
# Shear Modulus (GPa) = 12.87064 10.10622 11.48843
#
# Velocity S-wave (km/s) = 2.55537 2.26437 2.41426
# Velocity P-wave (km/s) = 4.44733 5.09930 4.78443
#
# Compressibility (1/GPa) = 0.04582175
#
# Stress axis : x y z
#
# Youngs Moduli (GPa) = 21.96578 9.14038 63.71852
#
# Poissons Ratio (x) = 0.35417 -0.14433
# Poissons Ratio (y) = 0.85114 1.65145
# Poissons Ratio (z) = -0.04976 0.23690
#
# Static dielectric constant tensor:
#      x y z
#    x 1.739820 0.000000 -0.007930 
#    y 0.000000 1.686130 0.000000 
#    z -0.007930 0.000000 1.718630 
# 
# From -- ./inp_files/267675.got.cif
#   From: 2010.05.17/outbox.ucp.g08.bks.cvg/sg12_134_cif.got.tgz:267675.got - 2010.06.11 11:47:21.
