data_PCOD9224974
_publ_section_title
;
Structure prediction by ZEFSAII (Michael W. Deem and Ramdas Pophale) SiO2 
 PCOD9224974
Probable space group: C 2/M
;
_chemical_formula_sum "Si O2"
_cell_formula_units_Z 32
_cell_length_a 18.000000
_cell_length_b 9.000000
_cell_length_c 30.000000
_cell_angle_alpha 90.000000
_cell_angle_beta 40.000000
_cell_angle_gamma 90.000000
_cell_volume 3123.947783
_symmetry_space_group_name_H-M "C 2/M"
_symmetry_group_IT_number 12
_symmetry_cell_setting 'monoclinic'
loop_
_space_group_symop_operation_xyz
x,y,z
-x,y,-z
-x,-y,-z
x,-y,z
1/2+x,1/2+y,z
1/2-x,1/2+y,-z
1/2-x,1/2-y,-z
1/2+x,1/2-y,z
loop_
_atom_site_type_symbol
_atom_site_label
_atom_site_fract_x
_atom_site_fract_y
_atom_site_fract_z
Si Si1 0.453764 0.330724 0.215714
Si Si2 0.709222 0.820691 0.564303
Si Si3 0.200274 0.331681 0.304313
Si Si4 0.873238 0.822892 0.937860
Si Si5 0.722979 0.820916 0.195831
Si Si6 0.628528 0.678064 0.427671
Si Si7 0.963986 0.330038 0.067848
Si Si8 0.015989 0.677097 0.713486
O O1 0.476237 0.500000 0.220450
O O2 0.339816 0.335467 0.237911
O O3 0.559261 0.274329 0.137736
O O4 0.418258 0.230819 0.273327
O O5 0.750000 0.750000 0.500000
O O6 0.790328 0.776619 0.568502
O O7 0.582308 0.771232 0.639038
O O8 0.712038 0.000000 0.558823
O O9 0.158085 0.500000 0.329748
O O10 0.171463 0.282153 0.268094
O O11 0.159750 0.240495 0.365071
O O12 0.951629 0.772696 0.942786
O O13 0.864294 0.000000 0.940263
O O14 0.750000 0.750000 0.000000
O O15 0.835991 0.732557 0.132173
O O16 0.614463 0.776778 0.215830
O O17 0.743350 0.000000 0.185163
O O18 0.500000 0.723851 0.500000
O O19 0.634307 0.500000 0.422558
O O20 0.971273 0.500000 0.080832
O O21 0.000000 0.327459 0.000000
O O22 0.015312 0.500000 0.711067
#
# Coordination Sequence:
#
# PCOD9224974 Si02
#       8
#     8   8   8   8   8   8   8   8
#     4  10  21  39  62  86 117 152 193 247 297 346
#     4  10  22  39  57  82 118 154 193 241 291 352
#     4  10  20  38  62  86 113 151 197 245 293 349
#     4  11  24  43  65  92 126 162 203 251 302 359
#     4  10  22  41  62  88 119 155 200 246 300 360
#     4  10  22  39  58  84 118 154 194 243 297 350
#     4  11  25  43  62  89 125 162 203 251 302 359
#     4  10  22  39  61  88 118 155 197 244 297 357
#
# _framework density 10.243449
#
# number of rings (size 3 to 8) (size 9 to 14) (size 15 to 20)
#    0.000    1.750    2.500    0.750    3.500    4.250 
#    0.000    0.000    0.000    0.000    0.000    0.000 
#    0.000    0.000    0.000    0.000    0.000    0.000 
#
# Total GULP energy -178376.403098 kJ/mol
# GULP energy per Si atom -5574.262597 kJ/mol
# Density = 1.022013 g / cm^3
# Si number density = 10.243449 Si / 1000 Ang^3
#
#
#
# Elastic Constant Matrix: (Units=GPa)
#
#
# Indices 1 2 3 4 5 6 
#
# 1 43.6184 7.8184 31.9400 0.0001 -10.8500 0.0005
# 2 7.8184 7.1824 33.9493 0.0005 -6.0922 0.0002
# 3 31.9400 33.9493 122.1507 0.0000 -8.7012 0.0000
# 4 0.0001 0.0005 0.0000 43.4380 0.0000 7.2460
# 5 -10.8500 -6.0922 -8.7012 0.0000 22.7031 0.0001
# 6 0.0005 0.0002 0.0000 7.2460 0.0001 19.2863
#
#
#
# Elastic Compliance Matrix: (Units=1/GPa)
#
#
# Indices 1 2 3 4 5 6 
#
# 1 0.029331 -0.025449 -0.000087 0.000000 0.007155 -0.000001
# 2 -0.025449 -0.327037 0.092968 0.000003 -0.064290 0.000003
# 3 -0.000087 0.092968 -0.016300 -0.000001 0.018659 -0.000001
# 4 0.000000 0.000003 -0.000001 0.024561 0.000001 -0.009228
# 5 0.007155 -0.064290 0.018659 0.000001 0.037366 0.000000
# 6 -0.000001 0.000003 -0.000001 -0.009228 0.000000 0.055317
#
#
# Mechanical properties :
#
#
# Convention : Reuss Voigt Hill
#
# Bulk Modulus (GPa) = -5.58220 35.59632 15.00706
# Shear Modulus (GPa) = -12.77660 23.70172 5.46256
#
# Velocity S-wave (km/s) = -2.50000 3.40504 1.63467
# Velocity P-wave (km/s) = 3.32626 5.73341 3.30212
#
# Compressibility (1/GPa) = -0.17914073
#
# Stress axis : x y z
#
# Youngs Moduli (GPa) = 34.09343 -3.05776 -61.34926
#
# Poissons Ratio (x) = -0.07782 -0.00533
# Poissons Ratio (y) = 0.86763 5.70352
# Poissons Ratio (z) = 0.00296 0.28427
#
# Static dielectric constant tensor:
#      x y z
#    x 1.647730 0.000000 0.062040 
#    y 0.000000 1.728980 0.000000 
#    z 0.062040 0.000000 1.629170 
# 
# From -- ./inp_files/378104.got.cif
#   From: 2010.05.17/outbox.ucp.g08.bks.cvg/sg12_190_cif.got.tgz:378104.got - 2010.06.11 11:47:21.
