data_PCOD9224674
_publ_section_title
;
Structure prediction by ZEFSAII (Michael W. Deem and Ramdas Pophale) SiO2 
 PCOD9224674
Probable space group: C 2/M
;
_chemical_formula_sum "Si O2"
_cell_formula_units_Z 28
_cell_length_a 30.000000
_cell_length_b 9.000000
_cell_length_c 15.000000
_cell_angle_alpha 90.000000
_cell_angle_beta 50.000000
_cell_angle_gamma 90.000000
_cell_volume 3102.479995
_symmetry_space_group_name_H-M "C 2/M"
_symmetry_group_IT_number 12
_symmetry_cell_setting 'monoclinic'
loop_
_space_group_symop_operation_xyz
x,y,z
-x,y,-z
-x,-y,-z
x,-y,z
1/2+x,1/2+y,z
1/2-x,1/2+y,-z
1/2-x,1/2-y,-z
1/2+x,1/2-y,z
loop_
_atom_site_type_symbol
_atom_site_label
_atom_site_fract_x
_atom_site_fract_y
_atom_site_fract_z
Si Si1 0.058006 0.678797 0.118572
Si Si2 0.278980 0.174646 0.266093
Si Si3 0.572737 0.177240 0.738389
Si Si4 0.736904 0.668302 0.140499
Si Si5 0.100733 0.177185 0.879105
Si Si6 0.846598 0.667896 0.865516
Si Si7 0.806659 0.827183 0.472204
O O1 0.066129 0.500000 0.096224
O O2 0.100181 0.726449 0.144739
O O3 0.989955 0.704523 0.226510
O O4 0.080433 0.757082 0.999756
O O5 0.265763 0.244164 0.187526
O O6 0.333818 0.267731 0.229513
O O7 0.218044 0.176945 0.395781
O O8 0.298267 0.000000 0.239125
O O9 0.564263 0.249993 0.846482
O O10 0.631324 0.247840 0.621034
O O11 0.581391 0.000000 0.734800
O O12 0.725040 0.500000 0.182661
O O13 0.677269 0.737463 0.184704
O O14 0.788877 0.663824 0.002002
O O15 0.096905 0.000000 0.884010
O O16 0.860171 0.500000 0.820773
O O17 0.750000 0.750000 0.500000
O O18 0.811324 0.000000 0.438253
#
# Coordination Sequence:
#
# PCOD9224674 Si02
#       7
#     8   8   8   8   8   8   8
#     4  10  21  38  56  75 106 149 182 211 265 328
#     4  10  20  36  56  76 107 145 177 213 265 323
#     4  11  23  38  56  75 105 147 185 219 263 319
#     4   9  17  31  52  77 105 136 171 213 263 317
#     4  12  23  33  52  81 111 140 176 222 266 313
#     4   9  17  31  52  77 106 135 171 216 261 317
#     4  11  22  36  57  80 105 140 182 226 267 310
#
# _framework density 9.0250380000000003
#
# number of rings (size 3 to 8) (size 9 to 14) (size 15 to 20)
#    0.000    1.714    2.857    2.571    0.000    4.571 
#    0.000    0.000    0.000    0.857    0.000    6.000 
#    0.000    0.000    0.000    0.000    0.000    0.000 
#
# Total GULP energy -155896.470829 kJ/mol
# GULP energy per Si atom -5567.731101 kJ/mol
# Density = 0.900450 g / cm^3
# Si number density = 9.025038 Si / 1000 Ang^3
#
#
#
# Elastic Constant Matrix: (Units=GPa)
#
#
# Indices 1 2 3 4 5 6 
#
# 1 102.1858 34.6003 0.2589 0.0000 -23.6961 0.0000
# 2 34.6003 68.9627 16.6624 0.0000 -14.5799 -0.0001
# 3 0.2589 16.6624 34.1327 0.0000 -24.2116 0.0000
# 4 0.0000 0.0000 0.0000 23.8019 0.0000 -4.4353
# 5 -23.6961 -14.5799 -24.2116 0.0000 25.6531 0.0000
# 6 0.0000 -0.0001 0.0000 -4.4353 0.0000 20.0944
#
#
#
# Elastic Compliance Matrix: (Units=1/GPa)
#
#
# Indices 1 2 3 4 5 6 
#
# 1 0.040030 -0.017913 0.083044 0.000000 0.105172 0.000000
# 2 -0.017913 0.024702 -0.041454 0.000000 -0.041631 0.000000
# 3 0.083044 -0.041454 0.262022 0.000000 0.300447 0.000000
# 4 0.000000 0.000000 0.000000 0.043816 0.000000 0.009671
# 5 0.105172 -0.041631 0.300447 0.000000 0.396033 0.000000
# 6 0.000000 0.000000 0.000000 0.009671 0.000000 0.051900
#
#
# Mechanical properties :
#
#
# Convention : Reuss Voigt Hill
#
# Bulk Modulus (GPa) = 2.67303 34.25826 18.46565
# Shear Modulus (GPa) = 5.58128 24.16052 14.87090
#
# Velocity S-wave (km/s) = 1.76035 3.66256 2.87343
# Velocity P-wave (km/s) = 2.36978 6.07508 4.61099
#
# Compressibility (1/GPa) = 0.37410756
#
# Stress axis : x y z
#
# Youngs Moduli (GPa) = 24.98139 40.48208 3.81648
#
# Poissons Ratio (x) = 0.72516 -0.31693
# Poissons Ratio (y) = 0.44750 0.15821
# Poissons Ratio (z) = -2.07455 1.67813
#
# Static dielectric constant tensor:
#      x y z
#    x 1.663240 0.000000 0.053200 
#    y 0.000000 1.636410 0.000000 
#    z 0.053200 0.000000 1.662000 
# 
# From -- ./inp_files/248870.got.cif
#   From: 2010.05.17/outbox.ucp.g08.bks.cvg/sg12_125_cif.got.tgz:248870.got - 2010.06.11 11:47:21.
