data_PCOD9224417
_publ_section_title
;
Structure prediction by ZEFSAII (Michael W. Deem and Ramdas Pophale) SiO2 
 PCOD9224417
Probable space group: C 2/M
;
_chemical_formula_sum "Si O2"
_cell_formula_units_Z 32
_cell_length_a 30.000000
_cell_length_b 9.000000
_cell_length_c 15.000000
_cell_angle_alpha 90.000000
_cell_angle_beta 130.000000
_cell_angle_gamma 90.000000
_cell_volume 3102.479995
_symmetry_space_group_name_H-M "C 2/M"
_symmetry_group_IT_number 12
_symmetry_cell_setting 'monoclinic'
loop_
_space_group_symop_operation_xyz
x,y,z
-x,y,-z
-x,-y,-z
x,-y,z
1/2+x,1/2+y,z
1/2-x,1/2+y,-z
1/2-x,1/2-y,-z
1/2+x,1/2-y,z
loop_
_atom_site_type_symbol
_atom_site_label
_atom_site_fract_x
_atom_site_fract_y
_atom_site_fract_z
Si Si1 0.436446 0.173356 0.530212
Si Si2 0.254510 0.322227 0.102200
Si Si3 0.689017 0.826356 0.535735
Si Si4 0.707940 0.178835 0.222999
Si Si5 0.869301 0.320794 0.717796
Si Si6 0.540560 0.321271 0.772981
Si Si7 0.612642 0.322688 0.703285
Si Si8 0.008581 0.820638 0.111882
O O1 0.374154 0.186299 0.499228
O O2 0.484763 0.260194 0.648123
O O3 0.426348 0.239471 0.419106
O O4 0.452111 0.000000 0.546024
O O5 0.248595 0.500000 0.084406
O O6 0.211574 0.268410 0.125517
O O7 0.319480 0.291583 0.222300
O O8 0.250000 0.250000 0.000000
O O9 0.735845 0.733001 0.649906
O O10 0.677769 0.781846 0.418665
O O11 0.706309 0.000000 0.560268
O O12 0.653548 0.223484 0.213972
O O13 0.709097 0.000000 0.222272
O O14 0.877083 0.500000 0.723566
O O15 0.929380 0.239780 0.776354
O O16 0.537939 0.500000 0.770380
O O17 0.594807 0.278838 0.780822
O O18 0.537398 0.271623 0.871649
O O19 0.603835 0.500000 0.681588
O O20 0.009225 0.000000 0.110213
O O21 0.000000 0.765764 0.000000
#
# Coordination Sequence:
#
# PCOD9224417 Si02
#       8
#     8   8   8   8   8   8   8   8
#     4  11  21  34  56  86 116 145 181 227 277 330
#     4  10  22  39  58  81 109 145 187 231 275 322
#     4  10  20  34  55  84 116 147 181 223 275 331
#     4  10  21  37  59  85 113 146 186 226 271 333
#     4  10  21  38  58  84 116 147 181 225 278 335
#     4  10  21  37  58  82 111 148 187 226 273 331
#     4  10  21  38  58  81 111 149 187 224 274 333
#     4  10  22  39  58  82 110 144 191 237 274 322
#
# _framework density 10.314329000000001
#
# number of rings (size 3 to 8) (size 9 to 14) (size 15 to 20)
#    0.000    1.875    2.500    1.125    0.000    5.750 
#    0.000    1.250    0.000    0.000    0.000    0.000 
#    0.000    0.000    0.000    0.000    0.000    0.000 
#
# Total GULP energy -178663.111325 kJ/mol
# GULP energy per Si atom -5583.222229 kJ/mol
# Density = 1.029085 g / cm^3
# Si number density = 10.314329 Si / 1000 Ang^3
#
#
#
# Elastic Constant Matrix: (Units=GPa)
#
#
# Indices 1 2 3 4 5 6 
#
# 1 107.3728 12.8348 12.3335 0.0000 -41.2514 0.0000
# 2 12.8348 -14.0062 -5.6537 0.0000 -8.8403 0.0000
# 3 12.3335 -5.6537 46.8269 0.0000 -34.8008 0.0000
# 4 0.0000 0.0000 0.0000 23.7314 0.0000 -3.5145
# 5 -41.2514 -8.8403 -34.8008 0.0000 40.1113 0.0000
# 6 0.0000 0.0000 0.0000 -3.5145 0.0000 16.7648
#
#
#
# Elastic Compliance Matrix: (Units=1/GPa)
#
#
# Indices 1 2 3 4 5 6 
#
# 1 0.024770 -0.013996 0.023719 0.000000 0.042968 0.000000
# 2 -0.013996 -0.029647 -0.043485 0.000000 -0.058656 0.000000
# 3 0.023719 -0.043485 0.058736 0.000000 0.065769 0.000000
# 4 0.000000 0.000000 0.000000 0.043488 0.000000 0.009117
# 5 0.042968 -0.058656 0.065769 0.000000 0.113253 0.000000
# 6 0.000000 0.000000 0.000000 0.009117 0.000000 0.061560
#
#
# Mechanical properties :
#
#
# Convention : Reuss Voigt Hill
#
# Bulk Modulus (GPa) = -73.16916 19.91364 -26.62776
# Shear Modulus (GPa) = 14.91963 24.16675 19.54319
#
# Velocity S-wave (km/s) = 2.69224 3.42645 3.08129
# Velocity P-wave (km/s) = 5.08748 5.03274 0.52631
#
# Compressibility (1/GPa) = -0.01366696
#
# Stress axis : x y z
#
# Youngs Moduli (GPa) = 40.37219 -33.72967 17.02536
#
# Poissons Ratio (x) = -0.47208 -0.40382
# Poissons Ratio (y) = 0.56505 0.74035
# Poissons Ratio (z) = -0.95758 -1.46674
#
# Static dielectric constant tensor:
#      x y z
#    x 1.797550 0.000000 -0.042220 
#    y 0.000000 1.682310 0.000000 
#    z -0.042220 0.000000 1.707150 
# 
# From -- ./inp_files/249743.got.cif
#   From: 2010.05.17/outbox.ucp.g08.bks.cvg/sg12_125_cif.got.tgz:249743.got - 2010.06.11 11:47:21.
