data_PCOD9224092
_publ_section_title
;
Structure prediction by ZEFSAII (Michael W. Deem and Ramdas Pophale) SiO2 
 PCOD9224092
Probable space group: C 2/M
;
_chemical_formula_sum "Si O2"
_cell_formula_units_Z 32
_cell_length_a 15.000000
_cell_length_b 9.000000
_cell_length_c 30.000000
_cell_angle_alpha 90.000000
_cell_angle_beta 130.000000
_cell_angle_gamma 90.000000
_cell_volume 3102.479995
_symmetry_space_group_name_H-M "C 2/M"
_symmetry_group_IT_number 12
_symmetry_cell_setting 'monoclinic'
loop_
_space_group_symop_operation_xyz
x,y,z
-x,y,-z
-x,-y,-z
x,-y,z
1/2+x,1/2+y,z
1/2-x,1/2+y,-z
1/2-x,1/2-y,-z
1/2+x,1/2-y,z
loop_
_atom_site_type_symbol
_atom_site_label
_atom_site_fract_x
_atom_site_fract_y
_atom_site_fract_z
Si Si1 0.595552 0.176743 0.635158
Si Si2 0.118677 0.167629 0.111431
Si Si3 0.173426 0.175093 0.341370
Si Si4 0.787379 0.326600 0.236719
Si Si5 0.520252 0.826512 0.779333
Si Si6 0.351304 0.321226 0.562782
Si Si7 0.397387 0.151384 0.029704
Si Si8 0.800967 0.263627 0.093295
O O1 0.691572 0.190935 0.627753
O O2 0.659454 0.235653 0.700755
O O3 0.477279 0.263018 0.587983
O O4 0.569686 0.000000 0.633037
O O5 0.178018 0.242311 0.174414
O O6 0.213697 0.167965 0.102238
O O7 0.994415 0.224958 0.055937
O O8 0.098951 0.000000 0.118611
O O9 0.096180 0.259888 0.279570
O O10 0.155448 0.223006 0.386778
O O11 0.142749 0.000000 0.328354
O O12 0.760191 0.500000 0.238383
O O13 0.889688 0.324979 0.233063
O O14 0.583501 0.735372 0.839691
O O15 0.507592 0.000000 0.789345
O O16 0.343191 0.500000 0.557956
O O17 0.250000 0.250000 0.500000
O O18 0.348023 0.155749 0.064108
O O19 0.465473 0.000000 0.044607
O O20 0.290050 0.156360 0.961183
#
# Coordination Sequence:
#
# PCOD9224092 Si02
#       8
#     8   8   8   8   8   8   8   8
#     4  10  20  39  64  90 125 163 200 243 292 351
#     4  10  21  38  61  85 112 153 202 246 297 366
#     4  10  23  39  61  94 128 158 196 248 303 350
#     4   8  16  33  58  86 114 152 197 238 289 357
#     4  10  19  36  63  88 115 155 204 249 296 356
#     4  11  24  43  65  94 129 165 202 242 291 345
#     4  11  24  40  58  84 117 153 199 254 312 361
#     4  10  23  40  59  81 117 159 201 247 302 368
#
# _framework density 10.314329000000001
#
# number of rings (size 3 to 8) (size 9 to 14) (size 15 to 20)
#    0.000    2.000    1.250    2.625    1.750    6.500 
#    0.000    5.000    0.000    0.000    0.000    0.000 
#    0.000    0.000    0.000    0.000    0.000    0.000 
#
# Total GULP energy -178188.974419 kJ/mol
# GULP energy per Si atom -5568.405451 kJ/mol
# Density = 1.029085 g / cm^3
# Si number density = 10.314329 Si / 1000 Ang^3
#
#
#
# Elastic Constant Matrix: (Units=GPa)
#
#
# Indices 1 2 3 4 5 6 
#
# 1 57.3389 20.8418 34.0430 0.0000 16.7147 0.0000
# 2 20.8418 38.5163 41.1639 0.0000 14.7603 0.0000
# 3 34.0430 41.1639 148.0627 0.0000 23.2037 0.0000
# 4 0.0000 0.0000 0.0000 177.5978 0.0000 -47.1061
# 5 16.7147 14.7603 23.2037 0.0000 22.1243 0.0000
# 6 0.0000 0.0000 0.0000 -47.1061 0.0000 25.5623
#
#
#
# Elastic Compliance Matrix: (Units=1/GPa)
#
#
# Indices 1 2 3 4 5 6 
#
# 1 0.024494 -0.006573 -0.001905 0.000000 -0.012122 0.000000
# 2 -0.006573 0.044613 -0.008384 0.000000 -0.016005 0.000000
# 3 -0.001905 -0.008384 0.010077 0.000000 -0.003536 0.000000
# 4 0.000000 0.000000 0.000000 0.011014 0.000000 0.020297
# 5 -0.012122 -0.016005 -0.003536 0.000000 0.068744 0.000000
# 6 0.000000 0.000000 0.000000 0.020297 0.000000 0.076523
#
#
# Mechanical properties :
#
#
# Convention : Reuss Voigt Hill
#
# Bulk Modulus (GPa) = 21.99662 48.44616 35.22139
# Shear Modulus (GPa) = 17.58442 54.91482 36.24962
#
# Velocity S-wave (km/s) = 2.92280 5.16512 4.19650
# Velocity P-wave (km/s) = 4.69858 7.68811 6.37118
#
# Compressibility (1/GPa) = 0.04546153
#
# Stress axis : x y z
#
# Youngs Moduli (GPa) = 40.82653 22.41477 99.23786
#
# Poissons Ratio (x) = 0.14733 0.18900
# Poissons Ratio (y) = 0.26835 0.83198
# Poissons Ratio (z) = 0.07776 0.18792
#
# Static dielectric constant tensor:
#      x y z
#    x 1.729990 0.000000 -0.011830 
#    y 0.000000 1.759250 0.000000 
#    z -0.011830 0.000000 1.731200 
# 
# From -- ./inp_files/375559.got.cif
#   From: 2010.05.17/outbox.ucp.g08.bks.cvg/sg12_188_cif.got.tgz:375559.got - 2010.06.11 11:47:21.
