data_PCOD9224414
_publ_section_title
;
Structure prediction by ZEFSAII (Michael W. Deem and Ramdas Pophale) SiO2 
 PCOD9224414
Probable space group: C 2/M
;
_chemical_formula_sum "Si O2"
_cell_formula_units_Z 28
_cell_length_a 30.000000
_cell_length_b 9.000000
_cell_length_c 15.000000
_cell_angle_alpha 90.000000
_cell_angle_beta 130.000000
_cell_angle_gamma 90.000000
_cell_volume 3102.479995
_symmetry_space_group_name_H-M "C 2/M"
_symmetry_group_IT_number 12
_symmetry_cell_setting 'monoclinic'
loop_
_space_group_symop_operation_xyz
x,y,z
-x,y,-z
-x,-y,-z
x,-y,z
1/2+x,1/2+y,z
1/2-x,1/2+y,-z
1/2-x,1/2-y,-z
1/2+x,1/2-y,z
loop_
_atom_site_type_symbol
_atom_site_label
_atom_site_fract_x
_atom_site_fract_y
_atom_site_fract_z
Si Si1 0.917711 0.178101 0.135954
Si Si2 0.557834 0.821852 0.021935
Si Si3 0.509091 0.320015 0.406370
Si Si4 0.378276 0.821448 0.547372
Si Si5 0.842266 0.679098 0.705652
Si Si6 0.755233 0.321945 0.297697
Si Si7 0.780847 0.179152 0.952732
O O1 0.954550 0.221630 0.271421
O O2 0.922564 0.000000 0.134857
O O3 0.939870 0.248832 0.072170
O O4 0.849265 0.214939 0.051428
O O5 0.609775 0.784197 0.156941
O O6 0.558276 0.000000 0.010272
O O7 0.500000 0.778946 0.000000
O O8 0.500000 0.275560 0.500000
O O9 0.513881 0.500000 0.412775
O O10 0.566041 0.253913 0.429048
O O11 0.362703 0.775875 0.630981
O O12 0.321673 0.792605 0.412770
O O13 0.388155 0.000000 0.563063
O O14 0.835381 0.500000 0.693266
O O15 0.784674 0.750127 0.675766
O O16 0.745773 0.500000 0.287963
O O17 0.740198 0.274356 0.175358
O O18 0.773514 0.000000 0.947155
O O19 0.750000 0.250000 0.000000
#
# Coordination Sequence:
#
# PCOD9224414 Si02
#       7
#     8   8   8   8   8   8   8
#     4  10  21  39  59  82 113 147 186 232 281 331
#     4  10  20  34  55  83 115 150 186 227 274 329
#     4  10  23  41  60  83 111 148 193 236 280 334
#     4  10  22  39  59  85 116 150 188 232 280 334
#     4  10  20  35  56  85 117 149 188 228 276 335
#     4  10  21  38  59  85 117 149 186 231 281 335
#     4  10  22  38  58  85 114 146 187 234 281 334
#
# _framework density 9.0250380000000003
#
# number of rings (size 3 to 8) (size 9 to 14) (size 15 to 20)
#    0.000    2.000    1.429    1.286    2.000    4.571 
#    0.000    0.000    0.000    0.000    0.000    0.000 
#    0.000    0.000    0.000    0.000    0.000    0.000 
#
# Total GULP energy -156120.813717 kJ/mol
# GULP energy per Si atom -5575.743347 kJ/mol
# Density = 0.900450 g / cm^3
# Si number density = 9.025038 Si / 1000 Ang^3
#
#
#
# Elastic Constant Matrix: (Units=GPa)
#
#
# Indices 1 2 3 4 5 6 
#
# 1 154.7704 32.7658 88.0859 0.0000 -24.1618 0.0000
# 2 32.7658 13.4261 34.0435 0.0000 -2.1409 0.0000
# 3 88.0859 34.0435 168.1458 0.0000 -24.4983 0.0000
# 4 0.0000 0.0000 0.0000 25.3847 0.0000 -7.2644
# 5 -24.1618 -2.1409 -24.4983 0.0000 40.7977 0.0000
# 6 0.0000 0.0000 0.0000 -7.2644 0.0000 41.5006
#
#
#
# Elastic Compliance Matrix: (Units=1/GPa)
#
#
# Indices 1 2 3 4 5 6 
#
# 1 0.015213 -0.038008 0.000819 0.000000 0.007507 0.000000
# 2 -0.038008 0.253181 -0.035827 0.000000 -0.030737 0.000000
# 3 0.000819 -0.035827 0.013774 0.000000 0.006876 0.000000
# 4 0.000000 0.000000 0.000000 0.041471 0.000000 0.007259
# 5 0.007507 -0.030737 0.006876 0.000000 0.031473 0.000000
# 6 0.000000 0.000000 0.000000 0.007259 0.000000 0.025367
#
#
# Mechanical properties :
#
#
# Convention : Reuss Voigt Hill
#
# Bulk Modulus (GPa) = 7.34560 71.79251 39.56905
# Shear Modulus (GPa) = 8.74296 33.63308 21.18802
#
# Velocity S-wave (km/s) = 2.20323 4.32130 3.42986
# Velocity P-wave (km/s) = 3.24819 8.04727 6.13634
#
# Compressibility (1/GPa) = 0.13613598
#
# Stress axis : x y z
#
# Youngs Moduli (GPa) = 65.73170 3.94975 72.60240
#
# Poissons Ratio (x) = 0.15012 -0.05947
# Poissons Ratio (y) = 2.49830 2.60116
# Poissons Ratio (z) = -0.05385 0.14151
#
# Static dielectric constant tensor:
#      x y z
#    x 1.613700 0.000000 0.029160 
#    y 0.000000 1.615740 0.000000 
#    z 0.029160 0.000000 1.646370 
# 
# From -- ./inp_files/249300.got.cif
#   From: 2010.05.17/outbox.ucp.g08.bks.cvg/sg12_125_cif.got.tgz:249300.got - 2010.06.11 11:47:21.
