data_PCOD9224933
_publ_section_title
;
Structure prediction by ZEFSAII (Michael W. Deem and Ramdas Pophale) SiO2 
 PCOD9224933
Probable space group: C 2/M
;
_chemical_formula_sum "Si O2"
_cell_formula_units_Z 29
_cell_length_a 21.000000
_cell_length_b 27.000000
_cell_length_c 6.000000
_cell_angle_alpha 90.000000
_cell_angle_beta 120.000000
_cell_angle_gamma 90.000000
_cell_volume 2946.218424
_symmetry_space_group_name_H-M "C 2/M"
_symmetry_group_IT_number 12
_symmetry_cell_setting 'monoclinic'
loop_
_space_group_symop_operation_xyz
x,y,z
-x,y,-z
-x,-y,-z
x,-y,z
1/2+x,1/2+y,z
1/2-x,1/2+y,-z
1/2-x,1/2-y,-z
1/2+x,1/2-y,z
loop_
_atom_site_type_symbol
_atom_site_label
_atom_site_fract_x
_atom_site_fract_y
_atom_site_fract_z
Si Si1 0.288073 0.136907 0.383137
Si Si2 0.853682 0.774541 0.498861
Si Si3 0.084574 0.318197 0.623437
Si Si4 0.335660 0.632003 0.198255
Si Si5 0.439704 0.416782 0.054144
Si Si6 0.000000 0.000000 0.500000
Si Si7 0.300260 0.443236 0.512975
Si Si8 0.689627 0.218362 0.191771
O O1 0.369605 0.140011 0.426831
O O2 0.259560 0.087320 0.450520
O O3 0.289493 0.177912 0.581470
O O4 0.232922 0.147196 0.079189
O O5 0.907915 0.733674 0.496857
O O6 0.863848 0.829261 0.430223
O O7 0.770559 0.764138 0.260163
O O8 0.848981 0.764347 0.752405
O O9 0.000000 0.330830 0.500000
O O10 0.132007 0.306380 0.926796
O O11 0.400767 0.621865 0.144482
O O12 0.313173 0.583451 0.298903
O O13 0.476824 0.457394 0.276092
O O14 0.500000 0.393926 0.000000
O O15 0.375405 0.439645 0.786844
O O16 0.280577 0.500000 0.446165
#
# Coordination Sequence:
#
# PCOD9224933 Si02
#       8
#     8   8   8   8   8   2   8   8
#     4  10  21  39  63  91 120 159 207 256 313 367
#     4  10  21  36  63  89 121 163 209 249 305 365
#     4  11  23  39  61  92 128 165 204 255 315 376
#     4  11  23  39  62  89 119 162 209 262 304 366
#     4  11  25  39  60  83 120 168 211 255 314 366
#     4  12  22  44  60  78 116 172 208 256 304 362
#     4  11  23  40  62  91 116 157 215 265 309 367
#     4  10  20  37  66  89 120 164 204 254 304 376
#
# _framework density 9.8431259999999998
#
# number of rings (size 3 to 8) (size 9 to 14) (size 15 to 20)
#    0.000    1.379    3.448    1.448    6.759    2.759 
#    3.724    0.000    0.000    0.414    0.000    3.862 
#    0.000    0.000    0.000    0.000    0.000    0.000 
#
# Total GULP energy -161531.290545 kJ/mol
# GULP energy per Si atom -5570.044502 kJ/mol
# Density = 0.982072 g / cm^3
# Si number density = 9.843126 Si / 1000 Ang^3
#
#
#
# Elastic Constant Matrix: (Units=GPa)
#
#
# Indices 1 2 3 4 5 6 
#
# 1 153.7853 47.2939 14.9442 0.0000 9.9401 0.0000
# 2 47.2939 81.0247 -9.9316 0.0000 1.4334 0.0000
# 3 14.9442 -9.9316 18.9213 0.0000 6.7696 0.0000
# 4 0.0000 0.0000 0.0000 21.6017 0.0000 -0.9628
# 5 9.9401 1.4334 6.7696 0.0000 7.5473 0.0000
# 6 0.0000 0.0000 0.0000 -0.9628 0.0000 -12.6073
#
#
#
# Elastic Compliance Matrix: (Units=1/GPa)
#
#
# Indices 1 2 3 4 5 6 
#
# 1 0.009834 -0.007022 -0.010744 0.000000 -0.001981 0.000000
# 2 -0.007022 0.019107 0.019975 0.000000 -0.012297 0.000000
# 3 -0.010744 0.019975 0.100304 0.000000 -0.079612 0.000000
# 4 0.000000 0.000000 0.000000 0.046136 0.000000 -0.003523
# 5 -0.001981 -0.012297 -0.079612 0.000000 0.208852 0.000000
# 6 0.000000 0.000000 0.000000 -0.003523 0.000000 -0.079050
#
#
# Mechanical properties :
#
#
# Convention : Reuss Voigt Hill
#
# Bulk Modulus (GPa) = 7.48157 39.81604 23.64880
# Shear Modulus (GPa) = 14.47931 16.73666 15.60799
#
# Velocity S-wave (km/s) = 2.71496 2.91893 2.81879
# Velocity P-wave (km/s) = 3.69279 5.62400 4.75742
#
# Compressibility (1/GPa) = 0.13366175
#
# Stress axis : x y z
#
# Youngs Moduli (GPa) = 101.68551 52.33785 9.96966
#
# Poissons Ratio (x) = 0.36752 0.10711
# Poissons Ratio (y) = 0.71405 -0.19914
# Poissons Ratio (z) = 1.09252 -1.04542
#
# Static dielectric constant tensor:
#      x y z
#    x 1.753620 0.000000 -0.044380 
#    y 0.000000 1.721760 0.000000 
#    z -0.044380 0.000000 1.706560 
# 
# From -- ./inp_files/22470.got.cif
#   From: 2010.05.17/outbox.ucp.g08.bks.cvg/sg12_12_cif.got.tgz:22470.got - 2010.06.11 11:47:21.
