data_PCOD9224805
_publ_section_title
;
Structure prediction by ZEFSAII (Michael W. Deem and Ramdas Pophale) SiO2 
 PCOD9224805
Probable space group: C 2/M
;
_chemical_formula_sum "Si O2"
_cell_formula_units_Z 32
_cell_length_a 27.000000
_cell_length_b 15.000000
_cell_length_c 12.000000
_cell_angle_alpha 90.000000
_cell_angle_beta 140.000000
_cell_angle_gamma 90.000000
_cell_volume 3123.947783
_symmetry_space_group_name_H-M "C 2/M"
_symmetry_group_IT_number 12
_symmetry_cell_setting 'monoclinic'
loop_
_space_group_symop_operation_xyz
x,y,z
-x,y,-z
-x,-y,-z
x,-y,z
1/2+x,1/2+y,z
1/2-x,1/2+y,-z
1/2-x,1/2-y,-z
1/2+x,1/2-y,z
loop_
_atom_site_type_symbol
_atom_site_label
_atom_site_fract_x
_atom_site_fract_y
_atom_site_fract_z
Si Si1 0.900424 0.901105 0.646582
Si Si2 0.353506 0.896908 0.606045
Si Si3 0.189527 0.396158 0.011963
Si Si4 0.137800 0.299954 0.145809
Si Si5 0.931738 0.725451 0.311606
Si Si6 0.369042 0.601350 0.329764
Si Si7 0.013152 0.726908 0.217857
Si Si8 0.319153 0.599321 0.735137
O O1 0.874081 0.887312 0.473267
O O2 0.956192 0.820764 0.773205
O O3 0.835069 0.898812 0.628837
O O4 0.935747 0.000000 0.713191
O O5 0.341390 0.842860 0.700419
O O6 0.416664 0.841104 0.647521
O O7 0.272021 0.897595 0.403679
O O8 0.375611 0.000000 0.665003
O O9 0.164476 0.500000 0.975033
O O10 0.179643 0.348687 0.115368
O O11 0.279799 0.395283 0.141249
O O12 0.139527 0.339461 0.837838
O O13 0.148834 0.192546 0.162743
O O14 0.047731 0.316140 0.969941
O O15 0.909594 0.816758 0.337083
O O16 0.000000 0.680709 0.500000
O O17 0.968642 0.745861 0.255265
O O18 0.398017 0.500000 0.355540
O O19 0.347649 0.500000 0.821786
#
# Coordination Sequence:
#
# PCOD9224805 Si02
#       8
#     8   8   8   8   8   8   8   8
#     4  10  20  36  61  90 122 157 200 248 302 360
#     4  11  23  39  60  88 123 164 207 247 293 353
#     4  10  23  41  63  93 120 157 205 249 302 358
#     4  11  22  37  63  89 126 162 201 247 295 361
#     4  11  23  40  63  87 123 158 201 250 308 360
#     4  10  21  40  67  92 118 154 204 257 305 360
#     4  11  24  37  55  90 121 161 201 245 300 358
#     4  10  22  38  61  93 125 160 201 248 301 356
#
# _framework density 10.243449
#
# number of rings (size 3 to 8) (size 9 to 14) (size 15 to 20)
#    0.000    1.500    2.500    2.250    1.750    6.500 
#    0.000    3.125    0.000    6.750    0.000    0.000 
#    0.000    0.000    0.000    0.000    0.000    0.000 
#
# Total GULP energy -178598.703302 kJ/mol
# GULP energy per Si atom -5581.209478 kJ/mol
# Density = 1.022013 g / cm^3
# Si number density = 10.243449 Si / 1000 Ang^3
#
#
#
# Elastic Constant Matrix: (Units=GPa)
#
#
# Indices 1 2 3 4 5 6 
#
# 1 41.3522 27.9519 12.8984 0.0000 11.8004 0.0000
# 2 27.9519 123.2896 3.5401 0.0000 3.6373 0.0000
# 3 12.8984 3.5401 35.5078 0.0000 3.9030 0.0000
# 4 0.0000 0.0000 0.0000 167.8658 0.0000 54.6410
# 5 11.8004 3.6373 3.9030 0.0000 23.7951 0.0000
# 6 0.0000 0.0000 0.0000 54.6410 0.0000 54.9288
#
#
#
# Elastic Compliance Matrix: (Units=1/GPa)
#
#
# Indices 1 2 3 4 5 6 
#
# 1 0.037231 -0.007667 -0.011059 0.000000 -0.015478 0.000000
# 2 -0.007667 0.009743 0.001588 0.000000 0.002052 0.000000
# 3 -0.011059 0.001588 0.032023 0.000000 -0.000011 0.000000
# 4 0.000000 0.000000 0.000000 0.008810 0.000000 -0.008764
# 5 -0.015478 0.002052 -0.000011 0.000000 0.049389 0.000000
# 6 0.000000 0.000000 0.000000 -0.008764 0.000000 0.026923
#
#
# Mechanical properties :
#
#
# Convention : Reuss Voigt Hill
#
# Bulk Modulus (GPa) = 22.36034 32.10335 27.23185
# Shear Modulus (GPa) = 23.44106 59.70189 41.57148
#
# Velocity S-wave (km/s) = 3.38627 5.40414 4.50952
# Velocity P-wave (km/s) = 5.12125 7.39215 6.35890
#
# Compressibility (1/GPa) = 0.04472204
#
# Stress axis : x y z
#
# Youngs Moduli (GPa) = 26.85937 102.63759 31.22766
#
# Poissons Ratio (x) = 0.78690 0.34534
# Poissons Ratio (y) = 0.20592 -0.04959
# Poissons Ratio (z) = 0.29703 -0.16299
#
# Static dielectric constant tensor:
#      x y z
#    x 1.752930 0.000000 0.013760 
#    y 0.000000 1.723540 0.000000 
#    z 0.013760 0.000000 1.747500 
# 
# From -- ./inp_files/183854.got.cif
#   From: 2010.05.17/outbox.ucp.g08.bks.cvg/sg12_92_cif.got.tgz:183854.got - 2010.06.11 11:47:21.
