data_PCOD9224167
_publ_section_title
;
Structure prediction by ZEFSAII (Michael W. Deem and Ramdas Pophale) SiO2 
 PCOD9224167
Probable space group: C 2/M
;
_chemical_formula_sum "Si O2"
_cell_formula_units_Z 30
_cell_length_a 12.000000
_cell_length_b 24.000000
_cell_length_c 21.000000
_cell_angle_alpha 90.000000
_cell_angle_beta 30.000000
_cell_angle_gamma 90.000000
_cell_volume 3024.000000
_symmetry_space_group_name_H-M "C 2/M"
_symmetry_group_IT_number 12
_symmetry_cell_setting 'monoclinic'
loop_
_space_group_symop_operation_xyz
x,y,z
-x,y,-z
-x,-y,-z
x,-y,z
1/2+x,1/2+y,z
1/2-x,1/2+y,-z
1/2-x,1/2-y,-z
1/2+x,1/2-y,z
loop_
_atom_site_type_symbol
_atom_site_label
_atom_site_fract_x
_atom_site_fract_y
_atom_site_fract_z
Si Si1 0.236272 0.230573 0.132602
Si Si2 0.000000 0.859449 0.500000
Si Si3 0.028798 0.934671 0.686313
Si Si4 0.434755 0.063507 0.298207
Si Si5 0.318561 0.850674 0.906848
Si Si6 0.306903 0.667847 0.722008
Si Si7 0.987803 0.868818 0.184157
Si Si8 0.542726 0.063975 0.393476
O O1 0.221064 0.293482 0.113297
O O2 0.168367 0.217109 0.238926
O O3 0.072616 0.189742 0.173096
O O4 0.500000 0.214328 0.000000
O O5 0.788681 0.899962 0.596934
O O6 0.942678 0.822825 0.589934
O O7 0.940904 0.916085 0.799524
O O8 0.299711 0.926315 0.546570
O O9 0.907595 0.890296 0.700013
O O10 0.987532 0.000000 0.692864
O O11 0.622420 0.097771 0.167810
O O12 0.492044 0.061151 0.343838
O O13 0.405822 0.000000 0.288940
O O14 0.545209 0.839949 0.835468
O O15 0.114976 0.867097 0.053888
O O16 0.727190 0.886774 0.308026
O O17 0.620138 0.000000 0.373092
#
# Coordination Sequence:
#
# PCOD9224167 Si02
#       8
#     8   4   8   8   8   8   8   8
#     4  11  24  44  69  88 123 172 221 269 323 397
#     4  10  19  40  68  94 128 170 209 268 316 388
#     4  10  21  40  67  97 135 179 212 257 317 388
#     4  10  22  38  63  95 131 169 212 261 320 390
#     4  11  25  41  65  96 126 168 217 273 327 380
#     4  10  22  41  67  97 127 161 223 266 321 388
#     4  11  23  39  66  95 126 170 220 271 320 381
#     4  10  21  39  64  97 133 174 215 256 319 390
#
# _framework density 9.9206350000000008
#
# number of rings (size 3 to 8) (size 9 to 14) (size 15 to 20)
#    0.000    1.600    2.667    1.400    1.867    4.267 
#    0.000    4.667   23.467    0.000    0.000    0.000 
#    0.000    0.000    0.000    0.000    0.000    0.000 
#
# Total GULP energy -167369.718347 kJ/mol
# GULP energy per Si atom -5578.990612 kJ/mol
# Density = 0.989806 g / cm^3
# Si number density = 9.920635 Si / 1000 Ang^3
#
#
#
# Elastic Constant Matrix: (Units=GPa)
#
#
# Indices 1 2 3 4 5 6 
#
# 1 76.1502 37.3904 53.8664 0.0082 15.1048 0.0127
# 2 37.3904 83.8370 74.2845 0.0442 9.2046 0.0153
# 3 53.8664 74.2845 119.2021 0.0103 28.9469 0.0073
# 4 0.0082 0.0442 0.0103 26.1699 0.0104 -2.6887
# 5 15.1048 9.2046 28.9469 0.0104 48.5332 -0.0190
# 6 0.0127 0.0153 0.0073 -2.6887 -0.0190 30.4535
#
#
#
# Elastic Compliance Matrix: (Units=1/GPa)
#
#
# Indices 1 2 3 4 5 6 
#
# 1 0.019530 -0.002329 -0.007023 0.000000 -0.001448 -0.000006
# 2 -0.002329 0.028317 -0.018086 -0.000043 0.006141 -0.000009
# 3 -0.007023 -0.018086 0.025106 0.000027 -0.009358 0.000003
# 4 0.000000 -0.000043 0.000027 0.038562 -0.000015 0.003405
# 5 -0.001448 0.006141 -0.009358 -0.000015 0.025472 0.000014
# 6 -0.000006 -0.000009 0.000003 0.003405 0.000014 0.033138
#
#
# Mechanical properties :
#
#
# Convention : Reuss Voigt Hill
#
# Bulk Modulus (GPa) = 55.31280 67.80799 61.56040
# Shear Modulus (GPa) = 21.64258 28.60783 25.12521
#
# Velocity S-wave (km/s) = 3.30629 3.80127 3.56239
# Velocity P-wave (km/s) = 6.52024 7.31544 6.92926
#
# Compressibility (1/GPa) = 0.01807900
#
# Stress axis : x y z
#
# Youngs Moduli (GPa) = 51.20260 35.31389 39.83127
#
# Poissons Ratio (x) = 0.08224 0.27972
# Poissons Ratio (y) = 0.11924 0.72038
# Poissons Ratio (z) = 0.35957 0.63868
#
# Static dielectric constant tensor:
#      x y z
#    x 1.785480 -0.000010 0.019310 
#    y -0.000010 1.669050 0.000020 
#    z 0.019310 0.000020 1.686780 
# 
# From -- ./inp_files/307295.got.cif
#   From: 2010.05.17/outbox.ucp.g08.bks.cvg/sg12_154_cif.got.tgz:307295.got - 2010.06.11 11:47:21.
