data_PCOD9224849
_publ_section_title
;
Structure prediction by ZEFSAII (Michael W. Deem and Ramdas Pophale) SiO2 
 PCOD9224849
Probable space group: C 2/M
;
_chemical_formula_sum "Si O2"
_cell_formula_units_Z 32
_cell_length_a 15.000000
_cell_length_b 9.000000
_cell_length_c 30.000000
_cell_angle_alpha 90.000000
_cell_angle_beta 50.000000
_cell_angle_gamma 90.000000
_cell_volume 3102.479995
_symmetry_space_group_name_H-M "C 2/M"
_symmetry_group_IT_number 12
_symmetry_cell_setting 'monoclinic'
loop_
_space_group_symop_operation_xyz
x,y,z
-x,y,-z
-x,-y,-z
x,-y,z
1/2+x,1/2+y,z
1/2-x,1/2+y,-z
1/2-x,1/2-y,-z
1/2+x,1/2-y,z
loop_
_atom_site_type_symbol
_atom_site_label
_atom_site_fract_x
_atom_site_fract_y
_atom_site_fract_z
Si Si1 0.146621 0.676958 0.004911
Si Si2 0.334199 0.676157 0.369340
Si Si3 0.880677 0.321621 0.091923
Si Si4 0.386728 0.674846 0.592151
Si Si5 0.625193 0.321258 0.546855
Si Si6 0.943955 0.178274 0.238462
Si Si7 0.161560 0.676176 0.204106
Si Si8 0.219778 0.824411 0.274220
O O1 0.157002 0.500000 0.007008
O O2 0.146627 0.706287 0.951659
O O3 0.250000 0.750000 0.000000
O O4 0.014038 0.718000 0.060799
O O5 0.318076 0.500000 0.373874
O O6 0.207576 0.749742 0.408763
O O7 0.401988 0.712474 0.392532
O O8 0.398493 0.715326 0.303111
O O9 0.866375 0.500000 0.103869
O O10 0.789822 0.226369 0.148570
O O11 0.388655 0.500000 0.581332
O O12 0.518711 0.731708 0.550663
O O13 0.339317 0.692256 0.658194
O O14 0.632509 0.500000 0.539638
O O15 0.750000 0.250000 0.500000
O O16 0.848613 0.253229 0.237260
O O17 0.071726 0.248184 0.198351
O O18 0.946433 0.000000 0.231897
O O19 0.145986 0.500000 0.209321
O O20 0.150180 0.743514 0.257398
O O21 0.226239 0.000000 0.262435
#
# Coordination Sequence:
#
# PCOD9224849 Si02
#       8
#     8   8   8   8   8   8   8   8
#     4   9  19  37  62  84 106 141 185 229 275 322
#     4   9  19  36  57  78 103 136 176 219 267 320
#     4   9  20  39  57  79 112 149 184 223 274 327
#     4   9  19  36  57  78 103 136 176 219 267 320
#     4  10  21  36  52  75 105 137 173 215 265 321
#     4  10  20  37  59  82 109 144 183 227 275 327
#     4  12  24  36  54  84 118 152 186 225 272 325
#     4  10  20  37  59  82 109 144 183 227 275 327
#
# _framework density 10.314329000000001
#
# number of rings (size 3 to 8) (size 9 to 14) (size 15 to 20)
#    0.000    2.250    0.000    3.375    0.000    6.500 
#    0.000    7.500    0.000    0.000    0.000    0.000 
#    0.000    0.000    0.000    0.000    0.000    0.000 
#
# Total GULP energy -178671.266051 kJ/mol
# GULP energy per Si atom -5583.477064 kJ/mol
# Density = 1.029085 g / cm^3
# Si number density = 10.314329 Si / 1000 Ang^3
#
#
#
# Elastic Constant Matrix: (Units=GPa)
#
#
# Indices 1 2 3 4 5 6 
#
# 1 140.6254 22.1324 12.8429 0.0000 -24.7213 0.0000
# 2 22.1324 11.2242 14.3323 0.0000 -7.4930 -0.0001
# 3 12.8429 14.3323 44.8463 0.0000 -18.1948 0.0000
# 4 0.0000 0.0000 0.0000 22.5637 0.0000 -1.5795
# 5 -24.7213 -7.4930 -18.1948 0.0000 20.6779 0.0000
# 6 0.0000 -0.0001 0.0000 -1.5795 0.0000 37.9196
#
#
#
# Elastic Compliance Matrix: (Units=1/GPa)
#
#
# Indices 1 2 3 4 5 6 
#
# 1 0.014155 -0.034254 0.013567 0.000000 0.016447 0.000000
# 2 -0.034254 0.238368 -0.074557 0.000000 -0.020180 0.000000
# 3 0.013567 -0.074557 0.058880 0.000000 0.041012 0.000000
# 4 0.000000 0.000000 0.000000 0.044449 0.000000 0.001851
# 5 0.016447 -0.020180 0.041012 0.000000 0.096799 0.000000
# 6 0.000000 0.000000 0.000000 0.001851 0.000000 0.026449
#
#
# Mechanical properties :
#
#
# Convention : Reuss Voigt Hill
#
# Bulk Modulus (GPa) = 8.27037 32.81233 20.54135
# Shear Modulus (GPa) = 7.04333 26.05812 16.55072
#
# Velocity S-wave (km/s) = 1.84980 3.55801 2.83559
# Velocity P-wave (km/s) = 2.92920 5.72887 4.54973
#
# Compressibility (1/GPa) = 0.12091351
#
# Stress axis : x y z
#
# Youngs Moduli (GPa) = 70.64875 4.19520 16.98377
#
# Poissons Ratio (x) = 0.14370 -0.23041
# Poissons Ratio (y) = 2.42000 1.26626
# Poissons Ratio (z) = -0.95846 0.31278
#
# Static dielectric constant tensor:
#      x y z
#    x 1.729440 0.000000 0.003750 
#    y 0.000000 1.681920 0.000000 
#    z 0.003750 0.000000 1.835840 
# 
# From -- ./inp_files/375442.got.cif
#   From: 2010.05.17/outbox.ucp.g08.bks.cvg/sg12_188_cif.got.tgz:375442.got - 2010.06.11 11:47:21.
