data_PCOD9224785
_publ_section_title
;
Structure prediction by ZEFSAII (Michael W. Deem and Ramdas Pophale) SiO2 
 PCOD9224785
Probable space group: C 2/M
;
_chemical_formula_sum "Si O2"
_cell_formula_units_Z 28
_cell_length_a 21.000000
_cell_length_b 9.000000
_cell_length_c 18.000000
_cell_angle_alpha 90.000000
_cell_angle_beta 120.000000
_cell_angle_gamma 90.000000
_cell_volume 2946.218424
_symmetry_space_group_name_H-M "C 2/M"
_symmetry_group_IT_number 12
_symmetry_cell_setting 'monoclinic'
loop_
_space_group_symop_operation_xyz
x,y,z
-x,y,-z
-x,-y,-z
x,-y,z
1/2+x,1/2+y,z
1/2-x,1/2+y,-z
1/2-x,1/2-y,-z
1/2+x,1/2-y,z
loop_
_atom_site_type_symbol
_atom_site_label
_atom_site_fract_x
_atom_site_fract_y
_atom_site_fract_z
Si Si1 0.559138 0.325892 0.282636
Si Si2 0.905608 0.180492 0.267469
Si Si3 0.325236 0.675580 0.516297
Si Si4 0.317956 0.325653 0.078629
Si Si5 0.090821 0.329249 0.985994
Si Si6 0.913885 0.677854 0.432997
Si Si7 0.583426 0.168284 0.143977
O O1 0.548966 0.500000 0.261006
O O2 0.480931 0.270490 0.269528
O O3 0.616899 0.308137 0.382700
O O4 0.588790 0.253023 0.224427
O O5 0.839382 0.222861 0.173837
O O6 0.898537 0.253687 0.343329
O O7 0.908478 0.000000 0.276397
O O8 0.314362 0.500000 0.495967
O O9 0.250000 0.750000 0.500000
O O10 0.361632 0.751273 0.465267
O O11 0.307578 0.500000 0.074776
O O12 0.383440 0.281140 0.062122
O O13 0.250000 0.250000 0.000000
O O14 0.118149 0.500000 0.992135
O O15 0.003443 0.337512 0.924739
O O16 0.114254 0.277092 0.082398
O O17 0.904732 0.500000 0.427356
O O18 0.000000 0.710779 0.500000
O O19 0.610499 0.000000 0.170085
#
# Coordination Sequence:
#
# PCOD9224785 Si02
#       7
#     8   8   8   8   8   8   8
#     4  10  20  36  60  88 117 151 195 246 299 359
#     4  10  21  39  62  89 119 156 205 253 305 364
#     4  11  24  43  65  89 125 165 201 251 312 372
#     4  11  23  39  59  83 115 156 199 249 304 359
#     4   9  18  34  54  80 113 148 188 234 286 343
#     4  11  23  39  65  99 128 159 206 258 309 372
#     4   9  18  32  55  84 113 146 186 236 288 340
#
# _framework density 9.5037079999999996
#
# number of rings (size 3 to 8) (size 9 to 14) (size 15 to 20)
#    0.000    1.857    2.857    2.143    0.000    4.000 
#    2.571    1.429    0.000    0.000    0.000    0.000 
#    0.000    0.000    0.000    0.000    0.000    0.000 
#
# Total GULP energy -156127.821064 kJ/mol
# GULP energy per Si atom -5575.993609 kJ/mol
# Density = 0.948208 g / cm^3
# Si number density = 9.503708 Si / 1000 Ang^3
#
#
#
# Elastic Constant Matrix: (Units=GPa)
#
#
# Indices 1 2 3 4 5 6 
#
# 1 72.6775 39.2336 56.0749 0.0000 -11.7064 0.0000
# 2 39.2336 56.2013 75.2967 0.0000 -7.7163 0.0000
# 3 56.0749 75.2967 135.2778 0.0000 -35.4066 0.0000
# 4 0.0000 0.0000 0.0000 34.0967 0.0000 -17.7857
# 5 -11.7064 -7.7163 -35.4066 0.0000 36.7684 0.0000
# 6 0.0000 0.0000 0.0000 -17.7857 0.0000 116.5058
#
#
#
# Elastic Compliance Matrix: (Units=1/GPa)
#
#
# Indices 1 2 3 4 5 6 
#
# 1 0.022666 -0.016825 0.001249 0.000000 0.004888 0.000000
# 2 -0.016825 0.122840 -0.074943 0.000000 -0.051745 0.000000
# 3 0.001249 -0.074943 0.059597 0.000000 0.042059 0.000000
# 4 0.000000 0.000000 0.000000 0.031866 0.000000 0.004865
# 5 0.004888 -0.051745 0.042059 0.000000 0.058396 0.000000
# 6 0.000000 0.000000 0.000000 0.004865 0.000000 0.009326
#
#
# Mechanical properties :
#
#
# Convention : Reuss Voigt Hill
#
# Bulk Modulus (GPa) = 41.55446 67.26301 54.40873
# Shear Modulus (GPa) = 10.12660 43.71095 26.91878
#
# Velocity S-wave (km/s) = 2.31069 4.80070 3.76736
# Velocity P-wave (km/s) = 5.38783 8.13594 6.90008
#
# Compressibility (1/GPa) = 0.02406480
#
# Stress axis : x y z
#
# Youngs Moduli (GPa) = 44.11944 8.14068 16.77950
#
# Poissons Ratio (x) = 0.13697 -0.02096
# Poissons Ratio (y) = 0.74231 1.25750
# Poissons Ratio (z) = -0.05510 0.61008
#
# Static dielectric constant tensor:
#      x y z
#    x 1.551280 0.000000 -0.012790 
#    y 0.000000 1.666740 0.000000 
#    z -0.012790 0.000000 1.660060 
# 
# From -- ./inp_files/281647.got.cif
#   From: 2010.05.17/outbox.ucp.g08.bks.cvg/sg12_141_cif.got.tgz:281647.got - 2010.06.11 11:47:21.
