data_PCOD9224257
_publ_section_title
;
Structure prediction by ZEFSAII (Michael W. Deem and Ramdas Pophale) SiO2 
 PCOD9224257
Probable space group: C 2/M
;
_chemical_formula_sum "Si O2"
_cell_formula_units_Z 28
_cell_length_a 30.000000
_cell_length_b 9.000000
_cell_length_c 12.000000
_cell_angle_alpha 90.000000
_cell_angle_beta 60.000000
_cell_angle_gamma 90.000000
_cell_volume 2805.922308
_symmetry_space_group_name_H-M "C 2/M"
_symmetry_group_IT_number 12
_symmetry_cell_setting 'monoclinic'
loop_
_space_group_symop_operation_xyz
x,y,z
-x,y,-z
-x,-y,-z
x,-y,z
1/2+x,1/2+y,z
1/2-x,1/2+y,-z
1/2-x,1/2-y,-z
1/2+x,1/2-y,z
loop_
_atom_site_type_symbol
_atom_site_label
_atom_site_fract_x
_atom_site_fract_y
_atom_site_fract_z
Si Si1 0.450959 0.671061 0.480165
Si Si2 0.666846 0.676520 0.300258
Si Si3 0.129604 0.177841 0.768429
Si Si4 0.269441 0.678098 0.240353
Si Si5 0.547284 0.827245 0.740819
Si Si6 0.843228 0.821067 0.939884
Si Si7 0.933895 0.678959 0.949821
O O1 0.500000 0.671167 0.500000
O O2 0.448473 0.500000 0.438207
O O3 0.393564 0.704585 0.598550
O O4 0.463424 0.794446 0.373656
O O5 0.673930 0.500000 0.302711
O O6 0.712688 0.752867 0.312345
O O7 0.675219 0.718181 0.160257
O O8 0.189055 0.220997 0.715521
O O9 0.099478 0.236820 0.699547
O O10 0.126998 0.000000 0.779432
O O11 0.094253 0.251014 0.908522
O O12 0.264301 0.500000 0.248313
O O13 0.301171 0.718296 0.087143
O O14 0.494085 0.778899 0.867486
O O15 0.555520 0.000000 0.756383
O O16 0.897756 0.742422 0.896703
O O17 0.850989 0.000000 0.936258
O O18 0.931531 0.500000 0.955271
#
# Coordination Sequence:
#
# PCOD9224257 Si02
#       7
#     8   8   8   8   8   8   8
#     4  10  22  40  60  81 107 142 183 223 263 315
#     4  10  20  34  55  81 107 141 184 225 267 317
#     4  10  21  37  57  81 109 143 182 220 264 322
#     4   9  19  34  53  80 111 141 175 219 270 323
#     4  11  23  37  55  81 111 143 180 224 273 320
#     4   9  18  33  53  80 112 145 182 219 263 322
#     4  10  20  33  52  82 115 143 176 220 271 323
#
# _framework density 9.9788940000000004
#
# number of rings (size 3 to 8) (size 9 to 14) (size 15 to 20)
#    0.000    2.143    0.000    3.857    0.000    9.429 
#    0.000    0.714    0.000    0.000    0.000    0.000 
#    0.000    0.000    0.000    0.000    0.000    0.000 
#
# Total GULP energy -156120.738454 kJ/mol
# GULP energy per Si atom -5575.740659 kJ/mol
# Density = 0.995618 g / cm^3
# Si number density = 9.978894 Si / 1000 Ang^3
#
#
#
# Elastic Constant Matrix: (Units=GPa)
#
#
# Indices 1 2 3 4 5 6 
#
# 1 150.8171 37.3894 16.1346 0.0000 -21.5867 0.0000
# 2 37.3894 28.7986 4.1991 0.0000 -5.3430 0.0000
# 3 16.1346 4.1991 16.5836 0.0000 -11.0844 0.0000
# 4 0.0000 0.0000 0.0000 18.8641 0.0000 -6.3351
# 5 -21.5867 -5.3430 -11.0844 0.0000 30.5797 0.0000
# 6 0.0000 0.0000 0.0000 -6.3351 0.0000 32.5220
#
#
#
# Elastic Compliance Matrix: (Units=1/GPa)
#
#
# Indices 1 2 3 4 5 6 
#
# 1 0.010810 -0.012646 -0.004872 0.000000 0.003655 0.000000
# 2 -0.012646 0.051214 -0.000858 0.000000 -0.000290 0.000000
# 3 -0.004872 -0.000858 0.082957 0.000000 0.026481 0.000000
# 4 0.000000 0.000000 0.000000 0.056721 0.000000 0.011049
# 5 0.003655 -0.000290 0.026481 0.000000 0.044830 0.000000
# 6 0.000000 0.000000 0.000000 0.011049 0.000000 0.032901
#
#
# Mechanical properties :
#
#
# Convention : Reuss Voigt Hill
#
# Bulk Modulus (GPa) = 9.23962 34.62729 21.93345
# Shear Modulus (GPa) = 14.19399 25.62492 19.90946
#
# Velocity S-wave (km/s) = 2.66973 3.58712 3.16187
# Velocity P-wave (km/s) = 3.76070 5.87746 4.93393
#
# Compressibility (1/GPa) = 0.10822953
#
# Stress axis : x y z
#
# Youngs Moduli (GPa) = 92.50565 19.52592 12.05439
#
# Poissons Ratio (x) = 0.24693 0.05873
# Poissons Ratio (y) = 1.16985 0.01034
# Poissons Ratio (z) = 0.45069 0.01675
#
# Static dielectric constant tensor:
#      x y z
#    x 1.765520 0.000000 0.068800 
#    y 0.000000 1.678180 0.000000 
#    z 0.068800 0.000000 1.750820 
# 
# From -- ./inp_files/180770.got.cif
#   From: 2010.05.17/outbox.ucp.g08.bks.cvg/sg12_91_cif.got.tgz:180770.got - 2010.06.11 11:47:21.
