data_PCOD9224095
_publ_section_title
;
Structure prediction by ZEFSAII (Michael W. Deem and Ramdas Pophale) SiO2 
 PCOD9224095
Probable space group: C 2/M
;
_chemical_formula_sum "Si O2"
_cell_formula_units_Z 20
_cell_length_a 15.000000
_cell_length_b 15.000000
_cell_length_c 12.000000
_cell_angle_alpha 90.000000
_cell_angle_beta 130.000000
_cell_angle_gamma 90.000000
_cell_volume 2068.319996
_symmetry_space_group_name_H-M "C 2/M"
_symmetry_group_IT_number 12
_symmetry_cell_setting 'monoclinic'
loop_
_space_group_symop_operation_xyz
x,y,z
-x,y,-z
-x,-y,-z
x,-y,z
1/2+x,1/2+y,z
1/2-x,1/2+y,-z
1/2-x,1/2-y,-z
1/2+x,1/2-y,z
loop_
_atom_site_type_symbol
_atom_site_label
_atom_site_fract_x
_atom_site_fract_y
_atom_site_fract_z
Si Si1 0.862969 0.099805 0.872699
Si Si2 0.977382 0.102629 0.352434
Si Si3 0.288068 0.399939 0.558223
Si Si4 0.320177 0.231661 0.167085
Si Si5 0.525173 0.107631 0.388355
O O1 0.832298 0.091494 0.719252
O O2 0.776270 0.177478 0.840435
O O3 0.840550 0.000000 0.905222
O O4 0.000000 0.119259 0.000000
O O5 0.100316 0.143618 0.409040
O O6 0.000000 0.093549 0.500000
O O7 0.874849 0.173648 0.249499
O O8 0.958681 0.000000 0.292201
O O9 0.279418 0.500000 0.500931
O O10 0.156262 0.365361 0.458372
O O11 0.428774 0.163621 0.245662
O O12 0.250000 0.250000 0.000000
O O13 0.500000 0.125170 0.500000
O O14 0.514611 0.000000 0.365701
#
# Coordination Sequence:
#
# PCOD9224095 Si02
#       5
#     8   8   8   8   8
#     4  10  20  37  62  92 124 153 195 257 316 363
#     4  10  23  43  62  84 120 166 209 243 289 364
#     4   9  18  36  64  90 112 150 201 254 309 351
#     4  12  24  37  56  90 125 161 198 244 305 364
#     4  10  19  36  63  93 121 146 193 262 319 359
#
# _framework density 9.6696840000000002
#
# number of rings (size 3 to 8) (size 9 to 14) (size 15 to 20)
#    0.000    1.800    2.000    2.400    0.000    4.000 
#    3.600    0.000    0.000    0.600    0.000    0.000 
#    0.000    0.000    0.000    0.000    0.000    0.000 
#
# Total GULP energy -111349.172263 kJ/mol
# GULP energy per Si atom -5567.458613 kJ/mol
# Density = 0.964767 g / cm^3
# Si number density = 9.669684 Si / 1000 Ang^3
#
#
#
# Elastic Constant Matrix: (Units=GPa)
#
#
# Indices 1 2 3 4 5 6 
#
# 1 114.4179 57.5238 44.8387 0.0000 27.2188 0.0000
# 2 57.5238 106.3537 49.4950 0.0000 23.7066 0.0000
# 3 44.8387 49.4950 120.7431 0.0000 31.1357 0.0000
# 4 0.0000 0.0000 0.0000 33.8476 0.0000 28.5127
# 5 27.2188 23.7066 31.1357 0.0000 39.8224 0.0000
# 6 0.0000 0.0000 0.0000 28.5127 0.0000 33.8184
#
#
#
# Elastic Compliance Matrix: (Units=1/GPa)
#
#
# Indices 1 2 3 4 5 6 
#
# 1 0.013121 -0.005382 -0.001478 0.000000 -0.004609 0.000000
# 2 -0.005382 0.014358 -0.003296 0.000000 -0.002292 0.000000
# 3 -0.001478 -0.003296 0.011793 0.000000 -0.006248 0.000000
# 4 0.000000 0.000000 0.000000 0.101955 0.000000 -0.085960
# 5 -0.004609 -0.002292 -0.006248 0.000000 0.034512 0.000000
# 6 0.000000 0.000000 0.000000 -0.085960 0.000000 0.102043
#
#
# Mechanical properties :
#
#
# Convention : Reuss Voigt Hill
#
# Bulk Modulus (GPa) = 52.73997 71.69218 62.21607
# Shear Modulus (GPa) = 16.42494 34.14151 25.28322
#
# Velocity S-wave (km/s) = 2.91744 4.20621 3.61965
# Velocity P-wave (km/s) = 6.21921 7.79363 7.05051
#
# Compressibility (1/GPa) = 0.01896095
#
# Stress axis : x y z
#
# Youngs Moduli (GPa) = 76.21259 69.64632 84.79367
#
# Poissons Ratio (x) = 0.37481 0.12533
# Poissons Ratio (y) = 0.41015 0.27950
# Poissons Ratio (z) = 0.11265 0.22957
#
# Static dielectric constant tensor:
#      x y z
#    x 1.628230 0.000000 0.021360 
#    y 0.000000 2.032030 0.000000 
#    z 0.021360 0.000000 1.628890 
# 
# From -- ./inp_files/142508.got.cif
#   From: 2010.05.17/outbox.ucp.g08.bks.cvg/sg12_72_cif.got.tgz:142508.got - 2010.06.11 11:47:21.
