data_PCOD9224005
_publ_section_title
;
Structure prediction by ZEFSAII (Michael W. Deem and Ramdas Pophale) SiO2 
 PCOD9224005
Probable space group: C 2/M
;
_chemical_formula_sum "Si O2"
_cell_formula_units_Z 32
_cell_length_a 30.000000
_cell_length_b 9.000000
_cell_length_c 15.000000
_cell_angle_alpha 90.000000
_cell_angle_beta 130.000000
_cell_angle_gamma 90.000000
_cell_volume 3102.479995
_symmetry_space_group_name_H-M "C 2/M"
_symmetry_group_IT_number 12
_symmetry_cell_setting 'monoclinic'
loop_
_space_group_symop_operation_xyz
x,y,z
-x,y,-z
-x,-y,-z
x,-y,z
1/2+x,1/2+y,z
1/2-x,1/2+y,-z
1/2-x,1/2-y,-z
1/2+x,1/2-y,z
loop_
_atom_site_type_symbol
_atom_site_label
_atom_site_fract_x
_atom_site_fract_y
_atom_site_fract_z
Si Si1 0.132663 0.178617 0.103871
Si Si2 0.942443 0.674835 0.485292
Si Si3 0.305681 0.321460 0.525087
Si Si4 0.494736 0.321995 0.716882
Si Si5 0.883616 0.321885 0.111092
Si Si6 0.745365 0.322989 0.725704
Si Si7 0.919173 0.819769 0.781135
Si Si8 0.673189 0.822909 0.780872
O O1 0.195745 0.233434 0.218013
O O2 0.087845 0.226013 0.124908
O O3 0.130594 0.000000 0.093281
O O4 0.124951 0.249833 0.996756
O O5 0.941824 0.500000 0.509433
O O6 0.886460 0.702871 0.351630
O O7 0.000000 0.701785 0.500000
O O8 0.948768 0.772895 0.582319
O O9 0.303075 0.500000 0.530451
O O10 0.250000 0.250000 0.500000
O O11 0.300091 0.288549 0.412487
O O12 0.363099 0.270915 0.651134
O O13 0.502430 0.500000 0.723917
O O14 0.554289 0.236860 0.774813
O O15 0.473520 0.278551 0.789133
O O16 0.883933 0.500000 0.104139
O O17 0.837658 0.281972 0.129908
O O18 0.756200 0.500000 0.740087
O O19 0.721297 0.269051 0.789646
O O20 0.918713 0.000000 0.782170
O O21 0.685762 0.000000 0.792579
#
# Coordination Sequence:
#
# PCOD9224005 Si02
#       8
#     8   8   8   8   8   8   8   8
#     4  11  23  42  65  86 115 159 205 245 295 355
#     4  10  19  37  61  88 123 160 195 240 298 354
#     4  10  19  35  59  88 122 157 191 235 291 349
#     4  11  22  38  62  92 122 157 198 242 297 356
#     4  11  24  44  63  85 119 156 201 254 298 345
#     4  11  23  38  61  93 125 153 194 249 298 349
#     4   9  20  38  60  87 123 158 193 240 293 352
#     4  10  22  40  63  86 118 162 199 238 298 360
#
# _framework density 10.314329000000001
#
# number of rings (size 3 to 8) (size 9 to 14) (size 15 to 20)
#    0.000    1.625    2.500    2.250    0.000    4.250 
#    0.000    6.250    0.000    0.000    0.000    0.000 
#    0.000    0.000    0.000    0.000    0.000    0.000 
#
# Total GULP energy -178783.026553 kJ/mol
# GULP energy per Si atom -5586.969580 kJ/mol
# Density = 1.029085 g / cm^3
# Si number density = 10.314329 Si / 1000 Ang^3
#
#
#
# Elastic Constant Matrix: (Units=GPa)
#
#
# Indices 1 2 3 4 5 6 
#
# 1 102.4716 25.1584 2.7414 0.0000 -36.2661 0.0000
# 2 25.1584 41.3546 14.0463 0.0000 -19.5208 0.0000
# 3 2.7414 14.0463 56.3284 0.0000 -33.5162 0.0000
# 4 0.0000 0.0000 0.0000 34.6910 0.0000 -5.5921
# 5 -36.2661 -19.5208 -33.5162 0.0000 41.4469 0.0000
# 6 0.0000 0.0000 0.0000 -5.5921 0.0000 24.4359
#
#
#
# Elastic Compliance Matrix: (Units=1/GPa)
#
#
# Indices 1 2 3 4 5 6 
#
# 1 0.022105 -0.004479 0.019842 0.000000 0.033277 0.000000
# 2 -0.004479 0.032102 -0.002164 0.000000 0.009451 0.000000
# 3 0.019842 -0.002164 0.052137 0.000000 0.058503 0.000000
# 4 0.000000 0.000000 0.000000 0.029930 0.000000 0.006849
# 5 0.033277 0.009451 0.058503 0.000000 0.105005 0.000000
# 6 0.000000 0.000000 0.000000 0.006849 0.000000 0.042491
#
#
# Mechanical properties :
#
#
# Convention : Reuss Voigt Hill
#
# Bulk Modulus (GPa) = 7.53343 31.56076 19.54710
# Shear Modulus (GPa) = 16.57717 30.66199 23.61958
#
# Velocity S-wave (km/s) = 2.83786 3.85954 3.38744
# Velocity P-wave (km/s) = 3.79444 5.93246 4.97955
#
# Compressibility (1/GPa) = 0.13274167
#
# Stress axis : x y z
#
# Youngs Moduli (GPa) = 45.23879 31.15082 19.18016
#
# Poissons Ratio (x) = 0.13952 -0.38056
# Poissons Ratio (y) = 0.20262 0.04150
# Poissons Ratio (z) = -0.89761 0.06740
#
# Static dielectric constant tensor:
#      x y z
#    x 1.755610 0.000000 0.006130 
#    y 0.000000 1.680740 0.000000 
#    z 0.006130 0.000000 1.767680 
# 
# From -- ./inp_files/249944.got.cif
#   From: 2010.05.17/outbox.ucp.g08.bks.cvg/sg12_125_cif.got.tgz:249944.got - 2010.06.11 11:47:21.
