data_PCOD9224334
_publ_section_title
;
Structure prediction by ZEFSAII (Michael W. Deem and Ramdas Pophale) SiO2 
 PCOD9224334
Probable space group: C 2/M
;
_chemical_formula_sum "Si O2"
_cell_formula_units_Z 32
_cell_length_a 15.000000
_cell_length_b 9.000000
_cell_length_c 30.000000
_cell_angle_alpha 90.000000
_cell_angle_beta 120.000000
_cell_angle_gamma 90.000000
_cell_volume 3507.402885
_symmetry_space_group_name_H-M "C 2/M"
_symmetry_group_IT_number 12
_symmetry_cell_setting 'monoclinic'
loop_
_space_group_symop_operation_xyz
x,y,z
-x,y,-z
-x,-y,-z
x,-y,z
1/2+x,1/2+y,z
1/2-x,1/2+y,-z
1/2-x,1/2-y,-z
1/2+x,1/2-y,z
loop_
_atom_site_type_symbol
_atom_site_label
_atom_site_fract_x
_atom_site_fract_y
_atom_site_fract_z
Si Si1 0.953863 0.827751 0.885491
Si Si2 0.334650 0.830218 0.049931
Si Si3 0.805902 0.318034 0.379667
Si Si4 0.984544 0.829374 0.202839
Si Si5 0.417084 0.823531 0.694723
Si Si6 0.994136 0.182188 0.367126
Si Si7 0.274480 0.173965 0.138984
Si Si8 0.280195 0.818602 0.554492
O O1 0.971776 0.820907 0.836554
O O2 0.839997 0.781020 0.873441
O O3 0.052413 0.739471 0.927747
O O4 0.963810 0.000000 0.901504
O O5 0.293652 0.823138 0.090612
O O6 0.341057 0.000000 0.038242
O O7 0.250000 0.750000 0.000000
O O8 0.810584 0.500000 0.381171
O O9 0.693894 0.258670 0.335356
O O10 0.899561 0.249311 0.373155
O O11 0.798336 0.248894 0.427905
O O12 0.043598 0.708045 0.246351
O O13 0.864937 0.783401 0.177379
O O14 0.000120 0.000000 0.221992
O O15 0.499838 0.744000 0.682235
O O16 0.407468 0.000000 0.682201
O O17 0.104308 0.252874 0.409573
O O18 0.994286 0.000000 0.368910
O O19 0.289927 0.000000 0.157106
O O20 0.250000 0.750000 0.500000
O O21 0.279696 0.000000 0.555518
#
# Coordination Sequence:
#
# PCOD9224334 Si02
#       8
#     8   8   8   8   8   8   8   8
#     4   9  19  36  56  76 103 137 176 218 265 316
#     4  10  20  34  53  76 105 137 174 217 265 318
#     4  11  22  39  60  85 115 149 187 231 280 333
#     4  10  20  35  55  80 108 139 176 224 272 321
#     4  11  22  38  58  82 113 150 187 228 274 328
#     4  11  22  39  60  85 114 147 187 233 280 330
#     4   9  19  36  55  76 103 139 178 219 266 323
#     4  11  22  39  60  86 116 150 189 232 280 331
#
# _framework density 9.1235599999999994
#
# number of rings (size 3 to 8) (size 9 to 14) (size 15 to 20)
#    0.000    1.750    0.000    6.750    0.000    3.500 
#    0.000    8.750    0.000    0.000    0.000    0.000 
#    0.000    0.000    0.000    0.000    0.000    0.000 
#
# Total GULP energy -178291.084786 kJ/mol
# GULP energy per Si atom -5571.596400 kJ/mol
# Density = 0.910279 g / cm^3
# Si number density = 9.123560 Si / 1000 Ang^3
#
#
#
# Elastic Constant Matrix: (Units=GPa)
#
#
# Indices 1 2 3 4 5 6 
#
# 1 126.2890 36.4596 -22.0442 0.0000 7.8982 0.0000
# 2 36.4596 146.0830 16.1236 0.0000 -0.7870 0.0000
# 3 -22.0442 16.1236 14.4634 0.0000 9.0967 0.0000
# 4 0.0000 0.0000 0.0000 29.4896 0.0000 1.5198
# 5 7.8982 -0.7870 9.0967 0.0000 10.1435 0.0000
# 6 0.0000 0.0000 0.0000 1.5198 0.0000 40.1890
#
#
#
# Elastic Compliance Matrix: (Units=1/GPa)
#
#
# Indices 1 2 3 4 5 6 
#
# 1 -0.006906 0.007843 -0.052836 0.000000 0.053370 0.000000
# 2 0.007843 0.000984 0.033602 0.000000 -0.036165 0.000000
# 3 -0.052836 0.033602 -0.175161 0.000000 0.200833 0.000000
# 4 0.000000 0.000000 0.000000 0.033976 0.000000 -0.001285
# 5 0.053370 -0.036165 0.200833 0.000000 -0.125884 0.000000
# 6 0.000000 0.000000 0.000000 -0.001285 0.000000 0.024931
#
#
# Mechanical properties :
#
#
# Convention : Reuss Voigt Hill
#
# Bulk Modulus (GPa) = -4.90518 38.65705 16.87594
# Shear Modulus (GPa) = -17.05133 33.05087 7.99977
#
# Velocity S-wave (km/s) = -3.06022 4.26055 2.09610
# Velocity P-wave (km/s) = 3.89623 6.74050 3.88932
#
# Compressibility (1/GPa) = -0.20386608
#
# Stress axis : x y z
#
# Youngs Moduli (GPa) = -144.79353 1015.79997 -5.70902
#
# Poissons Ratio (x) = -7.96678 -0.30164
# Poissons Ratio (y) = 1.13560 0.19183
# Poissons Ratio (z) = -7.65032 -34.13273
#
# Static dielectric constant tensor:
#      x y z
#    x 1.572530 0.000000 -0.018180 
#    y 0.000000 1.627070 0.000000 
#    z -0.018180 0.000000 1.733090 
# 
# From -- ./inp_files/375101.got.cif
#   From: 2010.05.17/outbox.ucp.g08.bks.cvg/sg12_188_cif.got.tgz:375101.got - 2010.06.11 11:47:21.
