data_PCOD9224939
_publ_section_title
;
Structure prediction by ZEFSAII (Michael W. Deem and Ramdas Pophale) SiO2 
 PCOD9224939
Probable space group: C 2/M
;
_chemical_formula_sum "Si O2"
_cell_formula_units_Z 28
_cell_length_a 21.000000
_cell_length_b 18.000000
_cell_length_c 21.000000
_cell_angle_alpha 90.000000
_cell_angle_beta 160.000000
_cell_angle_gamma 90.000000
_cell_volume 2714.955898
_symmetry_space_group_name_H-M "C 2/M"
_symmetry_group_IT_number 12
_symmetry_cell_setting 'monoclinic'
loop_
_space_group_symop_operation_xyz
x,y,z
-x,y,-z
-x,-y,-z
x,-y,z
1/2+x,1/2+y,z
1/2-x,1/2+y,-z
1/2-x,1/2-y,-z
1/2+x,1/2-y,z
loop_
_atom_site_type_symbol
_atom_site_label
_atom_site_fract_x
_atom_site_fract_y
_atom_site_fract_z
Si Si1 0.545133 0.922175 0.116356
Si Si2 0.022727 0.229745 0.596146
Si Si3 0.360201 0.795285 0.721162
Si Si4 0.629031 0.415135 0.773269
Si Si5 0.278245 0.306547 0.927505
Si Si6 0.134312 0.325860 0.405033
Si Si7 0.976200 0.087450 0.769653
O O1 0.650218 0.846618 0.227018
O O2 0.641199 0.000000 0.223616
O O3 0.500000 0.924852 0.000000
O O4 0.350922 0.917360 0.971853
O O5 0.059036 0.147760 0.659137
O O6 0.194384 0.281263 0.780916
O O7 0.000000 0.232520 0.500000
O O8 0.827664 0.253075 0.447197
O O9 0.359915 0.853823 0.662886
O O10 0.555628 0.751829 0.900159
O O11 0.562943 0.500000 0.699972
O O12 0.571408 0.392329 0.790822
O O13 0.081404 0.310852 0.780831
O O14 0.391522 0.380838 0.050439
O O15 0.250000 0.250000 0.500000
O O16 0.268183 0.379025 0.571170
O O17 0.966752 0.000000 0.764860
#
# Coordination Sequence:
#
# PCOD9224939 Si02
#       7
#     8   8   8   8   8   8   8
#     4  10  21  36  55  82 123 176 221 251 292 357
#     4  12  25  39  60  93 130 174 220 261 306 369
#     4  12  23  36  63  91 122 169 213 259 315 372
#     4  10  20  38  58  86 127 168 212 260 306 367
#     4  12  24  41  65  91 127 167 210 269 323 376
#     4  12  22  39  64  95 125 161 207 266 323 383
#     4  11  24  42  66  97 127 161 209 260 330 396
#
# _framework density 10.313243
#
# number of rings (size 3 to 8) (size 9 to 14) (size 15 to 20)
#    0.000    0.714    5.714    2.143    0.000    2.000 
#    0.000    0.000    0.000    0.429    0.000    4.000 
#    0.000    0.000    0.000    0.000    0.000    0.000 
#
# Total GULP energy -155979.360725 kJ/mol
# GULP energy per Si atom -5570.691454 kJ/mol
# Density = 1.028977 g / cm^3
# Si number density = 10.313243 Si / 1000 Ang^3
#
#
#
# Elastic Constant Matrix: (Units=GPa)
#
#
# Indices 1 2 3 4 5 6 
#
# 1 44.7173 24.3325 22.3497 0.0024 -8.5090 -0.0031
# 2 24.3325 97.0992 49.3677 -0.0022 -12.8674 -0.0034
# 3 22.3497 49.3677 147.3795 0.0204 3.3989 -0.0043
# 4 0.0024 -0.0022 0.0204 23.4073 0.0087 1.6200
# 5 -8.5090 -12.8674 3.3989 0.0087 36.2544 -0.0016
# 6 -0.0031 -0.0034 -0.0043 1.6200 -0.0016 16.1605
#
#
#
# Elastic Compliance Matrix: (Units=1/GPa)
#
#
# Indices 1 2 3 4 5 6 
#
# 1 0.027245 -0.004841 -0.002623 -0.000003 0.004922 0.000004
# 2 -0.004841 0.014169 -0.004111 0.000004 0.004278 0.000001
# 3 -0.002623 -0.004111 0.008626 -0.000007 -0.002883 0.000001
# 4 -0.000003 0.000004 -0.000007 0.043020 -0.000009 -0.004312
# 5 0.004922 0.004278 -0.002883 -0.000009 0.030527 0.000005
# 6 0.000004 0.000001 0.000001 -0.004312 0.000005 0.062311
#
#
# Mechanical properties :
#
#
# Convention : Reuss Voigt Hill
#
# Bulk Modulus (GPa) = 37.18933 53.47730 45.33332
# Shear Modulus (GPa) = 22.93449 28.04085 25.48767
#
# Velocity S-wave (km/s) = 3.33813 3.69108 3.51903
# Velocity P-wave (km/s) = 5.73816 6.64442 6.20785
#
# Compressibility (1/GPa) = 0.02688943
#
# Stress axis : x y z
#
# Youngs Moduli (GPa) = 36.70416 70.57774 115.92232
#
# Poissons Ratio (x) = 0.34169 0.30411
# Poissons Ratio (y) = 0.17770 0.47651
# Poissons Ratio (z) = 0.09629 0.29012
#
# Static dielectric constant tensor:
#      x y z
#    x 1.879100 0.000000 -0.125530 
#    y 0.000000 1.779100 0.000000 
#    z -0.125530 0.000000 1.877070 
# 
# From -- ./inp_files/322759.got.cif
#   From: 2010.05.17/outbox.ucp.g08.bks.cvg/sg12_162_cif.got.tgz:322759.got - 2010.06.11 11:47:21.
