data_PCOD9224659
_publ_section_title
;
Structure prediction by ZEFSAII (Michael W. Deem and Ramdas Pophale) SiO2 
 PCOD9224659
Probable space group: C 2/M
;
_chemical_formula_sum "Si O2"
_cell_formula_units_Z 28
_cell_length_a 21.000000
_cell_length_b 21.000000
_cell_length_c 18.000000
_cell_angle_alpha 90.000000
_cell_angle_beta 20.000000
_cell_angle_gamma 90.000000
_cell_volume 2714.955898
_symmetry_space_group_name_H-M "C 2/M"
_symmetry_group_IT_number 12
_symmetry_cell_setting 'monoclinic'
loop_
_space_group_symop_operation_xyz
x,y,z
-x,y,-z
-x,-y,-z
x,-y,z
1/2+x,1/2+y,z
1/2-x,1/2+y,-z
1/2-x,1/2-y,-z
1/2+x,1/2-y,z
loop_
_atom_site_type_symbol
_atom_site_label
_atom_site_fract_x
_atom_site_fract_y
_atom_site_fract_z
Si Si1 0.544283 0.723420 0.738039
Si Si2 0.697043 0.693269 0.319205
Si Si3 0.845093 0.173439 0.228648
Si Si4 0.492523 0.076707 0.418315
Si Si5 0.422508 0.150423 0.928011
Si Si6 0.860331 0.874760 0.472292
Si Si7 0.781814 0.072498 0.973159
O O1 0.750000 0.750000 0.500000
O O2 0.558869 0.681978 0.796512
O O3 0.413966 0.781832 0.896157
O O4 0.518983 0.685027 0.691219
O O5 0.500000 0.713209 0.500000
O O6 0.779355 0.755675 0.271911
O O7 0.650188 0.636547 0.428451
O O8 0.837315 0.665612 0.102779
O O9 0.675029 0.123926 0.422236
O O10 0.000000 0.150948 0.000000
O O11 0.500000 0.086466 0.500000
O O12 0.456610 0.000000 0.448072
O O13 0.675737 0.094802 0.166373
O O14 0.641080 0.128521 0.690523
O O15 0.306430 0.104112 0.003383
O O16 0.992952 0.925710 0.286697
O O17 0.726057 0.000000 0.031650
#
# Coordination Sequence:
#
# PCOD9224659 Si02
#       7
#     8   8   8   8   8   8   8
#     4  10  20  35  61  96 129 167 208 268 331 392
#     4  12  22  39  64 102 137 176 209 271 342 397
#     4  12  22  38  63  99 133 168 226 265 328 402
#     4  10  24  45  63  89 133 179 222 273 326 389
#     4  11  22  43  66  96 137 172 212 277 336 393
#     4  11  23  40  67  96 133 170 221 274 336 391
#     4  11  26  46  68  95 130 177 232 275 324 400
#
# _framework density 10.313243
#
# number of rings (size 3 to 8) (size 9 to 14) (size 15 to 20)
#    0.000    1.000    5.714    2.571    2.000    2.571 
#    0.000    2.143    0.000    1.714    0.000    0.000 
#    0.000    0.000    0.000    0.000    0.000    0.000 
#
# Total GULP energy -155967.231932 kJ/mol
# GULP energy per Si atom -5570.258283 kJ/mol
# Density = 1.028977 g / cm^3
# Si number density = 10.313243 Si / 1000 Ang^3
#
#
#
# Elastic Constant Matrix: (Units=GPa)
#
#
# Indices 1 2 3 4 5 6 
#
# 1 45.2907 12.9231 50.8596 -0.0101 17.7591 0.0013
# 2 12.9231 54.9315 34.3844 -0.0500 6.3471 0.0174
# 3 50.8596 34.3844 153.4700 -0.0467 21.9088 0.0226
# 4 -0.0101 -0.0500 -0.0467 34.3898 0.0188 4.3968
# 5 17.7591 6.3471 21.9088 0.0188 49.6276 -0.0015
# 6 0.0013 0.0174 0.0226 4.3968 -0.0015 17.6248
#
#
#
# Elastic Compliance Matrix: (Units=1/GPa)
#
#
# Indices 1 2 3 4 5 6 
#
# 1 0.038410 -0.000980 -0.011276 -0.000002 -0.008642 0.000012
# 2 -0.000980 0.021219 -0.004367 0.000028 -0.000435 -0.000022
# 3 -0.011276 -0.004367 0.011287 0.000007 -0.000389 -0.000011
# 4 -0.000002 0.000028 0.000007 0.030036 -0.000018 -0.007493
# 5 -0.008642 -0.000435 -0.000389 -0.000018 0.023470 0.000008
# 6 0.000012 -0.000022 -0.000011 -0.007493 0.000008 0.058608
#
#
# Mechanical properties :
#
#
# Convention : Reuss Voigt Hill
#
# Bulk Modulus (GPa) = 26.54616 50.00295 38.27456
# Shear Modulus (GPa) = 21.85010 30.69675 26.27343
#
# Velocity S-wave (km/s) = 3.25825 3.86193 3.57287
# Velocity P-wave (km/s) = 5.20123 6.64686 5.96798
#
# Compressibility (1/GPa) = 0.03767023
#
# Stress axis : x y z
#
# Youngs Moduli (GPa) = 26.03492 47.12763 88.59957
#
# Poissons Ratio (x) = 0.04617 0.99903
# Poissons Ratio (y) = 0.02551 0.38694
# Poissons Ratio (z) = 0.29357 0.20582
#
# Static dielectric constant tensor:
#      x y z
#    x 1.739730 -0.000050 -0.003850 
#    y -0.000050 2.171310 0.000160 
#    z -0.003850 0.000160 1.799890 
# 
# From -- ./inp_files/285985.got.cif
#   From: 2010.05.17/outbox.ucp.g08.bks.cvg/sg12_143_cif.got.tgz:285985.got - 2010.06.11 11:47:21.
