data_PCOD9224484
_publ_section_title
;
Structure prediction by ZEFSAII (Michael W. Deem and Ramdas Pophale) SiO2 
 PCOD9224484
Probable space group: C 2/M
;
_chemical_formula_sum "Si O2"
_cell_formula_units_Z 28
_cell_length_a 30.000000
_cell_length_b 9.000000
_cell_length_c 15.000000
_cell_angle_alpha 90.000000
_cell_angle_beta 50.000000
_cell_angle_gamma 90.000000
_cell_volume 3102.479995
_symmetry_space_group_name_H-M "C 2/M"
_symmetry_group_IT_number 12
_symmetry_cell_setting 'monoclinic'
loop_
_space_group_symop_operation_xyz
x,y,z
-x,y,-z
-x,-y,-z
x,-y,z
1/2+x,1/2+y,z
1/2-x,1/2+y,-z
1/2-x,1/2-y,-z
1/2+x,1/2-y,z
loop_
_atom_site_type_symbol
_atom_site_label
_atom_site_fract_x
_atom_site_fract_y
_atom_site_fract_z
Si Si1 0.402376 0.819848 0.616166
Si Si2 0.277193 0.179851 0.713957
Si Si3 0.642873 0.679065 0.885862
Si Si4 0.528968 0.179362 0.122128
Si Si5 0.802767 0.179519 0.489373
Si Si6 0.102484 0.320596 0.754026
Si Si7 0.495852 0.819473 0.642597
O O1 0.334110 0.778985 0.700623
O O2 0.441787 0.771922 0.649593
O O3 0.442391 0.771882 0.480016
O O4 0.402968 0.000000 0.615680
O O5 0.210096 0.213184 0.829237
O O6 0.290478 0.263809 0.604757
O O7 0.279169 0.000000 0.697761
O O8 0.638225 0.500000 0.886165
O O9 0.633302 0.753455 0.801515
O O10 0.588049 0.742550 0.012625
O O11 0.467024 0.212426 0.153319
O O12 0.515755 0.222848 0.241269
O O13 0.537421 0.000000 0.105020
O O14 0.750000 0.250000 0.500000
O O15 0.863010 0.247113 0.372975
O O16 0.802725 0.000000 0.483221
O O17 0.108432 0.500000 0.742146
O O18 0.497080 0.000000 0.639284
#
# Coordination Sequence:
#
# PCOD9224484 Si02
#       7
#     8   8   8   8   8   8   8
#     4   8  14  28  54  83 107 131 169 221 273 323
#     4  10  20  35  54  78 109 144 180 220 268 318
#     4  11  23  36  51  73 107 148 185 223 268 320
#     4  10  21  36  55  78 105 140 183 228 273 317
#     4  12  23  35  54  80 110 142 175 217 265 316
#     4  11  22  37  57  79 105 140 181 227 274 319
#     4   8  14  28  53  83 106 129 170 225 274 317
#
# _framework density 9.0250380000000003
#
# number of rings (size 3 to 8) (size 9 to 14) (size 15 to 20)
#    0.000    2.000    1.429    4.286    0.000    5.714 
#    0.000    0.714    0.000    0.857    0.000    3.000 
#    0.000    0.000    0.000    0.000    0.000    0.000 
#
# Total GULP energy -156107.722919 kJ/mol
# GULP energy per Si atom -5575.275819 kJ/mol
# Density = 0.900450 g / cm^3
# Si number density = 9.025038 Si / 1000 Ang^3
#
#
#
# Elastic Constant Matrix: (Units=GPa)
#
#
# Indices 1 2 3 4 5 6 
#
# 1 113.4980 18.5684 35.4484 0.0000 -35.9161 0.0000
# 2 18.5684 56.8574 22.6718 0.0000 -14.6637 0.0001
# 3 35.4484 22.6718 88.3218 0.0000 -33.9170 0.0000
# 4 0.0000 0.0000 0.0000 30.4481 0.0000 -6.7097
# 5 -35.9161 -14.6637 -33.9170 0.0000 40.1419 0.0000
# 6 0.0000 0.0001 0.0000 -6.7097 0.0000 18.3748
#
#
#
# Elastic Compliance Matrix: (Units=1/GPa)
#
#
# Indices 1 2 3 4 5 6 
#
# 1 0.012421 -0.001141 -0.000865 0.000000 0.009966 0.000000
# 2 -0.001141 0.020214 -0.003386 0.000000 0.003502 0.000000
# 3 -0.000865 -0.003386 0.017418 0.000000 0.012706 0.000000
# 4 0.000000 0.000000 0.000000 0.035717 0.000000 0.013042
# 5 0.009966 0.003502 0.012706 0.000000 0.045843 0.000000
# 6 0.000000 0.000000 0.000000 0.013042 0.000000 0.059185
#
#
# Mechanical properties :
#
#
# Convention : Reuss Voigt Hill
#
# Bulk Modulus (GPa) = 25.46610 45.78381 35.62495
# Shear Modulus (GPa) = 23.29132 29.92553 26.60843
#
# Velocity S-wave (km/s) = 3.59607 4.07617 3.84362
# Velocity P-wave (km/s) = 5.60192 6.89735 6.28311
#
# Compressibility (1/GPa) = 0.03926789
#
# Stress axis : x y z
#
# Youngs Moduli (GPa) = 80.50667 49.47095 57.41212
#
# Poissons Ratio (x) = 0.05646 0.04969
# Poissons Ratio (y) = 0.09188 0.19439
# Poissons Ratio (z) = 0.06967 0.16750
#
# Static dielectric constant tensor:
#      x y z
#    x 1.657750 0.000000 0.006170 
#    y 0.000000 1.599580 0.000000 
#    z 0.006170 0.000000 1.628510 
# 
# From -- ./inp_files/237839.got.cif
#   From: 2010.05.17/outbox.ucp.g08.bks.cvg/sg12_119_cif.got.tgz:237839.got - 2010.06.11 11:47:21.
