data_PCOD9224390
_publ_section_title
;
Structure prediction by ZEFSAII (Michael W. Deem and Ramdas Pophale) SiO2 
 PCOD9224390
Probable space group: C 2/M
;
_chemical_formula_sum "Si O2"
_cell_formula_units_Z 32
_cell_length_a 18.000000
_cell_length_b 9.000000
_cell_length_c 30.000000
_cell_angle_alpha 90.000000
_cell_angle_beta 40.000000
_cell_angle_gamma 90.000000
_cell_volume 3123.947783
_symmetry_space_group_name_H-M "C 2/M"
_symmetry_group_IT_number 12
_symmetry_cell_setting 'monoclinic'
loop_
_space_group_symop_operation_xyz
x,y,z
-x,y,-z
-x,-y,-z
x,-y,z
1/2+x,1/2+y,z
1/2-x,1/2+y,-z
1/2-x,1/2-y,-z
1/2+x,1/2-y,z
loop_
_atom_site_type_symbol
_atom_site_label
_atom_site_fract_x
_atom_site_fract_y
_atom_site_fract_z
Si Si1 0.860527 0.334054 0.570288
Si Si2 0.279491 0.176203 0.890760
Si Si3 0.018846 0.177259 0.163704
Si Si4 0.378671 0.172757 0.971642
Si Si5 0.098614 0.826835 0.361018
Si Si6 0.163241 0.824924 0.507105
Si Si7 0.218466 0.169054 0.764548
Si Si8 0.124233 0.671284 0.889740
O O1 0.815131 0.500000 0.587185
O O2 0.843618 0.265285 0.625968
O O3 0.814816 0.230385 0.552671
O O4 0.000000 0.338251 0.500000
O O5 0.408833 0.241599 0.831271
O O6 0.203446 0.277352 0.893428
O O7 0.275547 0.000000 0.884384
O O8 0.218822 0.216958 0.965739
O O9 0.063914 0.264201 0.099409
O O10 0.881005 0.194873 0.226634
O O11 0.043040 0.000000 0.150566
O O12 0.486063 0.174158 0.956936
O O13 0.341543 0.000000 0.984428
O O14 0.175571 0.781974 0.284454
O O15 0.966303 0.780634 0.419364
O O16 0.102037 0.000000 0.369625
O O17 0.250000 0.750000 0.500000
O O18 0.171357 0.000000 0.505597
O O19 0.153686 0.203697 0.839800
O O20 0.258936 0.000000 0.743057
O O21 0.150988 0.500000 0.864086
#
# Coordination Sequence:
#
# PCOD9224390 Si02
#       8
#     8   8   8   8   8   8   8   8
#     4   9  17  31  53  80 109 141 177 216 256 301
#     4  12  23  34  52  78 107 137 172 218 270 320
#     4  10  21  37  55  76 104 136 173 219 267 315
#     4  10  20  35  55  78 104 136 174 215 265 324
#     4  10  20  35  57  82 109 143 180 217 259 311
#     4  10  20  34  54  83 117 148 177 215 263 309
#     4  10  21  38  59  80 103 137 180 221 262 313
#     4  10  21  37  56  77 105 140 176 218 267 319
#
# _framework density 10.243449
#
# number of rings (size 3 to 8) (size 9 to 14) (size 15 to 20)
#    0.000    1.875    0.000    4.500    0.000    7.500 
#    0.000    1.250    0.000    7.500    0.000    0.000 
#    0.000    0.000    0.000    0.000    0.000    0.000 
#
# Total GULP energy -178238.760023 kJ/mol
# GULP energy per Si atom -5569.961251 kJ/mol
# Density = 1.022013 g / cm^3
# Si number density = 10.243449 Si / 1000 Ang^3
#
#
#
# Elastic Constant Matrix: (Units=GPa)
#
#
# Indices 1 2 3 4 5 6 
#
# 1 88.5483 28.0833 19.5573 -0.0001 -14.5423 0.0010
# 2 28.0833 59.3255 16.0202 0.0000 -24.1160 0.0011
# 3 19.5573 16.0202 37.7544 0.0000 -17.4195 0.0000
# 4 -0.0001 0.0000 0.0000 24.7525 0.0000 1.8628
# 5 -14.5423 -24.1160 -17.4195 0.0000 3.7767 -0.0002
# 6 0.0010 0.0011 0.0000 1.8628 -0.0002 31.1175
#
#
#
# Elastic Compliance Matrix: (Units=1/GPa)
#
#
# Indices 1 2 3 4 5 6 
#
# 1 0.014079 -0.004938 -0.004669 0.000000 0.001146 0.000000
# 2 -0.004938 0.010194 -0.017279 0.000000 -0.033618 0.000000
# 3 -0.004669 -0.017279 0.020356 0.000000 -0.034420 0.000001
# 4 0.000000 0.000000 0.000000 0.040583 0.000000 -0.002429
# 5 0.001146 -0.033618 -0.034420 0.000000 -0.104231 0.000000
# 6 0.000000 0.000000 0.000001 -0.002429 0.000000 0.032282
#
#
# Mechanical properties :
#
#
# Convention : Reuss Voigt Hill
#
# Bulk Modulus (GPa) = -109.38523 34.77221 -37.30651
# Shear Modulus (GPa) = 78.14287 20.06049 49.10168
#
# Velocity S-wave (km/s) = 6.18269 3.13259 4.90096
# Velocity P-wave (km/s) = 1.59410 5.48579 3.71165
#
# Compressibility (1/GPa) = -0.00914200
#
# Stress axis : x y z
#
# Youngs Moduli (GPa) = 71.02901 98.10098 49.12473
#
# Poissons Ratio (x) = 0.48440 0.22935
# Poissons Ratio (y) = 0.35073 0.84881
# Poissons Ratio (z) = 0.33162 1.69506
#
# Static dielectric constant tensor:
#      x y z
#    x 1.805340 0.000000 0.060720 
#    y 0.000000 1.678670 0.000000 
#    z 0.060720 0.000000 1.422680 
# 
# From -- ./inp_files/377997.got.cif
#   From: 2010.05.17/outbox.ucp.g08.bks.cvg/sg12_189_cif.got.tgz:377997.got - 2010.06.11 11:47:21.
