data_PCOD9224537
_publ_section_title
;
Structure prediction by ZEFSAII (Michael W. Deem and Ramdas Pophale) SiO2 
 PCOD9224537
Probable space group: C 2/M
;
_chemical_formula_sum "Si O2"
_cell_formula_units_Z 24
_cell_length_a 18.000000
_cell_length_b 9.000000
_cell_length_c 15.000000
_cell_angle_alpha 90.000000
_cell_angle_beta 90.000000
_cell_angle_gamma 90.000000
_cell_volume 2430.000000
_symmetry_space_group_name_H-M "C 2/M"
_symmetry_group_IT_number 12
_symmetry_cell_setting 'monoclinic'
loop_
_space_group_symop_operation_xyz
x,y,z
-x,y,-z
-x,-y,-z
x,-y,z
1/2+x,1/2+y,z
1/2-x,1/2+y,-z
1/2-x,1/2-y,-z
1/2+x,1/2-y,z
loop_
_atom_site_type_symbol
_atom_site_label
_atom_site_fract_x
_atom_site_fract_y
_atom_site_fract_z
Si Si1 0.542582 0.671906 0.729188
Si Si2 0.719184 0.673394 0.732865
Si Si3 0.539296 0.169615 0.908381
Si Si4 0.783254 0.670437 0.084483
Si Si5 0.798540 0.827193 0.574349
Si Si6 0.447856 0.164395 0.585236
O O1 0.525961 0.500000 0.710591
O O2 0.630961 0.695205 0.716534
O O3 0.523352 0.716110 0.829927
O O4 0.497009 0.779390 0.666266
O O5 0.735100 0.500000 0.721580
O O6 0.736023 0.730153 0.830990
O O7 0.766899 0.771055 0.667147
O O8 0.627614 0.168365 0.922218
O O9 0.517195 0.000000 0.883329
O O10 0.500000 0.208694 0.000000
O O11 0.757963 0.500000 0.094210
O O12 0.750000 0.750000 0.000000
O O13 0.750000 0.750000 0.500000
O O14 0.882744 0.777904 0.566274
O O15 0.790566 0.000000 0.565055
O O16 0.500000 0.157680 0.500000
O O17 0.416466 0.000000 0.602431
#
# Coordination Sequence:
#
# PCOD9224537 Si02
#       6
#     8   8   8   8   8   8
#     4  10  21  37  59  86 116 151 190 237 288 338
#     4  10  21  39  61  85 116 153 194 240 291 345
#     4   9  19  36  57  80 109 149 193 236 283 336
#     4  10  20  35  56  82 114 152 194 241 292 344
#     4  12  25  41  62  88 118 151 190 236 287 343
#     4  11  24  41  62  87 116 152 192 234 282 338
#
# _framework density 9.8765429999999999
#
# number of rings (size 3 to 8) (size 9 to 14) (size 15 to 20)
#    0.000    1.667    0.000    4.500    0.000    8.333 
#    0.000    5.000    0.000    0.000    0.000    0.000 
#    0.000    0.000    0.000    0.000    0.000    0.000 
#
# Total GULP energy -134034.592782 kJ/mol
# GULP energy per Si atom -5584.774699 kJ/mol
# Density = 0.985406 g / cm^3
# Si number density = 9.876543 Si / 1000 Ang^3
#
#
#
# Elastic Constant Matrix: (Units=GPa)
#
#
# Indices 1 2 3 4 5 6 
#
# 1 12.4050 61.3292 55.0761 0.0000 -3.0768 0.0000
# 2 61.3292 106.5855 32.4887 0.0000 2.5666 0.0000
# 3 55.0761 32.4887 72.4840 0.0000 6.1283 0.0000
# 4 0.0000 0.0000 0.0000 23.1861 0.0000 1.1833
# 5 -3.0768 2.5666 6.1283 0.0000 28.9184 0.0000
# 6 0.0000 0.0000 0.0000 1.1833 0.0000 21.7966
#
#
#
# Elastic Compliance Matrix: (Units=1/GPa)
#
#
# Indices 1 2 3 4 5 6 
#
# 1 -0.021691 0.008626 0.013110 0.000000 -0.005852 0.000000
# 2 0.008626 0.007437 -0.010090 0.000000 0.002396 0.000000
# 3 0.013110 -0.010090 0.008312 0.000000 0.000529 0.000000
# 4 0.000000 0.000000 0.000000 0.043249 0.000000 -0.002348
# 5 -0.005852 0.002396 0.000529 0.000000 0.033633 0.000000
# 6 0.000000 0.000000 0.000000 -0.002348 0.000000 0.046006
#
#
# Mechanical properties :
#
#
# Convention : Reuss Voigt Hill
#
# Bulk Modulus (GPa) = 57.63725 54.36251 55.99988
# Shear Modulus (GPa) = 50.28284 17.61891 33.95087
#
# Velocity S-wave (km/s) = 5.05084 2.98981 4.15029
# Velocity P-wave (km/s) = 7.95341 6.28485 7.16785
#
# Compressibility (1/GPa) = 0.01734989
#
# Stress axis : x y z
#
# Youngs Moduli (GPa) = -46.10177 134.46708 120.30288
#
# Poissons Ratio (x) = -1.15988 -1.57720
# Poissons Ratio (y) = 0.39766 1.21387
# Poissons Ratio (z) = 0.60441 1.35678
#
# Static dielectric constant tensor:
#      x y z
#    x 1.679380 0.000000 0.004280 
#    y 0.000000 1.713960 0.000000 
#    z 0.004280 0.000000 1.655070 
# 
# From -- ./inp_files/221564.got.cif
#   From: 2010.05.17/outbox.ucp.g08.bks.cvg/sg12_111_cif.got.tgz:221564.got - 2010.06.11 11:47:21.
