data_PCOD9224087
_publ_section_title
;
Structure prediction by ZEFSAII (Michael W. Deem and Ramdas Pophale) SiO2 
 PCOD9224087
Probable space group: C 2/M
;
_chemical_formula_sum "Si O2"
_cell_formula_units_Z 32
_cell_length_a 15.000000
_cell_length_b 9.000000
_cell_length_c 24.000000
_cell_angle_alpha 90.000000
_cell_angle_beta 90.000000
_cell_angle_gamma 90.000000
_cell_volume 3240.000000
_symmetry_space_group_name_H-M "C 2/M"
_symmetry_group_IT_number 12
_symmetry_cell_setting 'monoclinic'
loop_
_space_group_symop_operation_xyz
x,y,z
-x,y,-z
-x,-y,-z
x,-y,z
1/2+x,1/2+y,z
1/2-x,1/2+y,-z
1/2-x,1/2-y,-z
1/2+x,1/2-y,z
loop_
_atom_site_type_symbol
_atom_site_label
_atom_site_fract_x
_atom_site_fract_y
_atom_site_fract_z
Si Si1 0.279166 0.178517 0.558198
Si Si2 0.625022 0.175903 0.627853
Si Si3 0.382365 0.674238 0.740675
Si Si4 0.941668 0.820461 0.617729
Si Si5 0.230159 0.823770 0.058907
Si Si6 0.129567 0.172007 0.864656
Si Si7 0.926035 0.177564 0.862309
Si Si8 0.669766 0.169006 0.754211
O O1 0.250000 0.250000 0.500000
O O2 0.211882 0.244068 0.604228
O O3 0.374697 0.241528 0.575715
O O4 0.277353 0.000000 0.556363
O O5 0.539982 0.262571 0.605295
O O6 0.624127 0.188285 0.694750
O O7 0.625877 0.000000 0.613974
O O8 0.408894 0.500000 0.740705
O O9 0.416107 0.730368 0.681046
O O10 0.415073 0.740719 0.799574
O O11 0.275485 0.681919 0.743581
O O12 0.934219 0.000000 0.614655
O O13 0.309208 0.781555 0.100630
O O14 0.142512 0.765911 0.091546
O O15 0.222365 0.000000 0.051047
O O16 0.250000 0.750000 0.000000
O O17 0.139863 0.213652 0.799893
O O18 0.027113 0.192853 0.880698
O O19 0.154533 0.000000 0.874065
O O20 0.906631 0.000000 0.857228
O O21 0.652950 0.000000 0.774439
#
# Coordination Sequence:
#
# PCOD9224087 Si02
#       8
#     8   8   8   8   8   8   8   8
#     4  12  26  45  67  92 123 164 213 264 315 371
#     4  11  23  41  64  95 131 168 208 255 310 372
#     4   9  16  33  61  89 120 161 199 237 297 365
#     4  11  22  40  66  96 128 165 207 256 311 374
#     4  11  23  42  63  83 114 157 201 249 303 361
#     4  11  22  37  60  92 120 152 201 250 295 360
#     4   9  19  36  60  85 117 159 197 233 292 362
#     4  10  19  36  62  90 125 165 199 242 303 361
#
# _framework density 9.8765429999999999
#
# number of rings (size 3 to 8) (size 9 to 14) (size 15 to 20)
#    0.000    1.500    2.500    3.375    0.000    3.000 
#    0.000    7.500    0.000    0.000    0.000    0.000 
#    0.000    0.000    0.000    0.000    0.000    0.000 
#
# Total GULP energy -178685.148144 kJ/mol
# GULP energy per Si atom -5583.910879 kJ/mol
# Density = 0.985406 g / cm^3
# Si number density = 9.876543 Si / 1000 Ang^3
#
#
#
# Elastic Constant Matrix: (Units=GPa)
#
#
# Indices 1 2 3 4 5 6 
#
# 1 13.2474 8.1756 -7.4464 0.0000 30.8835 0.0000
# 2 8.1756 72.2497 19.4211 0.0000 7.4975 0.0000
# 3 -7.4464 19.4211 28.9995 0.0000 1.7983 0.0000
# 4 0.0000 0.0000 0.0000 33.3639 0.0000 0.7489
# 5 30.8835 7.4975 1.7983 0.0000 -33.5730 0.0000
# 6 0.0000 0.0000 0.0000 0.7489 0.0000 24.0147
#
#
#
# Elastic Compliance Matrix: (Units=1/GPa)
#
#
# Indices 1 2 3 4 5 6 
#
# 1 0.028971 -0.009119 0.011980 0.000000 0.025255 0.000000
# 2 -0.009119 0.019422 -0.015047 0.000000 -0.004858 0.000000
# 3 0.011980 -0.015047 0.047006 0.000000 0.010178 0.000000
# 4 0.000000 0.000000 0.000000 0.029994 0.000000 -0.000935
# 5 0.025255 -0.004858 0.010178 0.000000 -0.007093 0.000000
# 6 0.000000 0.000000 0.000000 -0.000935 0.000000 0.041670
#
#
# Mechanical properties :
#
#
# Convention : Reuss Voigt Hill
#
# Bulk Modulus (GPa) = 14.07942 17.19969 15.63956
# Shear Modulus (GPa) = 24.03648 11.05087 17.54368
#
# Velocity S-wave (km/s) = 3.49212 2.36784 2.98342
# Velocity P-wave (km/s) = 4.83767 4.02514 4.44999
#
# Compressibility (1/GPa) = 0.07102564
#
# Stress axis : x y z
#
# Youngs Moduli (GPa) = 34.51718 51.48878 21.27402
#
# Poissons Ratio (x) = 0.46955 -0.25487
# Poissons Ratio (y) = 0.31478 0.32012
# Poissons Ratio (z) = -0.41353 0.77477
#
# Static dielectric constant tensor:
#      x y z
#    x 1.714360 0.000000 0.015200 
#    y 0.000000 1.672780 0.000000 
#    z 0.015200 0.000000 1.699270 
# 
# From -- ./inp_files/338843.got.cif
#   From: 2010.05.17/outbox.ucp.g08.bks.cvg/sg12_170_cif.got.tgz:338843.got - 2010.06.11 11:47:21.
