data_PCOD9224317
_publ_section_title
;
Structure prediction by ZEFSAII (Michael W. Deem and Ramdas Pophale) SiO2 
 PCOD9224317
Probable space group: C 2/M
;
_chemical_formula_sum "Si O2"
_cell_formula_units_Z 32
_cell_length_a 24.000000
_cell_length_b 9.000000
_cell_length_c 30.000000
_cell_angle_alpha 90.000000
_cell_angle_beta 150.000000
_cell_angle_gamma 90.000000
_cell_volume 3240.000000
_symmetry_space_group_name_H-M "C 2/M"
_symmetry_group_IT_number 12
_symmetry_cell_setting 'monoclinic'
loop_
_space_group_symop_operation_xyz
x,y,z
-x,y,-z
-x,-y,-z
x,-y,z
1/2+x,1/2+y,z
1/2-x,1/2+y,-z
1/2-x,1/2-y,-z
1/2+x,1/2-y,z
loop_
_atom_site_type_symbol
_atom_site_label
_atom_site_fract_x
_atom_site_fract_y
_atom_site_fract_z
Si Si1 0.019691 0.821722 0.162092
Si Si2 0.405821 0.678835 0.623528
Si Si3 0.632933 0.672320 0.590352
Si Si4 0.935626 0.180557 0.194746
Si Si5 0.371165 0.824489 0.910953
Si Si6 0.294559 0.320708 0.458370
Si Si7 0.689022 0.176145 0.028009
Si Si8 0.720583 0.322612 0.238626
O O1 0.118691 0.767722 0.199536
O O2 0.017896 0.771139 0.212179
O O3 0.024851 0.000000 0.165836
O O4 0.905730 0.767396 0.061773
O O5 0.394144 0.500000 0.618662
O O6 0.520260 0.724199 0.726330
O O7 0.391332 0.716643 0.561630
O O8 0.311099 0.750003 0.589522
O O9 0.500000 0.674689 0.500000
O O10 0.669040 0.500000 0.620188
O O11 0.678684 0.727099 0.573683
O O12 0.674893 0.765377 0.661349
O O13 0.811078 0.230638 0.099156
O O14 0.931819 0.000000 0.191619
O O15 0.324604 0.807085 0.928312
O O16 0.299610 0.743071 0.824015
O O17 0.372888 0.000000 0.901376
O O18 0.500000 0.771309 0.000000
O O19 0.282831 0.500000 0.449229
O O20 0.677080 0.000000 0.009710
O O21 0.719144 0.500000 0.235338
#
# Coordination Sequence:
#
# PCOD9224317 Si02
#       8
#     8   8   8   8   8   8   8   8
#     4  10  20  34  52  76 108 141 177 219 268 322
#     4   9  17  32  54  77 105 139 175 217 265 322
#     4  10  22  39  58  82 112 144 182 229 277 325
#     4   9  18  32  51  77 106 138 176 216 264 321
#     4  10  20  36  57  81 109 142 185 231 271 317
#     4   9  18  33  55  81 105 135 176 220 269 320
#     4  10  20  34  54  77 103 140 182 223 268 316
#     4  11  23  37  58  84 109 145 185 224 276 331
#
# _framework density 9.8765429999999999
#
# number of rings (size 3 to 8) (size 9 to 14) (size 15 to 20)
#    0.000    2.250    1.250    1.500    0.000    4.000 
#    0.000    5.000    0.000    3.000    0.000    0.000 
#    0.000    0.000    0.000    0.000    0.000    0.000 
#
# Total GULP energy -178431.472654 kJ/mol
# GULP energy per Si atom -5575.983520 kJ/mol
# Density = 0.985406 g / cm^3
# Si number density = 9.876543 Si / 1000 Ang^3
#
#
#
# Elastic Constant Matrix: (Units=GPa)
#
#
# Indices 1 2 3 4 5 6 
#
# 1 28.3226 9.9626 -4.0420 0.0000 -13.3225 0.0001
# 2 9.9626 2.1800 9.2424 -0.0004 -12.4283 0.0000
# 3 -4.0420 9.2424 72.9773 -0.0006 -22.5228 -0.0002
# 4 0.0000 -0.0004 -0.0006 17.2230 -0.0001 1.8991
# 5 -13.3225 -12.4283 -22.5228 -0.0001 30.6406 0.0000
# 6 0.0001 0.0000 -0.0002 1.8991 0.0000 12.5517
#
#
#
# Elastic Compliance Matrix: (Units=1/GPa)
#
#
# Indices 1 2 3 4 5 6 
#
# 1 0.037758 0.060502 0.009144 0.000002 0.047679 0.000000
# 2 0.060502 -0.252537 0.015313 -0.000005 -0.064871 0.000001
# 3 0.009144 0.015313 0.019937 0.000001 0.024842 0.000000
# 4 0.000002 -0.000005 0.000001 0.059047 -0.000001 -0.008934
# 5 0.047679 -0.064871 0.024842 -0.000001 0.045315 0.000001
# 6 0.000000 0.000001 0.000000 -0.008934 0.000001 0.081022
#
#
# Mechanical properties :
#
#
# Convention : Reuss Voigt Hill
#
# Bulk Modulus (GPa) = -40.12342 14.86730 -12.62806
# Shear Modulus (GPa) = -26.64068 17.97085 -4.33491
#
# Velocity S-wave (km/s) = -3.67643 3.01952 -1.48301
# Velocity P-wave (km/s) = 6.19500 4.43842 3.05602
#
# Compressibility (1/GPa) = -0.02492310
#
# Stress axis : x y z
#
# Youngs Moduli (GPa) = 26.48421 -3.95982 50.15820
#
# Poissons Ratio (x) = 0.23958 -0.45865
# Poissons Ratio (y) = -1.60235 -0.76808
# Poissons Ratio (z) = -0.24217 0.06064
#
# Static dielectric constant tensor:
#      x y z
#    x 1.694270 0.000000 0.000870 
#    y 0.000000 1.673940 0.000000 
#    z 0.000870 0.000000 1.732390 
# 
# From -- ./inp_files/382545.got.cif
#   From: 2010.05.17/outbox.ucp.g08.bks.cvg/sg12_192_cif.got.tgz:382545.got - 2010.06.11 11:47:21.
