data_PCOD9224023
_publ_section_title
;
Structure prediction by ZEFSAII (Michael W. Deem and Ramdas Pophale) SiO2 
 PCOD9224023
Probable space group: C 2/M
;
_chemical_formula_sum "Si O2"
_cell_formula_units_Z 28
_cell_length_a 15.000000
_cell_length_b 18.000000
_cell_length_c 12.000000
_cell_angle_alpha 90.000000
_cell_angle_beta 120.000000
_cell_angle_gamma 90.000000
_cell_volume 2805.922308
_symmetry_space_group_name_H-M "C 2/M"
_symmetry_group_IT_number 12
_symmetry_cell_setting 'monoclinic'
loop_
_space_group_symop_operation_xyz
x,y,z
-x,y,-z
-x,-y,-z
x,-y,z
1/2+x,1/2+y,z
1/2-x,1/2+y,-z
1/2-x,1/2-y,-z
1/2+x,1/2-y,z
loop_
_atom_site_type_symbol
_atom_site_label
_atom_site_fract_x
_atom_site_fract_y
_atom_site_fract_z
Si Si1 0.969948 0.411059 0.730378
Si Si2 0.117768 0.912693 0.112612
Si Si3 0.406517 0.797996 0.527275
Si Si4 0.803414 0.590362 0.065489
Si Si5 0.694973 0.090374 0.187549
Si Si6 0.616939 0.589024 0.542840
Si Si7 0.830455 0.180572 0.640170
O O1 0.968143 0.500000 0.728967
O O2 0.923363 0.379546 0.587879
O O3 0.900409 0.387303 0.793199
O O4 0.088599 0.386126 0.812482
O O5 0.201458 0.890190 0.070971
O O6 0.131364 0.859974 0.226494
O O7 0.138223 0.000000 0.153565
O O8 0.000000 0.908389 0.000000
O O9 0.500000 0.781947 0.500000
O O10 0.287665 0.793151 0.412394
O O11 0.402106 0.745759 0.634662
O O12 0.804262 0.500000 0.062212
O O13 0.806477 0.617168 0.939916
O O14 0.802201 0.112001 0.311959
O O15 0.692161 0.000000 0.182550
O O16 0.500000 0.611460 0.500000
O O17 0.617296 0.500000 0.535155
O O18 0.660953 0.622410 0.456552
#
# Coordination Sequence:
#
# PCOD9224023 Si02
#       7
#     8   8   8   8   8   8   8
#     4  10  19  35  60  90 118 150 196 244 299 357
#     4  10  22  39  61  89 122 160 201 247 296 349
#     4  11  24  41  62  85 119 158 198 249 308 359
#     4   9  18  33  56  88 122 153 187 239 296 348
#     4   9  17  31  53  86 121 148 185 235 288 343
#     4  10  20  33  57  90 118 153 200 244 289 347
#     4  11  23  41  61  83 120 158 200 245 301 359
#
# _framework density 9.9788940000000004
#
# number of rings (size 3 to 8) (size 9 to 14) (size 15 to 20)
#    0.000    2.000    1.429    2.143    2.000    2.571 
#    0.000    1.429    0.000    2.571    0.000    0.000 
#    0.000    0.000    0.000    0.000    0.000    0.000 
#
# Total GULP energy -156184.008278 kJ/mol
# GULP energy per Si atom -5578.000296 kJ/mol
# Density = 0.995618 g / cm^3
# Si number density = 9.978894 Si / 1000 Ang^3
#
#
#
# Elastic Constant Matrix: (Units=GPa)
#
#
# Indices 1 2 3 4 5 6 
#
# 1 178.2752 32.9059 31.5725 0.0000 2.8345 0.0000
# 2 32.9059 37.3086 29.0349 0.0000 -6.8200 0.0000
# 3 31.5725 29.0349 45.8290 0.0000 -6.0146 0.0000
# 4 0.0000 0.0000 0.0000 15.2153 0.0000 -7.0914
# 5 2.8345 -6.8200 -6.0146 0.0000 29.2884 0.0000
# 6 0.0000 0.0000 0.0000 -7.0914 0.0000 14.2998
#
#
#
# Elastic Compliance Matrix: (Units=1/GPa)
#
#
# Indices 1 2 3 4 5 6 
#
# 1 0.006906 -0.005065 -0.001840 0.000000 -0.002226 0.000000
# 2 -0.005065 0.057491 -0.031974 0.000000 0.007311 0.000000
# 3 -0.001840 -0.031974 0.043566 0.000000 0.001679 0.000000
# 4 0.000000 0.000000 0.000000 0.085481 0.000000 0.042391
# 5 -0.002226 0.007311 0.001679 0.000000 0.036406 0.000000
# 6 0.000000 0.000000 0.000000 0.042391 0.000000 0.090953
#
#
# Mechanical properties :
#
#
# Convention : Reuss Voigt Hill
#
# Bulk Modulus (GPa) = 33.10982 49.82659 41.46821
# Shear Modulus (GPa) = 12.23602 22.95400 17.59501
#
# Velocity S-wave (km/s) = 2.47876 3.39503 2.97242
# Velocity P-wave (km/s) = 4.98180 6.35520 5.70994
#
# Compressibility (1/GPa) = 0.03020252
#
# Stress axis : x y z
#
# Youngs Moduli (GPa) = 144.81065 17.39402 22.95378
#
# Poissons Ratio (x) = 0.08811 0.04224
# Poissons Ratio (y) = 0.73350 0.73393
# Poissons Ratio (z) = 0.26651 0.55616
#
# Static dielectric constant tensor:
#      x y z
#    x 1.677970 0.000000 0.016030 
#    y 0.000000 1.744130 0.000000 
#    z 0.016030 0.000000 1.701210 
# 
# From -- ./inp_files/146223.got.cif
#   From: 2010.05.17/outbox.ucp.g08.bks.cvg/sg12_74_cif.got.tgz:146223.got - 2010.06.11 11:47:21.
