data_PCOD9224880
_publ_section_title
;
Structure prediction by ZEFSAII (Michael W. Deem and Ramdas Pophale) SiO2 
 PCOD9224880
Probable space group: C 2/M
;
_chemical_formula_sum "Si O2"
_cell_formula_units_Z 28
_cell_length_a 12.000000
_cell_length_b 18.000000
_cell_length_c 18.000000
_cell_angle_alpha 90.000000
_cell_angle_beta 130.000000
_cell_angle_gamma 90.000000
_cell_volume 2978.380795
_symmetry_space_group_name_H-M "C 2/M"
_symmetry_group_IT_number 12
_symmetry_cell_setting 'monoclinic'
loop_
_space_group_symop_operation_xyz
x,y,z
-x,y,-z
-x,-y,-z
x,-y,z
1/2+x,1/2+y,z
1/2-x,1/2+y,-z
1/2-x,1/2-y,-z
1/2+x,1/2-y,z
loop_
_atom_site_type_symbol
_atom_site_label
_atom_site_fract_x
_atom_site_fract_y
_atom_site_fract_z
Si Si1 0.849488 0.414138 0.122922
Si Si2 0.190969 0.801883 0.773035
Si Si3 0.609616 0.341663 0.114329
Si Si4 0.360787 0.590098 0.108013
Si Si5 0.851893 0.339705 0.705553
Si Si6 0.132599 0.785699 0.393365
Si Si7 0.364407 0.587804 0.496382
O O1 0.897395 0.500000 0.143655
O O2 0.726975 0.399657 0.132537
O O3 0.984783 0.361209 0.201208
O O4 0.767834 0.399621 0.009080
O O5 0.304273 0.734529 0.832772
O O6 0.167740 0.854832 0.834668
O O7 0.255037 0.852916 0.735928
O O8 0.039266 0.767535 0.678268
O O9 0.510492 0.379448 0.135163
O O10 0.500000 0.324734 0.000000
O O11 0.368428 0.500000 0.126454
O O12 0.830929 0.253789 0.669491
O O13 0.783294 0.388473 0.609842
O O14 0.250000 0.750000 0.500000
O O15 0.132408 0.870486 0.422578
O O16 0.500000 0.611209 0.500000
O O17 0.372803 0.500000 0.509226
#
# Coordination Sequence:
#
# PCOD9224880 Si02
#       7
#     8   8   8   8   8   8   8
#     4  10  21  39  62  89 124 166 207 253 311 378
#     4  12  23  38  62  93 125 164 212 261 312 373
#     4  10  22  38  63  87 123 167 216 259 306 372
#     4  10  24  42  61  91 130 170 213 261 316 371
#     4  11  22  37  60  91 124 159 203 254 315 373
#     4  10  22  40  60  88 120 159 205 259 310 371
#     4  10  20  37  60  87 118 157 201 253 312 376
#
# _framework density 9.4010809999999996
#
# number of rings (size 3 to 8) (size 9 to 14) (size 15 to 20)
#    0.000    1.571    2.857    1.714    2.000    4.571 
#    0.000    1.429    0.000    0.000    0.000    3.000 
#    0.000    0.000    0.000    0.000    0.000    0.000 
#
# Total GULP energy -155954.361048 kJ/mol
# GULP energy per Si atom -5569.798609 kJ/mol
# Density = 0.937968 g / cm^3
# Si number density = 9.401081 Si / 1000 Ang^3
#
#
#
# Elastic Constant Matrix: (Units=GPa)
#
#
# Indices 1 2 3 4 5 6 
#
# 1 94.9336 29.4159 52.9236 0.0000 -8.6561 0.0000
# 2 29.4159 100.3871 41.0202 0.0000 -11.2820 0.0000
# 3 52.9236 41.0202 96.2335 0.0000 10.0520 0.0000
# 4 0.0000 0.0000 0.0000 27.2574 0.0000 1.7685
# 5 -8.6561 -11.2820 10.0520 0.0000 32.7594 0.0000
# 6 0.0000 0.0000 0.0000 1.7685 0.0000 29.4596
#
#
#
# Elastic Compliance Matrix: (Units=1/GPa)
#
#
# Indices 1 2 3 4 5 6 
#
# 1 0.016811 0.000024 -0.010042 0.000000 0.007532 0.000000
# 2 0.000024 0.013287 -0.006359 0.000000 0.006534 0.000000
# 3 -0.010042 -0.006359 0.019764 0.000000 -0.010908 0.000000
# 4 0.000000 0.000000 0.000000 0.036831 0.000000 -0.002211
# 5 0.007532 0.006534 -0.010908 0.000000 0.038113 0.000000
# 6 0.000000 0.000000 0.000000 -0.002211 0.000000 0.034078
#
#
# Mechanical properties :
#
#
# Convention : Reuss Voigt Hill
#
# Bulk Modulus (GPa) = 58.45469 59.80819 59.13144
# Shear Modulus (GPa) = 25.33668 29.10825 27.22246
#
# Velocity S-wave (km/s) = 3.67487 3.93890 3.80917
# Velocity P-wave (km/s) = 7.01164 7.25016 7.13190
#
# Compressibility (1/GPa) = 0.01710727
#
# Stress axis : x y z
#
# Youngs Moduli (GPa) = 59.48324 75.25980 50.59633
#
# Poissons Ratio (x) = -0.00179 0.50810
# Poissons Ratio (y) = -0.00141 0.32176
# Poissons Ratio (z) = 0.59735 0.47860
#
# Static dielectric constant tensor:
#      x y z
#    x 1.673610 0.000000 -0.001610 
#    y 0.000000 1.667040 0.000000 
#    z -0.001610 0.000000 1.664850 
# 
# From -- ./inp_files/264324.got.cif
#   From: 2010.05.17/outbox.ucp.g08.bks.cvg/sg12_133_cif.got.tgz:264324.got - 2010.06.11 11:47:21.
