data_PCOD9224877
_publ_section_title
;
Structure prediction by ZEFSAII (Michael W. Deem and Ramdas Pophale) SiO2 
 PCOD9224877
Probable space group: C 2/M
;
_chemical_formula_sum "Si O2"
_cell_formula_units_Z 32
_cell_length_a 30.000000
_cell_length_b 9.000000
_cell_length_c 18.000000
_cell_angle_alpha 90.000000
_cell_angle_beta 140.000000
_cell_angle_gamma 90.000000
_cell_volume 3123.947783
_symmetry_space_group_name_H-M "C 2/M"
_symmetry_group_IT_number 12
_symmetry_cell_setting 'monoclinic'
loop_
_space_group_symop_operation_xyz
x,y,z
-x,y,-z
-x,-y,-z
x,-y,z
1/2+x,1/2+y,z
1/2-x,1/2+y,-z
1/2-x,1/2-y,-z
1/2+x,1/2-y,z
loop_
_atom_site_type_symbol
_atom_site_label
_atom_site_fract_x
_atom_site_fract_y
_atom_site_fract_z
Si Si1 0.155194 0.823762 0.445683
Si Si2 0.180972 0.166976 0.933084
Si Si3 0.066984 0.672239 0.446961
Si Si4 0.813996 0.166119 0.886028
Si Si5 0.826167 0.171267 0.318877
Si Si6 0.931116 0.827297 0.314611
Si Si7 0.422686 0.675499 0.912841
Si Si8 0.190394 0.323886 0.334362
O O1 0.086943 0.759515 0.397470
O O2 0.169650 0.748877 0.385615
O O3 0.228932 0.792643 0.581232
O O4 0.148662 0.000000 0.429688
O O5 0.110114 0.229803 0.810083
O O6 0.185281 0.000000 0.907244
O O7 0.250000 0.250000 0.000000
O O8 0.179812 0.160571 0.018733
O O9 0.058374 0.500000 0.421791
O O10 0.134645 0.709528 0.581235
O O11 0.001461 0.735593 0.408245
O O12 0.753617 0.283243 0.791586
O O13 0.890928 0.193541 0.953783
O O14 0.793094 0.000000 0.831807
O O15 0.872225 0.180535 0.302550
O O16 0.832410 0.000000 0.354095
O O17 0.952683 0.000000 0.336368
O O18 0.423500 0.500000 0.894454
O O19 0.363843 0.756767 0.791396
O O20 0.500000 0.733162 0.000000
O O21 0.183827 0.500000 0.330828
#
# Coordination Sequence:
#
# PCOD9224877 Si02
#       8
#     8   8   8   8   8   8   8   8
#     4  10  21  39  63  88 117 155 192 238 297 359
#     4  10  20  37  60  86 116 152 196 247 297 350
#     4  12  25  38  56  86 121 155 196 245 295 351
#     4  10  21  37  61  89 117 152 200 251 296 350
#     4  11  22  38  60  85 116 155 199 243 295 359
#     4  10  22  39  58  83 117 158 199 242 295 357
#     4  10  22  39  58  85 120 161 204 244 297 359
#     4  10  21  38  62  90 117 150 196 246 297 350
#
# _framework density 10.243449
#
# number of rings (size 3 to 8) (size 9 to 14) (size 15 to 20)
#    0.000    1.625    1.250    3.375    0.000    8.250 
#    0.000    2.500    0.000    0.000    0.000    0.000 
#    0.000    0.000    0.000    0.000    0.000    0.000 
#
# Total GULP energy -178388.949679 kJ/mol
# GULP energy per Si atom -5574.654677 kJ/mol
# Density = 1.022013 g / cm^3
# Si number density = 10.243449 Si / 1000 Ang^3
#
#
#
# Elastic Constant Matrix: (Units=GPa)
#
#
# Indices 1 2 3 4 5 6 
#
# 1 -26.0738 -172.1524 -56.1959 0.0000 7.3493 0.0000
# 2 -172.1524 -270.6633 -104.8282 0.0000 -11.4839 0.0000
# 3 -56.1959 -104.8282 -13.7859 0.0000 -2.0410 0.0000
# 4 0.0000 0.0000 0.0000 22.9239 0.0000 6.3979
# 5 7.3493 -11.4839 -2.0410 0.0000 24.4067 0.0000
# 6 0.0000 0.0000 0.0000 6.3979 0.0000 24.5562
#
#
#
# Elastic Compliance Matrix: (Units=1/GPa)
#
#
# Indices 1 2 3 4 5 6 
#
# 1 0.013946 -0.006700 -0.004754 0.000000 -0.007749 0.000000
# 2 -0.006700 0.005121 -0.012132 0.000000 0.003412 0.000000
# 3 -0.004754 -0.012132 0.039241 0.000000 -0.000995 0.000000
# 4 0.000000 0.000000 0.000000 0.047043 0.000000 -0.012257
# 5 -0.007749 0.003412 -0.000995 0.000000 0.044828 0.000000
# 6 0.000000 0.000000 0.000000 -0.012257 0.000000 0.043916
#
#
# Mechanical properties :
#
#
# Convention : Reuss Voigt Hill
#
# Bulk Modulus (GPa) = 89.80603 -108.54178 -9.36788
# Shear Modulus (GPa) = 20.40991 15.88761 18.14876
#
# Velocity S-wave (km/s) = 3.15975 2.78780 2.97959
# Velocity P-wave (km/s) = 7.56591 6.53710 2.69346
#
# Compressibility (1/GPa) = 0.01113511
#
# Stress axis : x y z
#
# Youngs Moduli (GPa) = 71.70678 195.28828 25.48357
#
# Poissons Ratio (x) = 1.30840 0.12116
# Poissons Ratio (y) = 0.48042 0.30916
# Poissons Ratio (z) = 0.34092 2.36921
#
# Static dielectric constant tensor:
#      x y z
#    x 1.630930 0.000000 0.030090 
#    y 0.000000 1.473310 0.000000 
#    z 0.030090 0.000000 1.703800 
# 
# From -- ./inp_files/295720.got.cif
#   From: 2010.05.17/outbox.ucp.g08.bks.cvg/sg12_148_cif.got.tgz:295720.got - 2010.06.11 11:47:21.
