data_PCOD9224927
_publ_section_title
;
Structure prediction by ZEFSAII (Michael W. Deem and Ramdas Pophale) SiO2 
 PCOD9224927
Probable space group: C 2/M
;
_chemical_formula_sum "Si O2"
_cell_formula_units_Z 32
_cell_length_a 24.000000
_cell_length_b 9.000000
_cell_length_c 30.000000
_cell_angle_alpha 90.000000
_cell_angle_beta 30.000000
_cell_angle_gamma 90.000000
_cell_volume 3240.000000
_symmetry_space_group_name_H-M "C 2/M"
_symmetry_group_IT_number 12
_symmetry_cell_setting 'monoclinic'
loop_
_space_group_symop_operation_xyz
x,y,z
-x,y,-z
-x,-y,-z
x,-y,z
1/2+x,1/2+y,z
1/2-x,1/2+y,-z
1/2-x,1/2-y,-z
1/2+x,1/2-y,z
loop_
_atom_site_type_symbol
_atom_site_label
_atom_site_fract_x
_atom_site_fract_y
_atom_site_fract_z
Si Si1 0.701532 0.180713 0.154486
Si Si2 0.880756 0.332274 0.604795
Si Si3 0.276439 0.168400 0.343623
Si Si4 0.056695 0.678461 0.338300
Si Si5 0.456685 0.680307 0.982884
Si Si6 0.352201 0.824687 0.904774
Si Si7 0.536316 0.327723 0.833405
Si Si8 0.684241 0.324468 0.505259
O O1 0.638401 0.230030 0.242356
O O2 0.829891 0.229382 0.062589
O O3 0.640058 0.226197 0.151779
O O4 0.703128 0.000000 0.154861
O O5 0.828392 0.500000 0.638418
O O6 0.831568 0.195597 0.611229
O O7 0.891039 0.294528 0.649601
O O8 0.000000 0.351126 0.500000
O O9 0.351405 0.294467 0.269719
O O10 0.250491 0.196273 0.413062
O O11 0.319565 0.000000 0.309037
O O12 0.041570 0.500000 0.344875
O O13 0.937144 0.753629 0.416287
O O14 0.454497 0.500000 0.987105
O O15 0.500000 0.737270 0.000000
O O16 0.533356 0.715268 0.887410
O O17 0.454239 0.776828 0.863512
O O18 0.336640 0.000000 0.914871
O O19 0.250000 0.750000 0.000000
O O20 0.502200 0.500000 0.854132
O O21 0.674223 0.500000 0.519912
O O22 0.750000 0.250000 0.500000
#
# Coordination Sequence:
#
# PCOD9224927 Si02
#       8
#     8   8   8   8   8   8   8   8
#     4   9  19  35  57  86 117 154 196 238 290 350
#     4  10  20  37  63  92 119 151 199 252 294 345
#     4  11  25  42  61  87 122 162 200 244 305 366
#     4  10  21  38  63  91 121 156 198 247 297 353
#     4   9  18  34  58  87 119 154 195 240 290 349
#     4  11  21  38  61  86 119 156 201 248 298 356
#     4  11  23  39  62  90 118 155 203 252 301 354
#     4  11  25  43  62  85 119 160 200 246 302 360
#
# _framework density 9.8765429999999999
#
# number of rings (size 3 to 8) (size 9 to 14) (size 15 to 20)
#    0.000    1.750    2.500    1.500    3.500    2.250 
#    0.000    0.625    0.000    1.500    0.000    0.000 
#    0.000    0.000    0.000    0.000    0.000    0.000 
#
# Total GULP energy -178329.117728 kJ/mol
# GULP energy per Si atom -5572.784929 kJ/mol
# Density = 0.985406 g / cm^3
# Si number density = 9.876543 Si / 1000 Ang^3
#
#
#
# Elastic Constant Matrix: (Units=GPa)
#
#
# Indices 1 2 3 4 5 6 
#
# 1 121.2460 40.8850 35.1949 0.0005 39.6965 -0.0004
# 2 40.8850 40.9338 21.8983 0.0011 12.2532 -0.0031
# 3 35.1949 21.8983 59.8966 0.0005 29.0174 -0.0006
# 4 0.0005 0.0011 0.0005 16.5420 0.0000 13.2834
# 5 39.6965 12.2532 29.0174 0.0000 34.8511 -0.0002
# 6 -0.0004 -0.0031 -0.0006 13.2834 -0.0002 6.2916
#
#
#
# Elastic Compliance Matrix: (Units=1/GPa)
#
#
# Indices 1 2 3 4 5 6 
#
# 1 0.018205 -0.014558 0.003673 -0.000008 -0.018676 0.000010
# 2 -0.014558 0.042131 -0.012916 0.000025 0.012523 -0.000034
# 3 0.003673 -0.012916 0.031990 -0.000004 -0.026277 0.000005
# 4 -0.000008 0.000025 -0.000004 -0.086933 0.000004 0.183542
# 5 -0.018676 0.012523 -0.026277 0.000004 0.067442 -0.000005
# 6 0.000010 -0.000034 0.000005 0.183542 -0.000005 -0.228567
#
#
# Mechanical properties :
#
#
# Convention : Reuss Voigt Hill
#
# Bulk Modulus (GPa) = 22.35941 46.44809 34.40375
# Shear Modulus (GPa) = -53.63484 19.81015 -16.91234
#
# Velocity S-wave (km/s) = -5.21647 3.17028 -2.92924
# Velocity P-wave (km/s) = 4.99380 6.07999 2.45237
#
# Compressibility (1/GPa) = 0.04472390
#
# Stress axis : x y z
#
# Youngs Moduli (GPa) = 54.92951 23.73544 31.26013
#
# Poissons Ratio (x) = 0.34554 -0.11481
# Poissons Ratio (y) = 0.79965 0.40376
# Poissons Ratio (z) = -0.20175 0.30657
#
# Static dielectric constant tensor:
#      x y z
#    x 1.690260 -0.000120 -0.047570 
#    y -0.000120 7.442050 0.000180 
#    z -0.047570 0.000180 1.759200 
# 
# From -- ./inp_files/382356.got.cif
#   From: 2010.05.17/outbox.ucp.g08.bks.cvg/sg12_192_cif.got.tgz:382356.got - 2010.06.11 11:47:21.
