data_PCOD9224665
_publ_section_title
;
Structure prediction by ZEFSAII (Michael W. Deem and Ramdas Pophale) SiO2 
 PCOD9224665
Probable space group: C 2/M
;
_chemical_formula_sum "Si O2"
_cell_formula_units_Z 32
_cell_length_a 12.000000
_cell_length_b 15.000000
_cell_length_c 27.000000
_cell_angle_alpha 90.000000
_cell_angle_beta 40.000000
_cell_angle_gamma 90.000000
_cell_volume 3123.947783
_symmetry_space_group_name_H-M "C 2/M"
_symmetry_group_IT_number 12
_symmetry_cell_setting 'monoclinic'
loop_
_space_group_symop_operation_xyz
x,y,z
-x,y,-z
-x,-y,-z
x,-y,z
1/2+x,1/2+y,z
1/2-x,1/2+y,-z
1/2-x,1/2-y,-z
1/2+x,1/2-y,z
loop_
_atom_site_type_symbol
_atom_site_label
_atom_site_fract_x
_atom_site_fract_y
_atom_site_fract_z
Si Si1 0.581036 0.898155 0.100428
Si Si2 0.093739 0.716451 0.920224
Si Si3 0.021568 0.100764 0.067331
Si Si4 0.347170 0.395170 0.585181
Si Si5 0.604801 0.400318 0.779038
Si Si6 0.239314 0.105939 0.274117
Si Si7 0.466260 0.900340 0.710561
Si Si8 0.936438 0.796069 0.758566
O O1 0.516488 0.819727 0.087428
O O2 0.447201 0.884993 0.191985
O O3 0.540152 0.000000 0.097380
O O4 0.788920 0.893301 0.022597
O O5 0.284324 0.681415 0.849177
O O6 0.092858 0.822875 0.918038
O O7 0.000000 0.682745 0.000000
O O8 0.004563 0.117404 0.132603
O O9 0.956434 0.000000 0.081595
O O10 0.500000 0.354576 0.500000
O O11 0.388644 0.500000 0.577361
O O12 0.314245 0.363130 0.652666
O O13 0.159519 0.390807 0.622825
O O14 0.553732 0.500000 0.780267
O O15 0.594295 0.335976 0.735420
O O16 0.803140 0.401175 0.729922
O O17 0.128342 0.158092 0.270228
O O18 0.203675 0.000000 0.281790
O O19 0.442904 0.809053 0.748321
O O20 0.466594 0.000000 0.735232
#
# Coordination Sequence:
#
# PCOD9224665 Si02
#       8
#     8   8   8   8   8   8   8   8
#     4   9  19  34  52  75 109 149 192 248 300 342
#     4  11  22  33  48  79 110 151 200 252 291 345
#     4  10  20  36  53  74 112 159 199 245 295 348
#     4   9  19  38  65  91 118 154 191 236 297 361
#     4  10  21  39  60  84 119 164 207 243 292 352
#     4   9  19  36  59  91 120 149 198 252 299 351
#     4  10  22  39  61  89 121 157 197 240 294 358
#     4  11  22  35  61  86 119 162 201 248 296 347
#
# _framework density 10.243449
#
# number of rings (size 3 to 8) (size 9 to 14) (size 15 to 20)
#    0.000    2.125    1.250    1.500    1.750    2.000 
#    0.000    1.875    0.000    0.000    0.000    4.375 
#    0.000    0.000    0.000    0.000    0.000    0.000 
#
# Total GULP energy -178155.778732 kJ/mol
# GULP energy per Si atom -5567.368085 kJ/mol
# Density = 1.022013 g / cm^3
# Si number density = 10.243449 Si / 1000 Ang^3
#
#
#
# Elastic Constant Matrix: (Units=GPa)
#
#
# Indices 1 2 3 4 5 6 
#
# 1 76.5716 40.4364 47.1663 0.0000 1.4561 -0.0001
# 2 40.4364 64.8267 21.8409 -0.0001 -1.0875 0.0000
# 3 47.1663 21.8409 147.2259 -0.0005 1.8464 -0.0005
# 4 0.0000 -0.0001 -0.0005 6.3140 0.0001 18.9448
# 5 1.4561 -1.0875 1.8464 0.0001 11.5152 0.0002
# 6 -0.0001 0.0000 -0.0005 18.9448 0.0002 -16.4667
#
#
#
# Elastic Compliance Matrix: (Units=1/GPa)
#
#
# Indices 1 2 3 4 5 6 
#
# 1 0.023212 -0.012675 -0.005515 0.000000 -0.003248 0.000000
# 2 -0.012675 0.023201 0.000572 0.000000 0.003702 0.000000
# 3 -0.005515 0.000572 0.008482 0.000000 -0.000609 0.000000
# 4 0.000000 0.000000 0.000000 0.035575 -0.000001 0.040928
# 5 -0.003248 0.003702 -0.000609 -0.000001 0.087700 0.000000
# 6 0.000000 0.000000 0.000000 0.040928 0.000000 -0.013641
#
#
# Mechanical properties :
#
#
# Convention : Reuss Voigt Hill
#
# Bulk Modulus (GPa) = 50.86683 56.39015 53.62849
# Shear Modulus (GPa) = 24.23428 12.21787 18.22607
#
# Velocity S-wave (km/s) = 3.44309 2.44473 2.98593
# Velocity P-wave (km/s) = 6.37882 5.96269 6.17426
#
# Compressibility (1/GPa) = 0.01965918
#
# Stress axis : x y z
#
# Youngs Moduli (GPa) = 43.08034 43.10084 117.89749
#
# Poissons Ratio (x) = 0.54632 0.65025
# Poissons Ratio (y) = 0.54606 -0.06749
# Poissons Ratio (z) = 0.23760 -0.02467
#
# Static dielectric constant tensor:
#      x y z
#    x 1.787150 0.000000 -0.012260 
#    y 0.000000 1.757460 0.000000 
#    z -0.012260 0.000000 1.791050 
# 
# From -- ./inp_files/358435.got.cif
#   From: 2010.05.17/outbox.ucp.g08.bks.cvg/sg12_180_cif.got.tgz:358435.got - 2010.06.11 11:47:21.
