data_PCOD9224428
_publ_section_title
;
Structure prediction by ZEFSAII (Michael W. Deem and Ramdas Pophale) SiO2 
 PCOD9224428
Probable space group: C 2/M
;
_chemical_formula_sum "Si O2"
_cell_formula_units_Z 32
_cell_length_a 24.000000
_cell_length_b 9.000000
_cell_length_c 30.000000
_cell_angle_alpha 90.000000
_cell_angle_beta 30.000000
_cell_angle_gamma 90.000000
_cell_volume 3240.000000
_symmetry_space_group_name_H-M "C 2/M"
_symmetry_group_IT_number 12
_symmetry_cell_setting 'monoclinic'
loop_
_space_group_symop_operation_xyz
x,y,z
-x,y,-z
-x,-y,-z
x,-y,z
1/2+x,1/2+y,z
1/2-x,1/2+y,-z
1/2-x,1/2-y,-z
1/2+x,1/2-y,z
loop_
_atom_site_type_symbol
_atom_site_label
_atom_site_fract_x
_atom_site_fract_y
_atom_site_fract_z
Si Si1 0.645899 0.332311 0.592837
Si Si2 0.037970 0.680311 0.075118
Si Si3 0.062427 0.675566 0.151307
Si Si4 0.624536 0.820576 0.401515
Si Si5 0.167721 0.831255 0.682763
Si Si6 0.814836 0.178179 0.203149
Si Si7 0.694573 0.177700 0.883787
Si Si8 0.085759 0.679109 0.233447
O O1 0.631629 0.500000 0.585293
O O2 0.750000 0.250000 0.500000
O O3 0.673631 0.341636 0.625796
O O4 0.531815 0.240509 0.667844
O O5 0.019609 0.500000 0.088161
O O6 0.105697 0.723607 0.073075
O O7 0.921206 0.766955 0.157404
O O8 0.108622 0.717702 0.982523
O O9 0.078172 0.500000 0.142933
O O10 0.931505 0.715914 0.240773
O O11 0.102351 0.736057 0.170873
O O12 0.500000 0.764444 0.500000
O O13 0.714017 0.788082 0.378362
O O14 0.696450 0.775404 0.307738
O O15 0.614628 0.000000 0.405048
O O16 0.140735 0.000000 0.718229
O O17 0.839667 0.258346 0.139722
O O18 0.814111 0.000000 0.199294
O O19 0.812960 0.252565 0.810292
O O20 0.702615 0.000000 0.877083
O O21 0.086038 0.500000 0.234787
#
# Coordination Sequence:
#
# PCOD9224428 Si02
#       8
#     8   8   8   8   8   8   8   8
#     4  10  20  34  56  83 113 151 195 237 284 346
#     4  10  21  38  60  84 114 154 193 233 292 353
#     4   9  18  34  58  83 109 144 185 234 287 339
#     4   9  18  33  54  82 112 142 181 230 286 337
#     4   9  17  32  53  78 107 144 187 231 281 336
#     4  11  22  37  60  86 113 149 196 244 286 339
#     4  11  24  40  57  81 118 159 193 233 291 357
#     4  10  21  38  58  83 115 148 190 244 296 342
#
# _framework density 9.8765429999999999
#
# number of rings (size 3 to 8) (size 9 to 14) (size 15 to 20)
#    0.000    2.125    1.250    1.875    0.000    5.000 
#    0.000    2.500    0.000    3.375    0.000    0.000 
#    0.000    0.000    0.000    0.000    0.000    0.000 
#
# Total GULP energy -178269.047878 kJ/mol
# GULP energy per Si atom -5570.907746 kJ/mol
# Density = 0.985406 g / cm^3
# Si number density = 9.876543 Si / 1000 Ang^3
#
#
#
# Elastic Constant Matrix: (Units=GPa)
#
#
# Indices 1 2 3 4 5 6 
#
# 1 32.1393 0.6150 -18.3963 0.0010 2.0106 -0.0015
# 2 0.6150 33.5612 7.4426 0.0041 10.7314 -0.0030
# 3 -18.3963 7.4426 50.1774 -0.0006 18.2146 0.0013
# 4 0.0010 0.0041 -0.0006 27.0970 -0.0016 -2.4863
# 5 2.0106 10.7314 18.2146 -0.0016 18.0315 0.0066
# 6 -0.0015 -0.0030 0.0013 -2.4863 0.0066 20.9404
#
#
#
# Elastic Compliance Matrix: (Units=1/GPa)
#
#
# Indices 1 2 3 4 5 6 
#
# 1 0.054057 0.005576 0.035345 -0.000003 -0.045050 0.000016
# 2 0.005576 0.037873 0.007634 -0.000006 -0.030874 0.000014
# 3 0.035345 0.007634 0.055005 -0.000003 -0.064048 0.000020
# 4 -0.000003 -0.000006 -0.000003 0.037311 0.000009 0.004430
# 5 -0.045050 -0.030874 -0.064048 0.000009 0.143555 -0.000048
# 6 0.000016 0.000014 0.000020 0.004430 -0.000048 0.048281
#
#
# Mechanical properties :
#
#
# Convention : Reuss Voigt Hill
#
# Bulk Modulus (GPa) = 4.09757 10.57784 7.33771
# Shear Modulus (GPa) = 13.87654 21.62820 17.75237
#
# Velocity S-wave (km/s) = 2.65335 3.31256 3.00111
# Velocity P-wave (km/s) = 3.38613 4.47184 3.96631
#
# Compressibility (1/GPa) = 0.24404723
#
# Stress axis : x y z
#
# Youngs Moduli (GPa) = 18.49888 26.40378 18.18013
#
# Poissons Ratio (x) = -0.14724 -0.64258
# Poissons Ratio (y) = -0.10316 -0.13879
# Poissons Ratio (z) = -0.65384 -0.20157
#
# Static dielectric constant tensor:
#      x y z
#    x 1.765230 0.000000 0.037590 
#    y 0.000000 1.678600 0.000000 
#    z 0.037590 0.000000 1.694480 
# 
# From -- ./inp_files/382213.got.cif
#   From: 2010.05.17/outbox.ucp.g08.bks.cvg/sg12_192_cif.got.tgz:382213.got - 2010.06.11 11:47:21.
