data_PCOD9224492
_publ_section_title
;
Structure prediction by ZEFSAII (Michael W. Deem and Ramdas Pophale) SiO2 
 PCOD9224492
Probable space group: C 2/M
;
_chemical_formula_sum "Si O2"
_cell_formula_units_Z 29
_cell_length_a 15.000000
_cell_length_b 21.000000
_cell_length_c 27.000000
_cell_angle_alpha 90.000000
_cell_angle_beta 20.000000
_cell_angle_gamma 90.000000
_cell_volume 2908.881319
_symmetry_space_group_name_H-M "C 2/M"
_symmetry_group_IT_number 12
_symmetry_cell_setting 'monoclinic'
loop_
_space_group_symop_operation_xyz
x,y,z
-x,y,-z
-x,-y,-z
x,-y,z
1/2+x,1/2+y,z
1/2-x,1/2+y,-z
1/2-x,1/2-y,-z
1/2+x,1/2-y,z
loop_
_atom_site_type_symbol
_atom_site_label
_atom_site_fract_x
_atom_site_fract_y
_atom_site_fract_z
Si Si1 0.138547 0.655615 0.053647
Si Si2 0.386230 0.929832 0.109565
Si Si3 0.856651 0.337064 0.406372
Si Si4 0.647675 0.258904 0.322986
Si Si5 0.790322 0.899291 0.414581
Si Si6 0.500000 0.000000 0.500000
Si Si7 0.947242 0.805070 0.245360
Si Si8 0.793268 0.329642 0.867124
O O1 0.205007 0.645225 0.076694
O O2 0.969244 0.600889 0.117283
O O3 0.934300 0.714716 0.159445
O O4 0.373313 0.662497 0.891392
O O5 0.076098 0.930565 0.270035
O O6 0.503940 0.000000 0.047441
O O7 0.500000 0.896801 0.000000
O O8 0.563519 0.311424 0.550559
O O9 0.819397 0.381236 0.474136
O O10 0.027877 0.278578 0.339262
O O11 0.007079 0.359208 0.278203
O O12 0.694924 0.215136 0.345762
O O13 0.863863 0.842928 0.337566
O O14 0.592190 0.945065 0.491007
O O15 0.105247 0.742771 0.180090
O O16 0.500000 0.332769 0.000000
#
# Coordination Sequence:
#
# PCOD9224492 Si02
#       8
#     8   8   8   8   8   2   8   8
#     4  11  22  38  64  92 129 164 213 258 305 374
#     4  11  23  43  68  92 120 160 218 273 320 362
#     4  11  22  36  59  85 132 170 202 253 312 380
#     4  10  20  35  54  93 128 171 202 242 306 381
#     4  12  24  41  63  90 129 162 210 269 319 376
#     4  12  28  44  62  92 120 164 214 284 328 362
#     4  11  22  36  62  95 132 167 204 255 313 383
#     4  11  24  39  61  94 133 171 207 246 310 395
#
# _framework density 9.9694680000000009
#
# number of rings (size 3 to 8) (size 9 to 14) (size 15 to 20)
#    0.000    0.966    3.448    5.793    1.931    4.414 
#    0.000    0.000    1.517    1.241    0.000    0.000 
#    0.000    0.000    0.000    0.000    0.000    0.000 
#
# Total GULP energy -161489.260979 kJ/mol
# GULP energy per Si atom -5568.595206 kJ/mol
# Density = 0.994678 g / cm^3
# Si number density = 9.969468 Si / 1000 Ang^3
#
#
#
# Elastic Constant Matrix: (Units=GPa)
#
#
# Indices 1 2 3 4 5 6 
#
# 1 133.7753 30.2024 32.2631 0.1334 20.3015 0.1441
# 2 30.2024 36.4421 -1.9636 0.1419 9.2184 -0.0475
# 3 32.2631 -1.9636 80.4756 0.2712 27.0089 0.0297
# 4 0.1334 0.1419 0.2712 11.4834 -0.0906 -12.3899
# 5 20.3015 9.2184 27.0089 -0.0906 39.7110 -0.0715
# 6 0.1441 -0.0475 0.0297 -12.3899 -0.0715 32.2858
#
#
#
# Elastic Compliance Matrix: (Units=1/GPa)
#
#
# Indices 1 2 3 4 5 6 
#
# 1 0.010592 -0.008910 -0.004329 0.000042 -0.000402 -0.000041
# 2 -0.008910 0.037611 0.007639 -0.000927 -0.009374 -0.000288
# 3 -0.004329 0.007639 0.018407 -0.001004 -0.012082 -0.000398
# 4 0.000042 -0.000927 -0.001004 0.148699 0.001319 0.057067
# 5 -0.000402 -0.009374 -0.012082 0.001319 0.035785 0.000584
# 6 -0.000041 -0.000288 -0.000398 0.057067 0.000584 0.052875
#
#
# Mechanical properties :
#
#
# Convention : Reuss Voigt Hill
#
# Bulk Modulus (GPa) = 18.04715 41.29964 29.67340
# Shear Modulus (GPa) = 14.98628 29.37545 22.18087
#
# Velocity S-wave (km/s) = 2.74452 3.84248 3.33894
# Velocity P-wave (km/s) = 4.37196 6.35958 5.45703
#
# Compressibility (1/GPa) = 0.05541041
#
# Stress axis : x y z
#
# Youngs Moduli (GPa) = 94.41187 26.58773 54.32854
#
# Poissons Ratio (x) = 0.23690 0.23518
# Poissons Ratio (y) = 0.84121 -0.41503
# Poissons Ratio (z) = 0.40869 -0.20311
#
# Static dielectric constant tensor:
#      x y z
#    x 1.718900 0.000050 0.001560 
#    y 0.000050 1.742780 -0.000070 
#    z 0.001560 -0.000070 1.738410 
# 
# From -- ./inp_files/362082.got.cif
#   From: 2010.05.17/outbox.ucp.g08.bks.cvg/sg12_182_cif.got.tgz:362082.got - 2010.06.11 11:47:21.
