data_PCOD9224472
_publ_section_title
;
Structure prediction by ZEFSAII (Michael W. Deem and Ramdas Pophale) SiO2 
 PCOD9224472
Probable space group: C 2/M
;
_chemical_formula_sum "Si O2"
_cell_formula_units_Z 28
_cell_length_a 30.000000
_cell_length_b 9.000000
_cell_length_c 18.000000
_cell_angle_alpha 90.000000
_cell_angle_beta 40.000000
_cell_angle_gamma 90.000000
_cell_volume 3123.947783
_symmetry_space_group_name_H-M "C 2/M"
_symmetry_group_IT_number 12
_symmetry_cell_setting 'monoclinic'
loop_
_space_group_symop_operation_xyz
x,y,z
-x,y,-z
-x,-y,-z
x,-y,z
1/2+x,1/2+y,z
1/2-x,1/2+y,-z
1/2-x,1/2-y,-z
1/2+x,1/2-y,z
loop_
_atom_site_type_symbol
_atom_site_label
_atom_site_fract_x
_atom_site_fract_y
_atom_site_fract_z
Si Si1 0.123983 0.679567 0.212573
Si Si2 0.693986 0.820810 0.823348
Si Si3 0.036932 0.321327 0.585660
Si Si4 0.475083 0.179578 0.232928
Si Si5 0.334528 0.820157 0.675594
Si Si6 0.928523 0.680113 0.131159
Si Si7 0.626912 0.678165 0.053593
O O1 0.126158 0.500000 0.198898
O O2 0.162593 0.714583 0.240107
O O3 0.149390 0.760127 0.105630
O O4 0.042689 0.724981 0.325287
O O5 0.770951 0.757617 0.715414
O O6 0.638665 0.773772 0.830380
O O7 0.693788 0.000000 0.827582
O O8 0.669477 0.750962 0.932499
O O9 0.035378 0.500000 0.581126
O O10 0.057385 0.287161 0.644933
O O11 0.093501 0.270484 0.454417
O O12 0.432962 0.220949 0.212547
O O13 0.548506 0.263347 0.140082
O O14 0.487921 0.000000 0.213723
O O15 0.328713 0.000000 0.676807
O O16 0.928974 0.500000 0.128044
O O17 0.000000 0.730061 0.000000
O O18 0.630829 0.500000 0.046727
#
# Coordination Sequence:
#
# PCOD9224472 Si02
#       7
#     8   8   8   8   8   8   8
#     4   9  18  34  57  78 100 137 179 213 251 306
#     4  11  22  36  53  74 105 142 177 210 255 315
#     4   8  15  30  56  82 102 131 174 217 252 296
#     4   9  16  32  57  81 103 133 175 215 253 301
#     4  10  20  35  53  77 107 137 174 218 258 299
#     4   9  16  30  55  80 100 131 177 216 246 301
#     4  11  21  33  51  79 109 133 166 217 269 309
#
# _framework density 8.9630179999999999
#
# number of rings (size 3 to 8) (size 9 to 14) (size 15 to 20)
#    0.000    2.429    1.429    3.000    0.000    2.857 
#    0.000    5.714    0.000    4.286    0.000    0.000 
#    0.000    0.000    0.000    0.000    0.000    0.000 
#
# Total GULP energy -156118.295568 kJ/mol
# GULP energy per Si atom -5575.653413 kJ/mol
# Density = 0.894262 g / cm^3
# Si number density = 8.963018 Si / 1000 Ang^3
#
#
#
# Elastic Constant Matrix: (Units=GPa)
#
#
# Indices 1 2 3 4 5 6 
#
# 1 116.7152 18.8242 6.7741 0.0007 5.9473 -0.0010
# 2 18.8242 39.6764 3.8240 -0.0048 3.6709 0.0029
# 3 6.7741 3.8240 14.6560 0.0001 5.0027 -0.0005
# 4 0.0007 -0.0048 0.0001 16.3675 0.0001 -5.6169
# 5 5.9473 3.6709 5.0027 0.0001 22.4851 -0.0002
# 6 -0.0010 0.0029 -0.0005 -5.6169 -0.0002 20.8825
#
#
#
# Elastic Compliance Matrix: (Units=1/GPa)
#
#
# Indices 1 2 3 4 5 6 
#
# 1 0.009457 -0.004098 -0.002897 -0.000001 -0.001188 0.000001
# 2 -0.004098 0.027811 -0.004526 0.000008 -0.002450 -0.000002
# 3 -0.002897 -0.004526 0.076010 -0.000001 -0.015406 0.000002
# 4 -0.000001 0.000008 -0.000001 0.067310 -0.000001 0.018105
# 5 -0.001188 -0.002450 -0.015406 -0.000001 0.048616 0.000000
# 6 0.000001 -0.000002 0.000002 0.018105 0.000000 0.052757
#
#
# Mechanical properties :
#
#
# Convention : Reuss Voigt Hill
#
# Bulk Modulus (GPa) = 11.08191 25.54358 18.31274
# Shear Modulus (GPa) = 14.92179 21.38873 18.15526
#
# Velocity S-wave (km/s) = 2.88828 3.45797 3.18588
# Velocity P-wave (km/s) = 4.16153 5.49762 4.87556
#
# Compressibility (1/GPa) = 0.09023717
#
# Stress axis : x y z
#
# Youngs Moduli (GPa) = 105.73685 35.95700 13.15620
#
# Poissons Ratio (x) = 0.14735 0.03811
# Poissons Ratio (y) = 0.43330 0.05955
# Poissons Ratio (z) = 0.30627 0.16274
#
# Static dielectric constant tensor:
#      x y z
#    x 1.618240 0.000000 0.002150 
#    y 0.000000 1.596660 0.000000 
#    z 0.002150 0.000000 1.640050 
# 
# From -- ./inp_files/288241.got.cif
#   From: 2010.05.17/outbox.ucp.g08.bks.cvg/sg12_145_cif.got.tgz:288241.got - 2010.06.11 11:47:21.
