data_PCOD9224109
_publ_section_title
;
Structure prediction by ZEFSAII (Michael W. Deem and Ramdas Pophale) SiO2 
 PCOD9224109
Probable space group: C 2/M
;
_chemical_formula_sum "Si O2"
_cell_formula_units_Z 32
_cell_length_a 30.000000
_cell_length_b 9.000000
_cell_length_c 24.000000
_cell_angle_alpha 90.000000
_cell_angle_beta 150.000000
_cell_angle_gamma 90.000000
_cell_volume 3240.000000
_symmetry_space_group_name_H-M "C 2/M"
_symmetry_group_IT_number 12
_symmetry_cell_setting 'monoclinic'
loop_
_space_group_symop_operation_xyz
x,y,z
-x,y,-z
-x,-y,-z
x,-y,z
1/2+x,1/2+y,z
1/2-x,1/2+y,-z
1/2-x,1/2-y,-z
1/2+x,1/2-y,z
loop_
_atom_site_type_symbol
_atom_site_label
_atom_site_fract_x
_atom_site_fract_y
_atom_site_fract_z
Si Si1 0.656470 0.820676 0.978728
Si Si2 0.224553 0.322400 0.253886
Si Si3 0.152546 0.679316 0.391140
Si Si4 0.898841 0.179754 0.387846
Si Si5 0.018467 0.678056 0.730333
Si Si6 0.090970 0.676038 0.201541
Si Si7 0.589372 0.323115 0.020116
Si Si8 0.645248 0.322850 0.785145
O O1 0.590146 0.784621 0.856535
O O2 0.622373 0.737781 0.996376
O O3 0.652785 0.000000 0.983508
O O4 0.760647 0.779226 0.084938
O O5 0.221574 0.500000 0.239264
O O6 0.325815 0.270737 0.353914
O O7 0.183978 0.298823 0.270752
O O8 0.156163 0.244983 0.137689
O O9 0.161256 0.500000 0.402334
O O10 0.250000 0.750000 0.500000
O O11 0.104982 0.716679 0.280906
O O12 0.080802 0.726805 0.360119
O O13 0.855218 0.213662 0.280736
O O14 0.000000 0.237483 0.500000
O O15 0.905117 0.000000 0.399117
O O16 0.017326 0.500000 0.724622
O O17 0.060108 0.748786 0.720826
O O18 0.069378 0.500000 0.175320
O O19 0.011770 0.763583 0.085795
O O20 0.590809 0.500000 0.024353
O O21 0.637150 0.500000 0.781630
#
# Coordination Sequence:
#
# PCOD9224109 Si02
#       8
#     8   8   8   8   8   8   8   8
#     4  10  19  37  60  82 113 151 188 229 280 342
#     4  10  20  37  61  84 112 152 192 231 281 342
#     4  10  22  40  60  84 114 151 194 239 284 329
#     4   9  18  34  57  85 112 142 189 241 277 314
#     4  10  21  37  58  82 116 151 183 230 283 339
#     4  10  21  39  62  84 111 153 195 230 279 345
#     4  12  23  34  56  88 120 149 182 235 291 342
#     4  10  20  34  58  87 115 146 184 233 280 332
#
# _framework density 9.8765429999999999
#
# number of rings (size 3 to 8) (size 9 to 14) (size 15 to 20)
#    0.000    1.875    2.500    1.875    0.000    5.000 
#    0.000    2.500    0.000    1.500    0.000    0.000 
#    0.000    0.000    0.000    0.000    0.000    0.000 
#
# Total GULP energy -178623.680279 kJ/mol
# GULP energy per Si atom -5581.990009 kJ/mol
# Density = 0.985406 g / cm^3
# Si number density = 9.876543 Si / 1000 Ang^3
#
#
#
# Elastic Constant Matrix: (Units=GPa)
#
#
# Indices 1 2 3 4 5 6 
#
# 1 94.0412 15.0726 10.6498 0.0000 39.0276 0.0000
# 2 15.0726 5.6453 3.7860 0.0000 8.9758 0.0000
# 3 10.6498 3.7860 66.8831 0.0000 40.9625 0.0000
# 4 0.0000 0.0000 0.0000 19.7725 0.0000 7.9678
# 5 39.0276 8.9758 40.9625 0.0000 36.0411 0.0000
# 6 0.0000 0.0000 0.0000 7.9678 0.0000 18.0920
#
#
#
# Elastic Compliance Matrix: (Units=1/GPa)
#
#
# Indices 1 2 3 4 5 6 
#
# 1 -0.041183 -0.157142 -0.117886 0.000000 0.217715 0.000000
# 2 -0.157142 0.122330 -0.221969 0.000000 0.391977 0.000000
# 3 -0.117886 -0.221969 -0.216343 0.000000 0.428820 0.000000
# 4 0.000000 0.000000 0.000000 0.061488 0.000000 -0.027079
# 5 0.217715 0.391977 0.428820 0.000000 -0.793004 0.000000
# 6 0.000000 0.000000 0.000000 -0.027079 0.000000 0.067199
#
#
# Mechanical properties :
#
#
# Convention : Reuss Voigt Hill
#
# Bulk Modulus (GPa) = -0.88559 25.06515 12.08978
# Shear Modulus (GPa) = -27.48516 23.91852 -1.78332
#
# Velocity S-wave (km/s) = -3.73424 3.48354 -0.95119
# Velocity P-wave (km/s) = 4.36372 5.37558 2.21977
#
# Compressibility (1/GPa) = -1.12919085
#
# Stress axis : x y z
#
# Youngs Moduli (GPa) = -24.28187 8.17464 -4.62229
#
# Poissons Ratio (x) = 1.28458 -0.54491
# Poissons Ratio (y) = -3.81570 -1.02600
# Poissons Ratio (z) = -2.86250 1.81451
#
# Static dielectric constant tensor:
#      x y z
#    x 1.732680 0.000000 0.018910 
#    y 0.000000 1.657940 0.000000 
#    z 0.018910 0.000000 1.677290 
# 
# From -- ./inp_files/353504.got.cif
#   From: 2010.05.17/outbox.ucp.g08.bks.cvg/sg12_177_cif.got.tgz:353504.got - 2010.06.11 11:47:21.
