data_PCOD9224777
_publ_section_title
;
Structure prediction by ZEFSAII (Michael W. Deem and Ramdas Pophale) SiO2 
 PCOD9224777
Probable space group: C 2/M
;
_chemical_formula_sum "Si O2"
_cell_formula_units_Z 24
_cell_length_a 18.000000
_cell_length_b 9.000000
_cell_length_c 30.000000
_cell_angle_alpha 90.000000
_cell_angle_beta 30.000000
_cell_angle_gamma 90.000000
_cell_volume 2430.000000
_symmetry_space_group_name_H-M "C 2/M"
_symmetry_group_IT_number 12
_symmetry_cell_setting 'monoclinic'
loop_
_space_group_symop_operation_xyz
x,y,z
-x,y,-z
-x,-y,-z
x,-y,z
1/2+x,1/2+y,z
1/2-x,1/2+y,-z
1/2-x,1/2-y,-z
1/2+x,1/2-y,z
loop_
_atom_site_type_symbol
_atom_site_label
_atom_site_fract_x
_atom_site_fract_y
_atom_site_fract_z
Si Si1 0.256008 0.175285 0.273420
Si Si2 0.618095 0.321607 0.879579
Si Si3 0.460961 0.173879 0.424319
Si Si4 0.874674 0.174778 0.377798
Si Si5 0.320309 0.822502 0.056747
Si Si6 0.481022 0.675537 0.222977
O O1 0.289617 0.261879 0.210029
O O2 0.379416 0.225636 0.244437
O O3 0.094833 0.229023 0.373494
O O4 0.258976 0.000000 0.264071
O O5 0.622100 0.500000 0.880692
O O6 0.673375 0.246008 0.896708
O O7 0.448958 0.262001 0.963086
O O8 0.303440 0.195207 0.530683
O O9 0.434359 0.226047 0.387151
O O10 0.499103 0.000000 0.406124
O O11 0.946292 0.207029 0.292931
O O12 0.902741 0.000000 0.373773
O O13 0.155313 0.800849 0.124056
O O14 0.350076 0.000000 0.043111
O O15 0.447719 0.500000 0.232872
#
# Coordination Sequence:
#
# PCOD9224777 Si02
#       6
#     8   8   8   8   8   8
#     4  12  25  39  56  80 114 152 191 236 286 338
#     4  11  22  38  61  86 114 148 190 235 279 334
#     4  10  20  36  60  87 115 148 189 234 279 333
#     4   9  19  37  61  87 115 149 188 231 279 333
#     4  10  20  37  62  89 117 148 185 231 282 335
#     4  10  22  39  58  82 114 151 188 228 279 338
#
# _framework density 9.8765429999999999
#
# number of rings (size 3 to 8) (size 9 to 14) (size 15 to 20)
#    0.000    1.667    0.000    6.000    0.000    5.333 
#    0.000    3.333    0.000    0.000    0.000    0.000 
#    0.000    0.000    0.000    0.000    0.000    0.000 
#
# Total GULP energy -134179.206376 kJ/mol
# GULP energy per Si atom -5590.800266 kJ/mol
# Density = 0.985406 g / cm^3
# Si number density = 9.876543 Si / 1000 Ang^3
#
#
#
# Elastic Constant Matrix: (Units=GPa)
#
#
# Indices 1 2 3 4 5 6 
#
# 1 19.7743 17.3599 10.3163 0.0000 -27.1635 0.0000
# 2 17.3599 105.8377 23.5285 0.0000 -22.2950 -0.0002
# 3 10.3163 23.5285 60.1554 -0.0001 -18.9406 0.0000
# 4 0.0000 0.0000 -0.0001 27.2126 0.0000 0.1972
# 5 -27.1635 -22.2950 -18.9406 0.0000 26.6006 0.0000
# 6 0.0000 -0.0002 0.0000 0.1972 0.0000 33.3263
#
#
#
# Elastic Compliance Matrix: (Units=1/GPa)
#
#
# Indices 1 2 3 4 5 6 
#
# 1 -0.101124 -0.004623 -0.018798 0.000000 -0.120523 0.000000
# 2 -0.004623 0.011431 -0.002769 0.000000 0.002888 0.000000
# 3 -0.018798 -0.002769 0.018246 0.000000 -0.008524 0.000000
# 4 0.000000 0.000000 0.000000 0.036749 0.000000 -0.000217
# 5 -0.120523 0.002888 -0.008524 0.000000 -0.089129 0.000000
# 6 0.000000 0.000000 0.000000 -0.000217 0.000000 0.030008
#
#
# Mechanical properties :
#
#
# Convention : Reuss Voigt Hill
#
# Bulk Modulus (GPa) = -8.07588 32.01964 11.97188
# Shear Modulus (GPa) = -60.44816 26.39875 -17.02470
#
# Velocity S-wave (km/s) = -5.53790 3.65970 -2.93896
# Velocity P-wave (km/s) = 6.70734 5.83978 2.33296
#
# Compressibility (1/GPa) = -0.12382557
#
# Stress axis : x y z
#
# Youngs Moduli (GPa) = -9.88888 87.48434 54.80567
#
# Poissons Ratio (x) = 0.40443 1.03023
# Poissons Ratio (y) = -0.04572 0.15173
# Poissons Ratio (z) = -0.18589 0.24221
#
# Static dielectric constant tensor:
#      x y z
#    x 1.677690 0.000000 -0.028030 
#    y 0.000000 1.657280 0.000000 
#    z -0.028030 0.000000 1.705780 
# 
# From -- ./inp_files/274079.got.cif
#   From: 2010.05.17/outbox.ucp.g08.bks.cvg/sg12_138_cif.got.tgz:274079.got - 2010.06.11 11:47:21.
