data_PCOD9224174
_publ_section_title
;
Structure prediction by ZEFSAII (Michael W. Deem and Ramdas Pophale) SiO2 
 PCOD9224174
Probable space group: C 2/M
;
_chemical_formula_sum "Si O2"
_cell_formula_units_Z 19
_cell_length_a 18.000000
_cell_length_b 9.000000
_cell_length_c 24.000000
_cell_angle_alpha 90.000000
_cell_angle_beta 150.000000
_cell_angle_gamma 90.000000
_cell_volume 1944.000000
_symmetry_space_group_name_H-M "C 2/M"
_symmetry_group_IT_number 12
_symmetry_cell_setting 'monoclinic'
loop_
_space_group_symop_operation_xyz
x,y,z
-x,y,-z
-x,-y,-z
x,-y,z
1/2+x,1/2+y,z
1/2-x,1/2+y,-z
1/2-x,1/2-y,-z
1/2+x,1/2-y,z
loop_
_atom_site_type_symbol
_atom_site_label
_atom_site_fract_x
_atom_site_fract_y
_atom_site_fract_z
Si Si1 0.673911 0.000000 0.590079
Si Si2 0.000000 0.000000 0.500000
Si Si3 0.448773 0.000000 0.706022
Si Si4 0.587972 0.734733 0.733576
Si Si5 0.942900 0.500000 0.835973
Si Si6 0.706965 0.257990 0.693244
Si Si7 0.841076 0.500000 0.930762
Si Si8 0.818170 0.000000 0.557987
O O1 0.500000 0.000000 0.500000
O O2 0.737862 0.857427 0.663920
O O3 0.724754 0.000000 0.557117
O O4 0.914550 0.872179 0.408408
O O5 0.543648 0.141532 0.748910
O O6 0.425283 0.000000 0.757231
O O7 0.297084 0.000000 0.569269
O O8 0.636859 0.801508 0.705312
O O9 0.729732 0.636600 0.844547
O O10 0.435480 0.636966 0.629483
O O11 0.853825 0.355002 0.799187
O O12 0.103532 0.500000 0.969040
O O13 0.000000 0.500000 0.000000
#
# Coordination Sequence:
#
# PCOD9224174 Si02
#       8
#     4   2   4   8   4   8   4   4
#     4  12  23  39  60  92 140 175 202 262 322 381
#     4  10  20  30  58  86 124 152 222 244 296 376
#     4  12  26  39  61 103 136 161 213 269 333 385
#     4  11  24  43  68  95 130 175 211 269 329 381
#     4  11  24  41  67  93 121 171 222 269 307 394
#     4  11  22  37  63  94 122 170 220 258 314 378
#     4  11  21  48  71  89 122 171 231 270 322 377
#     4  11  24  42  62  94 143 175 200 255 333 397
#
# _framework density 9.7736630000000009
#
# number of rings (size 3 to 8) (size 9 to 14) (size 15 to 20)
#    0.000    0.842    3.158    5.684    5.895    0.842 
#    0.000    1.579    0.000    0.000    0.000    0.000 
#    0.000    0.000    0.000    0.000    0.000    0.000 
#
# Total GULP energy -105773.236812 kJ/mol
# GULP energy per Si atom -5567.012464 kJ/mol
# Density = 0.975142 g / cm^3
# Si number density = 9.773663 Si / 1000 Ang^3
#
#
#
# Elastic Constant Matrix: (Units=GPa)
#
#
# Indices 1 2 3 4 5 6 
#
# 1 145.6523 19.4124 37.5561 -0.0001 -8.9990 0.0008
# 2 19.4124 67.3026 15.3204 -0.0008 3.4722 0.0032
# 3 37.5561 15.3204 130.1218 -0.0023 0.7728 0.0090
# 4 -0.0001 -0.0008 -0.0023 49.9729 0.0001 -92.2628
# 5 -8.9990 3.4722 0.7728 0.0001 37.6328 0.0002
# 6 0.0008 0.0032 0.0090 -92.2628 0.0002 269.4318
#
#
#
# Elastic Compliance Matrix: (Units=1/GPa)
#
#
# Indices 1 2 3 4 5 6 
#
# 1 0.007769 -0.001885 -0.002033 0.000000 0.002073 0.000000
# 2 -0.001885 0.015796 -0.001305 0.000000 -0.001881 0.000000
# 3 -0.002033 -0.001305 0.008429 0.000000 -0.000539 0.000000
# 4 0.000000 0.000000 0.000000 0.054410 0.000000 0.018632
# 5 0.002073 -0.001881 -0.000539 0.000000 0.027253 0.000000
# 6 0.000000 0.000000 0.000000 0.018632 0.000000 0.010092
#
#
# Mechanical properties :
#
#
# Convention : Reuss Voigt Hill
#
# Bulk Modulus (GPa) = 46.40589 54.18382 50.29486
# Shear Modulus (GPa) = 35.36653 89.46001 62.41327
#
# Velocity S-wave (km/s) = 4.25817 6.77239 5.65673
# Velocity P-wave (km/s) = 6.92588 9.43043 8.27348
#
# Compressibility (1/GPa) = 0.02154899
#
# Stress axis : x y z
#
# Youngs Moduli (GPa) = 128.71414 63.30703 118.64383
#
# Poissons Ratio (x) = 0.11934 0.24117
# Poissons Ratio (y) = 0.24265 0.15477
# Poissons Ratio (z) = 0.26164 0.08259
#
# Static dielectric constant tensor:
#      x y z
#    x 1.700330 0.000000 -0.006580 
#    y 0.000000 1.793180 0.000000 
#    z -0.006580 0.000000 1.670600 
# 
# From -- ./inp_files/152035.got.cif
#   From: 2010.05.17/outbox.ucp.g08.bks.cvg/sg12_77_cif.got.tgz:152035.got - 2010.06.11 11:47:21.
