data_PCOD9224794
_publ_section_title
;
Structure prediction by ZEFSAII (Michael W. Deem and Ramdas Pophale) SiO2 
 PCOD9224794
Probable space group: C 2/M
;
_chemical_formula_sum "Si O2"
_cell_formula_units_Z 32
_cell_length_a 21.000000
_cell_length_b 18.000000
_cell_length_c 24.000000
_cell_angle_alpha 90.000000
_cell_angle_beta 20.000000
_cell_angle_gamma 90.000000
_cell_volume 3102.806740
_symmetry_space_group_name_H-M "C 2/M"
_symmetry_group_IT_number 12
_symmetry_cell_setting 'monoclinic'
loop_
_space_group_symop_operation_xyz
x,y,z
-x,y,-z
-x,-y,-z
x,-y,z
1/2+x,1/2+y,z
1/2-x,1/2+y,-z
1/2-x,1/2-y,-z
1/2+x,1/2-y,z
loop_
_atom_site_type_symbol
_atom_site_label
_atom_site_fract_x
_atom_site_fract_y
_atom_site_fract_z
Si Si1 0.262647 0.579188 0.444403
Si Si2 0.035576 0.411932 0.185456
Si Si3 0.055589 0.079974 0.107030
Si Si4 0.944936 0.865517 0.713502
Si Si5 0.494120 0.804855 0.688026
Si Si6 0.986769 0.634013 0.918820
Si Si7 0.865200 0.914563 0.663520
Si Si8 0.927293 0.194617 0.998245
O O1 0.154823 0.500000 0.536549
O O2 0.398749 0.573896 0.281043
O O3 0.398876 0.585157 0.385977
O O4 0.148859 0.654077 0.525215
O O5 0.995662 0.500000 0.224755
O O6 0.962442 0.386306 0.186003
O O7 0.970505 0.353481 0.285357
O O8 0.258011 0.402137 0.011124
O O9 0.092146 0.000000 0.049413
O O10 0.996528 0.139254 0.110380
O O11 0.946796 0.863713 0.645260
O O12 0.990802 0.783141 0.699155
O O13 0.730269 0.891732 0.899102
O O14 0.293415 0.818876 0.826111
O O15 0.150809 0.602663 0.823176
O O16 0.972101 0.721158 0.943962
O O17 0.000000 0.906919 0.500000
O O18 0.874302 0.000000 0.675364
O O19 0.000000 0.181574 0.000000
#
# Coordination Sequence:
#
# PCOD9224794 Si02
#       8
#     8   8   8   8   8   8   8   8
#     4  11  22  38  60  90 126 159 201 259 316 368
#     4  10  20  36  60  91 122 162 204 251 308 364
#     4   9  20  37  59  89 120 155 205 256 307 368
#     4  11  23  40  63  89 123 168 211 252 307 363
#     4  10  23  38  61  90 125 157 205 257 309 369
#     4  11  22  38  65  90 124 166 209 252 300 368
#     4  11  26  43  60  91 131 168 208 251 300 365
#     4  10  22  41  64  89 120 161 206 255 309 371
#
# _framework density 10.313243
#
# number of rings (size 3 to 8) (size 9 to 14) (size 15 to 20)
#    0.000    1.625    1.250    3.375    3.500    5.250 
#    0.000    0.625    0.000    1.500    0.000    0.000 
#    0.000    0.000    0.000    0.000    0.000    0.000 
#
# Total GULP energy -178327.281853 kJ/mol
# GULP energy per Si atom -5572.727558 kJ/mol
# Density = 1.028977 g / cm^3
# Si number density = 10.313243 Si / 1000 Ang^3
#
#
#
# Elastic Constant Matrix: (Units=GPa)
#
#
# Indices 1 2 3 4 5 6 
#
# 1 119.0830 47.6415 10.0947 -0.4383 5.2668 0.0295
# 2 47.6415 25.3727 38.2388 0.4089 -20.3411 0.0029
# 3 10.0947 38.2388 62.0091 0.6466 1.8158 -0.0994
# 4 -0.4383 0.4089 0.6466 73.7716 0.1392 -8.4851
# 5 5.2668 -20.3411 1.8158 0.1392 9.4315 -0.0159
# 6 0.0295 0.0029 -0.0994 -8.4851 -0.0159 36.4969
#
#
#
# Elastic Compliance Matrix: (Units=1/GPa)
#
#
# Indices 1 2 3 4 5 6 
#
# 1 0.005757 0.006423 -0.005239 0.000021 0.011646 -0.000009
# 2 0.006423 -0.013967 0.008602 0.000110 -0.035367 0.000030
# 3 -0.005239 0.008602 0.011111 -0.000214 0.019341 -0.000007
# 4 0.000021 0.000110 -0.000214 0.013929 0.000067 0.003238
# 5 0.011646 -0.035367 0.019341 0.000067 0.019523 0.000070
# 6 -0.000009 0.000030 -0.000007 0.003238 0.000070 0.028152
#
#
# Mechanical properties :
#
#
# Convention : Reuss Voigt Hill
#
# Bulk Modulus (GPa) = 44.49958 44.26833 44.38395
# Shear Modulus (GPa) = 95.37417 31.30599 63.34008
#
# Velocity S-wave (km/s) = 6.80728 3.90007 5.54750
# Velocity P-wave (km/s) = 9.13270 6.46445 7.91187
#
# Compressibility (1/GPa) = 0.02247212
#
# Stress axis : x y z
#
# Youngs Moduli (GPa) = 173.70388 -71.59808 90.00021
#
# Poissons Ratio (x) = 0.45989 0.47155
# Poissons Ratio (y) = -1.11573 -0.77416
# Poissons Ratio (z) = 0.91010 0.61587
#
# Static dielectric constant tensor:
#      x y z
#    x 1.703230 0.000010 0.084570 
#    y 0.000010 1.790190 0.000060 
#    z 0.084570 0.000060 1.853400 
# 
# From -- ./inp_files/347885.got.cif
#   From: 2010.05.17/outbox.ucp.g08.bks.cvg/sg12_174_cif.got.tgz:347885.got - 2010.06.11 11:47:21.
