data_PCOD9224011
_publ_section_title
;
Structure prediction by ZEFSAII (Michael W. Deem and Ramdas Pophale) SiO2 
 PCOD9224011
Probable space group: C 2/M
;
_chemical_formula_sum "Si O2"
_cell_formula_units_Z 20
_cell_length_a 24.000000
_cell_length_b 9.000000
_cell_length_c 30.000000
_cell_angle_alpha 90.000000
_cell_angle_beta 20.000000
_cell_angle_gamma 90.000000
_cell_volume 2216.290529
_symmetry_space_group_name_H-M "C 2/M"
_symmetry_group_IT_number 12
_symmetry_cell_setting 'monoclinic'
loop_
_space_group_symop_operation_xyz
x,y,z
-x,y,-z
-x,-y,-z
x,-y,z
1/2+x,1/2+y,z
1/2-x,1/2+y,-z
1/2-x,1/2-y,-z
1/2+x,1/2-y,z
loop_
_atom_site_type_symbol
_atom_site_label
_atom_site_fract_x
_atom_site_fract_y
_atom_site_fract_z
Si Si1 0.297313 0.823945 0.593882
Si Si2 0.632519 0.675847 0.308648
Si Si3 0.915848 0.676202 0.167096
Si Si4 0.226698 0.819241 0.137133
Si Si5 0.873936 0.824059 0.371977
O O1 0.476825 0.754010 0.449202
O O2 0.184578 0.754710 0.717533
O O3 0.198000 0.801118 0.622820
O O4 0.317611 0.000000 0.586801
O O5 0.591988 0.500000 0.336260
O O6 0.794508 0.691817 0.216386
O O7 0.682185 0.727772 0.221449
O O8 0.928691 0.500000 0.168076
O O9 0.098974 0.729406 0.015124
O O10 0.062703 0.775016 0.233780
O O11 0.237892 0.000000 0.129711
O O12 0.750000 0.750000 0.500000
O O13 0.873743 0.000000 0.381811
#
# Coordination Sequence:
#
# PCOD9224011 Si02
#       5
#     8   8   8   8   8
#     4  11  23  36  53  81 115 147 178 217 269 326
#     4  10  19  35  60  83 105 141 187 227 265 315
#     4  10  21  36  56  83 110 141 183 225 269 319
#     4   9  18  35  59  83 107 136 179 234 274 307
#     4  10  20  36  58  81 106 139 181 223 268 321
#
# _framework density 9.0240880000000008
#
# number of rings (size 3 to 8) (size 9 to 14) (size 15 to 20)
#    0.000    2.000    2.000    1.800    0.000    7.200 
#    0.000    2.000    0.000    2.400    0.000    0.000 
#    0.000    0.000    0.000    0.000    0.000    0.000 
#
# Total GULP energy -111490.145504 kJ/mol
# GULP energy per Si atom -5574.507275 kJ/mol
# Density = 0.900355 g / cm^3
# Si number density = 9.024088 Si / 1000 Ang^3
#
#
#
# Elastic Constant Matrix: (Units=GPa)
#
#
# Indices 1 2 3 4 5 6 
#
# 1 46.1853 30.0391 43.5137 0.0062 -1.6792 0.0005
# 2 30.0391 30.4498 40.3250 -0.0142 -1.3020 0.0027
# 3 43.5137 40.3250 203.5882 -0.0187 -3.6809 0.0015
# 4 0.0062 -0.0142 -0.0187 27.2310 0.0012 3.3892
# 5 -1.6792 -1.3020 -3.6809 0.0012 33.3847 0.0005
# 6 0.0005 0.0027 0.0015 3.3892 0.0005 21.2046
#
#
#
# Elastic Compliance Matrix: (Units=1/GPa)
#
#
# Indices 1 2 3 4 5 6 
#
# 1 0.060772 -0.057936 -0.001502 -0.000047 0.000632 0.000013
# 2 -0.057936 0.099770 -0.007376 0.000063 0.000164 -0.000021
# 3 -0.001502 -0.007376 0.006701 0.000001 0.000376 0.000000
# 4 -0.000047 0.000063 0.000001 0.037468 -0.000001 -0.005989
# 5 0.000632 0.000164 0.000376 -0.000001 0.030033 -0.000001
# 6 0.000013 -0.000021 0.000000 -0.005989 -0.000001 0.048117
#
#
# Mechanical properties :
#
#
# Convention : Reuss Voigt Hill
#
# Bulk Modulus (GPa) = 29.74848 56.44210 43.09529
# Shear Modulus (GPa) = 11.69060 27.45376 19.57218
#
# Velocity S-wave (km/s) = 2.54784 3.90441 3.29666
# Velocity P-wave (km/s) = 5.01736 7.18796 6.19842
#
# Compressibility (1/GPa) = 0.03361516
#
# Stress axis : x y z
#
# Youngs Moduli (GPa) = 16.45498 10.02301 149.23886
#
# Poissons Ratio (x) = 0.58069 0.22418
# Poissons Ratio (y) = 0.95333 1.10076
# Poissons Ratio (z) = 0.02472 0.07393
#
# Static dielectric constant tensor:
#      x y z
#    x 1.652250 0.000000 -0.012990 
#    y 0.000000 1.619530 0.000000 
#    z -0.012990 0.000000 1.596090 
# 
# From -- ./inp_files/92756.got.cif
#   From: 2010.05.17/outbox.ucp.g08.bks.cvg/sg12_47_cif.got.tgz:92756.got - 2010.06.11 11:47:21.
