data_PCOD9224746
_publ_section_title
;
Structure prediction by ZEFSAII (Michael W. Deem and Ramdas Pophale) SiO2 
 PCOD9224746
Probable space group: C 2/M
;
_chemical_formula_sum "Si O2"
_cell_formula_units_Z 32
_cell_length_a 18.000000
_cell_length_b 9.000000
_cell_length_c 30.000000
_cell_angle_alpha 90.000000
_cell_angle_beta 40.000000
_cell_angle_gamma 90.000000
_cell_volume 3123.947783
_symmetry_space_group_name_H-M "C 2/M"
_symmetry_group_IT_number 12
_symmetry_cell_setting 'monoclinic'
loop_
_space_group_symop_operation_xyz
x,y,z
-x,y,-z
-x,-y,-z
x,-y,z
1/2+x,1/2+y,z
1/2-x,1/2+y,-z
1/2-x,1/2-y,-z
1/2+x,1/2-y,z
loop_
_atom_site_type_symbol
_atom_site_label
_atom_site_fract_x
_atom_site_fract_y
_atom_site_fract_z
Si Si1 0.555573 0.822312 0.291865
Si Si2 0.638976 0.668727 0.068908
Si Si3 0.606357 0.327507 0.840234
Si Si4 0.790305 0.322448 0.435987
Si Si5 0.870440 0.322686 0.840837
Si Si6 0.713302 0.676744 0.294382
Si Si7 0.370448 0.681385 0.570633
Si Si8 0.622971 0.679959 0.929076
O O1 0.423182 0.792636 0.364371
O O2 0.581681 0.777548 0.229026
O O3 0.632291 0.743433 0.293473
O O4 0.577057 0.000000 0.284003
O O5 0.670874 0.500000 0.062104
O O6 0.529782 0.675759 0.086505
O O7 0.582237 0.736400 0.139137
O O8 0.750000 0.750000 0.000000
O O9 0.635243 0.500000 0.818032
O O10 0.659217 0.229621 0.777221
O O11 0.659084 0.275780 0.862726
O O12 0.775859 0.500000 0.446211
O O13 0.750000 0.250000 0.500000
O O14 0.713397 0.269294 0.430097
O O15 0.885422 0.500000 0.838586
O O16 0.733784 0.286759 0.907409
O O17 0.706885 0.500000 0.296858
O O18 0.672587 0.731111 0.361353
O O19 0.500000 0.728721 0.500000
O O20 0.369154 0.500000 0.571863
O O21 0.614130 0.500000 0.931876
O O22 0.500000 0.742196 0.000000
#
# Coordination Sequence:
#
# PCOD9224746 Si02
#       8
#     8   8   8   8   8   8   8   8
#     4  10  21  38  60  84 117 161 198 236 292 359
#     4  11  24  40  60  85 117 156 196 247 301 354
#     4  10  21  39  59  82 116 157 196 237 292 353
#     4  10  21  38  61  88 118 155 198 240 291 351
#     4  10  20  36  59  83 113 154 195 240 290 348
#     4  11  22  36  61  90 117 152 194 247 295 341
#     4   9  19  36  58  85 117 154 194 237 288 343
#     4   9  16  31  57  81 102 142 195 232 273 341
#
# _framework density 10.243449
#
# number of rings (size 3 to 8) (size 9 to 14) (size 15 to 20)
#    0.000    2.000    1.250    2.250    1.750    5.000 
#    0.000    1.250    0.000    4.875    0.000    0.000 
#    0.000    0.000    0.000    0.000    0.000    0.000 
#
# Total GULP energy -178416.873476 kJ/mol
# GULP energy per Si atom -5575.527296 kJ/mol
# Density = 1.022013 g / cm^3
# Si number density = 10.243449 Si / 1000 Ang^3
#
#
#
# Elastic Constant Matrix: (Units=GPa)
#
#
# Indices 1 2 3 4 5 6 
#
# 1 98.8924 46.4484 71.9727 0.0002 9.9709 0.0004
# 2 46.4484 16.4404 44.5165 0.0007 -6.2229 -0.0016
# 3 71.9727 44.5165 124.2226 0.0000 3.8950 -0.0003
# 4 0.0002 0.0007 0.0000 27.6215 0.0001 9.3487
# 5 9.9709 -6.2229 3.8950 0.0001 26.6682 -0.0002
# 6 0.0004 -0.0016 -0.0003 9.3487 -0.0002 -4.4373
#
#
#
# Elastic Compliance Matrix: (Units=1/GPa)
#
#
# Indices 1 2 3 4 5 6 
#
# 1 0.002756 0.037102 -0.015202 0.000002 0.009847 -0.000009
# 2 0.037102 -0.089146 0.011590 -0.000006 -0.036367 0.000024
# 3 -0.015202 0.011590 0.012498 0.000001 0.006563 -0.000004
# 4 0.000002 -0.000006 0.000001 0.021134 -0.000002 0.044525
# 5 0.009847 -0.036367 0.006563 -0.000002 0.024372 0.000008
# 6 -0.000009 0.000024 -0.000004 0.044525 0.000008 -0.131554
#
#
# Mechanical properties :
#
#
# Convention : Reuss Voigt Hill
#
# Bulk Modulus (GPa) = -144.72155 62.82564 -40.94796
# Shear Modulus (GPa) = -21.81270 15.07834 -3.36718
#
# Velocity S-wave (km/s) = -3.26654 2.71587 -1.28341
# Velocity P-wave (km/s) = 9.22070 6.36926 4.71455
#
# Compressibility (1/GPa) = -0.00690982
#
# Stress axis : x y z
#
# Youngs Moduli (GPa) = 362.78073 -11.21755 80.01036
#
# Poissons Ratio (x) = 0.41619 1.21630
# Poissons Ratio (y) = -13.45988 -0.92735
# Poissons Ratio (z) = 5.51490 0.13002
#
# Static dielectric constant tensor:
#      x y z
#    x 1.159750 0.000000 0.178250 
#    y 0.000000 1.689760 0.000000 
#    z 0.178250 0.000000 1.646220 
# 
# From -- ./inp_files/378227.got.cif
#   From: 2010.05.17/outbox.ucp.g08.bks.cvg/sg12_190_cif.got.tgz:378227.got - 2010.06.11 11:47:21.
