data_PCOD9224312
_publ_section_title
;
Structure prediction by ZEFSAII (Michael W. Deem and Ramdas Pophale) SiO2 
 PCOD9224312
Probable space group: C 2/M
;
_chemical_formula_sum "Si O2"
_cell_formula_units_Z 32
_cell_length_a 24.000000
_cell_length_b 9.000000
_cell_length_c 18.000000
_cell_angle_alpha 90.000000
_cell_angle_beta 100.000000
_cell_angle_gamma 90.000000
_cell_volume 3828.932544
_symmetry_space_group_name_H-M "C 2/M"
_symmetry_group_IT_number 12
_symmetry_cell_setting 'monoclinic'
loop_
_space_group_symop_operation_xyz
x,y,z
-x,y,-z
-x,-y,-z
x,-y,z
1/2+x,1/2+y,z
1/2-x,1/2+y,-z
1/2-x,1/2-y,-z
1/2+x,1/2-y,z
loop_
_atom_site_type_symbol
_atom_site_label
_atom_site_fract_x
_atom_site_fract_y
_atom_site_fract_z
Si Si1 0.798448 0.328576 0.058106
Si Si2 0.312183 0.321240 0.513217
Si Si3 0.692583 0.320871 0.652544
Si Si4 0.969586 0.679218 0.148678
Si Si5 0.911086 0.821221 0.825213
Si Si6 0.682344 0.679361 0.320010
Si Si7 0.088203 0.328962 0.015218
Si Si8 0.638041 0.321194 0.796051
O O1 0.784261 0.500000 0.072071
O O2 0.814183 0.240629 0.136575
O O3 0.750000 0.250000 0.000000
O O4 0.853990 0.328771 0.018904
O O5 0.308362 0.500000 0.512860
O O6 0.250000 0.250000 0.500000
O O7 0.333498 0.280198 0.434902
O O8 0.338262 0.280412 0.600141
O O9 0.699251 0.500000 0.655278
O O10 0.755132 0.249429 0.674468
O O11 0.654857 0.281192 0.715458
O O12 0.967904 0.500000 0.152721
O O13 0.919865 0.747643 0.187717
O O14 0.029826 0.745976 0.184742
O O15 0.956956 0.718912 0.058637
O O16 0.860908 0.777791 0.756075
O O17 0.903364 0.766019 0.908525
O O18 0.915611 0.000000 0.825077
O O19 0.687650 0.500000 0.318461
O O20 0.075313 0.500000 0.034265
O O21 0.634360 0.500000 0.801218
#
# Coordination Sequence:
#
# PCOD9224312 Si02
#       8
#     8   8   8   8   8   8   8   8
#     4  10  21  35  50  70 101 138 171 205 249 297
#     4   8  14  29  49  70 100 133 163 197 241 296
#     4   9  18  31  52  78 102 132 167 202 245 300
#     4  10  21  38  55  71  94 132 174 211 253 297
#     4  11  22  33  50  77 102 129 165 210 255 297
#     4   9  19  32  48  75 107 134 162 201 250 300
#     4   9  20  36  51  69  94 128 170 209 248 295
#     4  10  20  34  52  76 101 128 167 212 252 298
#
# _framework density 8.3574210000000004
#
# number of rings (size 3 to 8) (size 9 to 14) (size 15 to 20)
#    0.000    2.500    0.000    2.625    1.750    6.500 
#    0.000    0.000    0.000    0.750    0.000    5.250 
#    0.000    0.000    0.000    0.000    0.000    0.000 
#
# Total GULP energy -178298.734740 kJ/mol
# GULP energy per Si atom -5571.835461 kJ/mol
# Density = 0.833840 g / cm^3
# Si number density = 8.357421 Si / 1000 Ang^3
#
#
#
# Elastic Constant Matrix: (Units=GPa)
#
#
# Indices 1 2 3 4 5 6 
#
# 1 50.2374 19.7625 45.2298 0.0000 -2.3474 0.0000
# 2 19.7625 51.5081 38.7576 0.0000 -3.8586 0.0000
# 3 45.2298 38.7576 147.0465 0.0000 -13.2891 0.0000
# 4 0.0000 0.0000 0.0000 25.0573 0.0000 -0.9788
# 5 -2.3474 -3.8586 -13.2891 0.0000 29.8409 0.0000
# 6 0.0000 0.0000 0.0000 -0.9788 0.0000 26.1795
#
#
#
# Elastic Compliance Matrix: (Units=1/GPa)
#
#
# Indices 1 2 3 4 5 6 
#
# 1 0.028800 -0.005485 -0.007577 0.000000 -0.001818 0.000000
# 2 -0.005485 0.025264 -0.004914 0.000000 0.000647 0.000000
# 3 -0.007577 -0.004914 0.010748 0.000000 0.003555 0.000000
# 4 0.000000 0.000000 0.000000 0.039967 0.000000 0.001494
# 5 -0.001818 0.000647 0.003555 0.000000 0.035035 0.000000
# 6 0.000000 0.000000 0.000000 0.001494 0.000000 0.038254
#
#
# Mechanical properties :
#
#
# Convention : Reuss Voigt Hill
#
# Bulk Modulus (GPa) = 34.64845 50.69908 42.67376
# Shear Modulus (GPa) = 22.35750 25.88502 24.12126
#
# Velocity S-wave (km/s) = 3.66127 3.93953 3.80294
# Velocity P-wave (km/s) = 6.21670 7.14778 6.69844
#
# Compressibility (1/GPa) = 0.02886132
#
# Stress axis : x y z
#
# Youngs Moduli (GPa) = 34.72222 39.58130 93.04402
#
# Poissons Ratio (x) = 0.21708 0.70502
# Poissons Ratio (y) = 0.19043 0.45718
# Poissons Ratio (z) = 0.26310 0.19449
#
# Static dielectric constant tensor:
#      x y z
#    x 1.567470 0.000000 -0.013980 
#    y 0.000000 1.560180 0.000000 
#    z -0.013980 0.000000 1.589290 
# 
# From -- ./inp_files/287751.got.cif
#   From: 2010.05.17/outbox.ucp.g08.bks.cvg/sg12_144_cif.got.tgz:287751.got - 2010.06.11 11:47:21.
