data_PCOD9224963
_publ_section_title
;
Structure prediction by ZEFSAII (Michael W. Deem and Ramdas Pophale) SiO2 
 PCOD9224963
Probable space group: C 2/M
;
_chemical_formula_sum "Si O2"
_cell_formula_units_Z 24
_cell_length_a 27.000000
_cell_length_b 9.000000
_cell_length_c 15.000000
_cell_angle_alpha 90.000000
_cell_angle_beta 140.000000
_cell_angle_gamma 90.000000
_cell_volume 2342.960837
_symmetry_space_group_name_H-M "C 2/M"
_symmetry_group_IT_number 12
_symmetry_cell_setting 'monoclinic'
loop_
_space_group_symop_operation_xyz
x,y,z
-x,y,-z
-x,-y,-z
x,-y,z
1/2+x,1/2+y,z
1/2-x,1/2+y,-z
1/2-x,1/2-y,-z
1/2+x,1/2-y,z
loop_
_atom_site_type_symbol
_atom_site_label
_atom_site_fract_x
_atom_site_fract_y
_atom_site_fract_z
Si Si1 0.784539 0.173509 0.136279
Si Si2 0.435787 0.327968 0.988332
Si Si3 0.962517 0.179720 0.706162
Si Si4 0.281931 0.830260 0.765750
Si Si5 0.693623 0.176466 0.492782
Si Si6 0.423309 0.669091 0.450891
O O1 0.725553 0.179175 0.137687
O O2 0.860351 0.235592 0.294203
O O3 0.800380 0.000000 0.135069
O O4 0.750000 0.250000 0.000000
O O5 0.410286 0.500000 0.959880
O O6 0.467376 0.283771 0.130301
O O7 0.500000 0.321121 0.000000
O O8 0.365419 0.229873 0.859200
O O9 0.889138 0.259840 0.646074
O O10 0.953471 0.225514 0.589243
O O11 0.956574 0.000000 0.700985
O O12 0.218783 0.735004 0.625439
O O13 0.272431 0.000000 0.724473
O O14 0.750000 0.250000 0.500000
O O15 0.696555 0.000000 0.494536
O O16 0.500000 0.659715 0.500000
O O17 0.393195 0.500000 0.427015
#
# Coordination Sequence:
#
# PCOD9224963 Si02
#       6
#     8   8   8   8   8   8
#     4  10  22  39  61  89 122 156 201 251 302 364
#     4  10  22  38  59  90 123 159 205 251 297 361
#     4  10  20  38  61  86 123 160 200 250 302 361
#     4  11  23  41  62  88 126 164 201 252 306 362
#     4  12  24  39  63  91 121 158 203 251 305 366
#     4   9  18  35  60  87 115 155 201 244 296 359
#
# _framework density 10.243449
#
# number of rings (size 3 to 8) (size 9 to 14) (size 15 to 20)
#    0.000    1.667    1.667    3.000    2.333    3.667 
#    0.000    0.000    0.000    1.000    0.000    0.000 
#    0.000    0.000    0.000    0.000    0.000    0.000 
#
# Total GULP energy -133712.822397 kJ/mol
# GULP energy per Si atom -5571.367600 kJ/mol
# Density = 1.022013 g / cm^3
# Si number density = 10.243449 Si / 1000 Ang^3
#
#
#
# Elastic Constant Matrix: (Units=GPa)
#
#
# Indices 1 2 3 4 5 6 
#
# 1 40.1884 11.2918 7.1627 0.0000 0.3924 0.0000
# 2 11.2918 -0.3117 23.1536 0.0000 15.6918 0.0000
# 3 7.1627 23.1536 103.3854 0.0000 -12.6005 0.0000
# 4 0.0000 0.0000 0.0000 32.2907 0.0000 -6.0858
# 5 0.3924 15.6918 -12.6005 0.0000 40.6502 0.0000
# 6 0.0000 0.0000 0.0000 -6.0858 0.0000 17.4330
#
#
#
# Elastic Compliance Matrix: (Units=1/GPa)
#
#
# Indices 1 2 3 4 5 6 
#
# 1 0.022005 0.014025 -0.005561 0.000000 -0.007350 0.000000
# 2 0.014025 -0.061187 0.016206 0.000000 0.028507 0.000000
# 3 -0.005561 0.016206 0.005895 0.000000 -0.004375 0.000000
# 4 0.000000 0.000000 0.000000 0.033150 0.000000 0.011573
# 5 -0.007350 0.028507 -0.004375 0.000000 0.012311 0.000000
# 6 0.000000 0.000000 0.000000 0.011573 0.000000 0.061402
#
#
# Mechanical properties :
#
#
# Convention : Reuss Voigt Hill
#
# Bulk Modulus (GPa) = 62.29471 25.16428 43.72949
# Shear Modulus (GPa) = 168.98857 24.85169 96.92013
#
# Velocity S-wave (km/s) = 9.09204 3.48667 6.88557
# Velocity P-wave (km/s) = 11.86143 5.34031 9.19816
#
# Compressibility (1/GPa) = 0.01605273
#
# Stress axis : x y z
#
# Youngs Moduli (GPa) = 45.44409 -16.34336 169.62735
#
# Poissons Ratio (x) = 0.22922 0.94337
# Poissons Ratio (y) = -0.63736 -2.74896
# Poissons Ratio (z) = 0.25273 0.26486
#
# Static dielectric constant tensor:
#      x y z
#    x 1.810730 0.000000 0.012580 
#    y 0.000000 1.728920 0.000000 
#    z 0.012580 0.000000 1.725050 
# 
# From -- ./inp_files/230386.got.cif
#   From: 2010.05.17/outbox.ucp.g08.bks.cvg/sg12_116_cif.got.tgz:230386.got - 2010.06.11 11:47:21.
