data_PCOD9224481
_publ_section_title
;
Structure prediction by ZEFSAII (Michael W. Deem and Ramdas Pophale) SiO2 
 PCOD9224481
Probable space group: C 2/M
;
_chemical_formula_sum "Si O2"
_cell_formula_units_Z 24
_cell_length_a 21.000000
_cell_length_b 9.000000
_cell_length_c 15.000000
_cell_angle_alpha 90.000000
_cell_angle_beta 70.000000
_cell_angle_gamma 90.000000
_cell_volume 2664.028580
_symmetry_space_group_name_H-M "C 2/M"
_symmetry_group_IT_number 12
_symmetry_cell_setting 'monoclinic'
loop_
_space_group_symop_operation_xyz
x,y,z
-x,y,-z
-x,-y,-z
x,-y,z
1/2+x,1/2+y,z
1/2-x,1/2+y,-z
1/2-x,1/2-y,-z
1/2+x,1/2-y,z
loop_
_atom_site_type_symbol
_atom_site_label
_atom_site_fract_x
_atom_site_fract_y
_atom_site_fract_z
Si Si1 0.681672 0.321624 0.067025
Si Si2 0.960543 0.179803 0.933436
Si Si3 0.658096 0.672138 0.609578
Si Si4 0.003705 0.179035 0.714238
Si Si5 0.870335 0.676244 0.726112
Si Si6 0.215763 0.829395 0.381664
O O1 0.686450 0.500000 0.070053
O O2 0.618672 0.282549 0.032633
O O3 0.662069 0.255675 0.172197
O O4 0.750000 0.250000 0.000000
O O5 0.991923 0.222709 0.823177
O O6 0.964521 0.000000 0.934084
O O7 0.000000 0.239050 0.000000
O O8 0.663525 0.500000 0.636885
O O9 0.579931 0.715603 0.651333
O O10 0.707562 0.772678 0.644485
O O11 0.683712 0.678424 0.495739
O O12 0.946582 0.260617 0.684480
O O13 0.994039 0.000000 0.711551
O O14 0.870576 0.500000 0.737393
O O15 0.826629 0.725315 0.662789
O O16 0.212745 0.000000 0.352422
#
# Coordination Sequence:
#
# PCOD9224481 Si02
#       6
#     8   8   8   8   8   8
#     4  10  20  35  55  79 107 138 173 216 265 315
#     4   8  15  29  50  75 101 131 168 208 250 302
#     4   9  19  35  55  78 105 140 178 218 269 327
#     4   9  18  34  54  76 105 139 176 218 265 319
#     4  11  22  36  54  76 105 141 181 222 266 316
#     4  10  20  35  54  77 107 139 176 223 270 319
#
# _framework density 9.0089120000000005
#
# number of rings (size 3 to 8) (size 9 to 14) (size 15 to 20)
#    0.000    2.500    0.000    3.500    0.000    3.333 
#    0.000    6.667    0.000   12.500    0.000    0.000 
#    0.000    0.000    0.000    0.000    0.000    0.000 
#
# Total GULP energy -133845.869423 kJ/mol
# GULP energy per Si atom -5576.911226 kJ/mol
# Density = 0.898841 g / cm^3
# Si number density = 9.008912 Si / 1000 Ang^3
#
#
#
# Elastic Constant Matrix: (Units=GPa)
#
#
# Indices 1 2 3 4 5 6 
#
# 1 132.2768 65.1570 43.6080 0.0000 -14.9132 0.0000
# 2 65.1570 78.0856 25.9766 0.0000 -6.7731 0.0000
# 3 43.6080 25.9766 14.6893 0.0000 -9.5015 0.0000
# 4 0.0000 0.0000 0.0000 21.0089 0.0000 -1.4610
# 5 -14.9132 -6.7731 -9.5015 0.0000 35.0652 0.0000
# 6 0.0000 0.0000 0.0000 -1.4610 0.0000 31.9629
#
#
#
# Elastic Compliance Matrix: (Units=1/GPa)
#
#
# Indices 1 2 3 4 5 6 
#
# 1 -0.077701 -0.044907 0.343262 0.000000 0.051292 0.000000
# 2 -0.044907 0.008925 0.128883 0.000000 0.017548 0.000000
# 3 0.343262 0.128883 -1.295393 0.000000 -0.180125 0.000000
# 4 0.000000 0.000000 0.000000 0.047751 0.000000 0.002183
# 5 0.051292 0.017548 -0.180125 0.000000 0.004915 0.000000
# 6 0.000000 0.000000 0.000000 0.002183 0.000000 0.031386
#
#
# Mechanical properties :
#
#
# Convention : Reuss Voigt Hill
#
# Bulk Modulus (GPa) = -1.96197 54.94832 26.49318
# Shear Modulus (GPa) = -2.16968 23.62808 10.72920
#
# Velocity S-wave (km/s) = -1.09854 3.62522 2.44289
# Velocity P-wave (km/s) = 1.64327 6.93439 4.76369
#
# Compressibility (1/GPa) = -0.50969295
#
# Stress axis : x y z
#
# Youngs Moduli (GPa) = -12.86987 112.04138 -0.77197
#
# Poissons Ratio (x) = 5.03145 0.26499
# Poissons Ratio (y) = -0.57795 0.09949
# Poissons Ratio (z) = 4.41774 -14.44022
#
# Static dielectric constant tensor:
#      x y z
#    x 1.616300 0.000000 0.000060 
#    y 0.000000 1.608180 0.000000 
#    z 0.000060 0.000000 1.608140 
# 
# From -- ./inp_files/229877.got.cif
#   From: 2010.05.17/outbox.ucp.g08.bks.cvg/sg12_115_cif.got.tgz:229877.got - 2010.06.11 11:47:21.
