data_PCOD9224399
_publ_section_title
;
Structure prediction by ZEFSAII (Michael W. Deem and Ramdas Pophale) SiO2 
 PCOD9224399
Probable space group: C 2/M
;
_chemical_formula_sum "Si O2"
_cell_formula_units_Z 30
_cell_length_a 9.000000
_cell_length_b 21.000000
_cell_length_c 27.000000
_cell_angle_alpha 90.000000
_cell_angle_beta 40.000000
_cell_angle_gamma 90.000000
_cell_volume 3280.145172
_symmetry_space_group_name_H-M "C 2/M"
_symmetry_group_IT_number 12
_symmetry_cell_setting 'monoclinic'
loop_
_space_group_symop_operation_xyz
x,y,z
-x,y,-z
-x,-y,-z
x,-y,z
1/2+x,1/2+y,z
1/2-x,1/2+y,-z
1/2-x,1/2-y,-z
1/2+x,1/2-y,z
loop_
_atom_site_type_symbol
_atom_site_label
_atom_site_fract_x
_atom_site_fract_y
_atom_site_fract_z
Si Si1 0.606596 0.196146 0.782629
Si Si2 0.013495 0.810276 0.396374
Si Si3 0.340789 0.671925 0.172564
Si Si4 0.297800 0.924639 0.704633
Si Si5 0.733881 0.425633 0.082337
Si Si6 0.000000 0.274686 0.500000
Si Si7 0.828124 0.925371 0.782452
Si Si8 0.811460 0.928685 0.590745
O O1 0.591715 0.258403 0.822371
O O2 0.363313 0.182801 0.815919
O O3 0.693157 0.131033 0.788358
O O4 0.808495 0.213297 0.691223
O O5 0.746736 0.810372 0.445613
O O6 0.025830 0.767971 0.443486
O O7 0.115156 0.878562 0.386686
O O8 0.243255 0.625891 0.241024
O O9 0.565716 0.628135 0.101254
O O10 0.567871 0.915930 0.625629
O O11 0.107175 0.913787 0.710604
O O12 0.265324 0.000000 0.727380
O O13 0.673007 0.500000 0.085102
O O14 0.719497 0.420552 0.146048
O O15 0.000000 0.415550 0.000000
O O16 0.780942 0.000000 0.779931
O O17 0.000000 0.926579 0.500000
O O18 0.797958 0.000000 0.615457
#
# Coordination Sequence:
#
# PCOD9224399 Si02
#       8
#     8   8   8   8   8   4   8   8
#     4  12  24  36  57  87 120 156 199 248 298 345
#     4  11  22  40  55  81 108 152 195 253 292 360
#     4  11  21  36  57  86 119 153 196 239 287 350
#     4   9  18  35  57  79 109 151 190 234 294 352
#     4   9  19  40  68  93 120 156 191 229 285 353
#     4  10  24  38  58  76 110 148 202 242 312 348
#     4   9  20  38  59  86 118 150 192 241 286 348
#     4  10  20  34  55  80 108 143 189 240 293 350
#
# _framework density 9.145937
#
# number of rings (size 3 to 8) (size 9 to 14) (size 15 to 20)
#    0.000    1.867    2.000    3.600    0.000    2.667 
#    0.000    3.667    0.000    2.400    0.000    0.000 
#    0.000    0.000    0.000    0.000    0.000    0.000 
#
# Total GULP energy -167203.652868 kJ/mol
# GULP energy per Si atom -5573.455096 kJ/mol
# Density = 0.912512 g / cm^3
# Si number density = 9.145937 Si / 1000 Ang^3
#
#
#
# Elastic Constant Matrix: (Units=GPa)
#
#
# Indices 1 2 3 4 5 6 
#
# 1 146.8424 79.4312 33.2329 -0.0016 -31.7805 0.0004
# 2 79.4312 131.9494 21.4173 -0.0004 -20.1402 -0.0086
# 3 33.2329 21.4173 79.2246 0.0129 -31.2648 -0.0146
# 4 -0.0016 -0.0004 0.0129 22.6595 -0.0120 -4.5436
# 5 -31.7805 -20.1402 -31.2648 -0.0120 33.5394 0.0058
# 6 0.0004 -0.0086 -0.0146 -4.5436 0.0058 40.4322
#
#
#
# Elastic Compliance Matrix: (Units=1/GPa)
#
#
# Indices 1 2 3 4 5 6 
#
# 1 0.011596 -0.005827 -0.000528 0.000004 0.006996 -0.000002
# 2 -0.005827 0.011281 -0.000176 0.000001 0.001089 0.000002
# 3 -0.000528 -0.000176 0.020015 -0.000001 0.018052 0.000004
# 4 0.000004 0.000001 -0.000001 0.045149 0.000019 0.005074
# 5 0.006996 0.001089 0.018052 0.000019 0.053927 0.000001
# 6 -0.000002 0.000002 0.000004 0.005074 0.000001 0.025303
#
#
# Mechanical properties :
#
#
# Convention : Reuss Voigt Hill
#
# Bulk Modulus (GPa) = 33.52160 69.57548 51.54854
# Shear Modulus (GPa) = 26.27774 34.25523 30.26648
#
# Velocity S-wave (km/s) = 3.79434 4.33217 4.07214
# Velocity P-wave (km/s) = 6.12876 7.94622 7.09592
#
# Compressibility (1/GPa) = 0.02983151
#
# Stress axis : x y z
#
# Youngs Moduli (GPa) = 86.24017 88.64454 49.96187
#
# Poissons Ratio (x) = 0.51651 0.02637
# Poissons Ratio (y) = 0.50250 0.00877
# Poissons Ratio (z) = 0.04552 0.01557
#
# Static dielectric constant tensor:
#      x y z
#    x 1.630320 0.000000 -0.013130 
#    y 0.000000 1.657720 0.000000 
#    z -0.013130 0.000000 1.678920 
# 
# From -- ./inp_files/356924.got.cif
#   From: 2010.05.17/outbox.ucp.g08.bks.cvg/sg12_179_cif.got.tgz:356924.got - 2010.06.11 11:47:21.
