data_PCOD9224103
_publ_section_title
;
Structure prediction by ZEFSAII (Michael W. Deem and Ramdas Pophale) SiO2 
 PCOD9224103
Probable space group: C 2/M
;
_chemical_formula_sum "Si O2"
_cell_formula_units_Z 32
_cell_length_a 21.000000
_cell_length_b 24.000000
_cell_length_c 9.000000
_cell_angle_alpha 90.000000
_cell_angle_beta 130.000000
_cell_angle_gamma 90.000000
_cell_volume 3474.777594
_symmetry_space_group_name_H-M "C 2/M"
_symmetry_group_IT_number 12
_symmetry_cell_setting 'monoclinic'
loop_
_space_group_symop_operation_xyz
x,y,z
-x,y,-z
-x,-y,-z
x,-y,z
1/2+x,1/2+y,z
1/2-x,1/2+y,-z
1/2-x,1/2-y,-z
1/2+x,1/2-y,z
loop_
_atom_site_type_symbol
_atom_site_label
_atom_site_fract_x
_atom_site_fract_y
_atom_site_fract_z
Si Si1 0.793840 0.109764 0.430778
Si Si2 0.735409 0.733135 0.723493
Si Si3 0.977275 0.933613 0.639346
Si Si4 0.272934 0.149612 0.370323
Si Si5 0.377450 0.759142 0.158873
Si Si6 0.626204 0.635563 0.913565
Si Si7 0.762115 0.564718 0.942757
Si Si8 0.090334 0.624773 0.665564
O O1 0.794015 0.174025 0.377913
O O2 0.887709 0.087334 0.558842
O O3 0.750143 0.112289 0.524576
O O4 0.740004 0.073441 0.236060
O O5 0.722310 0.784215 0.591400
O O6 0.683910 0.751549 0.792516
O O7 0.827575 0.727873 0.931959
O O8 0.000000 0.919413 0.500000
O O9 0.050385 0.904087 0.840155
O O10 0.980183 0.000000 0.655189
O O11 0.355572 0.133206 0.403765
O O12 0.193338 0.145860 0.142259
O O13 0.410446 0.695923 0.189812
O O14 0.425456 0.815120 0.277100
O O15 0.684487 0.602880 0.882181
O O16 0.749091 0.500000 0.963016
O O17 0.846422 0.589003 0.138768
O O18 0.000000 0.599644 0.500000
#
# Coordination Sequence:
#
# PCOD9224103 Si02
#       8
#     8   8   8   8   8   8   8   8
#     4  12  20  35  56  83 118 154 189 235 288 340
#     4   9  15  31  55  81 114 148 186 232 286 346
#     4  11  22  35  56  86 116 153 204 237 259 328
#     4   9  22  35  56  86 116 148 187 234 299 353
#     4   9  15  31  58  89 109 146 194 234 285 344
#     4  10  19  37  57  85 121 153 192 235 276 340
#     4  11  21  37  61  81 109 156 199 236 283 342
#     4  10  21  39  62  86 112 144 196 251 294 354
#
# _framework density 9.2092220000000005
#
# number of rings (size 3 to 8) (size 9 to 14) (size 15 to 20)
#    0.000    1.875    3.750    2.625    0.000    3.250 
#    0.000    7.500    0.000    2.250    0.000    0.000 
#    0.000    0.000    0.000    0.000    0.000    0.000 
#
# Total GULP energy -178234.143748 kJ/mol
# GULP energy per Si atom -5569.816992 kJ/mol
# Density = 0.918826 g / cm^3
# Si number density = 9.209222 Si / 1000 Ang^3
#
#
#
# Elastic Constant Matrix: (Units=GPa)
#
#
# Indices 1 2 3 4 5 6 
#
# 1 77.4450 24.2020 38.4762 0.0000 10.0285 0.0000
# 2 24.2020 91.8694 19.2229 0.0000 5.1820 0.0000
# 3 38.4762 19.2229 42.8778 0.0000 16.5978 0.0000
# 4 0.0000 0.0000 0.0000 16.8214 0.0000 -3.3498
# 5 10.0285 5.1820 16.5978 0.0000 27.4186 0.0000
# 6 0.0000 0.0000 0.0000 -3.3498 0.0000 17.9118
#
#
#
# Elastic Compliance Matrix: (Units=1/GPa)
#
#
# Indices 1 2 3 4 5 6 
#
# 1 0.024217 -0.001876 -0.022985 0.000000 0.005411 0.000000
# 2 -0.001876 0.012192 -0.004123 0.000000 0.000877 0.000000
# 3 -0.022985 -0.004123 0.055167 0.000000 -0.024209 0.000000
# 4 0.000000 0.000000 0.000000 0.061748 0.000000 0.011548
# 5 0.005411 0.000877 -0.024209 0.000000 0.048982 0.000000
# 6 0.000000 0.000000 0.000000 0.011548 0.000000 0.057989
#
#
# Mechanical properties :
#
#
# Convention : Reuss Voigt Hill
#
# Bulk Modulus (GPa) = 29.75265 41.77717 35.76491
# Shear Modulus (GPa) = 15.17616 21.11644 18.14630
#
# Velocity S-wave (km/s) = 2.87359 3.38965 3.14223
# Velocity P-wave (km/s) = 5.21525 6.16856 5.71183
#
# Compressibility (1/GPa) = 0.03361046
#
# Stress axis : x y z
#
# Youngs Moduli (GPa) = 41.29301 82.01929 18.12677
#
# Poissons Ratio (x) = 0.15383 0.41664
# Poissons Ratio (y) = 0.07745 0.07473
# Poissons Ratio (z) = 0.94911 0.33813
#
# Static dielectric constant tensor:
#      x y z
#    x 1.627500 0.000000 -0.029450 
#    y 0.000000 1.669070 0.000000 
#    z -0.029450 0.000000 1.681330 
# 
# From -- ./inp_files/90670.got.cif
#   From: 2010.05.17/outbox.ucp.g08.bks.cvg/sg12_46_cif.got.tgz:90670.got - 2010.06.11 11:47:21.
