data_PCOD9224402
_publ_section_title
;
Structure prediction by ZEFSAII (Michael W. Deem and Ramdas Pophale) SiO2 
 PCOD9224402
Probable space group: C 2/M
;
_chemical_formula_sum "Si O2"
_cell_formula_units_Z 32
_cell_length_a 30.000000
_cell_length_b 9.000000
_cell_length_c 12.000000
_cell_angle_alpha 90.000000
_cell_angle_beta 90.000000
_cell_angle_gamma 90.000000
_cell_volume 3240.000000
_symmetry_space_group_name_H-M "C 2/M"
_symmetry_group_IT_number 12
_symmetry_cell_setting 'monoclinic'
loop_
_space_group_symop_operation_xyz
x,y,z
-x,y,-z
-x,-y,-z
x,-y,z
1/2+x,1/2+y,z
1/2-x,1/2+y,-z
1/2-x,1/2-y,-z
1/2+x,1/2-y,z
loop_
_atom_site_type_symbol
_atom_site_label
_atom_site_fract_x
_atom_site_fract_y
_atom_site_fract_z
Si Si1 0.898677 0.819733 0.818906
Si Si2 0.269441 0.176422 0.174973
Si Si3 0.132773 0.173913 0.416863
Si Si4 0.915112 0.331831 0.246862
Si Si5 0.505397 0.824306 0.132544
Si Si6 0.448284 0.164847 0.498338
Si Si7 0.329851 0.678688 0.345516
Si Si8 0.817508 0.822333 0.966104
O O1 0.869524 0.769424 0.710443
O O2 0.948406 0.751640 0.827356
O O3 0.867047 0.783255 0.924339
O O4 0.902663 0.000000 0.813026
O O5 0.285607 0.256480 0.287727
O O6 0.219154 0.205548 0.131523
O O7 0.274538 0.000000 0.188836
O O8 0.300488 0.235032 0.073926
O O9 0.081723 0.207582 0.450143
O O10 0.160600 0.230444 0.525576
O O11 0.143164 0.000000 0.410439
O O12 0.904417 0.500000 0.205080
O O13 0.933722 0.346593 0.371392
O O14 0.870618 0.236146 0.266824
O O15 0.957826 0.268450 0.180969
O O16 0.508000 0.000000 0.162238
O O17 0.500000 0.810793 0.000000
O O18 0.500000 0.197802 0.500000
O O19 0.440700 0.000000 0.550552
O O20 0.329374 0.500000 0.345182
O O21 0.816098 0.000000 0.988887
#
# Coordination Sequence:
#
# PCOD9224402 Si02
#       8
#     8   8   8   8   8   8   8   8
#     4  10  21  38  58  79 109 145 182 221 268 324
#     4  10  20  36  59  84 111 139 176 224 274 323
#     4   9  19  34  51  75 106 142 178 218 266 316
#     4   9  18  32  48  71 104 141 179 218 263 311
#     4  10  22  37  52  76 110 145 183 225 269 318
#     4   9  16  27  46  69  95 131 175 220 262 304
#     4  10  20  34  55  81 111 144 182 226 270 316
#     4   9  20  38  59  84 110 141 178 221 271 325
#
# _framework density 9.8765429999999999
#
# number of rings (size 3 to 8) (size 9 to 14) (size 15 to 20)
#    0.000    2.500    0.000    1.500    1.750    4.000 
#    0.000    3.125    0.000    0.000    0.000    0.000 
#    0.000    0.000    0.000    0.000    0.000    0.000 
#
# Total GULP energy -178274.807231 kJ/mol
# GULP energy per Si atom -5571.087726 kJ/mol
# Density = 0.985406 g / cm^3
# Si number density = 9.876543 Si / 1000 Ang^3
#
#
#
# Elastic Constant Matrix: (Units=GPa)
#
#
# Indices 1 2 3 4 5 6 
#
# 1 31.7260 5.4405 7.1110 0.0000 15.2483 0.0000
# 2 5.4405 25.5290 8.0871 0.0000 11.0585 0.0000
# 3 7.1110 8.0871 52.3812 0.0000 10.3024 0.0000
# 4 0.0000 0.0000 0.0000 18.5323 0.0000 4.5581
# 5 15.2483 11.0585 10.3024 0.0000 38.0026 0.0000
# 6 0.0000 0.0000 0.0000 4.5581 0.0000 22.3682
#
#
#
# Elastic Compliance Matrix: (Units=1/GPa)
#
#
# Indices 1 2 3 4 5 6 
#
# 1 0.039360 -0.001260 -0.002234 0.000000 -0.014821 0.000000
# 2 -0.001260 0.045936 -0.004639 0.000000 -0.011604 0.000000
# 3 -0.002234 -0.004639 0.020776 0.000000 -0.003386 0.000000
# 4 0.000000 0.000000 0.000000 0.056807 0.000000 -0.011576
# 5 -0.014821 -0.011604 -0.003386 0.000000 0.036555 0.000000
# 6 0.000000 0.000000 0.000000 -0.011576 0.000000 0.047065
#
#
# Mechanical properties :
#
#
# Convention : Reuss Voigt Hill
#
# Bulk Modulus (GPa) = 11.13513 16.76816 13.95165
# Shear Modulus (GPa) = 17.08232 21.71380 19.39806
#
# Velocity S-wave (km/s) = 2.94393 3.31911 3.13713
# Velocity P-wave (km/s) = 4.14789 4.81622 4.49449
#
# Compressibility (1/GPa) = 0.08980587
#
# Stress axis : x y z
#
# Youngs Moduli (GPa) = 25.40663 21.76963 48.13194
#
# Poissons Ratio (x) = 0.02744 0.10752
# Poissons Ratio (y) = 0.03202 0.22326
# Poissons Ratio (z) = 0.05675 0.10098
#
# Static dielectric constant tensor:
#      x y z
#    x 1.779780 0.000000 0.000860 
#    y 0.000000 1.696730 0.000000 
#    z 0.000860 0.000000 1.743860 
# 
# From -- ./inp_files/187414.got.cif
#   From: 2010.05.17/outbox.ucp.g08.bks.cvg/sg12_94_cif.got.tgz:187414.got - 2010.06.11 11:47:21.
