data_PCOD9224783
_publ_section_title
;
Structure prediction by ZEFSAII (Michael W. Deem and Ramdas Pophale) SiO2 
 PCOD9224783
Probable space group: C 2/M
;
_chemical_formula_sum "Si O2"
_cell_formula_units_Z 32
_cell_length_a 30.000000
_cell_length_b 9.000000
_cell_length_c 15.000000
_cell_angle_alpha 90.000000
_cell_angle_beta 50.000000
_cell_angle_gamma 90.000000
_cell_volume 3102.479995
_symmetry_space_group_name_H-M "C 2/M"
_symmetry_group_IT_number 12
_symmetry_cell_setting 'monoclinic'
loop_
_space_group_symop_operation_xyz
x,y,z
-x,y,-z
-x,-y,-z
x,-y,z
1/2+x,1/2+y,z
1/2-x,1/2+y,-z
1/2-x,1/2-y,-z
1/2+x,1/2-y,z
loop_
_atom_site_type_symbol
_atom_site_label
_atom_site_fract_x
_atom_site_fract_y
_atom_site_fract_z
Si Si1 0.309414 0.828045 0.450218
Si Si2 0.640060 0.824485 0.259094
Si Si3 0.996393 0.677733 0.227493
Si Si4 0.022049 0.822264 0.372228
Si Si5 0.412099 0.172457 0.180082
Si Si6 0.382625 0.178953 0.021779
Si Si7 0.244655 0.671974 0.857840
Si Si8 0.336517 0.328793 0.595344
O O1 0.250000 0.750000 0.500000
O O2 0.352085 0.825831 0.311225
O O3 0.336414 0.738753 0.498179
O O4 0.300425 0.000000 0.487772
O O5 0.587438 0.741783 0.278780
O O6 0.632095 0.775936 0.373156
O O7 0.636910 0.000000 0.250149
O O8 0.705111 0.763075 0.154988
O O9 0.985393 0.500000 0.251226
O O10 0.958438 0.733951 0.191993
O O11 0.986056 0.755884 0.335464
O O12 0.063229 0.700352 0.112803
O O13 0.000000 0.780414 0.500000
O O14 0.022298 0.000000 0.366776
O O15 0.401149 0.237210 0.096029
O O16 0.430589 0.000000 0.141781
O O17 0.320588 0.233372 0.063975
O O18 0.373925 0.000000 0.043032
O O19 0.244602 0.500000 0.888712
O O20 0.271106 0.670114 0.722388
O O21 0.357476 0.500000 0.572226
#
# Coordination Sequence:
#
# PCOD9224783 Si02
#       8
#     8   8   8   8   8   8   8   8
#     4  11  21  32  49  79 116 156 202 247 291 345
#     4  10  20  36  60  88 115 145 190 242 292 345
#     4  10  21  37  62  92 116 148 198 250 291 339
#     4  11  25  44  63  84 114 155 195 237 299 363
#     4   9  19  34  54  85 121 157 196 240 290 340
#     4   9  16  33  60  88 120 157 196 236 285 348
#     4   8  16  31  55  84 117 158 194 230 287 350
#     4   9  18  33  53  78 115 154 188 231 288 349
#
# _framework density 10.314329000000001
#
# number of rings (size 3 to 8) (size 9 to 14) (size 15 to 20)
#    0.750    1.625    0.000    3.000    1.750    4.500 
#    0.000    1.875    0.000    3.750    0.000    0.000 
#    0.000    0.000    0.000    0.000    0.000    0.000 
#
# Total GULP energy -178472.612421 kJ/mol
# GULP energy per Si atom -5577.269138 kJ/mol
# Density = 1.029085 g / cm^3
# Si number density = 10.314329 Si / 1000 Ang^3
#
#
#
# Elastic Constant Matrix: (Units=GPa)
#
#
# Indices 1 2 3 4 5 6 
#
# 1 108.5597 10.6854 15.3979 0.0000 -21.1297 0.0000
# 2 10.6854 53.3073 6.6710 0.0000 -14.0065 -0.0002
# 3 15.3979 6.6710 27.1341 0.0000 -19.6740 0.0000
# 4 0.0000 0.0000 0.0000 15.1840 0.0000 2.0799
# 5 -21.1297 -14.0065 -19.6740 0.0000 15.1634 0.0000
# 6 0.0000 -0.0002 0.0000 2.0799 0.0000 18.1771
#
#
#
# Elastic Compliance Matrix: (Units=1/GPa)
#
#
# Indices 1 2 3 4 5 6 
#
# 1 0.004908 -0.011103 -0.042740 0.000000 -0.058869 0.000000
# 2 -0.011103 0.001252 -0.074021 0.000000 -0.110354 0.000000
# 3 -0.042740 -0.074021 -0.226981 0.000000 -0.422429 -0.000001
# 4 0.000000 0.000000 0.000000 0.066908 0.000001 -0.007656
# 5 -0.058869 -0.110354 -0.422429 0.000001 -0.666103 -0.000001
# 6 0.000000 0.000000 -0.000001 -0.007656 -0.000001 0.055890
#
#
# Mechanical properties :
#
#
# Convention : Reuss Voigt Hill
#
# Bulk Modulus (GPa) = -2.09842 28.27887 13.09022
# Shear Modulus (GPa) = -7.49347 20.12136 6.31394
#
# Velocity S-wave (km/s) = -1.90799 3.12654 1.75140
# Velocity P-wave (km/s) = 2.42350 5.17416 3.23254
#
# Compressibility (1/GPa) = -0.47654860
#
# Stress axis : x y z
#
# Youngs Moduli (GPa) = 203.73334 798.51114 -4.40565
#
# Poissons Ratio (x) = 8.86608 -0.18830
# Poissons Ratio (y) = 2.26211 -0.32611
# Poissons Ratio (z) = 8.70749 59.10661
#
# Static dielectric constant tensor:
#      x y z
#    x 1.785070 0.000000 -0.022040 
#    y 0.000000 1.696600 0.000000 
#    z -0.022040 0.000000 1.757060 
# 
# From -- ./inp_files/249741.got.cif
#   From: 2010.05.17/outbox.ucp.g08.bks.cvg/sg12_125_cif.got.tgz:249741.got - 2010.06.11 11:47:21.
