data_PCOD9224857
_publ_section_title
;
Structure prediction by ZEFSAII (Michael W. Deem and Ramdas Pophale) SiO2 
 PCOD9224857
Probable space group: C 2/M
;
_chemical_formula_sum "Si O2"
_cell_formula_units_Z 32
_cell_length_a 15.000000
_cell_length_b 9.000000
_cell_length_c 27.000000
_cell_angle_alpha 90.000000
_cell_angle_beta 70.000000
_cell_angle_gamma 90.000000
_cell_volume 3425.179603
_symmetry_space_group_name_H-M "C 2/M"
_symmetry_group_IT_number 12
_symmetry_cell_setting 'monoclinic'
loop_
_space_group_symop_operation_xyz
x,y,z
-x,y,-z
-x,-y,-z
x,-y,z
1/2+x,1/2+y,z
1/2-x,1/2+y,-z
1/2-x,1/2-y,-z
1/2+x,1/2-y,z
loop_
_atom_site_type_symbol
_atom_site_label
_atom_site_fract_x
_atom_site_fract_y
_atom_site_fract_z
Si Si1 0.211461 0.178774 0.252038
Si Si2 0.548672 0.320840 0.149378
Si Si3 0.511473 0.178074 0.258206
Si Si4 0.515783 0.321027 0.439897
Si Si5 0.732315 0.177460 0.866266
Si Si6 0.396810 0.326530 0.367760
Si Si7 0.701387 0.173444 0.357765
Si Si8 0.955990 0.179111 0.061358
O O1 0.110000 0.248127 0.257092
O O2 0.273926 0.213517 0.191456
O O3 0.235775 0.249061 0.300305
O O4 0.205550 0.000000 0.257374
O O5 0.538083 0.500000 0.156827
O O6 0.495380 0.242171 0.205725
O O7 0.660965 0.286219 0.135470
O O8 0.512930 0.278000 0.101113
O O9 0.440760 0.229834 0.314988
O O10 0.516554 0.000000 0.255075
O O11 0.500000 0.271698 0.500000
O O12 0.525313 0.500000 0.439349
O O13 0.433358 0.285040 0.415505
O O14 0.609023 0.251561 0.397325
O O15 0.649939 0.259503 0.911322
O O16 0.721023 0.000000 0.873344
O O17 0.424973 0.500000 0.353935
O O18 0.284579 0.317190 0.382225
O O19 0.682087 0.000000 0.350687
O O20 0.954310 0.000000 0.061024
O O21 0.000000 0.228017 0.000000
#
# Coordination Sequence:
#
# PCOD9224857 Si02
#       8
#     8   8   8   8   8   8   8   8
#     4  10  20  37  59  84 121 158 189 238 302 356
#     4   9  20  39  58  80 116 158 190 233 300 353
#     4  11  21  34  58  90 119 150 198 244 288 353
#     4  10  22  42  65  85 115 164 208 243 292 352
#     4   9  20  37  57  82 113 152 193 236 291 349
#     4  10  22  39  58  85 123 159 192 240 301 350
#     4  11  23  37  58  90 120 155 199 244 295 348
#     4  10  22  39  59  84 115 153 198 242 289 348
#
# _framework density 9.3425759999999993
#
# number of rings (size 3 to 8) (size 9 to 14) (size 15 to 20)
#    0.000    2.000    1.250    2.625    1.750    5.500 
#    0.000    0.000    0.000    0.000    0.000    0.000 
#    0.000    0.000    0.000    0.000    0.000    0.000 
#
# Total GULP energy -178569.708066 kJ/mol
# GULP energy per Si atom -5580.303377 kJ/mol
# Density = 0.932131 g / cm^3
# Si number density = 9.342576 Si / 1000 Ang^3
#
#
#
# Elastic Constant Matrix: (Units=GPa)
#
#
# Indices 1 2 3 4 5 6 
#
# 1 59.0957 10.2800 26.0866 0.0000 21.7961 0.0000
# 2 10.2800 36.6399 25.5925 0.0000 8.5781 0.0000
# 3 26.0866 25.5925 109.0622 0.0000 26.2553 0.0000
# 4 0.0000 0.0000 0.0000 24.2583 0.0000 -1.7331
# 5 21.7961 8.5781 26.2553 0.0000 30.4448 0.0000
# 6 0.0000 0.0000 0.0000 -1.7331 0.0000 18.3374
#
#
#
# Elastic Compliance Matrix: (Units=1/GPa)
#
#
# Indices 1 2 3 4 5 6 
#
# 1 0.023445 -0.002009 -0.001555 0.000000 -0.014878 0.000000
# 2 -0.002009 0.033075 -0.006794 0.000000 -0.002022 0.000000
# 3 -0.001555 -0.006794 0.013133 0.000000 -0.008298 0.000000
# 4 0.000000 0.000000 0.000000 0.041503 0.000000 0.003923
# 5 -0.014878 -0.002022 -0.008298 0.000000 0.051224 0.000000
# 6 0.000000 0.000000 0.000000 0.003923 0.000000 0.054904
#
#
# Mechanical properties :
#
#
# Convention : Reuss Voigt Hill
#
# Bulk Modulus (GPa) = 20.43408 36.52399 28.47904
# Shear Modulus (GPa) = 19.66086 24.13068 21.89577
#
# Velocity S-wave (km/s) = 3.24731 3.59755 3.42691
# Velocity P-wave (km/s) = 5.00198 6.07009 5.56174
#
# Compressibility (1/GPa) = 0.04893784
#
# Stress axis : x y z
#
# Youngs Moduli (GPa) = 42.65330 30.23400 76.14393
#
# Poissons Ratio (x) = 0.06073 0.11838
# Poissons Ratio (y) = 0.08568 0.51734
# Poissons Ratio (z) = 0.06631 0.20542
#
# Static dielectric constant tensor:
#      x y z
#    x 1.673490 0.000000 0.013560 
#    y 0.000000 1.627520 0.000000 
#    z 0.013560 0.000000 1.634900 
# 
# From -- ./inp_files/359782.got.cif
#   From: 2010.05.17/outbox.ucp.g08.bks.cvg/sg12_180_cif.got.tgz:359782.got - 2010.06.11 11:47:21.
