data_PCOD9224505
_publ_section_title
;
Structure prediction by ZEFSAII (Michael W. Deem and Ramdas Pophale) SiO2 
 PCOD9224505
Probable space group: C 2/M
;
_chemical_formula_sum "Si O2"
_cell_formula_units_Z 20
_cell_length_a 18.000000
_cell_length_b 9.000000
_cell_length_c 24.000000
_cell_angle_alpha 90.000000
_cell_angle_beta 30.000000
_cell_angle_gamma 90.000000
_cell_volume 1944.000000
_symmetry_space_group_name_H-M "C 2/M"
_symmetry_group_IT_number 12
_symmetry_cell_setting 'monoclinic'
loop_
_space_group_symop_operation_xyz
x,y,z
-x,y,-z
-x,-y,-z
x,-y,z
1/2+x,1/2+y,z
1/2-x,1/2+y,-z
1/2-x,1/2-y,-z
1/2+x,1/2-y,z
loop_
_atom_site_type_symbol
_atom_site_label
_atom_site_fract_x
_atom_site_fract_y
_atom_site_fract_z
Si Si1 0.684875 0.171381 0.438752
Si Si2 0.049687 0.668423 0.684587
Si Si3 0.094320 0.671367 0.099453
Si Si4 0.673394 0.329209 0.776266
Si Si5 0.072982 0.171922 0.339753
O O1 0.783275 0.280344 0.412377
O O2 0.746096 0.181520 0.336506
O O3 0.519997 0.227075 0.556706
O O4 0.701403 0.000000 0.444909
O O5 0.041310 0.500000 0.668546
O O6 0.971515 0.673596 0.795256
O O7 0.979173 0.781623 0.687318
O O8 0.100985 0.500000 0.077277
O O9 0.989430 0.768659 0.128570
O O10 0.250000 0.750000 0.000000
O O11 0.678480 0.500000 0.790992
O O12 0.758558 0.220853 0.762028
O O13 0.049868 0.000000 0.366653
#
# Coordination Sequence:
#
# PCOD9224505 Si02
#       5
#     8   8   8   8   8
#     4  10  20  35  55  79 110 149 187 221 263 318
#     4  10  21  37  56  80 110 144 183 223 266 319
#     4  10  21  39  63  85 106 137 177 223 273 326
#     4  10  21  37  57  81 110 144 183 225 268 319
#     4  12  23  34  52  80 115 149 181 223 270 316
#
# _framework density 10.288066000000001
#
# number of rings (size 3 to 8) (size 9 to 14) (size 15 to 20)
#    0.000    1.600    0.000    5.400    0.000    7.200 
#    0.000    1.000    0.000    6.000    0.000    0.000 
#    0.000    0.000    0.000    0.000    0.000    0.000 
#
# Total GULP energy -111674.541729 kJ/mol
# GULP energy per Si atom -5583.727086 kJ/mol
# Density = 1.026465 g / cm^3
# Si number density = 10.288066 Si / 1000 Ang^3
#
#
#
# Elastic Constant Matrix: (Units=GPa)
#
#
# Indices 1 2 3 4 5 6 
#
# 1 36.5053 -13.4260 20.1492 -0.0002 -21.7858 0.0000
# 2 -13.4260 52.0936 12.4824 -0.0004 8.1753 0.0000
# 3 20.1492 12.4824 40.1064 -0.0003 -31.4265 0.0000
# 4 -0.0002 -0.0004 -0.0003 23.4541 0.0000 -5.6410
# 5 -21.7858 8.1753 -31.4265 0.0000 20.0556 0.0000
# 6 0.0000 0.0000 0.0000 -5.6410 0.0000 23.9027
#
#
#
# Elastic Compliance Matrix: (Units=1/GPa)
#
#
# Indices 1 2 3 4 5 6 
#
# 1 0.054072 0.019697 -0.028255 0.000000 0.006433 0.000000
# 2 0.019697 0.015595 0.013013 0.000001 0.035429 0.000000
# 3 -0.028255 0.013013 -0.030164 -0.000001 -0.083263 0.000000
# 4 0.000000 0.000001 -0.000001 0.045202 -0.000001 0.010668
# 5 0.006433 0.035429 -0.083263 -0.000001 -0.088064 0.000000
# 6 0.000000 0.000000 0.000000 0.010668 0.000000 0.044354
#
#
# Mechanical properties :
#
#
# Convention : Reuss Voigt Hill
#
# Bulk Modulus (GPa) = 20.65688 18.56849 19.61269
# Shear Modulus (GPa) = 103.68603 20.78248 62.23426
#
# Velocity S-wave (km/s) = 7.10639 3.18154 5.50559
# Velocity P-wave (km/s) = 8.79747 4.74765 7.06879
#
# Compressibility (1/GPa) = 0.04841001
#
# Stress axis : x y z
#
# Youngs Moduli (GPa) = 18.49400 64.12495 -33.15178
#
# Poissons Ratio (x) = -1.26304 -0.93670
# Poissons Ratio (y) = -0.36427 0.43139
# Poissons Ratio (z) = 0.52255 -0.83443
#
# Static dielectric constant tensor:
#      x y z
#    x 1.743520 0.000000 0.011130 
#    y 0.000000 1.678210 0.000000 
#    z 0.011130 0.000000 1.705770 
# 
# From -- ./inp_files/151646.got.cif
#   From: 2010.05.17/outbox.ucp.g08.bks.cvg/sg12_76_cif.got.tgz:151646.got - 2010.06.11 11:47:21.
