data_PCOD9224205
_publ_section_title
;
Structure prediction by ZEFSAII (Michael W. Deem and Ramdas Pophale) SiO2 
 PCOD9224205
Probable space group: C 2/M
;
_chemical_formula_sum "Si O2"
_cell_formula_units_Z 24
_cell_length_a 30.000000
_cell_length_b 9.000000
_cell_length_c 12.000000
_cell_angle_alpha 90.000000
_cell_angle_beta 70.000000
_cell_angle_gamma 90.000000
_cell_volume 3044.604091
_symmetry_space_group_name_H-M "C 2/M"
_symmetry_group_IT_number 12
_symmetry_cell_setting 'monoclinic'
loop_
_space_group_symop_operation_xyz
x,y,z
-x,y,-z
-x,-y,-z
x,-y,z
1/2+x,1/2+y,z
1/2-x,1/2+y,-z
1/2-x,1/2-y,-z
1/2+x,1/2-y,z
loop_
_atom_site_type_symbol
_atom_site_label
_atom_site_fract_x
_atom_site_fract_y
_atom_site_fract_z
Si Si1 0.302935 0.680658 0.978306
Si Si2 0.535238 0.323857 0.126540
Si Si3 0.391334 0.321681 0.742004
Si Si4 0.376367 0.322565 0.113039
Si Si5 0.447297 0.179141 0.500142
Si Si6 0.435484 0.178120 0.249058
O O1 0.298462 0.500000 0.982456
O O2 0.342097 0.720145 0.848041
O O3 0.250000 0.750000 0.000000
O O4 0.331121 0.720891 0.071455
O O5 0.524250 0.500000 0.133991
O O6 0.564030 0.287894 0.214881
O O7 0.486173 0.236539 0.158737
O O8 0.575812 0.296269 0.000195
O O9 0.389557 0.500000 0.730248
O O10 0.406097 0.245040 0.614253
O O11 0.371880 0.500000 0.134137
O O12 0.390964 0.244630 0.217129
O O13 0.500000 0.226656 0.500000
O O14 0.438024 0.219795 0.378611
O O15 0.446371 0.000000 0.508339
O O16 0.433842 0.000000 0.242205
#
# Coordination Sequence:
#
# PCOD9224205 Si02
#       6
#     8   8   8   8   8   8
#     4   9  19  36  57  80 101 123 158 208 259 303
#     4   9  17  30  47  67  96 133 166 199 240 288
#     4   9  18  32  51  75  99 128 171 208 238 291
#     4   9  19  34  49  69  99 130 162 201 247 297
#     4  10  20  33  46  67 104 141 170 205 245 285
#     4  11  21  30  44  69 101 135 169 203 239 286
#
# _framework density 7.8827980000000002
#
# number of rings (size 3 to 8) (size 9 to 14) (size 15 to 20)
#    0.000    2.500    1.667    3.000    0.000    5.667 
#    0.000    3.333    0.000    1.000    0.000    0.000 
#    0.000    0.000    0.000    0.000    0.000    0.000 
#
# Total GULP energy -133621.356726 kJ/mol
# GULP energy per Si atom -5567.556530 kJ/mol
# Density = 0.786486 g / cm^3
# Si number density = 7.882798 Si / 1000 Ang^3
#
#
#
# Elastic Constant Matrix: (Units=GPa)
#
#
# Indices 1 2 3 4 5 6 
#
# 1 142.6099 39.3213 55.7545 0.0000 10.3852 0.0000
# 2 39.3213 26.9721 27.8265 0.0000 7.4181 0.0000
# 3 55.7545 27.8265 81.5270 0.0000 15.1189 0.0000
# 4 0.0000 0.0000 0.0000 24.4818 0.0000 -0.8495
# 5 10.3852 7.4181 15.1189 0.0000 29.5544 0.0000
# 6 0.0000 0.0000 0.0000 -0.8495 0.0000 33.8713
#
#
#
# Elastic Compliance Matrix: (Units=1/GPa)
#
#
# Indices 1 2 3 4 5 6 
#
# 1 0.012397 -0.014551 -0.003735 0.000000 0.001207 0.000000
# 2 -0.014551 0.074937 -0.014458 0.000000 -0.006300 0.000000
# 3 -0.003735 -0.014458 0.020813 0.000000 -0.005706 0.000000
# 4 0.000000 0.000000 0.000000 0.040882 0.000000 0.001025
# 5 0.001207 -0.006300 -0.005706 0.000000 0.037912 0.000000
# 6 0.000000 0.000000 0.000000 0.001025 0.000000 0.029549
#
#
# Mechanical properties :
#
#
# Convention : Reuss Voigt Hill
#
# Bulk Modulus (GPa) = 23.44177 55.21261 39.32719
# Shear Modulus (GPa) = 16.88063 26.12862 21.50463
#
# Velocity S-wave (km/s) = 3.27574 4.07543 3.69727
# Velocity P-wave (km/s) = 5.40449 7.56588 6.57461
#
# Compressibility (1/GPa) = 0.04265889
#
# Stress axis : x y z
#
# Youngs Moduli (GPa) = 80.66744 13.34454 48.04678
#
# Poissons Ratio (x) = 0.19418 0.17946
# Poissons Ratio (y) = 1.17378 0.69465
# Poissons Ratio (z) = 0.30130 0.19293
#
# Static dielectric constant tensor:
#      x y z
#    x 1.515490 0.000000 0.031400 
#    y 0.000000 1.532560 0.000000 
#    z 0.031400 0.000000 1.570610 
# 
# From -- ./inp_files/172371.got.cif
#   From: 2010.05.17/outbox.ucp.g08.bks.cvg/sg12_87_cif.got.tgz:172371.got - 2010.06.11 11:47:21.
