data_PCOD9224083
_publ_section_title
;
Structure prediction by ZEFSAII (Michael W. Deem and Ramdas Pophale) SiO2 
 PCOD9224083
Probable space group: C 2/M
;
_chemical_formula_sum "Si O2"
_cell_formula_units_Z 28
_cell_length_a 21.000000
_cell_length_b 9.000000
_cell_length_c 21.000000
_cell_angle_alpha 90.000000
_cell_angle_beta 50.000000
_cell_angle_gamma 90.000000
_cell_volume 3040.430395
_symmetry_space_group_name_H-M "C 2/M"
_symmetry_group_IT_number 12
_symmetry_cell_setting 'monoclinic'
loop_
_space_group_symop_operation_xyz
x,y,z
-x,y,-z
-x,-y,-z
x,-y,z
1/2+x,1/2+y,z
1/2-x,1/2+y,-z
1/2-x,1/2-y,-z
1/2+x,1/2-y,z
loop_
_atom_site_type_symbol
_atom_site_label
_atom_site_fract_x
_atom_site_fract_y
_atom_site_fract_z
Si Si1 0.308915 0.178789 0.076239
Si Si2 0.989293 0.179618 0.276003
Si Si3 0.444967 0.177769 0.896189
Si Si4 0.644842 0.320894 0.253704
Si Si5 0.254069 0.180376 0.304402
Si Si6 0.707482 0.320151 0.589153
Si Si7 0.904363 0.821287 0.131487
O O1 0.214305 0.220415 0.155461
O O2 0.366148 0.265380 0.089880
O O3 0.316014 0.000000 0.083100
O O4 0.350789 0.207736 0.980921
O O5 0.891783 0.218043 0.345917
O O6 0.028233 0.249711 0.187338
O O7 0.052647 0.227092 0.291963
O O8 0.992710 0.000000 0.268394
O O9 0.508055 0.248179 0.907194
O O10 0.456405 0.000000 0.886294
O O11 0.642737 0.500000 0.256345
O O12 0.683085 0.277463 0.297903
O O13 0.246814 0.247997 0.379146
O O14 0.338754 0.254143 0.224033
O O15 0.260332 0.000000 0.301746
O O16 0.714088 0.500000 0.585966
O O17 0.750000 0.250000 0.500000
O O18 0.908780 0.000000 0.131786
#
# Coordination Sequence:
#
# PCOD9224083 Si02
#       7
#     8   8   8   8   8   8   8
#     4   9  19  34  51  75 109 152 195 234 277 330
#     4  10  21  38  59  83 112 147 188 233 282 336
#     4  11  21  32  50  77 112 151 192 235 284 331
#     4   8  17  36  59  81 111 152 192 229 274 332
#     4  10  19  36  62  86 113 149 185 227 280 338
#     4  11  23  39  62  90 116 144 182 230 283 339
#     4  11  20  31  50  78 111 148 192 238 281 327
#
# _framework density 9.2092220000000005
#
# number of rings (size 3 to 8) (size 9 to 14) (size 15 to 20)
#    0.000    2.000    1.429    3.857    0.000    4.000 
#    0.000    4.286    0.000    4.286    0.000    0.000 
#    0.000    0.000    0.000    0.000    0.000    0.000 
#
# Total GULP energy -156158.021241 kJ/mol
# GULP energy per Si atom -5577.072187 kJ/mol
# Density = 0.918826 g / cm^3
# Si number density = 9.209222 Si / 1000 Ang^3
#
#
#
# Elastic Constant Matrix: (Units=GPa)
#
#
# Indices 1 2 3 4 5 6 
#
# 1 99.7027 18.0921 45.1665 0.0000 -11.7343 0.0001
# 2 18.0921 55.6134 31.5917 -0.0003 -0.1001 0.0004
# 3 45.1665 31.5917 115.9476 0.0000 13.9399 0.0000
# 4 0.0000 -0.0003 0.0000 26.1777 0.0001 7.0681
# 5 -11.7343 -0.1001 13.9399 0.0001 15.2223 -0.0001
# 6 0.0001 0.0004 0.0000 7.0681 -0.0001 21.9750
#
#
#
# Elastic Compliance Matrix: (Units=1/GPa)
#
#
# Indices 1 2 3 4 5 6 
#
# 1 0.016572 -0.000306 -0.008886 0.000000 0.020910 0.000000
# 2 -0.000306 0.021800 -0.006528 0.000000 0.005886 0.000000
# 3 -0.008886 -0.006528 0.016511 0.000000 -0.022013 0.000000
# 4 0.000000 0.000000 0.000000 0.041833 0.000000 -0.013455
# 5 0.020910 0.005886 -0.022013 0.000000 0.102009 0.000000
# 6 0.000000 0.000000 0.000000 -0.013455 0.000000 0.049834
#
#
# Mechanical properties :
#
#
# Convention : Reuss Voigt Hill
#
# Bulk Modulus (GPa) = 42.65683 51.21827 46.93755
# Shear Modulus (GPa) = 17.37233 24.43589 20.90411
#
# Velocity S-wave (km/s) = 3.07449 3.64635 3.37256
# Velocity P-wave (km/s) = 5.98443 6.75251 6.38004
#
# Compressibility (1/GPa) = 0.02344291
#
# Stress axis : x y z
#
# Youngs Moduli (GPa) = 60.34373 45.87207 60.56434
#
# Poissons Ratio (x) = 0.01402 0.53818
# Poissons Ratio (y) = 0.01845 0.39538
# Poissons Ratio (z) = 0.53622 0.29946
#
# Static dielectric constant tensor:
#      x y z
#    x 1.656260 0.000000 0.020140 
#    y 0.000000 1.607340 0.000000 
#    z 0.020140 0.000000 1.684160 
# 
# From -- ./inp_files/319636.got.cif
#   From: 2010.05.17/outbox.ucp.g08.bks.cvg/sg12_160_cif.got.tgz:319636.got - 2010.06.11 11:47:21.
