data_PCOD9224120
_publ_section_title
;
Structure prediction by ZEFSAII (Michael W. Deem and Ramdas Pophale) SiO2 
 PCOD9224120
Probable space group: C 2/M
;
_chemical_formula_sum "Si O2"
_cell_formula_units_Z 32
_cell_length_a 30.000000
_cell_length_b 9.000000
_cell_length_c 24.000000
_cell_angle_alpha 90.000000
_cell_angle_beta 150.000000
_cell_angle_gamma 90.000000
_cell_volume 3240.000000
_symmetry_space_group_name_H-M "C 2/M"
_symmetry_group_IT_number 12
_symmetry_cell_setting 'monoclinic'
loop_
_space_group_symop_operation_xyz
x,y,z
-x,y,-z
-x,-y,-z
x,-y,z
1/2+x,1/2+y,z
1/2-x,1/2+y,-z
1/2-x,1/2-y,-z
1/2+x,1/2-y,z
loop_
_atom_site_type_symbol
_atom_site_label
_atom_site_fract_x
_atom_site_fract_y
_atom_site_fract_z
Si Si1 0.392403 0.180075 0.036317
Si Si2 0.021887 0.322651 0.759631
Si Si3 0.709374 0.668171 0.248054
Si Si4 0.053763 0.826884 0.675602
Si Si5 0.161661 0.831398 0.425483
Si Si6 0.038875 0.672637 0.104838
Si Si7 0.349770 0.662122 0.453692
Si Si8 0.720718 0.321654 0.787577
O O1 0.411740 0.225465 0.119843
O O2 0.466587 0.229899 0.071277
O O3 0.396926 0.000000 0.038736
O O4 0.293509 0.221783 0.912186
O O5 0.018028 0.500000 0.751155
O O6 0.049648 0.257325 0.730063
O O7 0.927130 0.263649 0.680233
O O8 0.688120 0.500000 0.211491
O O9 0.629920 0.738106 0.198012
O O10 0.797472 0.693141 0.379171
O O11 0.736709 0.756144 0.222180
O O12 0.124332 0.772412 0.706044
O O13 0.951658 0.825394 0.544951
O O14 0.076022 0.000000 0.711360
O O15 0.250000 0.750000 0.500000
O O16 0.159547 0.843942 0.490116
O O17 0.156139 0.000000 0.396883
O O18 0.058209 0.500000 0.138943
O O19 0.000000 0.677789 0.000000
O O20 0.315228 0.500000 0.395391
O O21 0.718000 0.500000 0.778375
#
# Coordination Sequence:
#
# PCOD9224120 Si02
#       8
#     8   8   8   8   8   8   8   8
#     4   9  19  35  58  87 113 149 196 229 271 340
#     4  10  20  35  56  84 119 152 186 231 285 339
#     4  12  25  37  54  87 120 147 186 237 293 339
#     4   9  20  39  63  86 110 146 195 243 282 330
#     4  10  21  37  57  82 112 148 193 237 282 335
#     4  10  19  37  62  81 108 154 196 230 274 334
#     4   9  20  39  58  79 110 151 192 230 278 341
#     4  10  20  40  64  83 109 151 198 236 276 338
#
# _framework density 9.8765429999999999
#
# number of rings (size 3 to 8) (size 9 to 14) (size 15 to 20)
#    0.000    2.125    1.250    2.625    1.750    4.250 
#    0.000    4.375    0.000    0.000    0.000    0.000 
#    0.000    0.000    0.000    0.000    0.000    0.000 
#
# Total GULP energy -178283.803703 kJ/mol
# GULP energy per Si atom -5571.368866 kJ/mol
# Density = 0.985406 g / cm^3
# Si number density = 9.876543 Si / 1000 Ang^3
#
#
#
# Elastic Constant Matrix: (Units=GPa)
#
#
# Indices 1 2 3 4 5 6 
#
# 1 7.9769 -4.8501 -0.6152 0.0000 22.7079 0.0000
# 2 -4.8501 43.2513 8.0070 0.0000 6.5526 0.0000
# 3 -0.6152 8.0070 34.7232 0.0000 12.5053 0.0000
# 4 0.0000 0.0000 0.0000 2.6706 0.0000 0.7421
# 5 22.7079 6.5526 12.5053 0.0000 16.9206 0.0000
# 6 0.0000 0.0000 0.0000 0.7421 0.0000 4.4663
#
#
#
# Elastic Compliance Matrix: (Units=1/GPa)
#
#
# Indices 1 2 3 4 5 6 
#
# 1 -0.026563 -0.007565 -0.017197 0.000000 0.051287 0.000000
# 2 -0.007565 0.022647 -0.007977 0.000000 0.007278 0.000000
# 3 -0.017197 -0.007977 0.028494 0.000000 0.005109 0.000000
# 4 0.000000 0.000000 0.000000 0.392564 0.000000 -0.065223
# 5 0.051287 0.007278 0.005109 0.000000 -0.016323 0.000000
# 6 0.000000 0.000000 0.000000 -0.065223 0.000000 0.234733
#
#
# Mechanical properties :
#
#
# Convention : Reuss Voigt Hill
#
# Bulk Modulus (GPa) = -24.44951 10.11498 -7.16726
# Shear Modulus (GPa) = 7.27382 10.37217 8.82299
#
# Velocity S-wave (km/s) = 1.92103 2.29397 2.11574
# Velocity P-wave (km/s) = 2.73568 3.48543 1.52714
#
# Compressibility (1/GPa) = -0.04090062
#
# Stress axis : x y z
#
# Youngs Moduli (GPa) = -37.64661 44.15692 35.09498
#
# Poissons Ratio (x) = 0.33405 0.60352
# Poissons Ratio (y) = -0.28480 0.27997
# Poissons Ratio (z) = -0.64739 0.35226
#
# Static dielectric constant tensor:
#      x y z
#    x 1.540390 0.000000 0.054860 
#    y 0.000000 1.715060 0.000000 
#    z 0.054860 0.000000 1.713760 
# 
# From -- ./inp_files/353501.got.cif
#   From: 2010.05.17/outbox.ucp.g08.bks.cvg/sg12_177_cif.got.tgz:353501.got - 2010.06.11 11:47:21.
