data_PCOD9224980
_publ_section_title
;
Structure prediction by ZEFSAII (Michael W. Deem and Ramdas Pophale) SiO2 
 PCOD9224980
Probable space group: C 2/M
;
_chemical_formula_sum "Si O2"
_cell_formula_units_Z 28
_cell_length_a 27.000000
_cell_length_b 9.000000
_cell_length_c 12.000000
_cell_angle_alpha 90.000000
_cell_angle_beta 70.000000
_cell_angle_gamma 90.000000
_cell_volume 2740.143682
_symmetry_space_group_name_H-M "C 2/M"
_symmetry_group_IT_number 12
_symmetry_cell_setting 'monoclinic'
loop_
_space_group_symop_operation_xyz
x,y,z
-x,y,-z
-x,-y,-z
x,-y,z
1/2+x,1/2+y,z
1/2-x,1/2+y,-z
1/2-x,1/2-y,-z
1/2+x,1/2-y,z
loop_
_atom_site_type_symbol
_atom_site_label
_atom_site_fract_x
_atom_site_fract_y
_atom_site_fract_z
Si Si1 0.330032 0.822252 0.273324
Si Si2 0.621615 0.677310 0.986906
Si Si3 0.925419 0.676818 0.356226
Si Si4 0.713190 0.328771 0.300248
Si Si5 0.912031 0.170392 0.592873
Si Si6 0.467175 0.678409 0.787552
Si Si7 0.300164 0.827543 0.910474
O O1 0.369511 0.774436 0.342848
O O2 0.266391 0.794375 0.330735
O O3 0.334899 0.000000 0.261085
O O4 0.353431 0.752049 0.141533
O O5 0.626038 0.500000 0.971993
O O6 0.563055 0.716433 0.074025
O O7 0.653784 0.733232 0.069697
O O8 0.927614 0.500000 0.346705
O O9 0.931908 0.726106 0.479098
O O10 0.975626 0.748690 0.257672
O O11 0.722513 0.500000 0.250155
O O12 0.651452 0.331827 0.380263
O O13 0.709285 0.200761 0.211428
O O14 0.933563 0.216495 0.699332
O O15 0.930091 0.000000 0.562780
O O16 0.471807 0.500000 0.781071
O O17 0.305860 0.000000 0.932869
O O18 0.250000 0.750000 0.000000
#
# Coordination Sequence:
#
# PCOD9224980 Si02
#       7
#     8   8   8   8   8   8   8
#     4  10  23  41  60  86 125 166 199 242 298 361
#     4  11  22  38  62  92 121 154 202 249 301 363
#     4  11  25  42  59  86 122 161 207 251 299 357
#     4  10  20  38  62  88 119 158 200 245 301 357
#     4  10  21  40  65  90 117 153 201 255 308 357
#     4  10  22  41  64  90 118 153 201 254 308 360
#     4  12  22  33  55  89 126 160 196 242 300 358
#
# _framework density 10.218442
#
# number of rings (size 3 to 8) (size 9 to 14) (size 15 to 20)
#    0.000    1.429    2.857    2.571    0.000    6.286 
#    0.000    2.857    0.000    0.000    0.000    0.000 
#    0.000    0.000    0.000    0.000    0.000    0.000 
#
# Total GULP energy -155950.291237 kJ/mol
# GULP energy per Si atom -5569.653258 kJ/mol
# Density = 1.019518 g / cm^3
# Si number density = 10.218442 Si / 1000 Ang^3
#
#
#
# Elastic Constant Matrix: (Units=GPa)
#
#
# Indices 1 2 3 4 5 6 
#
# 1 61.3721 -1.7522 -4.5429 0.0000 -0.1269 0.0000
# 2 -1.7522 -18.8487 8.1314 0.0000 -6.1449 0.0000
# 3 -4.5429 8.1314 11.4118 0.0000 0.8388 0.0000
# 4 0.0000 0.0000 0.0000 21.7404 0.0000 1.5724
# 5 -0.1269 -6.1449 0.8388 0.0000 31.1015 0.0000
# 6 0.0000 0.0000 0.0000 1.5724 0.0000 29.8799
#
#
#
# Elastic Compliance Matrix: (Units=1/GPa)
#
#
# Indices 1 2 3 4 5 6 
#
# 1 0.016764 0.000982 0.005966 0.000000 0.000102 0.000000
# 2 0.000982 -0.038246 0.028254 0.000000 -0.008314 0.000000
# 3 0.005966 0.028254 0.069597 0.000000 0.003730 0.000000
# 4 0.000000 0.000000 0.000000 0.046173 0.000000 -0.002430
# 5 0.000102 -0.008314 0.003730 0.000000 0.030410 0.000000
# 6 0.000000 0.000000 0.000000 -0.002430 0.000000 0.033595
#
#
# Mechanical properties :
#
#
# Convention : Reuss Voigt Hill
#
# Bulk Modulus (GPa) = 8.43738 6.40088 7.41913
# Shear Modulus (GPa) = 39.24795 20.01761 29.63278
#
# Velocity S-wave (km/s) = 4.38704 3.13307 3.81197
# Velocity P-wave (km/s) = 5.45885 4.02827 4.79719
#
# Compressibility (1/GPa) = 0.11852016
#
# Stress axis : x y z
#
# Youngs Moduli (GPa) = 59.65190 -26.14666 14.36842
#
# Poissons Ratio (x) = 0.02568 -0.08572
# Poissons Ratio (y) = -0.05860 -0.40597
# Poissons Ratio (z) = -0.35589 0.73875
#
# Static dielectric constant tensor:
#      x y z
#    x 1.757220 0.000000 -0.051220 
#    y 0.000000 1.704920 0.000000 
#    z -0.051220 0.000000 1.755680 
# 
# From -- ./inp_files/180687.got.cif
#   From: 2010.05.17/outbox.ucp.g08.bks.cvg/sg12_91_cif.got.tgz:180687.got - 2010.06.11 11:47:21.
