data_PCOD9224077
_publ_section_title
;
Structure prediction by ZEFSAII (Michael W. Deem and Ramdas Pophale) SiO2 
 PCOD9224077
Probable space group: C 2/M
;
_chemical_formula_sum "Si O2"
_cell_formula_units_Z 28
_cell_length_a 18.000000
_cell_length_b 9.000000
_cell_length_c 27.000000
_cell_angle_alpha 90.000000
_cell_angle_beta 40.000000
_cell_angle_gamma 90.000000
_cell_volume 2811.553005
_symmetry_space_group_name_H-M "C 2/M"
_symmetry_group_IT_number 12
_symmetry_cell_setting 'monoclinic'
loop_
_space_group_symop_operation_xyz
x,y,z
-x,y,-z
-x,-y,-z
x,-y,z
1/2+x,1/2+y,z
1/2-x,1/2+y,-z
1/2-x,1/2-y,-z
1/2+x,1/2-y,z
loop_
_atom_site_type_symbol
_atom_site_label
_atom_site_fract_x
_atom_site_fract_y
_atom_site_fract_z
Si Si1 0.943790 0.337679 0.704830
Si Si2 0.724269 0.333624 0.660318
Si Si3 0.239698 0.174850 0.253669
Si Si4 0.050727 0.158048 0.210110
Si Si5 0.129386 0.830479 0.057912
Si Si6 0.950165 0.321388 0.078233
Si Si7 0.278333 0.832626 0.435429
O O1 0.902091 0.500000 0.711346
O O2 0.888805 0.217310 0.697164
O O3 0.905577 0.292806 0.779528
O O4 0.081810 0.337235 0.636337
O O5 0.772097 0.500000 0.638599
O O6 0.736422 0.252807 0.706357
O O7 0.587387 0.343654 0.719565
O O8 0.769305 0.246516 0.589397
O O9 0.327554 0.226753 0.164934
O O10 0.255427 0.000000 0.251758
O O11 0.085374 0.164669 0.136221
O O12 0.093333 0.000000 0.209876
O O13 0.043515 0.733182 0.069723
O O14 0.136790 0.000000 0.035450
O O15 0.250000 0.750000 0.000000
O O16 0.945232 0.500000 0.077691
O O17 0.000000 0.267050 0.000000
O O18 0.250000 0.750000 0.500000
O O19 0.234737 0.000000 0.459074
#
# Coordination Sequence:
#
# PCOD9224077 Si02
#       7
#     8   8   8   8   8   8   8
#     4  10  22  37  58  87 118 150 191 235 283 341
#     4  10  19  36  61  86 114 151 193 236 285 343
#     4  11  22  37  59  85 118 156 197 243 293 347
#     4   9  19  36  56  78 108 146 190 236 286 341
#     4  11  23  38  56  81 111 147 193 244 295 349
#     4  10  23  41  58  80 114 156 198 246 300 349
#     4  10  21  39  63  92 122 154 190 233 286 343
#
# _framework density 9.9589090000000002
#
# number of rings (size 3 to 8) (size 9 to 14) (size 15 to 20)
#    0.000    1.857    1.429    2.143    2.000    4.286 
#    0.000    0.714    0.000    4.286    0.000    0.000 
#    0.000    0.000    0.000    0.000    0.000    0.000 
#
# Total GULP energy -155982.855164 kJ/mol
# GULP energy per Si atom -5570.816256 kJ/mol
# Density = 0.993624 g / cm^3
# Si number density = 9.958909 Si / 1000 Ang^3
#
#
#
# Elastic Constant Matrix: (Units=GPa)
#
#
# Indices 1 2 3 4 5 6 
#
# 1 47.9150 35.4723 21.6871 0.0000 16.6658 0.0002
# 2 35.4723 53.9669 43.8774 0.0000 35.4729 0.0005
# 3 21.6871 43.8774 43.6823 0.0000 38.6044 0.0000
# 4 0.0000 0.0000 0.0000 11.6558 0.0000 7.7919
# 5 16.6658 35.4729 38.6044 0.0000 28.0071 0.0000
# 6 0.0002 0.0005 0.0000 7.7919 0.0000 32.2512
#
#
#
# Elastic Compliance Matrix: (Units=1/GPa)
#
#
# Indices 1 2 3 4 5 6 
#
# 1 0.053181 -0.068480 0.028889 0.000000 0.015269 0.000001
# 2 -0.068480 0.173797 -0.082282 0.000001 -0.065959 -0.000003
# 3 0.028889 -0.082282 -0.065510 0.000000 0.177323 0.000001
# 4 0.000000 0.000001 0.000000 0.102320 -0.000001 -0.024721
# 5 0.015269 -0.065959 0.177323 -0.000001 -0.134256 0.000001
# 6 0.000001 -0.000003 0.000001 -0.024721 0.000001 0.036979
#
#
# Mechanical properties :
#
#
# Convention : Reuss Voigt Hill
#
# Bulk Modulus (GPa) = -12.15378 38.62644 13.23633
# Shear Modulus (GPa) = 13.06063 17.35132 15.20597
#
# Velocity S-wave (km/s) = 2.56349 2.95472 2.76603
# Velocity P-wave (km/s) = 1.62689 5.57454 4.10623
#
# Compressibility (1/GPa) = -0.08227895
#
# Stress axis : x y z
#
# Youngs Moduli (GPa) = 18.80384 5.75385 -15.26484
#
# Poissons Ratio (x) = 0.39402 0.44099
# Poissons Ratio (y) = 1.28769 -1.25603
# Poissons Ratio (z) = -0.54323 0.47344
#
# Static dielectric constant tensor:
#      x y z
#    x 1.682790 0.000000 0.011150 
#    y 0.000000 1.751610 0.000000 
#    z 0.011150 0.000000 1.727080 
# 
# From -- ./inp_files/362927.got.cif
#   From: 2010.05.17/outbox.ucp.g08.bks.cvg/sg12_182_cif.got.tgz:362927.got - 2010.06.11 11:47:21.
