data_PCOD9224198
_publ_section_title
;
Structure prediction by ZEFSAII (Michael W. Deem and Ramdas Pophale) SiO2 
 PCOD9224198
Probable space group: C 2/M
;
_chemical_formula_sum "Si O2"
_cell_formula_units_Z 20
_cell_length_a 15.000000
_cell_length_b 27.000000
_cell_length_c 15.000000
_cell_angle_alpha 90.000000
_cell_angle_beta 160.000000
_cell_angle_gamma 90.000000
_cell_volume 2077.772371
_symmetry_space_group_name_H-M "C 2/M"
_symmetry_group_IT_number 12
_symmetry_cell_setting 'monoclinic'
loop_
_space_group_symop_operation_xyz
x,y,z
-x,y,-z
-x,-y,-z
x,-y,z
1/2+x,1/2+y,z
1/2-x,1/2+y,-z
1/2-x,1/2-y,-z
1/2+x,1/2-y,z
loop_
_atom_site_type_symbol
_atom_site_label
_atom_site_fract_x
_atom_site_fract_y
_atom_site_fract_z
Si Si1 0.417441 0.657898 0.719308
Si Si2 0.472272 0.919043 0.869734
Si Si3 0.521611 0.445437 0.308523
Si Si4 0.710110 0.266628 0.268707
Si Si5 0.023009 0.315595 0.829572
O O1 0.452132 0.599486 0.736348
O O2 0.370384 0.678890 0.773186
O O3 0.147696 0.669741 0.415892
O O4 0.672274 0.684672 0.913381
O O5 0.210141 0.934979 0.571214
O O6 0.497024 0.860034 0.876448
O O7 0.500000 0.930305 0.000000
O O8 0.722855 0.943059 0.058830
O O9 0.585265 0.500000 0.333838
O O10 0.633221 0.231321 0.278933
O O11 0.000000 0.263054 0.500000
O O12 0.500000 0.249903 0.000000
#
# Coordination Sequence:
#
# PCOD9224198 Si02
#       5
#     8   8   8   8   8
#     4  10  21  38  56  76 107 142 178 215 256 315
#     4  10  20  32  50  78 109 136 170 214 255 304
#     4  10  21  35  53  74 100 141 181 215 258 307
#     4  12  23  35  56  83 109 136 174 221 265 308
#     4  10  20  36  55  77 108 146 176 202 255 321
#
# _framework density 9.6256939999999993
#
# number of rings (size 3 to 8) (size 9 to 14) (size 15 to 20)
#    0.000    1.600    0.000    5.400    0.000    5.600 
#    0.000    0.000    0.000    1.200    0.000    0.000 
#    0.000    0.000    0.000    0.000    0.000    0.000 
#
# Total GULP energy -111504.056909 kJ/mol
# GULP energy per Si atom -5575.202845 kJ/mol
# Density = 0.960378 g / cm^3
# Si number density = 9.625694 Si / 1000 Ang^3
#
#
#
# Elastic Constant Matrix: (Units=GPa)
#
#
# Indices 1 2 3 4 5 6 
#
# 1 35.9487 34.9203 10.2050 0.0017 15.4900 -0.0005
# 2 34.9203 103.4247 8.1974 0.0000 15.0372 0.0001
# 3 10.2050 8.1974 90.0954 0.0225 23.3978 -0.0015
# 4 0.0017 0.0000 0.0225 6.8408 0.0042 -0.1691
# 5 15.4900 15.0372 23.3978 0.0042 19.7082 -0.0014
# 6 -0.0005 0.0001 -0.0015 -0.1691 -0.0014 -1.1949
#
#
#
# Elastic Compliance Matrix: (Units=1/GPa)
#
#
# Indices 1 2 3 4 5 6 
#
# 1 0.057375 -0.013849 0.005390 -0.000006 -0.040928 0.000014
# 2 -0.013849 0.014398 0.000412 0.000003 -0.000590 0.000007
# 3 0.005390 0.000412 0.016819 -0.000041 -0.024518 0.000011
# 4 -0.000006 0.000003 -0.000041 0.145672 0.000020 -0.020618
# 5 -0.040928 -0.000590 -0.024518 0.000020 0.112465 -0.000082
# 6 0.000014 0.000007 0.000011 -0.020618 -0.000082 -0.833959
#
#
# Mechanical properties :
#
#
# Convention : Reuss Voigt Hill
#
# Bulk Modulus (GPa) = 13.79350 37.34601 25.56976
# Shear Modulus (GPa) = -11.18642 16.81391 2.81374
#
# Velocity S-wave (km/s) = -2.41316 2.95852 1.21027
# Velocity P-wave (km/s) = 0.76416 5.57778 3.90690
#
# Compressibility (1/GPa) = 0.07249790
#
# Stress axis : x y z
#
# Youngs Moduli (GPa) = 17.42912 69.45471 59.45781
#
# Poissons Ratio (x) = 0.96187 -0.32049
# Poissons Ratio (y) = 0.24137 -0.02448
# Poissons Ratio (z) = -0.09395 -0.02860
#
# Static dielectric constant tensor:
#      x y z
#    x 1.585290 0.000000 0.014440 
#    y 0.000000 1.767330 0.000000 
#    z 0.014440 0.000000 1.632980 
# 
# From -- ./inp_files/7602.got.cif
#   From: 2010.05.17/outbox.ucp.g08.bks.cvg/sg12_4_cif.got.tgz:7602.got - 2010.06.11 11:47:21.
