data_PCOD9224521
_publ_section_title
;
Structure prediction by ZEFSAII (Michael W. Deem and Ramdas Pophale) SiO2 
 PCOD9224521
Probable space group: C 2/M
;
_chemical_formula_sum "Si O2"
_cell_formula_units_Z 32
_cell_length_a 15.000000
_cell_length_b 9.000000
_cell_length_c 27.000000
_cell_angle_alpha 90.000000
_cell_angle_beta 100.000000
_cell_angle_gamma 90.000000
_cell_volume 3589.624260
_symmetry_space_group_name_H-M "C 2/M"
_symmetry_group_IT_number 12
_symmetry_cell_setting 'monoclinic'
loop_
_space_group_symop_operation_xyz
x,y,z
-x,y,-z
-x,-y,-z
x,-y,z
1/2+x,1/2+y,z
1/2-x,1/2+y,-z
1/2-x,1/2-y,-z
1/2+x,1/2-y,z
loop_
_atom_site_type_symbol
_atom_site_label
_atom_site_fract_x
_atom_site_fract_y
_atom_site_fract_z
Si Si1 0.908467 0.679172 0.744582
Si Si2 0.347831 0.178804 0.624718
Si Si3 0.604468 0.679416 0.993143
Si Si4 0.256449 0.321222 0.078942
Si Si5 0.346609 0.327759 0.363716
Si Si6 0.103911 0.328341 0.734222
Si Si7 0.217326 0.173639 0.182643
Si Si8 0.525417 0.326248 0.446806
O O1 0.899428 0.500000 0.749379
O O2 0.878643 0.715653 0.684613
O O3 0.853942 0.753483 0.784931
O O4 0.013769 0.725886 0.753293
O O5 0.242780 0.226894 0.616483
O O6 0.402526 0.249119 0.583768
O O7 0.355774 0.000000 0.620380
O O8 0.611160 0.500000 0.998829
O O9 0.648641 0.714157 0.942295
O O10 0.500000 0.717807 0.000000
O O11 0.674858 0.759220 0.036867
O O12 0.252201 0.500000 0.082124
O O13 0.237358 0.252103 0.131651
O O14 0.328064 0.500000 0.349822
O O15 0.370527 0.250454 0.314432
O O16 0.432241 0.318786 0.407427
O O17 0.085123 0.500000 0.719495
O O18 0.188503 0.320745 0.778578
O O19 0.192821 0.000000 0.171843
O O20 0.500000 0.269489 0.500000
O O21 0.552509 0.500000 0.455189
#
# Coordination Sequence:
#
# PCOD9224521 Si02
#       8
#     8   8   8   8   8   8   8   8
#     4  10  20  36  56  80 110 143 182 228 278 333
#     4  10  20  35  57  81 106 139 180 226 274 332
#     4   9  19  38  63  88 116 151 194 237 281 332
#     4  10  21  37  58  85 118 154 189 233 282 328
#     4  10  20  35  56  79 106 141 180 222 274 333
#     4  10  21  36  55  80 109 143 183 226 275 330
#     4  11  23  37  55  82 116 149 186 231 277 330
#     4  10  22  38  55  79 111 143 180 229 280 333
#
# _framework density 8.9145819999999993
#
# number of rings (size 3 to 8) (size 9 to 14) (size 15 to 20)
#    0.000    2.000    2.500    0.750    0.000    4.500 
#    0.000    2.500    0.000    0.000    0.000    0.000 
#    0.000    0.000    0.000    0.000    0.000    0.000 
#
# Total GULP energy -178201.263547 kJ/mol
# GULP energy per Si atom -5568.789486 kJ/mol
# Density = 0.889429 g / cm^3
# Si number density = 8.914582 Si / 1000 Ang^3
#
#
#
# Elastic Constant Matrix: (Units=GPa)
#
#
# Indices 1 2 3 4 5 6 
#
# 1 164.4473 49.5660 50.5185 0.0000 -46.0908 0.0000
# 2 49.5660 59.8992 51.9067 0.0000 -21.1941 0.0000
# 3 50.5185 51.9067 122.5901 0.0000 -48.3589 0.0000
# 4 0.0000 0.0000 0.0000 33.7195 0.0000 -11.2344
# 5 -46.0908 -21.1941 -48.3589 0.0000 39.1190 0.0000
# 6 0.0000 0.0000 0.0000 -11.2344 0.0000 28.8109
#
#
#
# Elastic Compliance Matrix: (Units=1/GPa)
#
#
# Indices 1 2 3 4 5 6 
#
# 1 0.011124 -0.007995 0.004416 0.000000 0.014234 0.000000
# 2 -0.007995 0.032135 -0.013975 0.000000 -0.009285 0.000000
# 3 0.004416 -0.013975 0.022095 0.000000 0.024946 0.000000
# 4 0.000000 0.000000 0.000000 0.034085 0.000000 0.013291
# 5 0.014234 -0.009285 0.024946 0.000000 0.068141 0.000000
# 6 0.000000 0.000000 0.000000 0.013291 0.000000 0.039892
#
#
# Mechanical properties :
#
#
# Convention : Reuss Voigt Hill
#
# Bulk Modulus (GPa) = 33.06176 72.32433 52.69305
# Shear Modulus (GPa) = 19.78941 33.32623 26.55782
#
# Velocity S-wave (km/s) = 3.33520 4.32811 3.86368
# Velocity P-wave (km/s) = 5.78060 8.10123 7.03723
#
# Compressibility (1/GPa) = 0.03024643
#
# Stress axis : x y z
#
# Youngs Moduli (GPa) = 89.89976 31.11841 45.25902
#
# Poissons Ratio (x) = 0.24880 -0.19987
# Poissons Ratio (y) = 0.71877 0.63248
# Poissons Ratio (z) = -0.39702 0.43487
#
# Static dielectric constant tensor:
#      x y z
#    x 1.649500 0.000000 0.011290 
#    y 0.000000 1.624080 0.000000 
#    z 0.011290 0.000000 1.602040 
# 
# From -- ./inp_files/359921.got.cif
#   From: 2010.05.17/outbox.ucp.g08.bks.cvg/sg12_180_cif.got.tgz:359921.got - 2010.06.11 11:47:21.
