data_PCOD9224979
_publ_section_title
;
Structure prediction by ZEFSAII (Michael W. Deem and Ramdas Pophale) SiO2 
 PCOD9224979
Probable space group: C 2/M
;
_chemical_formula_sum "Si O2"
_cell_formula_units_Z 32
_cell_length_a 30.000000
_cell_length_b 9.000000
_cell_length_c 18.000000
_cell_angle_alpha 90.000000
_cell_angle_beta 40.000000
_cell_angle_gamma 90.000000
_cell_volume 3123.947783
_symmetry_space_group_name_H-M "C 2/M"
_symmetry_group_IT_number 12
_symmetry_cell_setting 'monoclinic'
loop_
_space_group_symop_operation_xyz
x,y,z
-x,y,-z
-x,-y,-z
x,-y,z
1/2+x,1/2+y,z
1/2-x,1/2+y,-z
1/2-x,1/2-y,-z
1/2+x,1/2-y,z
loop_
_atom_site_type_symbol
_atom_site_label
_atom_site_fract_x
_atom_site_fract_y
_atom_site_fract_z
Si Si1 0.356875 0.177526 0.814322
Si Si2 0.906185 0.821788 0.903078
Si Si3 0.809417 0.324633 0.373214
Si Si4 0.741295 0.678761 0.859026
Si Si5 0.080326 0.166644 0.407369
Si Si6 0.753573 0.329558 0.678796
Si Si7 0.945369 0.824986 0.260836
Si Si8 0.909261 0.331080 0.451438
O O1 0.390899 0.249872 0.842806
O O2 0.280377 0.229764 0.883570
O O3 0.397089 0.233179 0.690500
O O4 0.358079 0.000000 0.821646
O O5 0.975995 0.780114 0.856791
O O6 0.909182 0.000000 0.888243
O O7 0.838752 0.783639 0.036061
O O8 0.804560 0.500000 0.387698
O O9 0.750000 0.250000 0.500000
O O10 0.794957 0.273590 0.307577
O O11 0.884620 0.265928 0.300400
O O12 0.749477 0.500000 0.849910
O O13 0.767415 0.726550 0.744871
O O14 0.085142 0.264053 0.474786
O O15 0.000000 0.142259 0.500000
O O16 0.113506 0.000000 0.367841
O O17 0.726907 0.500000 0.717157
O O18 0.826901 0.336924 0.543253
O O19 0.941373 0.783104 0.352846
O O20 0.934677 0.000000 0.262494
O O21 0.936715 0.500000 0.410013
#
# Coordination Sequence:
#
# PCOD9224979 Si02
#       8
#     8   8   8   8   8   8   8   8
#     4  11  21  36  59  87 118 155 200 248 296 346
#     4  10  22  40  61  86 117 157 201 245 291 344
#     4  12  24  39  62  91 121 153 192 240 295 354
#     4   9  19  39  63  86 117 155 200 246 288 343
#     4  11  23  36  51  77 117 160 199 241 290 350
#     4  10  20  38  62  88 117 150 191 239 292 348
#     4  11  23  39  60  87 120 157 197 239 290 353
#     4  11  21  35  58  85 116 153 189 238 296 349
#
# _framework density 10.243449
#
# number of rings (size 3 to 8) (size 9 to 14) (size 15 to 20)
#    0.000    1.375    2.500    3.750    0.000    5.500 
#    0.000    1.875    0.000    3.750    0.000    0.000 
#    0.000    0.000    0.000    0.000    0.000    0.000 
#
# Total GULP energy -178361.027049 kJ/mol
# GULP energy per Si atom -5573.782095 kJ/mol
# Density = 1.022013 g / cm^3
# Si number density = 10.243449 Si / 1000 Ang^3
#
#
#
# Elastic Constant Matrix: (Units=GPa)
#
#
# Indices 1 2 3 4 5 6 
#
# 1 90.6221 37.1856 28.7023 -0.0022 -22.4733 0.0010
# 2 37.1856 57.9900 -1.8739 -0.0029 -17.6323 -0.0007
# 3 28.7023 -1.8739 19.9066 0.0020 -19.0380 -0.0012
# 4 -0.0022 -0.0029 0.0020 14.9665 -0.0013 4.0406
# 5 -22.4733 -17.6323 -19.0380 -0.0013 31.7291 0.0003
# 6 0.0010 -0.0007 -0.0012 4.0406 0.0003 37.6451
#
#
#
# Elastic Compliance Matrix: (Units=1/GPa)
#
#
# Indices 1 2 3 4 5 6 
#
# 1 -0.037644 0.059199 0.154431 -0.000008 0.098897 0.000007
# 2 0.059199 -0.059664 -0.193781 0.000016 -0.107498 -0.000010
# 3 0.154431 -0.193781 -0.443617 0.000028 -0.264484 -0.000023
# 4 -0.000008 0.000016 0.000028 0.068810 0.000023 -0.007386
# 5 0.098897 -0.107498 -0.264484 0.000023 -0.116869 -0.000015
# 6 0.000007 -0.000010 -0.000023 -0.007386 -0.000015 0.027357
#
#
# Mechanical properties :
#
#
# Convention : Reuss Voigt Hill
#
# Bulk Modulus (GPa) = -1.99511 32.94962 15.47726
# Shear Modulus (GPa) = -6.50700 23.83510 8.66405
#
# Velocity S-wave (km/s) = -1.78412 3.41461 2.05870
# Velocity P-wave (km/s) = 2.28474 5.62710 3.63622
#
# Compressibility (1/GPa) = -0.50122645
#
# Stress axis : x y z
#
# Youngs Moduli (GPa) = -26.56479 -16.76042 -2.25419
#
# Poissons Ratio (x) = 0.99221 0.34812
# Poissons Ratio (y) = 1.57262 -0.43682
# Poissons Ratio (z) = 4.10244 -3.24785
#
# Static dielectric constant tensor:
#      x y z
#    x 1.765910 -0.000010 -0.042960 
#    y -0.000010 1.733110 0.000010 
#    z -0.042960 0.000010 1.811260 
# 
# From -- ./inp_files/295515.got.cif
#   From: 2010.05.17/outbox.ucp.g08.bks.cvg/sg12_148_cif.got.tgz:295515.got - 2010.06.11 11:47:21.
