data_PCOD9224170
_publ_section_title
;
Structure prediction by ZEFSAII (Michael W. Deem and Ramdas Pophale) SiO2 
 PCOD9224170
Probable space group: C 2/M
;
_chemical_formula_sum "Si O2"
_cell_formula_units_Z 26
_cell_length_a 9.000000
_cell_length_b 27.000000
_cell_length_c 24.000000
_cell_angle_alpha 90.000000
_cell_angle_beta 150.000000
_cell_angle_gamma 90.000000
_cell_volume 2916.000000
_symmetry_space_group_name_H-M "C 2/M"
_symmetry_group_IT_number 12
_symmetry_cell_setting 'monoclinic'
loop_
_space_group_symop_operation_xyz
x,y,z
-x,y,-z
-x,-y,-z
x,-y,z
1/2+x,1/2+y,z
1/2-x,1/2+y,-z
1/2-x,1/2-y,-z
1/2+x,1/2-y,z
loop_
_atom_site_type_symbol
_atom_site_label
_atom_site_fract_x
_atom_site_fract_y
_atom_site_fract_z
Si Si1 0.327758 0.685526 0.049347
Si Si2 0.970515 0.500000 0.576199
Si Si3 0.628080 0.234638 0.836900
Si Si4 0.345843 0.419752 0.110885
Si Si5 0.063789 0.078260 0.306807
Si Si6 0.218470 0.500000 0.782665
Si Si7 0.213436 0.816790 0.779689
Si Si8 0.337053 0.500000 0.318017
O O1 0.308135 0.730640 0.087682
O O2 0.597654 0.700763 0.095855
O O3 0.386583 0.636483 0.104017
O O4 0.018644 0.674830 0.915986
O O5 0.621456 0.500000 0.451456
O O6 0.122728 0.548791 0.597343
O O7 0.055584 0.500000 0.669136
O O8 0.350542 0.201748 0.766075
O O9 0.562198 0.272382 0.765114
O O10 0.441079 0.428012 0.204933
O O11 0.559876 0.453428 0.143340
O O12 0.000000 0.432791 0.000000
O O13 0.003538 0.136463 0.297432
O O14 0.876877 0.047486 0.291102
O O15 0.968402 0.500000 0.748109
#
# Coordination Sequence:
#
# PCOD9224170 Si02
#       8
#     8   4   8   8   8   4   8   4
#     4  11  18  31  49  71 112 157 197 218 253 291
#     4   9  21  44  66  81 101 131 170 239 303 347
#     4  10  20  29  48  73 111 160 196 226 248 292
#     4  11  20  37  51  76 119 163 178 209 263 332
#     4  10  20  34  58  83 109 142 186 219 276 341
#     4  10  24  37  62  83 106 133 182 224 282 344
#     4  11  18  31  47  77 110 151 193 221 254 307
#     4  11  23  43  61  86 101 122 185 253 286 327
#
# _framework density 8.9163239999999995
#
# number of rings (size 3 to 8) (size 9 to 14) (size 15 to 20)
#    0.000    1.538    3.077    5.538    2.154    0.000 
#    0.000    1.538    0.000    0.000    0.000    4.308 
#    0.000    0.000    0.000    0.000    0.000    0.000 
#
# Total GULP energy -144903.414963 kJ/mol
# GULP energy per Si atom -5573.208268 kJ/mol
# Density = 0.889603 g / cm^3
# Si number density = 8.916324 Si / 1000 Ang^3
#
#
#
# Elastic Constant Matrix: (Units=GPa)
#
#
# Indices 1 2 3 4 5 6 
#
# 1 107.2695 8.4361 11.1673 0.0062 20.6453 0.0039
# 2 8.4361 60.4892 24.1545 0.0043 12.7411 0.0034
# 3 11.1673 24.1545 39.3514 0.0138 7.7601 0.0049
# 4 0.0062 0.0043 0.0138 -10.2084 0.0015 -12.1839
# 5 20.6453 12.7411 7.7601 0.0015 28.5863 -0.0001
# 6 0.0039 0.0034 0.0049 -12.1839 -0.0001 29.8412
#
#
#
# Elastic Compliance Matrix: (Units=1/GPa)
#
#
# Indices 1 2 3 4 5 6 
#
# 1 0.010967 0.000977 -0.002181 0.000003 -0.007764 0.000000
# 2 0.000977 0.023176 -0.013024 -0.000005 -0.007499 -0.000003
# 3 -0.002181 -0.013024 0.034412 0.000030 -0.001962 0.000008
# 4 0.000003 -0.000005 0.000030 -0.065863 -0.000004 -0.026891
# 5 -0.007764 -0.007499 -0.001962 -0.000004 0.044464 0.000000
# 6 0.000000 -0.000003 0.000008 -0.026891 0.000000 0.022531
#
#
# Mechanical properties :
#
#
# Convention : Reuss Voigt Hill
#
# Bulk Modulus (GPa) = 24.93853 32.73623 28.83738
# Shear Modulus (GPa) = 44.83944 20.53398 32.68671
#
# Velocity S-wave (km/s) = 5.01988 3.39703 4.28596
# Velocity P-wave (km/s) = 6.90029 5.81238 6.37957
#
# Compressibility (1/GPa) = 0.04009860
#
# Stress axis : x y z
#
# Youngs Moduli (GPa) = 91.18503 43.14790 29.05953
#
# Poissons Ratio (x) = -0.04214 0.06337
# Poissons Ratio (y) = -0.08905 0.37847
# Poissons Ratio (z) = 0.19884 0.56196
#
# Static dielectric constant tensor:
#      x y z
#    x 1.630920 0.000000 -0.008590 
#    y 0.000000 1.661430 0.000000 
#    z -0.008590 0.000000 1.612430 
# 
# From -- ./inp_files/334222.got.cif
#   From: 2010.05.17/outbox.ucp.g08.bks.cvg/sg12_168_cif.got.tgz:334222.got - 2010.06.11 11:47:21.
