data_PCOD9224137
_publ_section_title
;
Structure prediction by ZEFSAII (Michael W. Deem and Ramdas Pophale) SiO2 
 PCOD9224137
Probable space group: C 2/M
;
_chemical_formula_sum "Si O2"
_cell_formula_units_Z 26
_cell_length_a 12.000000
_cell_length_b 24.000000
_cell_length_c 12.000000
_cell_angle_alpha 90.000000
_cell_angle_beta 50.000000
_cell_angle_gamma 90.000000
_cell_volume 2647.449595
_symmetry_space_group_name_H-M "C 2/M"
_symmetry_group_IT_number 12
_symmetry_cell_setting 'monoclinic'
loop_
_space_group_symop_operation_xyz
x,y,z
-x,y,-z
-x,-y,-z
x,-y,z
1/2+x,1/2+y,z
1/2-x,1/2+y,-z
1/2-x,1/2-y,-z
1/2+x,1/2-y,z
loop_
_atom_site_type_symbol
_atom_site_label
_atom_site_fract_x
_atom_site_fract_y
_atom_site_fract_z
Si Si1 0.666893 0.721902 0.656030
Si Si2 0.371676 0.878728 0.490690
Si Si3 0.748699 0.000000 0.386015
Si Si4 0.109696 0.218457 0.323936
Si Si5 0.597113 0.500000 0.171520
Si Si6 0.987320 0.603858 0.823868
Si Si7 0.689092 0.000000 0.161024
Si Si8 0.267121 0.106635 0.155766
O O1 0.750000 0.750000 0.500000
O O2 0.730076 0.658434 0.611462
O O3 0.744751 0.747185 0.720787
O O4 0.496266 0.728152 0.720373
O O5 0.500000 0.870847 0.500000
O O6 0.322625 0.943441 0.520274
O O7 0.440388 0.863004 0.325744
O O8 0.714979 0.000000 0.275534
O O9 0.922992 0.000000 0.290557
O O10 0.171875 0.156852 0.264113
O O11 0.000000 0.221889 0.500000
O O12 0.668335 0.554803 0.181747
O O13 0.659906 0.500000 0.004832
O O14 0.118574 0.587676 0.822523
O O15 0.904139 0.552938 0.818627
O O16 0.864580 0.627844 0.987229
#
# Coordination Sequence:
#
# PCOD9224137 Si02
#       8
#     8   8   4   8   4   8   4   8
#     4  10  21  37  63  88 117 160 206 251 311 357
#     4  12  22  37  62  92 125 157 207 256 307 367
#     4  12  23  37  57  96 128 158 200 256 304 363
#     4  10  20  39  63  90 119 161 206 258 309 367
#     4  10  22  36  57  88 124 170 201 239 311 368
#     4  10  20  36  60  88 120 164 201 247 306 361
#     4  10  19  38  55  86 127 165 200 245 297 371
#     4  10  21  38  62  88 125 161 204 249 303 371
#
# _framework density 9.8207719999999998
#
# number of rings (size 3 to 8) (size 9 to 14) (size 15 to 20)
#    0.000    1.538    1.538    5.538    0.000    1.846 
#    0.000    1.154    0.000   26.769    0.000    0.000 
#    0.000    0.000    0.000    0.000    0.000    0.000 
#
# Total GULP energy -144871.265654 kJ/mol
# GULP energy per Si atom -5571.971756 kJ/mol
# Density = 0.979842 g / cm^3
# Si number density = 9.820772 Si / 1000 Ang^3
#
#
#
# Elastic Constant Matrix: (Units=GPa)
#
#
# Indices 1 2 3 4 5 6 
#
# 1 161.1494 21.7581 27.6952 0.0000 -5.2326 0.0000
# 2 21.7581 90.3410 3.9818 0.0000 1.1703 0.0000
# 3 27.6952 3.9818 57.5491 0.0000 6.7604 0.0000
# 4 0.0000 0.0000 0.0000 13.6427 0.0000 0.2416
# 5 -5.2326 1.1703 6.7604 0.0000 29.1711 0.0000
# 6 0.0000 0.0000 0.0000 0.2416 0.0000 20.3233
#
#
#
# Elastic Compliance Matrix: (Units=1/GPa)
#
#
# Indices 1 2 3 4 5 6 
#
# 1 0.007101 -0.001581 -0.003562 0.000000 0.002163 0.000000
# 2 -0.001581 0.011457 0.000057 0.000000 -0.000757 0.000000
# 3 -0.003562 0.000057 0.019698 0.000000 -0.005206 0.000000
# 4 0.000000 0.000000 0.000000 0.073315 0.000000 -0.000872
# 5 0.002163 -0.000757 -0.005206 0.000000 0.035905 0.000000
# 6 0.000000 0.000000 0.000000 -0.000872 0.000000 0.049215
#
#
# Mechanical properties :
#
#
# Convention : Reuss Voigt Hill
#
# Bulk Modulus (GPa) = 35.60697 46.21217 40.90957
# Shear Modulus (GPa) = 23.12397 29.66773 26.39585
#
# Velocity S-wave (km/s) = 3.43490 3.89068 3.66987
# Velocity P-wave (km/s) = 5.82230 6.61529 6.23142
#
# Compressibility (1/GPa) = 0.02808439
#
# Stress axis : x y z
#
# Youngs Moduli (GPa) = 140.81835 87.28050 50.76563
#
# Poissons Ratio (x) = 0.13802 0.18083
# Poissons Ratio (y) = 0.22268 -0.00290
# Poissons Ratio (z) = 0.50161 -0.00499
#
# Static dielectric constant tensor:
#      x y z
#    x 1.721760 0.000000 0.002740 
#    y 0.000000 1.721130 0.000000 
#    z 0.002740 0.000000 1.698600 
# 
# From -- ./inp_files/135908.got.cif
#   From: 2010.05.17/outbox.ucp.g08.bks.cvg/sg12_68_cif.got.tgz:135908.got - 2010.06.11 11:47:21.
