data_PCOD9224752
_publ_section_title
;
Structure prediction by ZEFSAII (Michael W. Deem and Ramdas Pophale) SiO2 
 PCOD9224752
Probable space group: C 2/M
;
_chemical_formula_sum "Si O2"
_cell_formula_units_Z 28
_cell_length_a 30.000000
_cell_length_b 9.000000
_cell_length_c 21.000000
_cell_angle_alpha 90.000000
_cell_angle_beta 30.000000
_cell_angle_gamma 90.000000
_cell_volume 2835.000000
_symmetry_space_group_name_H-M "C 2/M"
_symmetry_group_IT_number 12
_symmetry_cell_setting 'monoclinic'
loop_
_space_group_symop_operation_xyz
x,y,z
-x,y,-z
-x,-y,-z
x,-y,z
1/2+x,1/2+y,z
1/2-x,1/2+y,-z
1/2-x,1/2-y,-z
1/2+x,1/2-y,z
loop_
_atom_site_type_symbol
_atom_site_label
_atom_site_fract_x
_atom_site_fract_y
_atom_site_fract_z
Si Si1 0.367179 0.320775 0.454825
Si Si2 0.223600 0.679897 0.811312
Si Si3 0.683714 0.321293 0.730568
Si Si4 0.403312 0.326865 0.650709
Si Si5 0.549987 0.179733 0.277437
Si Si6 0.086479 0.325275 0.734865
Si Si7 0.384068 0.827178 0.937349
O O1 0.364170 0.500000 0.463004
O O2 0.279207 0.245097 0.591462
O O3 0.453850 0.256663 0.384350
O O4 0.372146 0.266306 0.375255
O O5 0.211355 0.500000 0.819315
O O6 0.175950 0.761880 0.812194
O O7 0.328655 0.710050 0.690338
O O8 0.183672 0.735401 0.927750
O O9 0.681567 0.500000 0.730135
O O10 0.613927 0.249364 0.767289
O O11 0.500000 0.313773 0.500000
O O12 0.388002 0.500000 0.687396
O O13 0.405687 0.230111 0.711733
O O14 0.606936 0.231251 0.145242
O O15 0.539139 0.000000 0.288254
O O16 0.113940 0.500000 0.699562
O O17 0.981265 0.320878 0.849986
O O18 0.359465 0.000000 0.960699
#
# Coordination Sequence:
#
# PCOD9224752 Si02
#       7
#     8   8   8   8   8   8   8
#     4  11  21  36  58  85 115 147 186 231 282 336
#     4  10  21  39  59  79 110 152 194 234 279 334
#     4  12  24  37  54  82 116 149 188 233 284 334
#     4  10  21  36  56  84 115 147 187 234 284 336
#     4  10  20  36  59  85 114 148 186 231 283 336
#     4  10  20  37  59  83 112 148 189 232 282 337
#     4   8  18  37  59  82 109 146 191 233 277 334
#
# _framework density 9.8765429999999999
#
# number of rings (size 3 to 8) (size 9 to 14) (size 15 to 20)
#    0.000    1.857    0.000    5.571    0.000    3.143 
#    0.000    7.143    0.000    0.000    0.000    0.000 
#    0.000    0.000    0.000    0.000    0.000    0.000 
#
# Total GULP energy -156319.929733 kJ/mol
# GULP energy per Si atom -5582.854633 kJ/mol
# Density = 0.985406 g / cm^3
# Si number density = 9.876543 Si / 1000 Ang^3
#
#
#
# Elastic Constant Matrix: (Units=GPa)
#
#
# Indices 1 2 3 4 5 6 
#
# 1 97.0043 32.7641 -14.3901 -0.0001 21.8487 0.0000
# 2 32.7641 110.0037 2.5088 -0.0016 10.0341 0.0015
# 3 -14.3901 2.5088 31.5313 -0.0027 14.0079 0.0015
# 4 -0.0001 -0.0016 -0.0027 16.9353 0.0003 5.5547
# 5 21.8487 10.0341 14.0079 0.0003 11.0289 0.0002
# 6 0.0000 0.0015 0.0015 5.5547 0.0002 39.2892
#
#
#
# Elastic Compliance Matrix: (Units=1/GPa)
#
#
# Indices 1 2 3 4 5 6 
#
# 1 -0.012626 -0.002506 -0.040593 -0.000009 0.078851 0.000002
# 2 -0.002506 0.010227 -0.000067 0.000001 -0.004254 -0.000001
# 3 -0.040593 -0.000067 -0.051769 -0.000012 0.146229 0.000003
# 4 -0.000009 0.000001 -0.000012 0.061920 0.000031 -0.008754
# 5 0.078851 -0.004254 0.146229 0.000031 -0.247392 -0.000008
# 6 0.000002 -0.000001 0.000003 -0.008754 -0.000008 0.026690
#
#
# Mechanical properties :
#
#
# Convention : Reuss Voigt Hill
#
# Bulk Modulus (GPa) = -7.11738 31.14496 12.01379
# Shear Modulus (GPa) = -28.82630 27.96112 -0.43259
#
# Velocity S-wave (km/s) = -3.82426 3.76644 -0.46848
# Velocity P-wave (km/s) = 4.80739 5.89204 2.40885
#
# Compressibility (1/GPa) = -0.14050107
#
# Stress axis : x y z
#
# Youngs Moduli (GPa) = -79.19875 97.78454 -19.31664
#
# Poissons Ratio (x) = 0.24504 -0.78412
# Poissons Ratio (y) = -0.19847 -0.00130
# Poissons Ratio (z) = -3.21490 0.00659
#
# Static dielectric constant tensor:
#      x y z
#    x 1.676980 0.000000 0.020530 
#    y 0.000000 1.666330 0.000000 
#    z 0.020530 0.000000 1.750740 
# 
# From -- ./inp_files/329508.got.cif
#   From: 2010.05.17/outbox.ucp.g08.bks.cvg/sg12_165_cif.got.tgz:329508.got - 2010.06.11 11:47:21.
