data_PCOD9224439
_publ_section_title
;
Structure prediction by ZEFSAII (Michael W. Deem and Ramdas Pophale) SiO2 
 PCOD9224439
Probable space group: C 2/M
;
_chemical_formula_sum "Si O2"
_cell_formula_units_Z 32
_cell_length_a 18.000000
_cell_length_b 9.000000
_cell_length_c 30.000000
_cell_angle_alpha 90.000000
_cell_angle_beta 40.000000
_cell_angle_gamma 90.000000
_cell_volume 3123.947783
_symmetry_space_group_name_H-M "C 2/M"
_symmetry_group_IT_number 12
_symmetry_cell_setting 'monoclinic'
loop_
_space_group_symop_operation_xyz
x,y,z
-x,y,-z
-x,-y,-z
x,-y,z
1/2+x,1/2+y,z
1/2-x,1/2+y,-z
1/2-x,1/2-y,-z
1/2+x,1/2-y,z
loop_
_atom_site_type_symbol
_atom_site_label
_atom_site_fract_x
_atom_site_fract_y
_atom_site_fract_z
Si Si1 0.764877 0.324161 0.384126
Si Si2 0.941861 0.327696 0.477227
Si Si3 0.077196 0.831210 0.920067
Si Si4 0.998141 0.828875 0.738773
Si Si5 0.663530 0.676945 0.107759
Si Si6 0.155346 0.178204 0.338278
Si Si7 0.728600 0.671358 0.209939
Si Si8 0.610649 0.173155 0.039797
O O1 0.757042 0.500000 0.393003
O O2 0.681345 0.248679 0.458595
O O3 0.894176 0.266339 0.325503
O O4 0.721055 0.287173 0.354076
O O5 0.929413 0.500000 0.471885
O O6 0.000000 0.316338 0.500000
O O7 0.029385 0.250263 0.402656
O O8 0.207916 0.776659 0.854922
O O9 0.016071 0.707418 0.918111
O O10 0.068959 0.000000 0.906656
O O11 0.000000 0.830315 0.000000
O O12 0.927301 0.766398 0.814231
O O13 0.904579 0.832519 0.742832
O O14 0.034571 0.000000 0.731570
O O15 0.663113 0.500000 0.114553
O O16 0.626790 0.725789 0.075429
O O17 0.799349 0.718209 0.040883
O O18 0.228164 0.225190 0.261265
O O19 0.142855 0.000000 0.340623
O O20 0.769554 0.500000 0.187536
O O21 0.629923 0.000000 0.041405
#
# Coordination Sequence:
#
# PCOD9224439 Si02
#       8
#     8   8   8   8   8   8   8   8
#     4  10  20  34  56  85 116 148 187 231 279 336
#     4   9  17  32  56  85 114 146 185 227 277 334
#     4  11  24  39  56  80 112 148 190 237 286 337
#     4  10  21  37  56  79 112 150 188 232 281 336
#     4   9  19  35  54  79 110 144 182 232 287 333
#     4   9  19  36  58  85 115 145 182 232 282 332
#     4  10  22  40  60  83 114 151 192 234 285 342
#     4  10  20  35  57  81 106 141 188 234 283 341
#
# _framework density 10.243449
#
# number of rings (size 3 to 8) (size 9 to 14) (size 15 to 20)
#    0.000    2.250    0.000    2.250    1.750    6.000 
#    0.000    0.625    0.000    0.000    0.000    0.000 
#    0.000    0.000    0.000    0.000    0.000    0.000 
#
# Total GULP energy -178225.870244 kJ/mol
# GULP energy per Si atom -5569.558445 kJ/mol
# Density = 1.022013 g / cm^3
# Si number density = 10.243449 Si / 1000 Ang^3
#
#
#
# Elastic Constant Matrix: (Units=GPa)
#
#
# Indices 1 2 3 4 5 6 
#
# 1 19.1547 12.8516 16.3362 0.0000 -15.2858 0.0003
# 2 12.8516 3.3189 28.7264 -0.0001 -3.1522 0.0013
# 3 16.3362 28.7264 70.2831 0.0000 -11.1546 0.0000
# 4 0.0000 -0.0001 0.0000 36.7785 0.0000 -5.0185
# 5 -15.2858 -3.1522 -11.1546 0.0000 30.2414 0.0000
# 6 0.0003 0.0013 0.0000 -5.0185 0.0000 12.6513
#
#
#
# Elastic Compliance Matrix: (Units=1/GPa)
#
#
# Indices 1 2 3 4 5 6 
#
# 1 0.066020 0.052881 -0.032702 -0.000001 0.026820 -0.000007
# 2 0.052881 -0.075403 0.022861 0.000001 0.027302 0.000007
# 3 -0.032702 0.022861 0.010877 0.000000 -0.010135 -0.000002
# 4 -0.000001 0.000001 0.000000 0.028746 0.000000 0.011403
# 5 0.026820 0.027302 -0.010135 0.000000 0.045731 -0.000004
# 6 -0.000007 0.000007 -0.000002 0.011403 -0.000004 0.083567
#
#
# Mechanical properties :
#
#
# Convention : Reuss Voigt Hill
#
# Bulk Modulus (GPa) = 11.41908 23.17613 17.29761
# Shear Modulus (GPa) = 48.70939 18.25706 33.48323
#
# Velocity S-wave (km/s) = 4.88134 2.98847 4.04712
# Velocity P-wave (km/s) = 6.11195 4.82132 5.50459
#
# Compressibility (1/GPa) = 0.08757273
#
# Stress axis : x y z
#
# Youngs Moduli (GPa) = 15.14700 -13.26210 91.93635
#
# Poissons Ratio (x) = 0.70131 3.00655
# Poissons Ratio (y) = -0.80099 -2.10173
# Poissons Ratio (z) = 0.49534 0.30318
#
# Static dielectric constant tensor:
#      x y z
#    x 1.781430 0.000000 -0.004350 
#    y 0.000000 1.706170 0.000000 
#    z -0.004350 0.000000 1.748420 
# 
# From -- ./inp_files/378073.got.cif
#   From: 2010.05.17/outbox.ucp.g08.bks.cvg/sg12_190_cif.got.tgz:378073.got - 2010.06.11 11:47:21.
