data_PCOD9224438
_publ_section_title
;
Structure prediction by ZEFSAII (Michael W. Deem and Ramdas Pophale) SiO2 
 PCOD9224438
Probable space group: C 2/M
;
_chemical_formula_sum "Si O2"
_cell_formula_units_Z 32
_cell_length_a 18.000000
_cell_length_b 9.000000
_cell_length_c 30.000000
_cell_angle_alpha 90.000000
_cell_angle_beta 40.000000
_cell_angle_gamma 90.000000
_cell_volume 3123.947783
_symmetry_space_group_name_H-M "C 2/M"
_symmetry_group_IT_number 12
_symmetry_cell_setting 'monoclinic'
loop_
_space_group_symop_operation_xyz
x,y,z
-x,y,-z
-x,-y,-z
x,-y,z
1/2+x,1/2+y,z
1/2-x,1/2+y,-z
1/2-x,1/2-y,-z
1/2+x,1/2-y,z
loop_
_atom_site_type_symbol
_atom_site_label
_atom_site_fract_x
_atom_site_fract_y
_atom_site_fract_z
Si Si1 0.056687 0.322056 0.785882
Si Si2 0.464203 0.678777 0.065410
Si Si3 0.371571 0.823575 0.936946
Si Si4 0.073821 0.331221 0.362610
Si Si5 0.631956 0.672069 0.565963
Si Si6 0.863635 0.333256 0.568934
Si Si7 0.360013 0.174884 0.348820
Si Si8 0.719637 0.678081 0.785320
O O1 0.074174 0.500000 0.779420
O O2 0.084543 0.275143 0.723178
O O3 0.140256 0.250284 0.783955
O O4 0.928624 0.289784 0.862752
O O5 0.479587 0.500000 0.061017
O O6 0.545087 0.757166 0.063924
O O7 0.334376 0.712712 0.141837
O O8 0.500000 0.726729 0.000000
O O9 0.364744 0.000000 0.944441
O O10 0.250000 0.750000 0.000000
O O11 0.031198 0.500000 0.375249
O O12 0.152466 0.334282 0.370326
O O13 0.150764 0.279047 0.285994
O O14 0.968333 0.224389 0.420417
O O15 0.648285 0.500000 0.558375
O O16 0.750000 0.750000 0.500000
O O17 0.593139 0.733923 0.631477
O O18 0.835484 0.500000 0.564401
O O19 0.776309 0.213157 0.590388
O O20 0.000000 0.312363 0.500000
O O21 0.378037 0.000000 0.346578
O O22 0.715517 0.500000 0.781715
#
# Coordination Sequence:
#
# PCOD9224438 Si02
#       8
#     8   8   8   8   8   8   8   8
#     4   9  19  35  57  84 114 148 185 232 283 332
#     4   9  18  34  56  83 115 150 189 229 275 332
#     4  10  20  36  57  83 115 151 190 234 284 333
#     4  10  20  36  57  83 115 148 186 228 278 335
#     4  12  26  43  61  81 112 151 190 233 285 339
#     4  10  20  34  56  85 113 142 178 224 274 326
#     4  11  22  38  60  85 113 146 187 231 279 336
#     4   9  17  32  57  84 111 148 186 227 277 331
#
# _framework density 10.243449
#
# number of rings (size 3 to 8) (size 9 to 14) (size 15 to 20)
#    0.000    2.000    1.250    2.625    0.000    3.500 
#    2.250    0.000    0.000    0.000    0.000    0.000 
#    0.000    0.000    0.000    0.000    0.000    0.000 
#
# Total GULP energy -178399.156451 kJ/mol
# GULP energy per Si atom -5574.973639 kJ/mol
# Density = 1.022013 g / cm^3
# Si number density = 10.243449 Si / 1000 Ang^3
#
#
#
# Elastic Constant Matrix: (Units=GPa)
#
#
# Indices 1 2 3 4 5 6 
#
# 1 45.6410 28.2212 35.0248 0.0000 3.7424 -0.0001
# 2 28.2212 42.2183 35.6290 -0.0001 -1.3239 -0.0008
# 3 35.0248 35.6290 140.8086 0.0000 6.8422 0.0001
# 4 0.0000 -0.0001 0.0000 20.2880 0.0000 -0.3051
# 5 3.7424 -1.3239 6.8422 0.0000 25.3752 0.0000
# 6 -0.0001 -0.0008 0.0001 -0.3051 0.0000 21.6240
#
#
#
# Elastic Compliance Matrix: (Units=1/GPa)
#
#
# Indices 1 2 3 4 5 6 
#
# 1 0.039917 -0.023840 -0.003597 0.000000 -0.006161 -0.000001
# 2 -0.023840 0.044698 -0.005739 0.000000 0.007396 0.000002
# 3 -0.003597 -0.005739 0.009563 0.000000 -0.002347 0.000000
# 4 0.000000 0.000000 0.000000 0.049301 0.000000 0.000696
# 5 -0.006161 0.007396 -0.002347 0.000000 0.041336 0.000000
# 6 -0.000001 0.000002 0.000000 0.000696 0.000000 0.046255
#
#
# Mechanical properties :
#
#
# Convention : Reuss Voigt Hill
#
# Bulk Modulus (GPa) = 35.93983 47.37977 41.65980
# Shear Modulus (GPa) = 16.30266 22.11029 19.20647
#
# Velocity S-wave (km/s) = 2.82398 3.28874 3.06518
# Velocity P-wave (km/s) = 5.31169 6.13174 5.73639
#
# Compressibility (1/GPa) = 0.02782428
#
# Stress axis : x y z
#
# Youngs Moduli (GPa) = 25.05199 22.37221 104.57038
#
# Poissons Ratio (x) = 0.53336 0.37616
# Poissons Ratio (y) = 0.59725 0.60017
# Poissons Ratio (z) = 0.09012 0.12840
#
# Static dielectric constant tensor:
#      x y z
#    x 2.242340 0.000010 0.220690 
#    y 0.000010 1.793880 0.000010 
#    z 0.220690 0.000010 1.867950 
# 
# From -- ./inp_files/378200.got.cif
#   From: 2010.05.17/outbox.ucp.g08.bks.cvg/sg12_190_cif.got.tgz:378200.got - 2010.06.11 11:47:21.
