data_PCOD9224569
_publ_section_title
;
Structure prediction by ZEFSAII (Michael W. Deem and Ramdas Pophale) SiO2 
 PCOD9224569
Probable space group: C 2/M
;
_chemical_formula_sum "Si O2"
_cell_formula_units_Z 32
_cell_length_a 18.000000
_cell_length_b 9.000000
_cell_length_c 30.000000
_cell_angle_alpha 90.000000
_cell_angle_beta 40.000000
_cell_angle_gamma 90.000000
_cell_volume 3123.947783
_symmetry_space_group_name_H-M "C 2/M"
_symmetry_group_IT_number 12
_symmetry_cell_setting 'monoclinic'
loop_
_space_group_symop_operation_xyz
x,y,z
-x,y,-z
-x,-y,-z
x,-y,z
1/2+x,1/2+y,z
1/2-x,1/2+y,-z
1/2-x,1/2-y,-z
1/2+x,1/2-y,z
loop_
_atom_site_type_symbol
_atom_site_label
_atom_site_fract_x
_atom_site_fract_y
_atom_site_fract_z
Si Si1 0.848812 0.673690 0.389516
Si Si2 0.370361 0.669343 0.471264
Si Si3 0.921502 0.821184 0.992834
Si Si4 0.487748 0.319746 0.146011
Si Si5 0.181979 0.178418 0.127981
Si Si6 0.597891 0.819417 0.256578
Si Si7 0.769879 0.678878 0.712117
Si Si8 0.591806 0.670292 0.423472
O O1 0.855082 0.500000 0.377304
O O2 0.862137 0.713020 0.435678
O O3 0.713244 0.715100 0.448452
O O4 0.964328 0.737399 0.314767
O O5 0.500000 0.741520 0.500000
O O6 0.335439 0.500000 0.473876
O O7 0.501844 0.657677 0.423873
O O8 0.801563 0.737068 0.053399
O O9 0.902646 0.000000 0.000458
O O10 0.979133 0.776256 0.919483
O O11 0.000000 0.789734 0.000000
O O12 0.486292 0.500000 0.146864
O O13 0.580317 0.273618 0.140688
O O14 0.359546 0.270460 0.217400
O O15 0.164728 0.249221 0.184601
O O16 0.181019 0.000000 0.131560
O O17 0.652423 0.782773 0.279904
O O18 0.601240 0.000000 0.251622
O O19 0.774975 0.500000 0.706228
O O20 0.805428 0.744864 0.647743
O O21 0.619432 0.500000 0.425088
#
# Coordination Sequence:
#
# PCOD9224569 Si02
#       8
#     8   8   8   8   8   8   8   8
#     4   9  17  30  50  74  97 130 178 228 274 324
#     4   9  17  30  48  71 102 134 170 222 281 334
#     4  10  20  39  67  91 114 150 192 229 272 327
#     4   9  20  38  59  85 118 152 186 230 282 332
#     4  11  23  37  56  86 123 154 183 226 282 337
#     4  10  20  35  57  83 111 147 195 243 283 333
#     4  10  20  38  61  82 107 145 196 243 279 328
#     4  10  21  35  51  76 111 148 182 226 290 350
#
# _framework density 10.243449
#
# number of rings (size 3 to 8) (size 9 to 14) (size 15 to 20)
#    0.000    2.250    1.250    1.500    0.000    4.500 
#    0.000    3.750    0.000    0.000    0.000    0.000 
#    0.000    0.000    0.000    0.000    0.000    0.000 
#
# Total GULP energy -178178.734833 kJ/mol
# GULP energy per Si atom -5568.085464 kJ/mol
# Density = 1.022013 g / cm^3
# Si number density = 10.243449 Si / 1000 Ang^3
#
#
#
# Elastic Constant Matrix: (Units=GPa)
#
#
# Indices 1 2 3 4 5 6 
#
# 1 61.1143 20.2496 38.6102 0.0000 -0.0684 0.0003
# 2 20.2496 7.3213 29.7694 -0.0001 -0.7205 0.0005
# 3 38.6102 29.7694 185.8516 0.0000 6.1409 0.0000
# 4 0.0000 -0.0001 0.0000 29.8755 0.0000 5.6675
# 5 -0.0684 -0.7205 6.1409 0.0000 38.1917 0.0000
# 6 0.0003 0.0005 0.0000 5.6675 0.0000 14.1228
#
#
#
# Elastic Compliance Matrix: (Units=1/GPa)
#
#
# Indices 1 2 3 4 5 6 
#
# 1 -0.038235 0.216224 -0.026967 0.000002 0.008347 -0.000008
# 2 0.216224 -0.818988 0.087225 -0.000007 -0.029088 0.000030
# 3 -0.026967 0.087225 -0.003058 0.000001 0.002089 -0.000003
# 4 0.000002 -0.000007 0.000001 0.036230 0.000000 -0.014539
# 5 0.008347 -0.029088 0.002089 0.000000 0.025314 0.000001
# 6 -0.000008 0.000030 -0.000003 -0.014539 0.000001 0.076642
#
#
# Mechanical properties :
#
#
# Convention : Reuss Voigt Hill
#
# Bulk Modulus (GPa) = -3.25399 47.94951 22.34776
# Shear Modulus (GPa) = -3.62977 27.48185 11.92604
#
# Velocity S-wave (km/s) = -1.33252 3.66653 2.41535
# Velocity P-wave (km/s) = 1.98978 6.43276 4.32557
#
# Compressibility (1/GPa) = -0.30731537
#
# Stress axis : x y z
#
# Youngs Moduli (GPa) = -26.15436 -1.22102 -327.05364
#
# Poissons Ratio (x) = 0.26401 -8.81969
# Poissons Ratio (y) = 5.65521 28.52730
# Poissons Ratio (z) = -0.70531 0.10650
#
# Static dielectric constant tensor:
#      x y z
#    x 1.835040 0.000000 -0.029010 
#    y 0.000000 1.767360 0.000000 
#    z -0.029010 0.000000 1.765470 
# 
# From -- ./inp_files/378112.got.cif
#   From: 2010.05.17/outbox.ucp.g08.bks.cvg/sg12_190_cif.got.tgz:378112.got - 2010.06.11 11:47:21.
