data_PCOD9224967
_publ_section_title
;
Structure prediction by ZEFSAII (Michael W. Deem and Ramdas Pophale) SiO2 
 PCOD9224967
Probable space group: C 2/M
;
_chemical_formula_sum "Si O2"
_cell_formula_units_Z 32
_cell_length_a 30.000000
_cell_length_b 15.000000
_cell_length_c 9.000000
_cell_angle_alpha 90.000000
_cell_angle_beta 50.000000
_cell_angle_gamma 90.000000
_cell_volume 3102.479995
_symmetry_space_group_name_H-M "C 2/M"
_symmetry_group_IT_number 12
_symmetry_cell_setting 'monoclinic'
loop_
_space_group_symop_operation_xyz
x,y,z
-x,y,-z
-x,-y,-z
x,-y,z
1/2+x,1/2+y,z
1/2-x,1/2+y,-z
1/2-x,1/2-y,-z
1/2+x,1/2-y,z
loop_
_atom_site_type_symbol
_atom_site_label
_atom_site_fract_x
_atom_site_fract_y
_atom_site_fract_z
Si Si1 0.263880 0.597336 0.839262
Si Si2 0.178809 0.103075 0.820244
Si Si3 0.186973 0.392613 0.490032
Si Si4 0.485219 0.895274 0.854365
Si Si5 0.843869 0.803086 0.881879
Si Si6 0.152125 0.646324 0.903835
Si Si7 0.870469 0.895868 0.383293
Si Si8 0.910462 0.727207 0.465985
O O1 0.271914 0.500000 0.892808
O O2 0.287602 0.671668 0.902525
O O3 0.198309 0.598896 0.916775
O O4 0.309248 0.605068 0.605113
O O5 0.246472 0.133833 0.689667
O O6 0.143618 0.136850 0.752391
O O7 0.187239 0.000000 0.759524
O O8 0.144608 0.107467 0.049883
O O9 0.178754 0.500000 0.486755
O O10 0.175471 0.369531 0.687711
O O11 0.140495 0.336317 0.493373
O O12 0.529747 0.828397 0.675776
O O13 0.497068 0.000000 0.795466
O O14 0.500000 0.883590 0.000000
O O15 0.416906 0.877675 0.959762
O O16 0.889942 0.757265 0.674354
O O17 0.839802 0.742893 0.038984
O O18 0.910430 0.820580 0.374525
O O19 0.891045 0.000000 0.343661
#
# Coordination Sequence:
#
# PCOD9224967 Si02
#       8
#     8   8   8   8   8   8   8   8
#     4  10  20  38  61  94 137 172 209 264 332 399
#     4  10  21  37  61  95 134 172 216 270 335 405
#     4  11  22  38  62  94 131 175 224 276 329 392
#     4  11  24  45  71  96 126 173 234 284 327 378
#     4  11  26  39  58  97 135 179 215 262 334 412
#     4  12  23  39  66  96 132 173 224 273 326 394
#     4   9  19  37  65  98 130 170 217 273 333 394
#     4  11  24  41  64  93 134 178 224 277 329 390
#
# _framework density 10.314329000000001
#
# number of rings (size 3 to 8) (size 9 to 14) (size 15 to 20)
#    0.000    1.375    2.500    3.000    5.250    2.000 
#    0.000    3.750    0.000    1.875    0.000    6.125 
#    0.000    0.000    0.000    0.000    0.000    0.000 
#
# Total GULP energy -178368.550217 kJ/mol
# GULP energy per Si atom -5574.017194 kJ/mol
# Density = 1.029085 g / cm^3
# Si number density = 10.314329 Si / 1000 Ang^3
#
#
#
# Elastic Constant Matrix: (Units=GPa)
#
#
# Indices 1 2 3 4 5 6 
#
# 1 87.7182 45.4600 41.2071 0.0000 -6.7226 0.0000
# 2 45.4600 98.9827 55.8348 0.0000 -1.6572 0.0000
# 3 41.2071 55.8348 94.4530 0.0000 2.1238 0.0000
# 4 0.0000 0.0000 0.0000 28.4724 0.0000 13.7238
# 5 -6.7226 -1.6572 2.1238 0.0000 37.8733 0.0000
# 6 0.0000 0.0000 0.0000 13.7238 0.0000 22.8594
#
#
#
# Elastic Compliance Matrix: (Units=1/GPa)
#
#
# Indices 1 2 3 4 5 6 
#
# 1 0.016183 -0.005048 -0.004141 0.000000 0.002884 0.000000
# 2 -0.005048 0.016783 -0.007725 0.000000 0.000271 0.000000
# 3 -0.004141 -0.007725 0.017006 0.000000 -0.002027 0.000000
# 4 0.000000 0.000000 0.000000 0.049424 0.000000 -0.029672
# 5 0.002884 0.000271 -0.002027 0.000000 0.027041 0.000000
# 6 0.000000 0.000000 0.000000 -0.029672 0.000000 0.061559
#
#
# Mechanical properties :
#
#
# Convention : Reuss Voigt Hill
#
# Bulk Modulus (GPa) = 61.94240 62.90642 62.42441
# Shear Modulus (GPa) = 22.00657 27.08448 24.54552
#
# Velocity S-wave (km/s) = 3.26973 3.62740 3.45320
# Velocity P-wave (km/s) = 6.65938 6.93577 6.79898
#
# Compressibility (1/GPa) = 0.01614403
#
# Stress axis : x y z
#
# Youngs Moduli (GPa) = 61.79502 59.58262 58.80339
#
# Poissons Ratio (x) = 0.30079 0.24348
# Poissons Ratio (y) = 0.31196 0.45426
# Poissons Ratio (z) = 0.25587 0.46028
#
# Static dielectric constant tensor:
#      x y z
#    x 1.726240 0.000000 0.025680 
#    y 0.000000 2.223170 0.000000 
#    z 0.025680 0.000000 1.749160 
# 
# From -- ./inp_files/111947.got.cif
#   From: 2010.05.17/outbox.ucp.g08.bks.cvg/sg12_56_cif.got.tgz:111947.got - 2010.06.11 11:47:21.
