data_PCOD9224628
_publ_section_title
;
Structure prediction by ZEFSAII (Michael W. Deem and Ramdas Pophale) SiO2 
 PCOD9224628
Probable space group: C 2/M
;
_chemical_formula_sum "Si O2"
_cell_formula_units_Z 24
_cell_length_a 30.000000
_cell_length_b 9.000000
_cell_length_c 9.000000
_cell_angle_alpha 90.000000
_cell_angle_beta 90.000000
_cell_angle_gamma 90.000000
_cell_volume 2430.000000
_symmetry_space_group_name_H-M "C 2/M"
_symmetry_group_IT_number 12
_symmetry_cell_setting 'monoclinic'
loop_
_space_group_symop_operation_xyz
x,y,z
-x,y,-z
-x,-y,-z
x,-y,z
1/2+x,1/2+y,z
1/2-x,1/2+y,-z
1/2-x,1/2-y,-z
1/2+x,1/2-y,z
loop_
_atom_site_type_symbol
_atom_site_label
_atom_site_fract_x
_atom_site_fract_y
_atom_site_fract_z
Si Si1 0.703053 0.677595 0.800957
Si Si2 0.300053 0.170584 0.678812
Si Si3 0.137479 0.175720 0.546089
Si Si4 0.645895 0.831167 0.025775
Si Si5 0.453490 0.819078 0.921743
Si Si6 0.452748 0.820816 0.573976
O O1 0.705280 0.500000 0.810793
O O2 0.751510 0.722111 0.737800
O O3 0.659790 0.718552 0.702087
O O4 0.687488 0.745670 0.954758
O O5 0.321779 0.280103 0.561493
O O6 0.294506 0.000000 0.622060
O O7 0.338619 0.162486 0.803562
O O8 0.091349 0.255206 0.503769
O O9 0.129889 0.000000 0.541981
O O10 0.645485 0.000000 0.967138
O O11 0.595096 0.770360 0.014211
O O12 0.453946 0.778179 0.747822
O O13 0.452754 0.000000 0.929920
O O14 0.500000 0.771044 0.000000
O O15 0.500000 0.776817 0.500000
O O16 0.449707 0.000000 0.565553
#
# Coordination Sequence:
#
# PCOD9224628 Si02
#       6
#     8   8   8   8   8   8
#     4  10  23  38  55  83 119 154 189 234 282 337
#     4  10  20  39  61  82 112 150 196 241 279 332
#     4  11  23  38  57  84 119 154 187 233 288 337
#     4  10  20  35  59  86 113 147 188 239 287 332
#     4   9  18  34  56  85 114 138 180 237 283 329
#     4  10  21  38  62  86 110 147 190 233 283 336
#
# _framework density 9.8765429999999999
#
# number of rings (size 3 to 8) (size 9 to 14) (size 15 to 20)
#    0.000    2.000    1.667    1.500    2.333    3.000 
#    0.000    0.000    0.000    1.000    0.000    0.000 
#    0.000    0.000    0.000    0.000    0.000    0.000 
#
# Total GULP energy -133735.914038 kJ/mol
# GULP energy per Si atom -5572.329752 kJ/mol
# Density = 0.985406 g / cm^3
# Si number density = 9.876543 Si / 1000 Ang^3
#
#
#
# Elastic Constant Matrix: (Units=GPa)
#
#
# Indices 1 2 3 4 5 6 
#
# 1 141.0247 16.5059 5.3320 0.0000 -7.0569 0.0000
# 2 16.5059 -20.0016 10.4820 0.0000 16.6304 0.0000
# 3 5.3320 10.4820 22.9938 0.0000 -1.4115 0.0000
# 4 0.0000 0.0000 0.0000 10.9463 0.0000 -2.3330
# 5 -7.0569 16.6304 -1.4115 0.0000 28.6960 0.0000
# 6 0.0000 0.0000 0.0000 -2.3330 0.0000 34.2836
#
#
#
# Elastic Compliance Matrix: (Units=1/GPa)
#
#
# Indices 1 2 3 4 5 6 
#
# 1 0.006777 0.003491 -0.003195 0.000000 -0.000514 0.000000
# 2 0.003491 -0.026603 0.012354 0.000000 0.016884 0.000000
# 3 -0.003195 0.012354 0.038227 0.000000 -0.006065 0.000000
# 4 0.000000 0.000000 0.000000 0.092699 0.000000 0.006308
# 5 -0.000514 0.016884 -0.006065 0.000000 0.024639 0.000000
# 6 0.000000 0.000000 0.000000 0.006308 0.000000 0.029598
#
#
# Mechanical properties :
#
#
# Convention : Reuss Voigt Hill
#
# Bulk Modulus (GPa) = 22.88186 23.18409 23.03298
# Shear Modulus (GPa) = 32.34088 22.23165 27.28626
#
# Velocity S-wave (km/s) = 4.05069 3.35845 3.72071
# Velocity P-wave (km/s) = 5.78676 5.17700 5.49035
#
# Compressibility (1/GPa) = 0.04370274
#
# Stress axis : x y z
#
# Youngs Moduli (GPa) = 147.54949 -37.59017 26.15975
#
# Poissons Ratio (x) = 0.13124 0.08357
# Poissons Ratio (y) = -0.51516 -0.32318
# Poissons Ratio (z) = 0.47138 0.46439
#
# Static dielectric constant tensor:
#      x y z
#    x 1.663370 0.000000 0.002770 
#    y 0.000000 1.728480 0.000000 
#    z 0.002770 0.000000 1.759910 
# 
# From -- ./inp_files/108614.got.cif
#   From: 2010.05.17/outbox.ucp.g08.bks.cvg/sg12_55_cif.got.tgz:108614.got - 2010.06.11 11:47:21.
