data_PCOD9224863
_publ_section_title
;
Structure prediction by ZEFSAII (Michael W. Deem and Ramdas Pophale) SiO2 
 PCOD9224863
Probable space group: C 2/M
;
_chemical_formula_sum "Si O2"
_cell_formula_units_Z 24
_cell_length_a 18.000000
_cell_length_b 9.000000
_cell_length_c 30.000000
_cell_angle_alpha 90.000000
_cell_angle_beta 30.000000
_cell_angle_gamma 90.000000
_cell_volume 2430.000000
_symmetry_space_group_name_H-M "C 2/M"
_symmetry_group_IT_number 12
_symmetry_cell_setting 'monoclinic'
loop_
_space_group_symop_operation_xyz
x,y,z
-x,y,-z
-x,-y,-z
x,-y,z
1/2+x,1/2+y,z
1/2-x,1/2+y,-z
1/2-x,1/2-y,-z
1/2+x,1/2-y,z
loop_
_atom_site_type_symbol
_atom_site_label
_atom_site_fract_x
_atom_site_fract_y
_atom_site_fract_z
Si Si1 0.493978 0.321395 0.706135
Si Si2 0.103853 0.823043 0.809404
Si Si3 0.721694 0.676551 0.466502
Si Si4 0.352316 0.319614 0.871714
Si Si5 0.980843 0.321166 0.958059
Si Si6 0.100528 0.823491 0.345978
O O1 0.507087 0.500000 0.699542
O O2 0.655874 0.249844 0.628253
O O3 0.392562 0.275235 0.800279
O O4 0.434391 0.281735 0.687776
O O5 0.260636 0.768358 0.709572
O O6 0.972413 0.768520 0.845223
O O7 0.087058 0.754173 0.867275
O O8 0.097309 0.000000 0.815330
O O9 0.744636 0.500000 0.457505
O O10 0.750000 0.750000 0.500000
O O11 0.548228 0.702728 0.548306
O O12 0.354429 0.500000 0.870773
O O13 0.185408 0.275149 0.969312
O O14 0.998300 0.500000 0.946058
O O15 0.000000 0.281810 0.000000
O O16 0.132167 0.000000 0.329824
#
# Coordination Sequence:
#
# PCOD9224863 Si02
#       6
#     8   8   8   8   8   8
#     4   9  17  33  56  77 100 133 175 217 252 296
#     4  11  22  34  51  77 108 136 165 209 258 302
#     4   9  17  30  50  77 105 133 170 215 259 300
#     4   9  19  35  53  76 105 136 169 205 253 310
#     4  10  20  37  60  78  97 132 173 209 250 304
#     4   9  18  33  53  75 101 137 176 210 249 302
#
# _framework density 9.8765429999999999
#
# number of rings (size 3 to 8) (size 9 to 14) (size 15 to 20)
#    0.000    2.500    0.000    3.500    0.000    6.333 
#    0.000    4.167    0.000    5.000    0.000    0.000 
#    0.000    0.000    0.000    0.000    0.000    0.000 
#
# Total GULP energy -133845.405368 kJ/mol
# GULP energy per Si atom -5576.891890 kJ/mol
# Density = 0.985406 g / cm^3
# Si number density = 9.876543 Si / 1000 Ang^3
#
#
#
# Elastic Constant Matrix: (Units=GPa)
#
#
# Indices 1 2 3 4 5 6 
#
# 1 39.9201 8.1769 -2.8226 -0.0001 -24.8620 0.0010
# 2 8.1769 6.1788 13.1510 -0.0009 -15.4176 0.0003
# 3 -2.8226 13.1510 75.3455 -0.0002 -22.3594 -0.0004
# 4 -0.0001 -0.0009 -0.0002 30.0685 0.0001 -4.6846
# 5 -24.8620 -15.4176 -22.3594 0.0001 24.9405 -0.0003
# 6 0.0010 0.0003 -0.0004 -4.6846 -0.0003 16.4775
#
#
#
# Elastic Compliance Matrix: (Units=1/GPa)
#
#
# Indices 1 2 3 4 5 6 
#
# 1 0.048875 -0.109049 0.020871 -0.000003 0.000021 -0.000001
# 2 -0.109049 -0.054302 -0.050178 -0.000002 -0.187259 0.000003
# 3 0.020871 -0.050178 0.026952 -0.000001 0.013949 0.000000
# 4 -0.000003 -0.000002 -0.000001 0.034799 -0.000005 0.009893
# 5 0.000021 -0.187259 0.013949 -0.000005 -0.063138 0.000001
# 6 -0.000001 0.000003 0.000000 0.009893 0.000001 0.063501
#
#
# Mechanical properties :
#
#
# Convention : Reuss Voigt Hill
#
# Bulk Modulus (GPa) = -3.91870 17.60611 6.84371
# Shear Modulus (GPa) = 20.13395 21.15991 20.64693
#
# Velocity S-wave (km/s) = 3.19608 3.27650 3.23654
# Velocity P-wave (km/s) = 3.41054 4.82145 4.17601
#
# Compressibility (1/GPa) = -0.25518688
#
# Stress axis : x y z
#
# Youngs Moduli (GPa) = 20.46016 -18.41543 37.10358
#
# Poissons Ratio (x) = -2.00818 -0.77438
# Poissons Ratio (y) = 2.23116 1.86177
# Poissons Ratio (z) = -0.42702 -0.92404
#
# Static dielectric constant tensor:
#      x y z
#    x 1.694240 0.000000 -0.038760 
#    y 0.000000 1.658960 0.000000 
#    z -0.038760 0.000000 1.734300 
# 
# From -- ./inp_files/274121.got.cif
#   From: 2010.05.17/outbox.ucp.g08.bks.cvg/sg12_138_cif.got.tgz:274121.got - 2010.06.11 11:47:21.
