data_PCOD9224850
_publ_section_title
;
Structure prediction by ZEFSAII (Michael W. Deem and Ramdas Pophale) SiO2 
 PCOD9224850
Probable space group: C 2/M
;
_chemical_formula_sum "Si O2"
_cell_formula_units_Z 24
_cell_length_a 27.000000
_cell_length_b 9.000000
_cell_length_c 15.000000
_cell_angle_alpha 90.000000
_cell_angle_beta 140.000000
_cell_angle_gamma 90.000000
_cell_volume 2342.960837
_symmetry_space_group_name_H-M "C 2/M"
_symmetry_group_IT_number 12
_symmetry_cell_setting 'monoclinic'
loop_
_space_group_symop_operation_xyz
x,y,z
-x,y,-z
-x,-y,-z
x,-y,z
1/2+x,1/2+y,z
1/2-x,1/2+y,-z
1/2-x,1/2-y,-z
1/2+x,1/2-y,z
loop_
_atom_site_type_symbol
_atom_site_label
_atom_site_fract_x
_atom_site_fract_y
_atom_site_fract_z
Si Si1 0.920125 0.334599 0.939724
Si Si2 0.770062 0.667928 0.118817
Si Si3 0.515214 0.673239 0.619225
Si Si4 0.341456 0.328322 0.379541
Si Si5 0.225071 0.680173 0.372207
Si Si6 0.906162 0.169789 0.097718
O O1 0.891258 0.500000 0.924415
O O2 0.856815 0.272905 0.783315
O O3 0.936829 0.251881 0.054408
O O4 0.000000 0.344270 0.000000
O O5 0.794835 0.500000 0.135176
O O6 0.827196 0.745375 0.266697
O O7 0.750000 0.750000 0.000000
O O8 0.685159 0.666891 0.044986
O O9 0.500000 0.740434 0.500000
O O10 0.539881 0.500000 0.637175
O O11 0.428200 0.676675 0.535222
O O12 0.570625 0.734299 0.772945
O O13 0.322654 0.500000 0.335004
O O14 0.285754 0.274030 0.379891
O O15 0.225586 0.500000 0.382474
O O16 0.250000 0.750000 0.500000
O O17 0.934221 0.000000 0.139086
#
# Coordination Sequence:
#
# PCOD9224850 Si02
#       6
#     8   8   8   8   8   8
#     4  10  22  40  59  82 114 152 186 229 291 344
#     4  11  22  36  58  86 114 148 188 233 283 337
#     4   9  18  34  56  82 113 146 183 228 278 331
#     4  10  20  37  59  82 112 149 186 233 286 334
#     4  10  22  38  58  84 113 148 190 233 284 340
#     4  10  21  37  59  86 112 147 193 236 277 330
#
# _framework density 10.243449
#
# number of rings (size 3 to 8) (size 9 to 14) (size 15 to 20)
#    0.000    2.000    1.667    1.500    2.333    5.000 
#    0.000    0.833    0.000    2.000    0.000    0.000 
#    0.000    0.000    0.000    0.000    0.000    0.000 
#
# Total GULP energy -133689.941111 kJ/mol
# GULP energy per Si atom -5570.414213 kJ/mol
# Density = 1.022013 g / cm^3
# Si number density = 10.243449 Si / 1000 Ang^3
#
#
#
# Elastic Constant Matrix: (Units=GPa)
#
#
# Indices 1 2 3 4 5 6 
#
# 1 69.4144 13.3052 28.0937 0.0000 -11.8754 0.0000
# 2 13.3052 30.9705 9.3022 0.0000 -17.0398 0.0000
# 3 28.0937 9.3022 126.3695 0.0000 -21.4014 0.0000
# 4 0.0000 0.0000 0.0000 28.1039 0.0000 -9.9861
# 5 -11.8754 -17.0398 -21.4014 0.0000 41.5245 0.0000
# 6 0.0000 0.0000 0.0000 -9.9861 0.0000 11.4547
#
#
#
# Elastic Compliance Matrix: (Units=1/GPa)
#
#
# Indices 1 2 3 4 5 6 
#
# 1 0.016968 -0.005897 -0.003206 0.000000 0.000780 0.000000
# 2 -0.005897 0.043758 0.000926 0.000000 0.016747 0.000000
# 3 -0.003206 0.000926 0.009277 0.000000 0.004244 0.000000
# 4 0.000000 0.000000 0.000000 0.051552 0.000000 0.044943
# 5 0.000780 0.016747 0.004244 0.000000 0.033365 0.000000
# 6 0.000000 0.000000 0.000000 0.044943 0.000000 0.126481
#
#
# Mechanical properties :
#
#
# Convention : Reuss Voigt Hill
#
# Bulk Modulus (GPa) = 18.63978 36.46183 27.55080
# Shear Modulus (GPa) = 15.84095 27.95349 21.89722
#
# Velocity S-wave (km/s) = 2.78371 3.69786 3.27286
# Velocity P-wave (km/s) = 4.41023 6.00571 5.26871
#
# Compressibility (1/GPa) = 0.05364870
#
# Stress axis : x y z
#
# Youngs Moduli (GPa) = 58.93591 22.85281 107.79755
#
# Poissons Ratio (x) = 0.13477 0.34559
# Poissons Ratio (y) = 0.34756 -0.09984
# Poissons Ratio (z) = 0.18894 -0.02117
#
# Static dielectric constant tensor:
#      x y z
#    x 1.809350 0.000000 0.017280 
#    y 0.000000 1.788560 0.000000 
#    z 0.017280 0.000000 1.712040 
# 
# From -- ./inp_files/244839.got.cif
#   From: 2010.05.17/outbox.ucp.g08.bks.cvg/sg12_123_cif.got.tgz:244839.got - 2010.06.11 11:47:21.
