data_PCOD9224982
_publ_section_title
;
Structure prediction by ZEFSAII (Michael W. Deem and Ramdas Pophale) SiO2 
 PCOD9224982
Probable space group: C 2/M
;
_chemical_formula_sum "Si O2"
_cell_formula_units_Z 28
_cell_length_a 9.000000
_cell_length_b 18.000000
_cell_length_c 27.000000
_cell_angle_alpha 90.000000
_cell_angle_beta 40.000000
_cell_angle_gamma 90.000000
_cell_volume 2811.553005
_symmetry_space_group_name_H-M "C 2/M"
_symmetry_group_IT_number 12
_symmetry_cell_setting 'monoclinic'
loop_
_space_group_symop_operation_xyz
x,y,z
-x,y,-z
-x,-y,-z
x,-y,z
1/2+x,1/2+y,z
1/2-x,1/2+y,-z
1/2-x,1/2-y,-z
1/2+x,1/2-y,z
loop_
_atom_site_type_symbol
_atom_site_label
_atom_site_fract_x
_atom_site_fract_y
_atom_site_fract_z
Si Si1 0.609727 0.915017 0.347307
Si Si2 0.349787 0.415002 0.661185
Si Si3 0.599056 0.583676 0.238339
Si Si4 0.360673 0.083807 0.776657
Si Si5 0.464425 0.169462 0.087354
Si Si6 0.884639 0.167719 0.916342
Si Si7 0.171849 0.169598 0.502422
O O1 0.577822 0.919648 0.296966
O O2 0.400729 0.874823 0.427584
O O3 0.861094 0.876515 0.284553
O O4 0.625650 0.000000 0.362508
O O5 0.326116 0.500000 0.647639
O O6 0.434942 0.421459 0.694866
O O7 0.525686 0.371204 0.582219
O O8 0.096778 0.378369 0.734151
O O9 0.601804 0.500000 0.215387
O O10 0.833511 0.622599 0.162241
O O11 0.114774 0.120444 0.849031
O O12 0.351469 0.000000 0.799677
O O13 0.275623 0.173201 0.091402
O O14 0.529110 0.251023 0.089745
O O15 0.705142 0.138011 0.003863
O O16 0.250000 0.250000 0.500000
O O17 0.000000 0.175140 0.500000
#
# Coordination Sequence:
#
# PCOD9224982 Si02
#       7
#     8   8   8   8   8   8   8
#     4  10  21  40  65  86 115 154 195 242 291 346
#     4  10  23  42  64  87 117 155 195 240 293 349
#     4  10  22  40  62  91 119 150 194 244 295 344
#     4  10  20  38  62  90 114 148 200 244 288 345
#     4  10  22  39  58  85 121 158 196 239 289 349
#     4  10  22  38  59  86 118 159 198 237 291 347
#     4  12  27  42  60  89 121 154 196 242 290 345
#
# _framework density 9.9589090000000002
#
# number of rings (size 3 to 8) (size 9 to 14) (size 15 to 20)
#    0.000    1.714    2.857    0.429    4.000    3.429 
#    0.000    3.571    0.000    2.571    0.000    0.000 
#    0.000    0.000    0.000    0.000    0.000    0.000 
#
# Total GULP energy -155918.860708 kJ/mol
# GULP energy per Si atom -5568.530740 kJ/mol
# Density = 0.993624 g / cm^3
# Si number density = 9.958909 Si / 1000 Ang^3
#
#
#
# Elastic Constant Matrix: (Units=GPa)
#
#
# Indices 1 2 3 4 5 6 
#
# 1 28.8468 7.2749 23.1849 -0.0043 2.0265 0.0039
# 2 7.2749 67.1269 75.1241 -0.0026 -9.7012 0.0029
# 3 23.1849 75.1241 150.2968 0.0104 -7.5779 -0.0032
# 4 -0.0043 -0.0026 0.0104 27.5751 -0.0020 -13.6912
# 5 2.0265 -9.7012 -7.5779 -0.0020 27.1330 -0.0029
# 6 0.0039 0.0029 -0.0032 -13.6912 -0.0029 20.2513
#
#
#
# Elastic Compliance Matrix: (Units=1/GPa)
#
#
# Indices 1 2 3 4 5 6 
#
# 1 0.040936 0.005224 -0.009114 0.000007 -0.003735 -0.000006
# 2 0.005224 0.036040 -0.018450 0.000012 0.007343 0.000000
# 3 -0.009114 -0.018450 0.017226 -0.000009 -0.001105 0.000001
# 4 0.000007 0.000012 -0.000009 0.054588 0.000009 0.036905
# 5 -0.003735 0.007343 -0.001105 0.000009 0.039451 0.000011
# 6 -0.000006 0.000000 0.000001 0.036905 0.000011 0.074330
#
#
# Mechanical properties :
#
#
# Convention : Reuss Voigt Hill
#
# Bulk Modulus (GPa) = 20.19328 50.82648 35.50988
# Shear Modulus (GPa) = 15.44358 24.37099 19.90729
#
# Velocity S-wave (km/s) = 2.78756 3.50176 3.16487
# Velocity P-wave (km/s) = 4.53001 6.47482 5.58768
#
# Compressibility (1/GPa) = 0.04952143
#
# Stress axis : x y z
#
# Youngs Moduli (GPa) = 24.42827 27.74695 58.05295
#
# Poissons Ratio (x) = -0.14494 0.52911
# Poissons Ratio (y) = -0.12761 1.07106
# Poissons Ratio (z) = 0.22264 0.51192
#
# Static dielectric constant tensor:
#      x y z
#    x 1.895540 0.000000 0.014480 
#    y 0.000000 1.715160 0.000000 
#    z 0.014480 0.000000 1.682890 
# 
# From -- ./inp_files/257041.got.cif
#   From: 2010.05.17/outbox.ucp.g08.bks.cvg/sg12_129_cif.got.tgz:257041.got - 2010.06.11 11:47:21.
