data_PCOD9224609
_publ_section_title
;
Structure prediction by ZEFSAII (Michael W. Deem and Ramdas Pophale) SiO2 
 PCOD9224609
Probable space group: C 2/M
;
_chemical_formula_sum "Si O2"
_cell_formula_units_Z 24
_cell_length_a 27.000000
_cell_length_b 9.000000
_cell_length_c 15.000000
_cell_angle_alpha 90.000000
_cell_angle_beta 140.000000
_cell_angle_gamma 90.000000
_cell_volume 2342.960837
_symmetry_space_group_name_H-M "C 2/M"
_symmetry_group_IT_number 12
_symmetry_cell_setting 'monoclinic'
loop_
_space_group_symop_operation_xyz
x,y,z
-x,y,-z
-x,-y,-z
x,-y,z
1/2+x,1/2+y,z
1/2-x,1/2+y,-z
1/2-x,1/2-y,-z
1/2+x,1/2-y,z
loop_
_atom_site_type_symbol
_atom_site_label
_atom_site_fract_x
_atom_site_fract_y
_atom_site_fract_z
Si Si1 0.359191 0.672538 0.133985
Si Si2 0.928944 0.679734 0.842844
Si Si3 0.004091 0.324467 0.400550
Si Si4 0.225540 0.822134 0.301190
Si Si5 0.748248 0.825846 0.146966
Si Si6 0.879562 0.321516 0.585811
O O1 0.346796 0.500000 0.093922
O O2 0.445575 0.716294 0.271328
O O3 0.315495 0.701370 0.167478
O O4 0.326307 0.778237 0.012416
O O5 0.929634 0.500000 0.844801
O O6 0.852238 0.739545 0.782290
O O7 0.926751 0.731539 0.736695
O O8 0.000000 0.732514 0.000000
O O9 0.984896 0.500000 0.360021
O O10 0.083229 0.293537 0.459068
O O11 0.000000 0.298333 0.500000
O O12 0.251091 0.774853 0.237546
O O13 0.292215 0.769300 0.460556
O O14 0.216926 0.000000 0.294354
O O15 0.747294 0.000000 0.168964
O O16 0.877122 0.500000 0.590535
#
# Coordination Sequence:
#
# PCOD9224609 Si02
#       6
#     8   8   8   8   8   8
#     4  10  21  36  55  85 120 155 200 252 301 347
#     4  10  22  40  62  87 117 157 204 248 300 364
#     4  10  20  35  58  85 118 162 206 242 292 358
#     4  11  22  38  62  88 119 152 198 255 302 352
#     4  10  21  37  58  83 117 159 199 240 298 367
#     4   9  20  38  59  86 120 161 203 244 296 358
#
# _framework density 10.243449
#
# number of rings (size 3 to 8) (size 9 to 14) (size 15 to 20)
#    0.000    2.000    0.000    3.000    2.333    4.000 
#    0.000    3.333    0.000    0.000    0.000    0.000 
#    0.000    0.000    0.000    0.000    0.000    0.000 
#
# Total GULP energy -133861.677116 kJ/mol
# GULP energy per Si atom -5577.569880 kJ/mol
# Density = 1.022013 g / cm^3
# Si number density = 10.243449 Si / 1000 Ang^3
#
#
#
# Elastic Constant Matrix: (Units=GPa)
#
#
# Indices 1 2 3 4 5 6 
#
# 1 43.5429 18.1795 80.7795 0.0000 -15.4562 0.0000
# 2 18.1795 -20.0022 -4.4695 0.0000 3.8304 0.0000
# 3 80.7795 -4.4695 107.3679 0.0000 8.6350 0.0000
# 4 0.0000 0.0000 0.0000 4.2962 0.0000 -5.2107
# 5 -15.4562 3.8304 8.6350 0.0000 14.2130 0.0000
# 6 0.0000 0.0000 0.0000 -5.2107 0.0000 8.3257
#
#
#
# Elastic Compliance Matrix: (Units=1/GPa)
#
#
# Indices 1 2 3 4 5 6 
#
# 1 -0.064572 -0.085185 0.051345 0.000000 -0.078456 0.000000
# 2 -0.085185 -0.158918 0.064638 0.000000 -0.089077 0.000000
# 3 0.051345 0.064638 -0.031242 0.000000 0.057396 0.000000
# 4 0.000000 0.000000 0.000000 0.966174 0.000000 0.604692
# 5 -0.078456 -0.089077 0.057396 0.000000 -0.025824 0.000000
# 6 0.000000 0.000000 0.000000 0.604692 0.000000 0.498565
#
#
# Mechanical properties :
#
#
# Convention : Reuss Voigt Hill
#
# Bulk Modulus (GPa) = -5.17774 35.54304 15.18265
# Shear Modulus (GPa) = 4.72497 7.79492 6.25995
#
# Velocity S-wave (km/s) = 1.52031 1.95271 1.74992
# Velocity P-wave (km/s) = 0.74092 4.74035 3.39263
#
# Compressibility (1/GPa) = -0.19313457
#
# Stress axis : x y z
#
# Youngs Moduli (GPa) = -15.48665 -6.29254 -32.00864
#
# Poissons Ratio (x) = -0.53603 1.64348
# Poissons Ratio (y) = -1.31923 2.06899
# Poissons Ratio (z) = 0.79516 0.40674
#
# Static dielectric constant tensor:
#      x y z
#    x 1.761950 0.000000 0.011850 
#    y 0.000000 1.670310 0.000000 
#    z 0.011850 0.000000 1.760020 
# 
# From -- ./inp_files/244601.got.cif
#   From: 2010.05.17/outbox.ucp.g08.bks.cvg/sg12_123_cif.got.tgz:244601.got - 2010.06.11 11:47:21.
