data_PCOD9224196
_publ_section_title
;
Structure prediction by ZEFSAII (Michael W. Deem and Ramdas Pophale) SiO2 
 PCOD9224196
Probable space group: C 2/M
;
_chemical_formula_sum "Si O2"
_cell_formula_units_Z 28
_cell_length_a 21.000000
_cell_length_b 9.000000
_cell_length_c 30.000000
_cell_angle_alpha 90.000000
_cell_angle_beta 30.000000
_cell_angle_gamma 90.000000
_cell_volume 2835.000000
_symmetry_space_group_name_H-M "C 2/M"
_symmetry_group_IT_number 12
_symmetry_cell_setting 'monoclinic'
loop_
_space_group_symop_operation_xyz
x,y,z
-x,y,-z
-x,-y,-z
x,-y,z
1/2+x,1/2+y,z
1/2-x,1/2+y,-z
1/2-x,1/2-y,-z
1/2+x,1/2-y,z
loop_
_atom_site_type_symbol
_atom_site_label
_atom_site_fract_x
_atom_site_fract_y
_atom_site_fract_z
Si Si1 0.092707 0.319307 0.405499
Si Si2 0.856780 0.178549 0.218891
Si Si3 0.413511 0.177696 0.438077
Si Si4 0.996283 0.179776 0.052590
Si Si5 0.501863 0.331983 0.215260
Si Si6 0.341846 0.175191 0.383815
Si Si7 0.216475 0.329036 0.974120
O O1 0.094436 0.500000 0.408919
O O2 0.235530 0.262674 0.318850
O O3 0.000000 0.262515 0.500000
O O4 0.037137 0.282124 0.390829
O O5 0.974731 0.203870 0.180033
O O6 0.880404 0.231612 0.154567
O O7 0.841409 0.000000 0.224577
O O8 0.405600 0.226240 0.391810
O O9 0.292718 0.243506 0.536758
O O10 0.403530 0.000000 0.444909
O O11 0.995544 0.000000 0.052157
O O12 0.118004 0.236607 0.005143
O O13 0.000000 0.234329 0.000000
O O14 0.451331 0.500000 0.253482
O O15 0.430065 0.219682 0.290039
O O16 0.650743 0.332361 0.132902
O O17 0.321462 0.000000 0.398381
O O18 0.175218 0.500000 0.006470
O O19 0.250000 0.250000 0.000000
#
# Coordination Sequence:
#
# PCOD9224196 Si02
#       7
#     8   8   8   8   8   8   8
#     4   9  16  27  50  77  99 132 177 222 262 316
#     4   9  17  32  53  79 107 138 184 231 276 335
#     4   9  18  33  51  74 106 140 177 222 274 327
#     4  10  21  38  60  86 118 154 191 239 297 351
#     4  10  20  35  56  79 106 142 184 229 278 336
#     4  10  20  32  50  77 107 140 179 225 274 330
#     4  11  22  38  61  85 114 150 192 240 291 350
#
# _framework density 9.8765429999999999
#
# number of rings (size 3 to 8) (size 9 to 14) (size 15 to 20)
#    0.000    2.286    1.429    1.714    0.000    5.429 
#    0.000    2.857    0.000    4.714    0.000    0.000 
#    0.000    0.000    0.000    0.000    0.000    0.000 
#
# Total GULP energy -155906.348858 kJ/mol
# GULP energy per Si atom -5568.083888 kJ/mol
# Density = 0.985406 g / cm^3
# Si number density = 9.876543 Si / 1000 Ang^3
#
#
#
# Elastic Constant Matrix: (Units=GPa)
#
#
# Indices 1 2 3 4 5 6 
#
# 1 51.4007 -0.0556 48.9570 0.0001 -1.1064 0.0002
# 2 -0.0556 -30.2224 -7.1722 0.0002 -1.2126 0.0004
# 3 48.9570 -7.1722 92.1869 0.0001 8.8909 -0.0001
# 4 0.0001 0.0002 0.0001 17.8970 -0.0001 0.8197
# 5 -1.1064 -1.2126 8.8909 -0.0001 21.1930 0.0001
# 6 0.0002 0.0004 -0.0001 0.8197 0.0001 15.9628
#
#
#
# Elastic Compliance Matrix: (Units=1/GPa)
#
#
# Indices 1 2 3 4 5 6 
#
# 1 0.041403 0.004846 -0.022767 0.000000 0.011990 -0.000001
# 2 0.004846 -0.031907 -0.005111 0.000000 0.000572 0.000001
# 3 -0.022767 -0.005111 0.023640 0.000000 -0.011398 0.000001
# 4 0.000000 0.000000 0.000000 0.056007 0.000000 -0.002876
# 5 0.011990 0.000572 -0.011398 0.000000 0.052626 0.000000
# 6 -0.000001 0.000001 0.000001 -0.002876 0.000000 0.062793
#
#
# Mechanical properties :
#
#
# Convention : Reuss Voigt Hill
#
# Bulk Modulus (GPa) = -77.34929 21.86928 -27.74000
# Shear Modulus (GPa) = 20.29911 15.78630 18.04270
#
# Velocity S-wave (km/s) = 3.20916 2.83005 3.02555
# Velocity P-wave (km/s) = 5.05089 4.66629 1.36697
#
# Compressibility (1/GPa) = -0.01292837
#
# Stress axis : x y z
#
# Youngs Moduli (GPa) = 24.15296 -31.34110 42.30151
#
# Poissons Ratio (x) = 0.15187 0.96307
# Poissons Ratio (y) = -0.11704 0.21620
# Poissons Ratio (z) = 0.54989 -0.16018
#
# Static dielectric constant tensor:
#      x y z
#    x 1.717850 0.000000 -0.027330 
#    y 0.000000 1.670810 0.000000 
#    z -0.027330 0.000000 1.765420 
# 
# From -- ./inp_files/280455.got.cif
#   From: 2010.05.17/outbox.ucp.g08.bks.cvg/sg12_141_cif.got.tgz:280455.got - 2010.06.11 11:47:21.
