data_PCOD9224775
_publ_section_title
;
Structure prediction by ZEFSAII (Michael W. Deem and Ramdas Pophale) SiO2 
 PCOD9224775
Probable space group: C 2/M
;
_chemical_formula_sum "Si O2"
_cell_formula_units_Z 24
_cell_length_a 27.000000
_cell_length_b 9.000000
_cell_length_c 15.000000
_cell_angle_alpha 90.000000
_cell_angle_beta 40.000000
_cell_angle_gamma 90.000000
_cell_volume 2342.960837
_symmetry_space_group_name_H-M "C 2/M"
_symmetry_group_IT_number 12
_symmetry_cell_setting 'monoclinic'
loop_
_space_group_symop_operation_xyz
x,y,z
-x,y,-z
-x,-y,-z
x,-y,z
1/2+x,1/2+y,z
1/2-x,1/2+y,-z
1/2-x,1/2-y,-z
1/2+x,1/2-y,z
loop_
_atom_site_type_symbol
_atom_site_label
_atom_site_fract_x
_atom_site_fract_y
_atom_site_fract_z
Si Si1 0.781996 0.677296 0.864211
Si Si2 0.059652 0.175184 0.998907
Si Si3 0.468790 0.328238 0.298269
Si Si4 0.080015 0.828140 0.440630
Si Si5 0.794965 0.168874 0.513997
Si Si6 0.789159 0.324999 0.197592
O O1 0.790468 0.500000 0.863024
O O2 0.858775 0.747129 0.709832
O O3 0.719194 0.723639 0.877510
O O4 0.750000 0.750000 0.000000
O O5 0.026095 0.226417 0.142042
O O6 0.081407 0.000000 0.977539
O O7 0.129374 0.280372 0.875130
O O8 0.000000 0.181611 0.000000
O O9 0.492078 0.500000 0.284697
O O10 0.447786 0.261900 0.424741
O O11 0.384773 0.328318 0.369622
O O12 0.000000 0.837184 0.500000
O O13 0.108127 0.000000 0.417800
O O14 0.750000 0.250000 0.500000
O O15 0.775484 0.220672 0.640989
O O16 0.767766 0.000000 0.552333
O O17 0.784502 0.500000 0.182841
#
# Coordination Sequence:
#
# PCOD9224775 Si02
#       6
#     8   8   8   8   8   8
#     4  12  26  44  67  94 126 163 209 261 318 382
#     4  10  21  37  60  90 126 169 214 255 302 370
#     4   9  18  36  58  84 120 160 200 246 301 361
#     4  10  21  40  66  93 124 162 203 250 312 378
#     4  10  20  36  60  86 118 157 202 250 302 361
#     4  11  23  41  63  90 126 164 206 262 319 373
#
# _framework density 10.243449
#
# number of rings (size 3 to 8) (size 9 to 14) (size 15 to 20)
#    0.000    1.667    1.667    3.000    2.333    3.333 
#    0.000    1.667    0.000    0.000    0.000    0.000 
#    0.000    0.000    0.000    0.000    0.000    0.000 
#
# Total GULP energy -133661.116464 kJ/mol
# GULP energy per Si atom -5569.213186 kJ/mol
# Density = 1.022013 g / cm^3
# Si number density = 10.243449 Si / 1000 Ang^3
#
#
#
# Elastic Constant Matrix: (Units=GPa)
#
#
# Indices 1 2 3 4 5 6 
#
# 1 56.2034 11.9418 -3.2262 0.0001 3.0086 0.0000
# 2 11.9418 49.5080 21.0028 0.0018 -0.3993 -0.0007
# 3 -3.2262 21.0028 94.1704 0.0007 1.9718 -0.0003
# 4 0.0001 0.0018 0.0007 28.8082 0.0001 1.3750
# 5 3.0086 -0.3993 1.9718 0.0001 30.9514 -0.0001
# 6 0.0000 -0.0007 -0.0003 1.3750 -0.0001 21.3036
#
#
#
# Elastic Compliance Matrix: (Units=1/GPa)
#
#
# Indices 1 2 3 4 5 6 
#
# 1 0.019171 -0.005454 0.001916 0.000000 -0.002056 0.000000
# 2 -0.005454 0.023872 -0.005536 -0.000001 0.001191 0.000001
# 3 0.001916 -0.005536 0.011941 0.000000 -0.001018 0.000000
# 4 0.000000 -0.000001 0.000000 0.034820 0.000000 -0.002247
# 5 -0.002056 0.001191 -0.001018 0.000000 0.032589 0.000000
# 6 0.000000 0.000001 0.000000 -0.002247 0.000000 0.047085
#
#
# Mechanical properties :
#
#
# Convention : Reuss Voigt Hill
#
# Bulk Modulus (GPa) = 27.14646 28.81318 27.97982
# Shear Modulus (GPa) = 25.01192 27.55689 26.28441
#
# Velocity S-wave (km/s) = 3.49789 3.67154 3.58577
# Velocity P-wave (km/s) = 5.43995 5.66289 5.55254
#
# Compressibility (1/GPa) = 0.03683722
#
# Stress axis : x y z
#
# Youngs Moduli (GPa) = 52.16110 41.88929 83.74707
#
# Poissons Ratio (x) = 0.22846 -0.16048
# Poissons Ratio (y) = 0.28448 0.46363
# Poissons Ratio (z) = -0.09995 0.23190
#
# Static dielectric constant tensor:
#      x y z
#    x 1.647730 0.000000 -0.027560 
#    y 0.000000 1.693710 0.000000 
#    z -0.027560 0.000000 1.776140 
# 
# From -- ./inp_files/244737.got.cif
#   From: 2010.05.17/outbox.ucp.g08.bks.cvg/sg12_123_cif.got.tgz:244737.got - 2010.06.11 11:47:21.
