data_PCOD9224834
_publ_section_title
;
Structure prediction by ZEFSAII (Michael W. Deem and Ramdas Pophale) SiO2 
 PCOD9224834
Probable space group: C 2/M
;
_chemical_formula_sum "Si O2"
_cell_formula_units_Z 28
_cell_length_a 21.000000
_cell_length_b 9.000000
_cell_length_c 18.000000
_cell_angle_alpha 90.000000
_cell_angle_beta 60.000000
_cell_angle_gamma 90.000000
_cell_volume 2946.218424
_symmetry_space_group_name_H-M "C 2/M"
_symmetry_group_IT_number 12
_symmetry_cell_setting 'monoclinic'
loop_
_space_group_symop_operation_xyz
x,y,z
-x,y,-z
-x,-y,-z
x,-y,z
1/2+x,1/2+y,z
1/2-x,1/2+y,-z
1/2-x,1/2-y,-z
1/2+x,1/2-y,z
loop_
_atom_site_type_symbol
_atom_site_label
_atom_site_fract_x
_atom_site_fract_y
_atom_site_fract_z
Si Si1 0.733711 0.323410 0.088410
Si Si2 0.826241 0.326122 0.474110
Si Si3 0.902946 0.176979 0.730495
Si Si4 0.914487 0.824404 0.553777
Si Si5 0.106708 0.676573 0.954811
Si Si6 0.491328 0.324188 0.114139
Si Si7 0.042232 0.326455 0.714982
O O1 0.727156 0.500000 0.080368
O O2 0.661649 0.276248 0.175707
O O3 0.806765 0.297502 0.094420
O O4 0.750000 0.250000 0.000000
O O5 0.814681 0.500000 0.492009
O O6 0.750000 0.250000 0.500000
O O7 0.865149 0.258663 0.523395
O O8 0.882840 0.306110 0.373253
O O9 0.884341 0.194050 0.654741
O O10 0.974832 0.273122 0.703765
O O11 0.917976 0.000000 0.733704
O O12 0.000000 0.775509 0.500000
O O13 0.914281 0.000000 0.536047
O O14 0.092949 0.500000 0.958101
O O15 0.066033 0.761740 0.912571
O O16 0.068196 0.742156 0.051016
O O17 0.500495 0.500000 0.101983
O O18 0.462802 0.275615 0.210200
O O19 0.034537 0.500000 0.739689
#
# Coordination Sequence:
#
# PCOD9224834 Si02
#       7
#     8   8   8   8   8   8   8
#     4  10  22  37  56  83 117 153 192 240 291 344
#     4  11  25  42  63  90 124 160 201 253 311 370
#     4  10  21  38  61  89 118 155 199 245 296 358
#     4  10  20  38  65  92 122 160 202 249 305 367
#     4  10  20  37  57  81 116 156 196 241 296 354
#     4  11  22  36  58  85 113 151 198 245 295 356
#     4  11  23  39  59  86 117 153 196 244 297 359
#
# _framework density 9.5037079999999996
#
# number of rings (size 3 to 8) (size 9 to 14) (size 15 to 20)
#    0.000    1.571    1.429    4.286    0.000    7.714 
#    0.000    2.857    0.000    0.000    0.000    0.000 
#    0.000    0.000    0.000    0.000    0.000    0.000 
#
# Total GULP energy -156397.350296 kJ/mol
# GULP energy per Si atom -5585.619653 kJ/mol
# Density = 0.948208 g / cm^3
# Si number density = 9.503708 Si / 1000 Ang^3
#
#
#
# Elastic Constant Matrix: (Units=GPa)
#
#
# Indices 1 2 3 4 5 6 
#
# 1 96.1972 41.4777 37.7696 0.0000 -11.9923 0.0000
# 2 41.4777 53.8658 40.8948 0.0000 -6.1027 0.0000
# 3 37.7696 40.8948 67.5627 0.0000 -0.5497 0.0000
# 4 0.0000 0.0000 0.0000 30.8693 0.0000 6.8243
# 5 -11.9923 -6.1027 -0.5497 0.0000 26.2106 0.0000
# 6 0.0000 0.0000 0.0000 6.8243 0.0000 13.2775
#
#
#
# Elastic Compliance Matrix: (Units=1/GPa)
#
#
# Indices 1 2 3 4 5 6 
#
# 1 0.016494 -0.009504 -0.003425 0.000000 0.005262 0.000000
# 2 -0.009504 0.041393 -0.019702 0.000000 0.004876 0.000000
# 3 -0.003425 -0.019702 0.028596 0.000000 -0.005555 0.000000
# 4 0.000000 0.000000 0.000000 0.036547 0.000000 -0.018784
# 5 0.005262 0.004876 -0.005555 0.000000 0.041579 0.000000
# 6 0.000000 0.000000 0.000000 -0.018784 0.000000 0.084970
#
#
# Mechanical properties :
#
#
# Convention : Reuss Voigt Hill
#
# Bulk Modulus (GPa) = 47.12388 50.87886 49.00137
# Shear Modulus (GPa) = 15.53205 20.57039 18.05122
#
# Velocity S-wave (km/s) = 2.86170 3.29329 3.08505
# Velocity P-wave (km/s) = 5.98041 6.42550 6.20695
#
# Compressibility (1/GPa) = 0.02122066
#
# Stress axis : x y z
#
# Youngs Moduli (GPa) = 60.62797 24.15857 34.97013
#
# Poissons Ratio (x) = 0.22961 0.11977
# Poissons Ratio (y) = 0.57623 0.68898
# Poissons Ratio (z) = 0.20765 0.47597
#
# Static dielectric constant tensor:
#      x y z
#    x 1.687570 0.000000 -0.027590 
#    y 0.000000 1.641150 0.000000 
#    z -0.027590 0.000000 1.737020 
# 
# From -- ./inp_files/280939.got.cif
#   From: 2010.05.17/outbox.ucp.g08.bks.cvg/sg12_141_cif.got.tgz:280939.got - 2010.06.11 11:47:21.
