data_PCOD9224608
_publ_section_title
;
Structure prediction by ZEFSAII (Michael W. Deem and Ramdas Pophale) SiO2 
 PCOD9224608
Probable space group: C 2/M
;
_chemical_formula_sum "Si O2"
_cell_formula_units_Z 32
_cell_length_a 30.000000
_cell_length_b 9.000000
_cell_length_c 24.000000
_cell_angle_alpha 90.000000
_cell_angle_beta 150.000000
_cell_angle_gamma 90.000000
_cell_volume 3240.000000
_symmetry_space_group_name_H-M "C 2/M"
_symmetry_group_IT_number 12
_symmetry_cell_setting 'monoclinic'
loop_
_space_group_symop_operation_xyz
x,y,z
-x,y,-z
-x,-y,-z
x,-y,z
1/2+x,1/2+y,z
1/2-x,1/2+y,-z
1/2-x,1/2-y,-z
1/2+x,1/2-y,z
loop_
_atom_site_type_symbol
_atom_site_label
_atom_site_fract_x
_atom_site_fract_y
_atom_site_fract_z
Si Si1 0.467867 0.680970 0.026050
Si Si2 0.519298 0.822657 0.456859
Si Si3 0.892954 0.320614 0.133177
Si Si4 0.308157 0.320177 0.929870
Si Si5 0.588069 0.320998 0.350136
Si Si6 0.632166 0.679208 0.275625
Si Si7 0.364525 0.322013 0.220227
Si Si8 0.679428 0.822008 0.555681
O O1 0.469402 0.500000 0.026455
O O2 0.540704 0.733960 0.149848
O O3 0.500000 0.731389 0.000000
O O4 0.371266 0.719420 0.945887
O O5 0.500000 0.783953 0.500000
O O6 0.457144 0.731384 0.347419
O O7 0.620690 0.796483 0.546939
O O8 0.500782 0.000000 0.429982
O O9 0.885034 0.500000 0.123722
O O10 0.852669 0.253337 0.146670
O O11 0.994955 0.265600 0.245584
O O12 0.851176 0.246860 0.032877
O O13 0.302577 0.500000 0.927942
O O14 0.211867 0.245422 0.823053
O O15 0.573480 0.500000 0.336202
O O16 0.640021 0.282943 0.349179
O O17 0.637243 0.264803 0.458177
O O18 0.627314 0.500000 0.268644
O O19 0.717369 0.722303 0.331510
O O20 0.359885 0.500000 0.210443
O O21 0.674869 0.000000 0.539301
#
# Coordination Sequence:
#
# PCOD9224608 Si02
#       8
#     8   8   8   8   8   8   8   8
#     4   9  18  34  59  89 119 153 198 245 290 341
#     4  10  22  40  61  88 120 158 204 251 294 343
#     4  12  23  38  61  89 121 156 197 244 303 364
#     4  11  22  39  63  92 124 157 198 246 298 356
#     4  11  20  34  57  85 119 153 190 240 296 356
#     4   9  18  33  54  85 119 152 190 238 292 346
#     4  12  25  41  62  89 122 159 199 246 303 360
#     4  10  20  35  58  85 118 155 194 240 291 352
#
# _framework density 9.8765429999999999
#
# number of rings (size 3 to 8) (size 9 to 14) (size 15 to 20)
#    0.000    1.500    2.500    3.750    0.000    1.250 
#    0.000    4.375    0.000    1.500    0.000    0.000 
#    0.000    0.000    0.000    0.000    0.000    0.000 
#
# Total GULP energy -178691.130119 kJ/mol
# GULP energy per Si atom -5584.097816 kJ/mol
# Density = 0.985406 g / cm^3
# Si number density = 9.876543 Si / 1000 Ang^3
#
#
#
# Elastic Constant Matrix: (Units=GPa)
#
#
# Indices 1 2 3 4 5 6 
#
# 1 152.0782 25.9039 13.2275 0.0000 17.7129 0.0000
# 2 25.9039 75.8657 0.2501 0.0000 5.7948 0.0000
# 3 13.2275 0.2501 17.3900 0.0000 19.3117 0.0000
# 4 0.0000 0.0000 0.0000 27.3277 0.0000 0.6477
# 5 17.7129 5.7948 19.3117 0.0000 37.8657 0.0000
# 6 0.0000 0.0000 0.0000 0.6477 0.0000 17.9472
#
#
#
# Elastic Compliance Matrix: (Units=1/GPa)
#
#
# Indices 1 2 3 4 5 6 
#
# 1 0.007506 -0.002505 -0.005073 0.000000 -0.000541 0.000000
# 2 -0.002505 0.014348 0.006540 0.000000 -0.004360 0.000000
# 3 -0.005073 0.006540 0.137777 0.000000 -0.068895 0.000000
# 4 0.000000 0.000000 0.000000 0.036624 0.000000 -0.001322
# 5 -0.000541 -0.004360 -0.068895 0.000000 0.062466 0.000000
# 6 0.000000 0.000000 0.000000 -0.001322 0.000000 0.055767
#
#
# Mechanical properties :
#
#
# Convention : Reuss Voigt Hill
#
# Bulk Modulus (GPa) = 6.34695 36.01075 21.17885
# Shear Modulus (GPa) = 13.54709 30.35831 21.95270
#
# Velocity S-wave (km/s) = 2.62166 3.92457 3.33732
# Velocity P-wave (km/s) = 3.51913 6.22948 5.05918
#
# Compressibility (1/GPa) = 0.15755600
#
# Stress axis : x y z
#
# Youngs Moduli (GPa) = 133.21816 69.69637 7.25808
#
# Poissons Ratio (x) = 0.17459 0.03682
# Poissons Ratio (y) = 0.33371 -0.04747
# Poissons Ratio (z) = 0.67586 -0.45584
#
# Static dielectric constant tensor:
#      x y z
#    x 1.721400 0.000000 0.036270 
#    y 0.000000 1.653970 0.000000 
#    z 0.036270 0.000000 1.717650 
# 
# From -- ./inp_files/353568.got.cif
#   From: 2010.05.17/outbox.ucp.g08.bks.cvg/sg12_177_cif.got.tgz:353568.got - 2010.06.11 11:47:21.
