data_PCOD9224654
_publ_section_title
;
Structure prediction by ZEFSAII (Michael W. Deem and Ramdas Pophale) SiO2 
 PCOD9224654
Probable space group: C 2/M
;
_chemical_formula_sum "Si O2"
_cell_formula_units_Z 28
_cell_length_a 18.000000
_cell_length_b 21.000000
_cell_length_c 21.000000
_cell_angle_alpha 90.000000
_cell_angle_beta 20.000000
_cell_angle_gamma 90.000000
_cell_volume 2714.955898
_symmetry_space_group_name_H-M "C 2/M"
_symmetry_group_IT_number 12
_symmetry_cell_setting 'monoclinic'
loop_
_space_group_symop_operation_xyz
x,y,z
-x,y,-z
-x,-y,-z
x,-y,z
1/2+x,1/2+y,z
1/2-x,1/2+y,-z
1/2-x,1/2-y,-z
1/2+x,1/2-y,z
loop_
_atom_site_type_symbol
_atom_site_label
_atom_site_fract_x
_atom_site_fract_y
_atom_site_fract_z
Si Si1 0.902416 0.878528 0.865484
Si Si2 0.636618 0.928129 0.513031
Si Si3 0.566553 0.215055 0.520144
Si Si4 0.451880 0.739854 0.886588
Si Si5 0.698317 0.684809 0.184345
Si Si6 0.436419 0.074258 0.278393
Si Si7 0.027201 0.075909 0.402192
O O1 0.939218 0.836790 0.900122
O O2 0.925306 0.840573 0.779830
O O3 0.099588 0.927674 0.703584
O O4 0.652346 0.898776 0.071957
O O5 0.568175 0.861035 0.534861
O O6 0.563648 0.919928 0.645280
O O7 0.563673 0.000000 0.550866
O O8 0.500000 0.222800 0.500000
O O9 0.415117 0.256532 0.688239
O O10 0.806752 0.246158 0.334922
O O11 0.250000 0.750000 0.000000
O O12 0.412116 0.783188 0.980055
O O13 0.699874 0.624027 0.230528
O O14 0.205050 0.097773 0.439359
O O15 0.437096 0.000000 0.261880
O O16 0.000000 0.082095 0.500000
O O17 0.065559 0.000000 0.356957
#
# Coordination Sequence:
#
# PCOD9224654 Si02
#       7
#     8   8   8   8   8   8   8
#     4  10  20  35  60  92 122 152 202 261 310 365
#     4  10  21  40  67  93 122 162 210 258 315 379
#     4  11  25  43  62  93 134 169 208 265 321 374
#     4   9  22  38  60  93 120 157 209 260 309 372
#     4  11  22  38  64  86 124 168 208 254 313 380
#     4  10  20  36  60  88 120 156 205 259 311 372
#     4  10  22  40  59  85 123 165 208 261 318 377
#
# _framework density 10.313243
#
# number of rings (size 3 to 8) (size 9 to 14) (size 15 to 20)
#    0.000    1.857    1.429    1.714    4.000    6.571 
#    2.571    0.000    0.000    2.571    0.000    8.000 
#    0.000    0.000    0.000    0.000    0.000    0.000 
#
# Total GULP energy -155938.212656 kJ/mol
# GULP energy per Si atom -5569.221881 kJ/mol
# Density = 1.028977 g / cm^3
# Si number density = 10.313243 Si / 1000 Ang^3
#
#
#
# Elastic Constant Matrix: (Units=GPa)
#
#
# Indices 1 2 3 4 5 6 
#
# 1 42.1061 28.1320 13.8692 -0.0136 13.5134 -0.0005
# 2 28.1320 133.6713 35.0608 0.0344 24.4393 0.0334
# 3 13.8692 35.0608 76.1822 -0.0126 21.2287 0.0251
# 4 -0.0136 0.0344 -0.0126 25.4053 0.0465 4.5383
# 5 13.5134 24.4393 21.2287 0.0465 24.8341 0.0070
# 6 -0.0005 0.0334 0.0251 4.5383 0.0070 24.4402
#
#
#
# Elastic Compliance Matrix: (Units=1/GPa)
#
#
# Indices 1 2 3 4 5 6 
#
# 1 0.030541 -0.004105 -0.000218 0.000044 -0.012394 0.000002
# 2 -0.004105 0.009971 -0.002271 -0.000005 -0.005638 -0.000009
# 3 -0.000218 -0.002271 0.017794 0.000039 -0.012858 -0.000019
# 4 0.000044 -0.000005 0.000039 0.040713 -0.000126 -0.007560
# 5 -0.012394 -0.005638 -0.012858 -0.000126 0.063551 0.000026
# 6 0.000002 -0.000009 -0.000019 -0.007560 0.000026 0.042320
#
#
# Mechanical properties :
#
#
# Convention : Reuss Voigt Hill
#
# Bulk Modulus (GPa) = 22.16267 45.12039 33.64153
# Shear Modulus (GPa) = 21.44857 26.59578 24.02218
#
# Velocity S-wave (km/s) = 3.22818 3.59472 3.41637
# Velocity P-wave (km/s) = 4.96618 6.25714 5.64866
#
# Compressibility (1/GPa) = 0.04512093
#
# Stress axis : x y z
#
# Youngs Moduli (GPa) = 32.74275 100.28790 56.19892
#
# Poissons Ratio (x) = 0.41164 0.01222
# Poissons Ratio (y) = 0.13440 0.12761
# Poissons Ratio (z) = 0.00712 0.22771
#
# Static dielectric constant tensor:
#      x y z
#    x 1.731930 -0.000060 -0.014230 
#    y -0.000060 1.847040 0.000000 
#    z -0.014230 0.000000 1.781450 
# 
# From -- ./inp_files/318010.got.cif
#   From: 2010.05.17/outbox.ucp.g08.bks.cvg/sg12_160_cif.got.tgz:318010.got - 2010.06.11 11:47:21.
