data_PCOD9224771
_publ_section_title
;
Structure prediction by ZEFSAII (Michael W. Deem and Ramdas Pophale) SiO2 
 PCOD9224771
Probable space group: C 2/M
;
_chemical_formula_sum "Si O2"
_cell_formula_units_Z 20
_cell_length_a 15.000000
_cell_length_b 18.000000
_cell_length_c 15.000000
_cell_angle_alpha 90.000000
_cell_angle_beta 150.000000
_cell_angle_gamma 90.000000
_cell_volume 2025.000000
_symmetry_space_group_name_H-M "C 2/M"
_symmetry_group_IT_number 12
_symmetry_cell_setting 'monoclinic'
loop_
_space_group_symop_operation_xyz
x,y,z
-x,y,-z
-x,-y,-z
x,-y,z
1/2+x,1/2+y,z
1/2-x,1/2+y,-z
1/2-x,1/2-y,-z
1/2+x,1/2-y,z
loop_
_atom_site_type_symbol
_atom_site_label
_atom_site_fract_x
_atom_site_fract_y
_atom_site_fract_z
Si Si1 0.740756 0.083628 0.527521
Si Si2 0.913531 0.417101 0.110188
Si Si3 0.413131 0.653708 0.250062
Si Si4 0.343702 0.159690 0.810978
Si Si5 0.381257 0.775070 0.484523
O O1 0.554123 0.088494 0.311913
O O2 0.721246 0.151032 0.578653
O O3 0.918189 0.101390 0.623951
O O4 0.754950 0.000000 0.575605
O O5 0.836867 0.500000 0.042225
O O6 0.043652 0.404700 0.138164
O O7 0.747452 0.360666 0.958681
O O8 0.314193 0.637356 0.258773
O O9 0.494042 0.736596 0.332109
O O10 0.259642 0.211637 0.663531
O O11 0.500000 0.202502 0.000000
O O12 0.500000 0.788280 0.500000
#
# Coordination Sequence:
#
# PCOD9224771 Si02
#       5
#     8   8   8   8   8
#     4  11  23  38  58  83 116 150 185 234 282 330
#     4  10  21  35  55  88 121 149 182 223 282 341
#     4  10  20  36  60  82 112 146 188 230 274 330
#     4   9  19  36  58  85 114 149 187 228 277 333
#     4  10  21  40  59  83 110 147 196 233 278 332
#
# _framework density 9.8765429999999999
#
# number of rings (size 3 to 8) (size 9 to 14) (size 15 to 20)
#    0.000    2.000    2.000    1.200    0.000    5.600 
#    7.200    2.000    0.000    0.600    0.000    0.000 
#    0.000    0.000    0.000    0.000    0.000    0.000 
#
# Total GULP energy -111397.640050 kJ/mol
# GULP energy per Si atom -5569.882003 kJ/mol
# Density = 0.985406 g / cm^3
# Si number density = 9.876543 Si / 1000 Ang^3
#
#
#
# Elastic Constant Matrix: (Units=GPa)
#
#
# Indices 1 2 3 4 5 6 
#
# 1 30.5869 36.7973 23.5253 -0.0001 13.4769 -0.0001
# 2 36.7973 84.8133 26.8661 0.0000 15.3879 0.0000
# 3 23.5253 26.8661 94.7044 -0.0003 20.3672 -0.0002
# 4 -0.0001 0.0000 -0.0003 7.8859 -0.0002 13.5473
# 5 13.4769 15.3879 20.3672 -0.0002 19.7503 -0.0002
# 6 -0.0001 0.0000 -0.0002 13.5473 -0.0002 14.4481
#
#
#
# Elastic Compliance Matrix: (Units=1/GPa)
#
#
# Indices 1 2 3 4 5 6 
#
# 1 0.087331 -0.030500 -0.006857 0.000000 -0.028758 0.000000
# 2 -0.030500 0.024700 0.000298 0.000000 0.001260 0.000000
# 3 -0.006857 0.000298 0.014419 0.000000 -0.010424 0.000000
# 4 0.000000 0.000000 0.000000 -0.207609 0.000000 0.194665
# 5 -0.028758 0.001260 -0.010424 0.000000 0.080023 0.000001
# 6 0.000000 0.000000 0.000000 0.194665 0.000001 -0.113315
#
#
# Mechanical properties :
#
#
# Convention : Reuss Voigt Hill
#
# Bulk Modulus (GPa) = 19.10799 42.72022 30.91410
# Shear Modulus (GPa) = -218.44692 16.61125 -100.91784
#
# Velocity S-wave (km/s) = -10.52753 2.90305 -7.15546
# Velocity P-wave (km/s) = 11.75063 5.73681 7.25143
#
# Compressibility (1/GPa) = 0.05233414
#
# Stress axis : x y z
#
# Youngs Moduli (GPa) = 11.45065 40.48518 69.35071
#
# Poissons Ratio (x) = 1.23481 0.47552
# Poissons Ratio (y) = 0.34925 -0.02069
# Poissons Ratio (z) = 0.07851 -0.01208
#
# Static dielectric constant tensor:
#      x y z
#    x 1.716790 0.000000 -0.056730 
#    y 0.000000 1.682930 0.000000 
#    z -0.056730 0.000000 1.751660 
# 
# From -- ./inp_files/95949.got.cif
#   From: 2010.05.17/outbox.ucp.g08.bks.cvg/sg12_48_cif.got.tgz:95949.got - 2010.06.11 11:47:21.
