data_PCOD9224647
_publ_section_title
;
Structure prediction by ZEFSAII (Michael W. Deem and Ramdas Pophale) SiO2 
 PCOD9224647
Probable space group: C 2/M
;
_chemical_formula_sum "Si O2"
_cell_formula_units_Z 32
_cell_length_a 30.000000
_cell_length_b 15.000000
_cell_length_c 21.000000
_cell_angle_alpha 90.000000
_cell_angle_beta 160.000000
_cell_angle_gamma 90.000000
_cell_volume 3232.090354
_symmetry_space_group_name_H-M "C 2/M"
_symmetry_group_IT_number 12
_symmetry_cell_setting 'monoclinic'
loop_
_space_group_symop_operation_xyz
x,y,z
-x,y,-z
-x,-y,-z
x,-y,z
1/2+x,1/2+y,z
1/2-x,1/2+y,-z
1/2-x,1/2-y,-z
1/2+x,1/2-y,z
loop_
_atom_site_type_symbol
_atom_site_label
_atom_site_fract_x
_atom_site_fract_y
_atom_site_fract_z
Si Si1 0.392615 0.241106 0.402708
Si Si2 0.959588 0.747682 0.271137
Si Si3 0.725526 0.595497 0.832677
Si Si4 0.265081 0.395558 0.007896
Si Si5 0.970962 0.239394 0.889536
Si Si6 0.195892 0.898433 0.194973
Si Si7 0.487352 0.905033 0.822937
Si Si8 0.198480 0.342866 0.527070
O O1 0.500000 0.202116 0.500000
O O2 0.462802 0.274204 0.560870
O O3 0.327077 0.323291 0.278453
O O4 0.291512 0.164926 0.284324
O O5 0.871480 0.826199 0.122285
O O6 0.073302 0.715797 0.377590
O O7 0.867703 0.663397 0.168290
O O8 0.682002 0.500000 0.747164
O O9 0.688332 0.600555 0.856214
O O10 0.882365 0.594740 0.044597
O O11 0.253736 0.500000 0.971007
O O12 0.006749 0.319170 0.891789
O O13 0.821741 0.216849 0.675732
O O14 0.000000 0.271384 0.000000
O O15 0.056647 0.149598 0.001060
O O16 0.250659 0.893353 0.341177
O O17 0.192609 0.000000 0.169846
O O18 0.357978 0.899230 0.606683
O O19 0.486454 0.000000 0.857195
#
# Coordination Sequence:
#
# PCOD9224647 Si02
#       8
#     8   8   8   8   8   8   8   8
#     4  11  21  36  57  84 121 151 188 232 285 340
#     4  10  21  35  58  85 116 151 186 235 281 332
#     4  10  20  35  60  88 114 147 191 237 281 336
#     4  10  20  37  59  85 115 150 189 232 283 334
#     4  10  22  40  61  84 117 150 185 235 293 341
#     4  10  22  39  58  83 115 152 195 237 281 336
#     4  11  21  37  62  87 114 147 188 235 285 341
#     4  10  21  37  61  86 111 147 195 242 280 329
#
# _framework density 9.9007129999999997
#
# number of rings (size 3 to 8) (size 9 to 14) (size 15 to 20)
#    0.000    1.750    3.750    0.750    0.000    6.000 
#    0.000    0.625    0.000    0.000    0.000    0.000 
#    0.000    0.000    0.000    0.000    0.000    0.000 
#
# Total GULP energy -178292.818811 kJ/mol
# GULP energy per Si atom -5571.650588 kJ/mol
# Density = 0.987818 g / cm^3
# Si number density = 9.900713 Si / 1000 Ang^3
#
#
#
# Elastic Constant Matrix: (Units=GPa)
#
#
# Indices 1 2 3 4 5 6 
#
# 1 22.9813 15.2836 8.0850 0.0000 7.5722 0.0000
# 2 15.2836 110.9483 42.0828 0.0000 4.6557 0.0000
# 3 8.0850 42.0828 88.3843 0.0000 15.7176 0.0000
# 4 0.0000 0.0000 0.0000 43.0361 0.0000 59.2330
# 5 7.5722 4.6557 15.7176 0.0000 32.0368 0.0000
# 6 0.0000 0.0000 0.0000 59.2330 0.0000 95.2693
#
#
#
# Elastic Compliance Matrix: (Units=1/GPa)
#
#
# Indices 1 2 3 4 5 6 
#
# 1 0.051656 -0.006855 0.000583 0.000000 -0.011499 0.000000
# 2 -0.006855 0.011943 -0.005520 0.000000 0.002593 0.000000
# 3 0.000583 -0.005520 0.015087 0.000000 -0.006738 0.000000
# 4 0.000000 0.000000 0.000000 0.161072 0.000000 -0.100145
# 5 -0.011499 0.002593 -0.006738 0.000000 0.036861 0.000000
# 6 0.000000 0.000000 0.000000 -0.100145 0.000000 0.072761
#
#
# Mechanical properties :
#
#
# Convention : Reuss Voigt Hill
#
# Bulk Modulus (GPa) = 18.14780 39.24629 28.69704
# Shear Modulus (GPa) = 12.77691 44.52591 28.65141
#
# Velocity S-wave (km/s) = 2.54294 4.74711 3.80799
# Velocity P-wave (km/s) = 4.21981 7.06468 5.81878
#
# Compressibility (1/GPa) = 0.05510309
#
# Stress axis : x y z
#
# Youngs Moduli (GPa) = 19.35879 83.73444 66.28015
#
# Poissons Ratio (x) = 0.57397 -0.03867
# Poissons Ratio (y) = 0.13270 0.36589
# Poissons Ratio (z) = -0.01129 0.46224
#
# Static dielectric constant tensor:
#      x y z
#    x 1.759450 0.000000 0.007980 
#    y 0.000000 1.715680 0.000000 
#    z 0.007980 0.000000 1.697550 
# 
# From -- ./inp_files/189447.got.cif
#   From: 2010.05.17/outbox.ucp.g08.bks.cvg/sg12_95_cif.got.tgz:189447.got - 2010.06.11 11:47:21.
