data_PCOD9224388
_publ_section_title
;
Structure prediction by ZEFSAII (Michael W. Deem and Ramdas Pophale) SiO2 
 PCOD9224388
Probable space group: C 2/M
;
_chemical_formula_sum "Si O2"
_cell_formula_units_Z 28
_cell_length_a 30.000000
_cell_length_b 9.000000
_cell_length_c 12.000000
_cell_angle_alpha 90.000000
_cell_angle_beta 120.000000
_cell_angle_gamma 90.000000
_cell_volume 2805.922308
_symmetry_space_group_name_H-M "C 2/M"
_symmetry_group_IT_number 12
_symmetry_cell_setting 'monoclinic'
loop_
_space_group_symop_operation_xyz
x,y,z
-x,y,-z
-x,-y,-z
x,-y,z
1/2+x,1/2+y,z
1/2-x,1/2+y,-z
1/2-x,1/2-y,-z
1/2+x,1/2-y,z
loop_
_atom_site_type_symbol
_atom_site_label
_atom_site_fract_x
_atom_site_fract_y
_atom_site_fract_z
Si Si1 0.837291 0.323425 0.811040
Si Si2 0.224773 0.178855 0.726824
Si Si3 0.954603 0.166544 0.256971
Si Si4 0.133624 0.327916 0.737341
Si Si5 0.552320 0.330467 0.014565
Si Si6 0.439798 0.172240 0.572045
Si Si7 0.662512 0.177532 0.447335
O O1 0.843743 0.500000 0.837444
O O2 0.784997 0.275167 0.809856
O O3 0.892337 0.247359 0.901221
O O4 0.823891 0.300489 0.663773
O O5 0.186291 0.244943 0.771755
O O6 0.199322 0.238143 0.579530
O O7 0.222921 0.000000 0.725351
O O8 0.901959 0.253930 0.214737
O O9 0.007133 0.239784 0.367458
O O10 0.949599 0.000000 0.296749
O O11 0.959392 0.161823 0.130675
O O12 0.144316 0.500000 0.773915
O O13 0.094749 0.319822 0.582467
O O14 0.556823 0.500000 0.064658
O O15 0.500000 0.260405 0.000000
O O16 0.397576 0.222751 0.610498
O O17 0.453219 0.000000 0.609256
O O18 0.664933 0.000000 0.476277
#
# Coordination Sequence:
#
# PCOD9224388 Si02
#       7
#     8   8   8   8   8   8   8
#     4  10  21  36  56  82 110 144 185 225 265 316
#     4  10  20  34  54  83 114 141 178 225 269 317
#     4  11  22  35  54  80 108 140 181 226 271 319
#     4  10  21  37  56  79 109 144 181 220 268 325
#     4  10  23  41  58  80 110 142 179 223 268 318
#     4   9  18  32  52  79 110 143 178 216 262 322
#     4   9  18  33  53  81 115 147 180 217 264 322
#
# _framework density 9.9788940000000004
#
# number of rings (size 3 to 8) (size 9 to 14) (size 15 to 20)
#    0.000    2.143    0.000    3.857    0.000    7.714 
#    0.000    0.714    0.000    0.000    0.000    0.000 
#    0.000    0.000    0.000    0.000    0.000    0.000 
#
# Total GULP energy -156217.368094 kJ/mol
# GULP energy per Si atom -5579.191718 kJ/mol
# Density = 0.995618 g / cm^3
# Si number density = 9.978894 Si / 1000 Ang^3
#
#
#
# Elastic Constant Matrix: (Units=GPa)
#
#
# Indices 1 2 3 4 5 6 
#
# 1 177.2300 57.5645 26.7119 0.0000 27.0778 0.0000
# 2 57.5645 74.5779 13.6643 0.0000 16.6573 0.0000
# 3 26.7119 13.6643 16.8267 0.0000 14.7076 0.0000
# 4 0.0000 0.0000 0.0000 22.9430 0.0000 6.7844
# 5 27.0778 16.6573 14.7076 0.0000 37.7104 0.0000
# 6 0.0000 0.0000 0.0000 6.7844 0.0000 34.3030
#
#
#
# Elastic Compliance Matrix: (Units=1/GPa)
#
#
# Indices 1 2 3 4 5 6 
#
# 1 0.008733 -0.004907 -0.009547 0.000000 -0.000380 0.000000
# 2 -0.004907 0.018734 -0.004962 0.000000 -0.002817 0.000000
# 3 -0.009547 -0.004962 0.107277 0.000000 -0.032793 0.000000
# 4 0.000000 0.000000 0.000000 0.046294 0.000000 -0.009156
# 5 -0.000380 -0.002817 -0.032793 0.000000 0.040825 0.000000
# 6 0.000000 0.000000 0.000000 -0.009156 0.000000 0.030963
#
#
# Mechanical properties :
#
#
# Convention : Reuss Voigt Hill
#
# Bulk Modulus (GPa) = 10.42609 51.61288 31.01949
# Shear Modulus (GPa) = 15.44982 30.37087 22.91034
#
# Velocity S-wave (km/s) = 2.78533 3.90520 3.39180
# Velocity P-wave (km/s) = 3.94709 6.80083 5.56016
#
# Compressibility (1/GPa) = 0.09591321
#
# Stress axis : x y z
#
# Youngs Moduli (GPa) = 114.50800 53.37757 9.32164
#
# Poissons Ratio (x) = 0.26191 0.08899
# Poissons Ratio (y) = 0.56186 0.04626
# Poissons Ratio (z) = 1.09317 0.26488
#
# Static dielectric constant tensor:
#      x y z
#    x 1.749020 0.000000 -0.052180 
#    y 0.000000 1.706750 0.000000 
#    z -0.052180 0.000000 1.692960 
# 
# From -- ./inp_files/187738.got.cif
#   From: 2010.05.17/outbox.ucp.g08.bks.cvg/sg12_94_cif.got.tgz:187738.got - 2010.06.11 11:47:21.
