data_PCOD9224763
_publ_section_title
;
Structure prediction by ZEFSAII (Michael W. Deem and Ramdas Pophale) SiO2 
 PCOD9224763
Probable space group: C 2/M
;
_chemical_formula_sum "Si O2"
_cell_formula_units_Z 32
_cell_length_a 24.000000
_cell_length_b 9.000000
_cell_length_c 15.000000
_cell_angle_alpha 90.000000
_cell_angle_beta 90.000000
_cell_angle_gamma 90.000000
_cell_volume 3240.000000
_symmetry_space_group_name_H-M "C 2/M"
_symmetry_group_IT_number 12
_symmetry_cell_setting 'monoclinic'
loop_
_space_group_symop_operation_xyz
x,y,z
-x,y,-z
-x,-y,-z
x,-y,z
1/2+x,1/2+y,z
1/2-x,1/2+y,-z
1/2-x,1/2-y,-z
1/2+x,1/2-y,z
loop_
_atom_site_type_symbol
_atom_site_label
_atom_site_fract_x
_atom_site_fract_y
_atom_site_fract_z
Si Si1 0.521926 0.332016 0.899072
Si Si2 0.328721 0.828993 0.518334
Si Si3 0.767289 0.176098 0.163706
Si Si4 0.453524 0.825874 0.564955
Si Si5 0.842431 0.821287 0.893051
Si Si6 0.628299 0.825961 0.925171
Si Si7 0.250802 0.826319 0.351316
Si Si8 0.427081 0.327884 0.749467
O O1 0.545752 0.500000 0.891507
O O2 0.568499 0.209471 0.883689
O O3 0.473042 0.319452 0.827473
O O4 0.500000 0.317961 0.000000
O O5 0.394427 0.813469 0.515978
O O6 0.300169 0.803528 0.423148
O O7 0.303277 0.720908 0.592395
O O8 0.315072 0.000000 0.543986
O O9 0.720272 0.264078 0.108833
O O10 0.825927 0.234635 0.128742
O O11 0.759535 0.225189 0.265799
O O12 0.761481 0.000000 0.152221
O O13 0.500000 0.759335 0.500000
O O14 0.446003 0.756574 0.662033
O O15 0.466303 0.000000 0.578067
O O16 0.870924 0.776522 0.799306
O O17 0.846503 0.000000 0.901843
O O18 0.872078 0.741368 0.975265
O O19 0.640939 0.000000 0.926304
O O20 0.248388 0.000000 0.325311
O O21 0.419275 0.500000 0.725368
#
# Coordination Sequence:
#
# PCOD9224763 Si02
#       8
#     8   8   8   8   8   8   8   8
#     4  10  20  41  65  87 120 160 199 248 303 357
#     4   9  19  37  60  84 115 154 197 244 301 362
#     4  12  25  40  58  86 123 161 200 246 304 363
#     4  10  22  39  58  84 120 158 195 244 302 354
#     4  11  22  41  64  88 120 158 199 247 303 361
#     4  12  25  40  60  89 121 158 202 249 300 357
#     4  10  20  36  59  87 116 151 198 248 298 358
#     4  10  22  39  64  92 118 156 202 247 301 358
#
# _framework density 9.8765429999999999
#
# number of rings (size 3 to 8) (size 9 to 14) (size 15 to 20)
#    0.000    1.500    1.250    4.125    0.000    6.000 
#    0.000    1.250    0.000    0.000    0.000    0.000 
#    0.000    0.000    0.000    0.000    0.000    0.000 
#
# Total GULP energy -178774.293065 kJ/mol
# GULP energy per Si atom -5586.696658 kJ/mol
# Density = 0.985406 g / cm^3
# Si number density = 9.876543 Si / 1000 Ang^3
#
#
#
# Elastic Constant Matrix: (Units=GPa)
#
#
# Indices 1 2 3 4 5 6 
#
# 1 44.3351 15.9404 17.8363 0.0000 -8.5894 0.0000
# 2 15.9404 45.1752 10.9656 0.0000 -3.6761 0.0000
# 3 17.8363 10.9656 27.5258 0.0000 -8.9150 0.0000
# 4 0.0000 0.0000 0.0000 30.1505 0.0000 -1.7148
# 5 -8.5894 -3.6761 -8.9150 0.0000 17.7115 0.0000
# 6 0.0000 0.0000 0.0000 -1.7148 0.0000 25.4289
#
#
#
# Elastic Compliance Matrix: (Units=1/GPa)
#
#
# Indices 1 2 3 4 5 6 
#
# 1 0.032958 -0.007117 -0.016516 0.000000 0.006193 0.000000
# 2 -0.007117 0.026043 -0.006130 0.000000 -0.001131 0.000000
# 3 -0.016516 -0.006130 0.055518 0.000000 0.018663 0.000000
# 4 0.000000 0.000000 0.000000 0.033295 0.000000 0.002245
# 5 0.006193 -0.001131 0.018663 0.000000 0.068623 0.000000
# 6 0.000000 0.000000 0.000000 0.002245 0.000000 0.039477
#
#
# Mechanical properties :
#
#
# Convention : Reuss Voigt Hill
#
# Bulk Modulus (GPa) = 18.18336 22.94673 20.56504
# Shear Modulus (GPa) = 14.98035 19.47776 17.22906
#
# Velocity S-wave (km/s) = 2.75686 3.14357 2.95654
# Velocity P-wave (km/s) = 4.39989 4.98177 4.69984
#
# Compressibility (1/GPa) = 0.05499534
#
# Stress axis : x y z
#
# Youngs Moduli (GPa) = 30.34121 38.39790 18.01216
#
# Poissons Ratio (x) = 0.27327 0.29748
# Poissons Ratio (y) = 0.21593 0.11041
# Poissons Ratio (z) = 0.50110 0.23537
#
# Static dielectric constant tensor:
#      x y z
#    x 1.717130 0.000000 0.014350 
#    y 0.000000 1.674390 0.000000 
#    z 0.014350 0.000000 1.678850 
# 
# From -- ./inp_files/238574.got.cif
#   From: 2010.05.17/outbox.ucp.g08.bks.cvg/sg12_120_cif.got.tgz:238574.got - 2010.06.11 11:47:21.
