data_PCOD9224384
_publ_section_title
;
Structure prediction by ZEFSAII (Michael W. Deem and Ramdas Pophale) SiO2 
 PCOD9224384
Probable space group: C 2/M
;
_chemical_formula_sum "Si O2"
_cell_formula_units_Z 32
_cell_length_a 21.000000
_cell_length_b 9.000000
_cell_length_c 21.000000
_cell_angle_alpha 90.000000
_cell_angle_beta 120.000000
_cell_angle_gamma 90.000000
_cell_volume 3437.254828
_symmetry_space_group_name_H-M "C 2/M"
_symmetry_group_IT_number 12
_symmetry_cell_setting 'monoclinic'
loop_
_space_group_symop_operation_xyz
x,y,z
-x,y,-z
-x,-y,-z
x,-y,z
1/2+x,1/2+y,z
1/2-x,1/2+y,-z
1/2-x,1/2-y,-z
1/2+x,1/2-y,z
loop_
_atom_site_type_symbol
_atom_site_label
_atom_site_fract_x
_atom_site_fract_y
_atom_site_fract_z
Si Si1 0.524711 0.820835 0.266768
Si Si2 0.701506 0.177034 0.691765
Si Si3 0.726592 0.678129 0.053575
Si Si4 0.138530 0.323370 0.212637
Si Si5 0.638394 0.819759 0.791535
Si Si6 0.710216 0.671266 0.573377
Si Si7 0.915086 0.176256 0.941254
Si Si8 0.356858 0.327838 0.598390
O O1 0.577275 0.779315 0.234148
O O2 0.440040 0.770842 0.219929
O O3 0.566340 0.748098 0.346997
O O4 0.525447 0.000000 0.272476
O O5 0.783108 0.244265 0.740277
O O6 0.650099 0.224083 0.724362
O O7 0.673470 0.236555 0.610843
O O8 0.707458 0.000000 0.695152
O O9 0.730673 0.500000 0.050978
O O10 0.788043 0.728207 0.135178
O O11 0.643827 0.714873 0.033508
O O12 0.750000 0.750000 0.000000
O O13 0.148637 0.500000 0.221559
O O14 0.106806 0.273665 0.129545
O O15 0.637998 0.000000 0.793975
O O16 0.719595 0.500000 0.596559
O O17 0.663742 0.678573 0.485859
O O18 0.790445 0.740191 0.599334
O O19 0.904637 0.000000 0.921619
O O20 0.000000 0.198941 0.000000
O O21 0.356209 0.500000 0.618509
#
# Coordination Sequence:
#
# PCOD9224384 Si02
#       8
#     8   8   8   8   8   8   8   8
#     4  10  21  37  57  82 114 149 187 235 282 331
#     4  11  20  36  61  84 110 149 193 233 279 335
#     4  10  21  39  59  81 111 147 185 226 276 332
#     4  11  22  35  57  86 114 145 187 237 285 329
#     4   9  20  39  59  79 111 152 188 226 278 338
#     4  10  20  34  54  83 116 147 186 234 283 335
#     4  10  22  40  60  83 114 149 186 233 283 333
#     4  10  20  34  54  82 115 150 186 230 284 337
#
# _framework density 9.3097549999999991
#
# number of rings (size 3 to 8) (size 9 to 14) (size 15 to 20)
#    0.000    1.875    2.500    1.500    1.750    2.750 
#    0.000    2.500    0.000    3.750    0.000    0.000 
#    0.000    0.000    0.000    0.000    0.000    0.000 
#
# Total GULP energy -178501.676686 kJ/mol
# GULP energy per Si atom -5578.177396 kJ/mol
# Density = 0.928857 g / cm^3
# Si number density = 9.309755 Si / 1000 Ang^3
#
#
#
# Elastic Constant Matrix: (Units=GPa)
#
#
# Indices 1 2 3 4 5 6 
#
# 1 117.2701 28.9812 32.8955 0.0000 0.1471 0.0000
# 2 28.9812 27.3475 16.9287 0.0000 -6.1999 0.0000
# 3 32.8955 16.9287 47.1708 0.0000 -8.8607 0.0000
# 4 0.0000 0.0000 0.0000 29.8895 0.0000 -2.5025
# 5 0.1471 -6.1999 -8.8607 0.0000 22.3037 0.0000
# 6 0.0000 0.0000 0.0000 -2.5025 0.0000 22.3652
#
#
#
# Elastic Compliance Matrix: (Units=1/GPa)
#
#
# Indices 1 2 3 4 5 6 
#
# 1 0.013044 -0.011336 -0.006091 0.000000 -0.005657 0.000000
# 2 -0.011336 0.057858 -0.010616 0.000000 0.011940 0.000000
# 3 -0.006091 -0.010616 0.031026 0.000000 0.009415 0.000000
# 4 0.000000 0.000000 0.000000 0.033773 0.000000 0.003779
# 5 -0.005657 0.011940 0.009415 0.000000 0.051932 0.000000
# 6 0.000000 0.000000 0.000000 0.003779 0.000000 0.045135
#
#
# Mechanical properties :
#
#
# Convention : Reuss Voigt Hill
#
# Bulk Modulus (GPa) = 21.81396 38.82213 30.31805
# Shear Modulus (GPa) = 16.44006 22.44390 19.44198
#
# Velocity S-wave (km/s) = 2.97467 3.47565 3.23487
# Velocity P-wave (km/s) = 4.85173 6.08296 5.50189
#
# Compressibility (1/GPa) = 0.04584219
#
# Stress axis : x y z
#
# Youngs Moduli (GPa) = 76.66092 17.28378 32.23112
#
# Poissons Ratio (x) = 0.19592 0.19633
# Poissons Ratio (y) = 0.86899 0.34217
# Poissons Ratio (z) = 0.46697 0.18349
#
# Static dielectric constant tensor:
#      x y z
#    x 1.630190 0.000000 -0.020470 
#    y 0.000000 1.622210 0.000000 
#    z -0.020470 0.000000 1.684900 
# 
# From -- ./inp_files/320048.got.cif
#   From: 2010.05.17/outbox.ucp.g08.bks.cvg/sg12_161_cif.got.tgz:320048.got - 2010.06.11 11:47:21.
