data_PCOD9224213
_publ_section_title
;
Structure prediction by ZEFSAII (Michael W. Deem and Ramdas Pophale) SiO2 
 PCOD9224213
Probable space group: C 2/M
;
_chemical_formula_sum "Si O2"
_cell_formula_units_Z 24
_cell_length_a 24.000000
_cell_length_b 9.000000
_cell_length_c 12.000000
_cell_angle_alpha 90.000000
_cell_angle_beta 70.000000
_cell_angle_gamma 90.000000
_cell_volume 2435.683273
_symmetry_space_group_name_H-M "C 2/M"
_symmetry_group_IT_number 12
_symmetry_cell_setting 'monoclinic'
loop_
_space_group_symop_operation_xyz
x,y,z
-x,y,-z
-x,-y,-z
x,-y,z
1/2+x,1/2+y,z
1/2-x,1/2+y,-z
1/2-x,1/2-y,-z
1/2+x,1/2-y,z
loop_
_atom_site_type_symbol
_atom_site_label
_atom_site_fract_x
_atom_site_fract_y
_atom_site_fract_z
Si Si1 0.637524 0.679849 0.369510
Si Si2 0.067374 0.179719 0.212895
Si Si3 0.622242 0.177765 0.970165
Si Si4 0.768059 0.677465 0.255463
Si Si5 0.666739 0.671746 0.594831
Si Si6 0.948615 0.171954 0.170208
O O1 0.631569 0.500000 0.382115
O O2 0.584711 0.730483 0.325355
O O3 0.700904 0.714528 0.270166
O O4 0.645897 0.734081 0.489958
O O5 0.004026 0.224860 0.205713
O O6 0.068945 0.000000 0.211074
O O7 0.114233 0.243969 0.093410
O O8 0.682983 0.225318 0.867449
O O9 0.569447 0.232938 0.924736
O O10 0.620864 0.000000 0.981306
O O11 0.772304 0.500000 0.261202
O O12 0.784993 0.742852 0.364554
O O13 0.685949 0.500000 0.566626
O O14 0.608349 0.672988 0.711186
O O15 0.958801 0.000000 0.129795
#
# Coordination Sequence:
#
# PCOD9224213 Si02
#       6
#     8   8   8   8   8   8
#     4   9  18  32  50  72  98 127 156 191 237 284
#     4  10  20  33  49  70  98 129 158 192 236 282
#     4  10  20  33  50  71  95 125 161 199 236 276
#     4   9  18  33  51  71  96 125 158 196 237 278
#     4   9  17  31  52  75  96 121 157 196 234 280
#     4   9  18  32  51  74  96 121 157 198 236 278
#
# _framework density 9.8534980000000001
#
# number of rings (size 3 to 8) (size 9 to 14) (size 15 to 20)
#    0.000    2.667    0.000    1.500    0.000    4.667 
#    0.000    5.000    0.000    0.000    0.000    5.833 
#    0.000    0.000    0.000    0.000    0.000    0.000 
#
# Total GULP energy -133767.236884 kJ/mol
# GULP energy per Si atom -5573.634870 kJ/mol
# Density = 0.983107 g / cm^3
# Si number density = 9.853498 Si / 1000 Ang^3
#
#
#
# Elastic Constant Matrix: (Units=GPa)
#
#
# Indices 1 2 3 4 5 6 
#
# 1 50.5555 5.4449 8.7487 0.0000 16.7078 0.0000
# 2 5.4449 -3.0460 -4.1966 0.0000 1.9839 0.0000
# 3 8.7487 -4.1966 35.2539 0.0000 10.3918 0.0000
# 4 0.0000 0.0000 0.0000 17.9587 0.0000 -0.4262
# 5 16.7078 1.9839 10.3918 0.0000 27.5978 0.0000
# 6 0.0000 0.0000 0.0000 -0.4262 0.0000 15.0235
#
#
#
# Elastic Compliance Matrix: (Units=1/GPa)
#
#
# Indices 1 2 3 4 5 6 
#
# 1 0.021904 0.025564 0.002315 0.000000 -0.015970 0.000000
# 2 0.025564 -0.222155 -0.037047 0.000000 0.014443 0.000000
# 3 0.002315 -0.037047 0.025882 0.000000 -0.008484 0.000000
# 4 0.000000 0.000000 0.000000 0.055721 0.000000 0.001581
# 5 -0.015970 0.014443 -0.008484 0.000000 0.048059 0.000000
# 6 0.000000 0.000000 0.000000 0.001581 0.000000 0.066607
#
#
# Mechanical properties :
#
#
# Convention : Reuss Voigt Hill
#
# Bulk Modulus (GPa) = -5.18930 11.41748 3.11409
# Shear Modulus (GPa) = -100.23935 16.96710 -41.63612
#
# Velocity S-wave (km/s) = -7.13970 2.93741 -4.60146
# Velocity P-wave (km/s) = 8.40274 4.16061 5.16214
#
# Compressibility (1/GPa) = -0.19270420
#
# Stress axis : x y z
#
# Youngs Moduli (GPa) = 45.65327 -4.50136 38.63682
#
# Poissons Ratio (x) = 0.11507 -0.08944
# Poissons Ratio (y) = -1.16708 1.43137
# Poissons Ratio (z) = -0.10568 -0.16676
#
# Static dielectric constant tensor:
#      x y z
#    x 1.706960 0.000000 -0.030400 
#    y 0.000000 1.671750 0.000000 
#    z -0.030400 0.000000 1.730210 
# 
# From -- ./inp_files/172036.got.cif
#   From: 2010.05.17/outbox.ucp.g08.bks.cvg/sg12_87_cif.got.tgz:172036.got - 2010.06.11 11:47:21.
