data_PCOD9224705
_publ_section_title
;
Structure prediction by ZEFSAII (Michael W. Deem and Ramdas Pophale) SiO2 
 PCOD9224705
Probable space group: C 2/M
;
_chemical_formula_sum "Si O2"
_cell_formula_units_Z 28
_cell_length_a 30.000000
_cell_length_b 9.000000
_cell_length_c 21.000000
_cell_angle_alpha 90.000000
_cell_angle_beta 30.000000
_cell_angle_gamma 90.000000
_cell_volume 2835.000000
_symmetry_space_group_name_H-M "C 2/M"
_symmetry_group_IT_number 12
_symmetry_cell_setting 'monoclinic'
loop_
_space_group_symop_operation_xyz
x,y,z
-x,y,-z
-x,-y,-z
x,-y,z
1/2+x,1/2+y,z
1/2-x,1/2+y,-z
1/2-x,1/2-y,-z
1/2+x,1/2-y,z
loop_
_atom_site_type_symbol
_atom_site_label
_atom_site_fract_x
_atom_site_fract_y
_atom_site_fract_z
Si Si1 0.959766 0.329682 0.331000
Si Si2 0.966165 0.824633 0.111945
Si Si3 0.105466 0.677163 0.336156
Si Si4 0.756556 0.175124 0.923159
Si Si5 0.076059 0.820537 0.495454
Si Si6 0.908296 0.827165 0.919451
Si Si7 0.331528 0.165581 0.367534
O O1 0.990815 0.500000 0.307887
O O2 0.911609 0.257708 0.451630
O O3 0.899854 0.342592 0.342164
O O4 0.032750 0.211902 0.216027
O O5 0.879964 0.743348 0.248088
O O6 0.038972 0.809989 0.078974
O O7 0.946142 0.000000 0.130831
O O8 0.000000 0.773843 0.000000
O O9 0.094165 0.500000 0.357960
O O10 0.175321 0.719890 0.197149
O O11 0.136400 0.754840 0.363931
O O12 0.017687 0.756304 0.415477
O O13 0.779155 0.000000 0.898001
O O14 0.750000 0.250000 0.000000
O O15 0.666882 0.203315 0.994261
O O16 0.077390 0.000000 0.496810
O O17 0.878698 0.000000 0.952473
O O18 0.250000 0.250000 0.500000
O O19 0.304310 0.000000 0.382464
#
# Coordination Sequence:
#
# PCOD9224705 Si02
#       7
#     8   8   8   8   8   8   8
#     4  10  20  36  57  82 110 147 188 229 279 336
#     4   9  19  38  63  88 117 156 195 238 294 355
#     4  11  22  38  57  79 110 147 186 229 276 330
#     4  12  24  39  57  81 113 149 190 235 284 333
#     4  11  21  36  57  82 110 144 184 228 279 333
#     4  10  20  36  58  85 114 148 190 235 282 339
#     4  10  21  37  59  86 117 151 192 243 291 345
#
# _framework density 9.8765429999999999
#
# number of rings (size 3 to 8) (size 9 to 14) (size 15 to 20)
#    0.000    1.571    0.000    6.857    0.000    2.571 
#    2.571    0.000    0.000    0.000    0.000    0.000 
#    0.000    0.000    0.000    0.000    0.000    0.000 
#
# Total GULP energy -155997.377458 kJ/mol
# GULP energy per Si atom -5571.334909 kJ/mol
# Density = 0.985406 g / cm^3
# Si number density = 9.876543 Si / 1000 Ang^3
#
#
#
# Elastic Constant Matrix: (Units=GPa)
#
#
# Indices 1 2 3 4 5 6 
#
# 1 46.1043 33.2870 32.1448 0.0001 38.6754 0.0003
# 2 33.2870 150.3256 38.4883 0.0077 21.9620 -0.0005
# 3 32.1448 38.4883 103.2506 0.0059 41.9233 0.0001
# 4 0.0001 0.0077 0.0059 31.2130 -0.0012 4.3724
# 5 38.6754 21.9620 41.9233 -0.0012 42.1263 -0.0002
# 6 0.0003 -0.0005 0.0001 4.3724 -0.0002 32.2547
#
#
#
# Elastic Compliance Matrix: (Units=1/GPa)
#
#
# Indices 1 2 3 4 5 6 
#
# 1 0.120420 -0.013297 0.016011 -0.000004 -0.119557 -0.000001
# 2 -0.013297 0.008910 -0.003780 -0.000001 0.011324 0.000000
# 3 0.016011 -0.003780 0.018925 -0.000004 -0.031563 0.000000
# 4 -0.000004 -0.000001 -0.000004 0.032658 0.000009 -0.004427
# 5 -0.119557 0.011324 -0.031563 0.000009 0.159008 0.000001
# 6 -0.000001 0.000000 0.000000 -0.004427 0.000001 0.031603
#
#
# Mechanical properties :
#
#
# Convention : Reuss Voigt Hill
#
# Bulk Modulus (GPa) = 6.84357 56.39119 31.61738
# Shear Modulus (GPa) = 11.83813 34.16950 23.00382
#
# Velocity S-wave (km/s) = 2.45073 4.16364 3.41628
# Velocity P-wave (km/s) = 3.38824 7.19197 5.62160
#
# Compressibility (1/GPa) = 0.14612259
#
# Stress axis : x y z
#
# Youngs Moduli (GPa) = 8.30427 112.23394 52.84036
#
# Poissons Ratio (x) = 1.49243 -0.84602
# Poissons Ratio (y) = 0.11043 0.19971
# Poissons Ratio (z) = -0.13296 0.42419
#
# Static dielectric constant tensor:
#      x y z
#    x 1.592790 0.000000 -0.158730 
#    y 0.000000 1.664290 0.000000 
#    z -0.158730 0.000000 1.445070 
# 
# From -- ./inp_files/295150.got.cif
#   From: 2010.05.17/outbox.ucp.g08.bks.cvg/sg12_148_cif.got.tgz:295150.got - 2010.06.11 11:47:21.
