data_PCOD9224699
_publ_section_title
;
Structure prediction by ZEFSAII (Michael W. Deem and Ramdas Pophale) SiO2 
 PCOD9224699
Probable space group: C 2/M
;
_chemical_formula_sum "Si O2"
_cell_formula_units_Z 32
_cell_length_a 24.000000
_cell_length_b 9.000000
_cell_length_c 30.000000
_cell_angle_alpha 90.000000
_cell_angle_beta 30.000000
_cell_angle_gamma 90.000000
_cell_volume 3240.000000
_symmetry_space_group_name_H-M "C 2/M"
_symmetry_group_IT_number 12
_symmetry_cell_setting 'monoclinic'
loop_
_space_group_symop_operation_xyz
x,y,z
-x,y,-z
-x,-y,-z
x,-y,z
1/2+x,1/2+y,z
1/2-x,1/2+y,-z
1/2-x,1/2-y,-z
1/2+x,1/2-y,z
loop_
_atom_site_type_symbol
_atom_site_label
_atom_site_fract_x
_atom_site_fract_y
_atom_site_fract_z
Si Si1 0.834012 0.322747 0.832352
Si Si2 0.312465 0.323408 0.498203
Si Si3 0.626717 0.176968 0.023072
Si Si4 0.050864 0.178231 0.915938
Si Si5 0.720301 0.820675 0.658604
Si Si6 0.279125 0.175527 0.709466
Si Si7 0.453135 0.823397 0.660740
Si Si8 0.969835 0.319932 0.820661
O O1 0.816949 0.500000 0.847190
O O2 0.865497 0.288374 0.760420
O O3 0.933996 0.278750 0.796075
O O4 0.727164 0.245174 0.926190
O O5 0.297092 0.500000 0.506415
O O6 0.250000 0.250000 0.500000
O O7 0.271005 0.273674 0.576010
O O8 0.439730 0.275204 0.406880
O O9 0.517502 0.232050 0.073352
O O10 0.615711 0.229401 0.081878
O O11 0.634126 0.000000 0.017640
O O12 0.179178 0.209533 0.813990
O O13 0.034027 0.000000 0.922941
O O14 0.000000 0.216796 0.000000
O O15 0.772725 0.760365 0.667499
O O16 0.592416 0.768104 0.747375
O O17 0.723006 0.000000 0.657890
O O18 0.394473 0.203394 0.654544
O O19 0.269462 0.000000 0.707071
O O20 0.480016 0.000000 0.646207
O O21 0.971677 0.500000 0.820629
#
# Coordination Sequence:
#
# PCOD9224699 Si02
#       8
#     8   8   8   8   8   8   8   8
#     4  10  20  37  59  80 112 160 201 240 294 356
#     4  11  24  42  67  95 122 155 196 243 299 360
#     4  11  21  33  52  83 118 150 192 247 300 348
#     4  10  20  36  57  80 112 157 206 246 287 349
#     4  10  21  40  63  86 118 159 197 241 302 364
#     4  10  21  37  59  88 118 155 203 251 296 346
#     4  10  22  41  63  87 120 158 198 245 298 353
#     4   9  18  34  56  81 112 151 195 238 289 351
#
# _framework density 9.8765429999999999
#
# number of rings (size 3 to 8) (size 9 to 14) (size 15 to 20)
#    0.000    1.875    1.250    2.625    0.000    6.750 
#    0.000    5.000    0.000    0.000    0.000    0.000 
#    0.000    0.000    0.000    0.000    0.000    0.000 
#
# Total GULP energy -178528.802419 kJ/mol
# GULP energy per Si atom -5579.025076 kJ/mol
# Density = 0.985406 g / cm^3
# Si number density = 9.876543 Si / 1000 Ang^3
#
#
#
# Elastic Constant Matrix: (Units=GPa)
#
#
# Indices 1 2 3 4 5 6 
#
# 1 103.4470 42.7715 36.6594 -0.0020 22.5147 0.0031
# 2 42.7715 18.2833 46.1977 -0.0059 2.1710 -0.0032
# 3 36.6594 46.1977 134.2873 -0.0034 -0.0364 0.0097
# 4 -0.0020 -0.0059 -0.0034 25.5284 -0.0001 -0.8159
# 5 22.5147 2.1710 -0.0364 -0.0001 25.3898 -0.0029
# 6 0.0031 -0.0032 0.0097 -0.8159 -0.0029 29.9707
#
#
#
# Elastic Compliance Matrix: (Units=1/GPa)
#
#
# Indices 1 2 3 4 5 6 
#
# 1 -0.003470 0.044464 -0.014349 0.000008 -0.000746 0.000010
# 2 0.044464 -0.115727 0.027666 -0.000021 -0.029493 -0.000029
# 3 -0.014349 0.027666 0.001849 0.000006 0.010361 0.000005
# 4 0.000008 -0.000021 0.000006 0.039206 -0.000005 0.001067
# 5 -0.000746 -0.029493 0.010361 -0.000005 0.042584 -0.000002
# 6 0.000010 -0.000029 0.000005 0.001067 -0.000002 0.033395
#
#
# Mechanical properties :
#
#
# Convention : Reuss Voigt Hill
#
# Bulk Modulus (GPa) = -559.65923 56.36388 -251.64768
# Shear Modulus (GPa) = -42.25845 24.87036 -8.69404
#
# Velocity S-wave (km/s) = -4.63031 3.55218 -2.10022
# Velocity P-wave (km/s) = 17.67849 6.73944 11.55657
#
# Compressibility (1/GPa) = -0.00178680
#
# Stress axis : x y z
#
# Youngs Moduli (GPa) = -288.19661 -8.64103 540.84381
#
# Poissons Ratio (x) = 0.38421 7.76077
# Poissons Ratio (y) = 12.81424 -14.96319
# Poissons Ratio (z) = -4.13544 0.23907
#
# Static dielectric constant tensor:
#      x y z
#    x 1.778940 0.000040 -0.018020 
#    y 0.000040 1.655010 0.000010 
#    z -0.018020 0.000010 1.735570 
# 
# From -- ./inp_files/238731.got.cif
#   From: 2010.05.17/outbox.ucp.g08.bks.cvg/sg12_120_cif.got.tgz:238731.got - 2010.06.11 11:47:21.
