data_PCOD9224059
_publ_section_title
;
Structure prediction by ZEFSAII (Michael W. Deem and Ramdas Pophale) SiO2 
 PCOD9224059
Probable space group: C 2/M
;
_chemical_formula_sum "Si O2"
_cell_formula_units_Z 32
_cell_length_a 30.000000
_cell_length_b 9.000000
_cell_length_c 24.000000
_cell_angle_alpha 90.000000
_cell_angle_beta 30.000000
_cell_angle_gamma 90.000000
_cell_volume 3240.000000
_symmetry_space_group_name_H-M "C 2/M"
_symmetry_group_IT_number 12
_symmetry_cell_setting 'monoclinic'
loop_
_space_group_symop_operation_xyz
x,y,z
-x,y,-z
-x,-y,-z
x,-y,z
1/2+x,1/2+y,z
1/2-x,1/2+y,-z
1/2-x,1/2-y,-z
1/2+x,1/2-y,z
loop_
_atom_site_type_symbol
_atom_site_label
_atom_site_fract_x
_atom_site_fract_y
_atom_site_fract_z
Si Si1 0.794953 0.322095 0.897713
Si Si2 0.244636 0.821042 0.328194
Si Si3 0.463815 0.678438 0.244749
Si Si4 0.897708 0.823035 0.095971
Si Si5 0.936404 0.179739 0.519442
Si Si6 0.287395 0.177635 0.403624
Si Si7 0.513568 0.677768 0.313922
Si Si8 0.140648 0.820214 0.987031
O O1 0.792153 0.500000 0.904909
O O2 0.894198 0.263838 0.787007
O O3 0.735114 0.274116 0.909808
O O4 0.750000 0.250000 0.000000
O O5 0.336043 0.759553 0.206200
O O6 0.165490 0.767143 0.373298
O O7 0.236794 0.777835 0.401659
O O8 0.243874 0.000000 0.328224
O O9 0.451105 0.500000 0.252039
O O10 0.388834 0.765209 0.292113
O O11 0.460738 0.712976 0.314133
O O12 0.560781 0.719070 0.115641
O O13 0.877750 0.767554 0.055209
O O14 0.879737 0.000000 0.117897
O O15 0.000000 0.800608 0.000000
O O16 0.000000 0.237185 0.500000
O O17 0.970214 0.210551 0.420366
O O18 0.934820 0.000000 0.527023
O O19 0.250000 0.250000 0.500000
O O20 0.282971 0.000000 0.412933
O O21 0.529515 0.500000 0.294205
O O22 0.139963 0.000000 0.985830
#
# Coordination Sequence:
#
# PCOD9224059 Si02
#       8
#     8   8   8   8   8   8   8   8
#     4  11  21  36  56  83 119 155 192 238 290 344
#     4  10  22  40  60  86 118 150 190 246 292 332
#     4  10  19  36  59  82 112 150 188 234 289 346
#     4  10  21  38  61  86 115 155 197 234 284 352
#     4   9  19  36  58  83 113 151 195 236 285 347
#     4  11  23  38  58  85 115 147 188 235 288 343
#     4  10  20  36  59  84 113 152 195 240 293 343
#     4   9  19  35  55  81 114 150 188 232 287 342
#
# _framework density 9.8765429999999999
#
# number of rings (size 3 to 8) (size 9 to 14) (size 15 to 20)
#    0.000    2.000    1.250    2.250    1.750    4.750 
#    0.000    1.875    0.000    0.750    0.000    0.000 
#    0.000    0.000    0.000    0.000    0.000    0.000 
#
# Total GULP energy -178561.736517 kJ/mol
# GULP energy per Si atom -5580.054266 kJ/mol
# Density = 0.985406 g / cm^3
# Si number density = 9.876543 Si / 1000 Ang^3
#
#
#
# Elastic Constant Matrix: (Units=GPa)
#
#
# Indices 1 2 3 4 5 6 
#
# 1 142.5007 27.1154 21.2112 0.0035 4.9729 -0.0023
# 2 27.1154 1.1578 26.9403 0.0115 0.0557 -0.0052
# 3 21.2112 26.9403 24.4066 -0.0019 -0.2553 0.0022
# 4 0.0035 0.0115 -0.0019 21.6819 -0.0055 -1.6569
# 5 4.9729 0.0557 -0.2553 -0.0055 28.3783 0.0019
# 6 -0.0023 -0.0052 0.0022 -1.6569 0.0019 23.0688
#
#
#
# Elastic Compliance Matrix: (Units=1/GPa)
#
#
# Indices 1 2 3 4 5 6 
#
# 1 0.008092 0.001031 -0.008186 -0.000003 -0.001494 0.000002
# 2 0.001031 -0.034854 0.037579 0.000021 0.000226 -0.000010
# 3 -0.008186 0.037579 0.006621 -0.000017 0.001420 0.000006
# 4 -0.000003 0.000021 -0.000017 0.046376 0.000009 0.003331
# 5 -0.001494 0.000226 0.001420 0.000009 0.035512 -0.000002
# 6 0.000002 -0.000010 0.000006 0.003331 -0.000002 0.043588
#
#
# Mechanical properties :
#
#
# Convention : Reuss Voigt Hill
#
# Bulk Modulus (GPa) = 24.56589 35.39990 29.98289
# Shear Modulus (GPa) = 86.12381 20.81234 53.46807
#
# Velocity S-wave (km/s) = 6.61021 3.24948 5.20836
# Velocity P-wave (km/s) = 8.40971 5.66029 7.16806
#
# Compressibility (1/GPa) = 0.04070685
#
# Stress axis : x y z
#
# Youngs Moduli (GPa) = 123.57922 -28.69098 151.03362
#
# Poissons Ratio (x) = 0.02957 1.23633
# Poissons Ratio (y) = -0.12736 -5.67572
# Poissons Ratio (z) = 1.01159 1.07818
#
# Static dielectric constant tensor:
#      x y z
#    x 1.708290 0.000000 -0.011990 
#    y 0.000000 1.648060 0.000010 
#    z -0.011990 0.000010 1.715010 
# 
# From -- ./inp_files/353333.got.cif
#   From: 2010.05.17/outbox.ucp.g08.bks.cvg/sg12_177_cif.got.tgz:353333.got - 2010.06.11 11:47:21.
