data_PCOD9224811
_publ_section_title
;
Structure prediction by ZEFSAII (Michael W. Deem and Ramdas Pophale) SiO2 
 PCOD9224811
Probable space group: C 2/M
;
_chemical_formula_sum "Si O2"
_cell_formula_units_Z 32
_cell_length_a 18.000000
_cell_length_b 24.000000
_cell_length_c 24.000000
_cell_angle_alpha 90.000000
_cell_angle_beta 160.000000
_cell_angle_gamma 90.000000
_cell_volume 3546.064846
_symmetry_space_group_name_H-M "C 2/M"
_symmetry_group_IT_number 12
_symmetry_cell_setting 'monoclinic'
loop_
_space_group_symop_operation_xyz
x,y,z
-x,y,-z
-x,-y,-z
x,-y,z
1/2+x,1/2+y,z
1/2-x,1/2+y,-z
1/2-x,1/2-y,-z
1/2+x,1/2-y,z
loop_
_atom_site_type_symbol
_atom_site_label
_atom_site_fract_x
_atom_site_fract_y
_atom_site_fract_z
Si Si1 0.454463 0.755890 0.571753
Si Si2 0.968300 0.813586 0.694883
Si Si3 0.523247 0.436063 0.763530
Si Si4 0.759376 0.064559 0.694301
Si Si5 0.974762 0.562194 0.915581
Si Si6 0.193936 0.160911 0.669615
Si Si7 0.629854 0.668130 0.148351
Si Si8 0.604531 0.231853 0.949105
O O1 0.219975 0.785933 0.398393
O O2 0.439306 0.718699 0.616656
O O3 0.554695 0.710859 0.599890
O O4 0.637678 0.803984 0.703159
O O5 0.941234 0.880562 0.673503
O O6 0.216467 0.800714 0.887671
O O7 0.472462 0.500000 0.708046
O O8 0.408162 0.430895 0.743189
O O9 0.786990 0.431912 0.945723
O O10 0.500000 0.072551 0.500000
O O11 0.833527 0.112690 0.789201
O O12 0.783627 0.000000 0.731226
O O13 0.893320 0.500000 0.842498
O O14 0.814348 0.612987 0.789278
O O15 0.000000 0.562574 0.000000
O O16 0.400982 0.192937 0.788736
O O17 0.000000 0.131249 0.500000
O O18 0.495274 0.715254 0.088135
O O19 0.500000 0.656503 0.000000
O O20 0.750000 0.250000 0.000000
#
# Coordination Sequence:
#
# PCOD9224811 Si02
#       8
#     8   8   8   8   8   8   8   8
#     4  10  23  36  56  85 121 158 201 249 305 368
#     4  11  19  37  59  85 118 161 197 254 303 359
#     4  10  20  36  61  93 120 157 212 257 301 370
#     4  10  22  40  63  88 121 163 208 261 315 368
#     4  10  21  38  63  89 118 162 210 255 311 373
#     4  11  23  37  56  85 122 155 199 251 299 363
#     4  11  22  38  58  89 122 157 200 250 308 369
#     4  11  22  35  59  84 119 160 200 240 307 365
#
# _framework density 9.0240880000000008
#
# number of rings (size 3 to 8) (size 9 to 14) (size 15 to 20)
#    0.000    1.500    2.500    3.000    0.000    3.500 
#    0.000    0.000    0.000    0.000    0.000    0.000 
#    0.000    0.000    0.000    0.000    0.000    0.000 
#
# Total GULP energy -178273.423068 kJ/mol
# GULP energy per Si atom -5571.044471 kJ/mol
# Density = 0.900355 g / cm^3
# Si number density = 9.024088 Si / 1000 Ang^3
#
#
#
# Elastic Constant Matrix: (Units=GPa)
#
#
# Indices 1 2 3 4 5 6 
#
# 1 74.6015 38.5541 36.8789 0.0525 16.3085 0.0137
# 2 38.5541 149.2715 48.3184 0.0937 0.2310 0.0136
# 3 36.8789 48.3184 108.9041 0.3090 20.8175 0.0254
# 4 0.0525 0.0937 0.3090 23.9630 0.0284 -0.8194
# 5 16.3085 0.2310 20.8175 0.0284 27.1312 0.0079
# 6 0.0137 0.0136 0.0254 -0.8194 0.0079 29.5500
#
#
#
# Elastic Compliance Matrix: (Units=1/GPa)
#
#
# Indices 1 2 3 4 5 6 
#
# 1 0.018847 -0.003910 -0.002916 0.000022 -0.009058 -0.000001
# 2 -0.003910 0.008854 -0.003562 0.000014 0.005008 0.000000
# 3 -0.002916 -0.003562 0.013371 -0.000142 -0.008476 -0.000010
# 4 0.000022 0.000014 -0.000142 0.041772 0.000052 0.001158
# 5 -0.009058 0.005008 -0.008476 0.000052 0.048764 -0.000002
# 6 -0.000001 0.000000 -0.000010 0.001158 -0.000002 0.033873
#
#
# Mechanical properties :
#
#
# Convention : Reuss Voigt Hill
#
# Bulk Modulus (GPa) = 49.26941 64.47553 56.87247
# Shear Modulus (GPa) = 25.90386 30.06389 27.98388
#
# Velocity S-wave (km/s) = 3.79260 4.08580 3.94192
# Velocity P-wave (km/s) = 6.82176 7.61971 7.23175
#
# Compressibility (1/GPa) = 0.02029657
#
# Stress axis : x y z
#
# Youngs Moduli (GPa) = 53.05910 112.94098 74.79032
#
# Poissons Ratio (x) = 0.44159 0.21809
# Poissons Ratio (y) = 0.20745 0.26638
# Poissons Ratio (z) = 0.15472 0.40226
#
# Static dielectric constant tensor:
#      x y z
#    x 1.663820 -0.000010 -0.025480 
#    y -0.000010 1.631170 -0.000030 
#    z -0.025480 -0.000030 1.640240 
# 
# From -- ./inp_files/345036.got.cif
#   From: 2010.05.17/outbox.ucp.g08.bks.cvg/sg12_173_cif.got.tgz:345036.got - 2010.06.11 11:47:21.
