data_PCOD9224845
_publ_section_title
;
Structure prediction by ZEFSAII (Michael W. Deem and Ramdas Pophale) SiO2 
 PCOD9224845
Probable space group: C 2/M
;
_chemical_formula_sum "Si O2"
_cell_formula_units_Z 28
_cell_length_a 15.000000
_cell_length_b 9.000000
_cell_length_c 27.000000
_cell_angle_alpha 90.000000
_cell_angle_beta 60.000000
_cell_angle_gamma 90.000000
_cell_volume 3156.662597
_symmetry_space_group_name_H-M "C 2/M"
_symmetry_group_IT_number 12
_symmetry_cell_setting 'monoclinic'
loop_
_space_group_symop_operation_xyz
x,y,z
-x,y,-z
-x,-y,-z
x,-y,z
1/2+x,1/2+y,z
1/2-x,1/2+y,-z
1/2-x,1/2-y,-z
1/2+x,1/2-y,z
loop_
_atom_site_type_symbol
_atom_site_label
_atom_site_fract_x
_atom_site_fract_y
_atom_site_fract_z
Si Si1 0.273090 0.822339 0.618594
Si Si2 0.902302 0.319133 0.843363
Si Si3 0.518861 0.178454 0.376091
Si Si4 0.455937 0.680557 0.934614
Si Si5 0.894165 0.171775 0.497221
Si Si6 0.536083 0.319660 0.713812
Si Si7 0.833314 0.820897 0.066126
O O1 0.369061 0.792029 0.629527
O O2 0.307066 0.743334 0.557336
O O3 0.160275 0.783385 0.673227
O O4 0.271581 0.000000 0.610045
O O5 0.908207 0.500000 0.838594
O O6 0.942482 0.259816 0.885536
O O7 0.779010 0.275627 0.881079
O O8 0.971490 0.249989 0.778699
O O9 0.429607 0.240753 0.437868
O O10 0.510291 0.256788 0.325003
O O11 0.508119 0.000000 0.374278
O O12 0.449978 0.500000 0.930523
O O13 0.568706 0.716319 0.926281
O O14 0.369861 0.725945 0.000182
O O15 0.000000 0.172550 0.500000
O O16 0.868346 0.000000 0.492868
O O17 0.528124 0.500000 0.718679
O O18 0.829433 0.000000 0.064889
#
# Coordination Sequence:
#
# PCOD9224845 Si02
#       7
#     8   8   8   8   8   8   8
#     4   9  20  38  58  78 105 141 180 221 267 319
#     4  11  22  36  53  79 112 143 176 220 269 314
#     4  10  20  37  59  81 106 138 177 224 272 317
#     4   9  17  35  60  83 106 140 181 217 258 314
#     4   9  17  31  55  85 111 136 171 218 271 322
#     4  11  24  40  55  76 106 145 188 222 260 317
#     4   8  17  34  58  83 109 141 177 215 262 319
#
# _framework density 8.8701279999999993
#
# number of rings (size 3 to 8) (size 9 to 14) (size 15 to 20)
#    0.000    2.429    0.000    3.000    0.000    5.143 
#    0.000    9.286    0.000    0.000    0.000    0.000 
#    0.000    0.000    0.000    0.000    0.000    0.000 
#
# Total GULP energy -156081.246181 kJ/mol
# GULP energy per Si atom -5574.330221 kJ/mol
# Density = 0.884994 g / cm^3
# Si number density = 8.870128 Si / 1000 Ang^3
#
#
#
# Elastic Constant Matrix: (Units=GPa)
#
#
# Indices 1 2 3 4 5 6 
#
# 1 100.1826 37.5893 79.6744 0.0000 -11.8257 0.0000
# 2 37.5893 81.7739 64.6827 0.0000 -2.0031 0.0000
# 3 79.6744 64.6827 211.6583 0.0000 -12.5270 0.0000
# 4 0.0000 0.0000 0.0000 42.7453 0.0000 2.3276
# 5 -11.8257 -2.0031 -12.5270 0.0000 39.3094 0.0000
# 6 0.0000 0.0000 0.0000 2.3276 0.0000 26.0639
#
#
#
# Elastic Compliance Matrix: (Units=1/GPa)
#
#
# Indices 1 2 3 4 5 6 
#
# 1 0.015174 -0.003327 -0.004520 0.000000 0.002955 0.000000
# 2 -0.003327 0.016879 -0.003989 0.000000 -0.001412 0.000000
# 3 -0.004520 -0.003989 0.007698 0.000000 0.000890 0.000000
# 4 0.000000 0.000000 0.000000 0.023509 0.000000 -0.002099
# 5 0.002955 -0.001412 0.000890 0.000000 0.026540 0.000000
# 6 0.000000 0.000000 0.000000 -0.002099 0.000000 0.038555
#
#
# Mechanical properties :
#
#
# Convention : Reuss Voigt Hill
#
# Bulk Modulus (GPa) = 62.19883 84.16750 73.18317
# Shear Modulus (GPa) = 31.76879 35.73494 33.75186
#
# Velocity S-wave (km/s) = 4.23634 4.49301 4.36656
# Velocity P-wave (km/s) = 7.68543 8.62923 8.17096
#
# Compressibility (1/GPa) = 0.01607747
#
# Stress axis : x y z
#
# Youngs Moduli (GPa) = 65.90288 59.24429 129.90411
#
# Poissons Ratio (x) = 0.19711 0.58720
# Poissons Ratio (y) = 0.21927 0.51824
# Poissons Ratio (z) = 0.29790 0.23635
#
# Static dielectric constant tensor:
#      x y z
#    x 1.643560 0.000000 -0.006080 
#    y 0.000000 1.603510 0.000000 
#    z -0.006080 0.000000 1.592480 
# 
# From -- ./inp_files/359657.got.cif
#   From: 2010.05.17/outbox.ucp.g08.bks.cvg/sg12_180_cif.got.tgz:359657.got - 2010.06.11 11:47:21.
