data_PCOD9224610
_publ_section_title
;
Structure prediction by ZEFSAII (Michael W. Deem and Ramdas Pophale) SiO2 
 PCOD9224610
Probable space group: C 2/M
;
_chemical_formula_sum "Si O2"
_cell_formula_units_Z 32
_cell_length_a 21.000000
_cell_length_b 9.000000
_cell_length_c 21.000000
_cell_angle_alpha 90.000000
_cell_angle_beta 120.000000
_cell_angle_gamma 90.000000
_cell_volume 3437.254828
_symmetry_space_group_name_H-M "C 2/M"
_symmetry_group_IT_number 12
_symmetry_cell_setting 'monoclinic'
loop_
_space_group_symop_operation_xyz
x,y,z
-x,y,-z
-x,-y,-z
x,-y,z
1/2+x,1/2+y,z
1/2-x,1/2+y,-z
1/2-x,1/2-y,-z
1/2+x,1/2-y,z
loop_
_atom_site_type_symbol
_atom_site_label
_atom_site_fract_x
_atom_site_fract_y
_atom_site_fract_z
Si Si1 0.591636 0.821377 0.417095
Si Si2 0.070140 0.321013 0.264939
Si Si3 0.673158 0.821951 0.584207
Si Si4 0.456629 0.333442 0.411392
Si Si5 0.301739 0.677760 0.738473
Si Si6 0.400081 0.179219 0.162742
Si Si7 0.239974 0.820972 0.835455
Si Si8 0.818979 0.677641 0.999404
O O1 0.604219 0.777924 0.350655
O O2 0.648879 0.771503 0.500949
O O3 0.511710 0.757860 0.395098
O O4 0.588862 0.000000 0.418114
O O5 0.074788 0.500000 0.260458
O O6 0.117917 0.243997 0.234322
O O7 0.983750 0.281004 0.221397
O O8 0.616678 0.752098 0.606563
O O9 0.752767 0.785445 0.651316
O O10 0.664793 0.000000 0.581058
O O11 0.500000 0.344822 0.500000
O O12 0.442472 0.500000 0.380309
O O13 0.303828 0.500000 0.746582
O O14 0.261938 0.749633 0.779427
O O15 0.336645 0.257299 0.173506
O O16 0.385576 0.215911 0.080426
O O17 0.392038 0.000000 0.166741
O O18 0.234515 0.000000 0.827714
O O19 0.305492 0.782201 0.919011
O O20 0.812838 0.500000 0.998397
O O21 0.750000 0.750000 0.000000
#
# Coordination Sequence:
#
# PCOD9224610 Si02
#       8
#     8   8   8   8   8   8   8   8
#     4   9  18  34  54  75 102 139 180 221 267 323
#     4  10  22  38  56  79 109 143 180 224 274 325
#     4   9  19  35  53  72 100 141 184 222 267 321
#     4   9  17  29  48  77 106 130 165 218 271 315
#     4  11  24  39  54  75 108 148 187 228 274 321
#     4   9  18  35  59  86 114 143 176 217 267 326
#     4  10  20  35  58  86 112 142 180 222 268 319
#     4   8  15  30  54  83 112 140 173 214 262 318
#
# _framework density 9.3097549999999991
#
# number of rings (size 3 to 8) (size 9 to 14) (size 15 to 20)
#    0.000    2.625    0.000    1.125    1.750    4.500 
#    0.000    0.625    0.000    3.750    0.000    0.000 
#    0.000    0.000    0.000    0.000    0.000    0.000 
#
# Total GULP energy -178255.795337 kJ/mol
# GULP energy per Si atom -5570.493604 kJ/mol
# Density = 0.928857 g / cm^3
# Si number density = 9.309755 Si / 1000 Ang^3
#
#
#
# Elastic Constant Matrix: (Units=GPa)
#
#
# Indices 1 2 3 4 5 6 
#
# 1 108.6252 34.5385 59.3562 0.0000 -1.6900 0.0000
# 2 34.5385 13.1104 37.3711 0.0000 0.3082 0.0000
# 3 59.3562 37.3711 120.2270 0.0000 -2.2494 0.0000
# 4 0.0000 0.0000 0.0000 20.3373 0.0000 -1.6688
# 5 -1.6900 0.3082 -2.2494 0.0000 9.3116 0.0000
# 6 0.0000 0.0000 0.0000 -1.6688 0.0000 22.7711
#
#
#
# Elastic Compliance Matrix: (Units=1/GPa)
#
#
# Indices 1 2 3 4 5 6 
#
# 1 -0.009163 0.106895 -0.028931 0.000000 -0.012191 0.000000
# 2 0.106895 -0.524735 0.111525 0.000000 0.063713 0.000000
# 3 -0.028931 0.111525 -0.012288 0.000000 -0.011911 0.000000
# 4 0.000000 0.000000 0.000000 0.049468 0.000000 0.003625
# 5 -0.012191 0.063713 -0.011911 0.000000 0.100194 0.000000
# 6 0.000000 0.000000 0.000000 0.003625 0.000000 0.044181
#
#
# Mechanical properties :
#
#
# Convention : Reuss Voigt Hill
#
# Bulk Modulus (GPa) = -5.98058 56.05490 25.03716
# Shear Modulus (GPa) = -6.35278 17.86377 5.75549
#
# Velocity S-wave (km/s) = -1.84914 3.10080 1.76006
# Velocity P-wave (km/s) = 2.78891 6.55673 4.19599
#
# Compressibility (1/GPa) = -0.16720789
#
# Stress axis : x y z
#
# Youngs Moduli (GPa) = -109.13287 -1.90572 -81.37953
#
# Poissons Ratio (x) = 0.20371 -2.35442
# Poissons Ratio (y) = 11.66578 9.07587
# Poissons Ratio (z) = -3.15736 0.21254
#
# Static dielectric constant tensor:
#      x y z
#    x 1.599780 0.000000 0.007680 
#    y 0.000000 1.628750 0.000000 
#    z 0.007680 0.000000 1.711630 
# 
# From -- ./inp_files/320162.got.cif
#   From: 2010.05.17/outbox.ucp.g08.bks.cvg/sg12_161_cif.got.tgz:320162.got - 2010.06.11 11:47:21.
