data_PCOD9224119
_publ_section_title
;
Structure prediction by ZEFSAII (Michael W. Deem and Ramdas Pophale) SiO2 
 PCOD9224119
Probable space group: C 2/M
;
_chemical_formula_sum "Si O2"
_cell_formula_units_Z 22
_cell_length_a 15.000000
_cell_length_b 24.000000
_cell_length_c 18.000000
_cell_angle_alpha 90.000000
_cell_angle_beta 160.000000
_cell_angle_gamma 90.000000
_cell_volume 2216.290529
_symmetry_space_group_name_H-M "C 2/M"
_symmetry_group_IT_number 12
_symmetry_cell_setting 'monoclinic'
loop_
_space_group_symop_operation_xyz
x,y,z
-x,y,-z
-x,-y,-z
x,-y,z
1/2+x,1/2+y,z
1/2-x,1/2+y,-z
1/2-x,1/2-y,-z
1/2+x,1/2-y,z
loop_
_atom_site_type_symbol
_atom_site_label
_atom_site_fract_x
_atom_site_fract_y
_atom_site_fract_z
Si Si1 0.233994 0.619044 0.828374
Si Si2 0.227151 0.877012 0.616963
Si Si3 0.271804 0.314509 0.536607
Si Si4 0.282425 0.620850 0.042539
Si Si5 0.367977 0.500000 0.475657
Si Si6 0.540053 0.500000 0.764923
Si Si7 0.463747 0.000000 0.382623
O O1 0.175621 0.557500 0.749833
O O2 0.987500 0.660031 0.628498
O O3 0.500000 0.639934 0.000000
O O4 0.265451 0.615258 0.941116
O O5 0.170797 0.845375 0.496758
O O6 0.000000 0.873047 0.500000
O O7 0.275873 0.941634 0.632314
O O8 0.511094 0.858774 0.865823
O O9 0.250000 0.250000 0.500000
O O10 0.504347 0.333340 0.771218
O O11 0.351860 0.558994 0.124279
O O12 0.500000 0.500000 0.500000
O O13 0.571840 0.500000 0.701464
O O14 0.238474 0.500000 0.554220
O O15 0.500000 0.000000 0.500000
#
# Coordination Sequence:
#
# PCOD9224119 Si02
#       7
#     8   8   8   8   4   4   4
#     4  11  24  42  65 101 134 169 216 271 334 398
#     4  10  22  42  62  96 129 163 212 271 320 389
#     4  11  25  46  64  92 127 174 227 268 318 388
#     4  11  22  40  69  90 134 172 215 266 333 390
#     4  10  19  37  61  92 134 155 206 268 317 391
#     4  12  18  37  66  93 128 181 197 263 342 386
#     4  12  22  38  68 102 144 169 214 271 338 421
#
# _framework density 9.9264960000000002
#
# number of rings (size 3 to 8) (size 9 to 14) (size 15 to 20)
#    0.000    1.091    3.636    3.545    0.000    3.636 
#    6.545    1.818    0.000    0.000    0.000    0.000 
#    0.000    0.000    0.000    0.000    0.000    0.000 
#
# Total GULP energy -122724.811818 kJ/mol
# GULP energy per Si atom -5578.400537 kJ/mol
# Density = 0.990390 g / cm^3
# Si number density = 9.926496 Si / 1000 Ang^3
#
#
#
# Elastic Constant Matrix: (Units=GPa)
#
#
# Indices 1 2 3 4 5 6 
#
# 1 99.2597 35.3964 55.4926 0.0096 23.8642 -0.0143
# 2 35.3964 108.5504 44.0841 -0.0237 -5.0541 0.0095
# 3 55.4926 44.0841 116.8071 0.1372 13.0349 -0.1007
# 4 0.0096 -0.0237 0.1372 -161.4042 0.0553 91.9590
# 5 23.8642 -5.0541 13.0349 0.0553 32.0278 -0.0418
# 6 -0.0143 0.0095 -0.1007 91.9590 -0.0418 -46.3484
#
#
#
# Elastic Compliance Matrix: (Units=1/GPa)
#
#
# Indices 1 2 3 4 5 6 
#
# 1 0.017220 -0.003927 -0.005445 -0.000016 -0.011234 -0.000017
# 2 -0.003927 0.012175 -0.003426 -0.000003 0.006241 0.000000
# 3 -0.005445 -0.003426 0.012622 0.000030 -0.001620 0.000034
# 4 -0.000016 -0.000003 0.000030 0.047506 0.000041 0.094256
# 5 -0.011234 0.006241 -0.001620 0.000041 0.041238 0.000052
# 6 -0.000017 0.000000 0.000034 0.094256 0.000052 0.165436
#
#
# Mechanical properties :
#
#
# Convention : Reuss Voigt Hill
#
# Bulk Modulus (GPa) = 60.89808 66.06259 63.48033
# Shear Modulus (GPa) = 15.27809 -22.50203 -3.61197
#
# Velocity S-wave (km/s) = 2.77711 -3.37030 -1.35030
# Velocity P-wave (km/s) = 6.40501 4.26648 5.44183
#
# Compressibility (1/GPa) = 0.01642088
#
# Stress axis : x y z
#
# Youngs Moduli (GPa) = 58.07158 82.13786 79.22844
#
# Poissons Ratio (x) = 0.32255 0.43141
# Poissons Ratio (y) = 0.22804 0.27142
# Poissons Ratio (z) = 0.31621 0.28138
#
# Static dielectric constant tensor:
#      x y z
#    x 1.678170 0.000000 0.017490 
#    y 0.000000 1.699910 -0.000010 
#    z 0.017490 -0.000010 1.818200 
# 
# From -- ./inp_files/228078.got.cif
#   From: 2010.05.17/outbox.ucp.g08.bks.cvg/sg12_115_cif.got.tgz:228078.got - 2010.06.11 11:47:21.
