data_PCOD9224460
_publ_section_title
;
Structure prediction by ZEFSAII (Michael W. Deem and Ramdas Pophale) SiO2 
 PCOD9224460
Probable space group: C 2/M
;
_chemical_formula_sum "Si O2"
_cell_formula_units_Z 20
_cell_length_a 15.000000
_cell_length_b 9.000000
_cell_length_c 15.000000
_cell_angle_alpha 90.000000
_cell_angle_beta 90.000000
_cell_angle_gamma 90.000000
_cell_volume 2025.000000
_symmetry_space_group_name_H-M "C 2/M"
_symmetry_group_IT_number 12
_symmetry_cell_setting 'monoclinic'
loop_
_space_group_symop_operation_xyz
x,y,z
-x,y,-z
-x,-y,-z
x,-y,z
1/2+x,1/2+y,z
1/2-x,1/2+y,-z
1/2-x,1/2-y,-z
1/2+x,1/2-y,z
loop_
_atom_site_type_symbol
_atom_site_label
_atom_site_fract_x
_atom_site_fract_y
_atom_site_fract_z
Si Si1 0.101886 0.172636 0.766665
Si Si2 0.342551 0.176249 0.406943
Si Si3 0.256777 0.822879 0.903486
Si Si4 0.598346 0.328845 0.214616
Si Si5 0.649229 0.175963 0.395693
O O1 0.102713 0.273484 0.678771
O O2 0.176006 0.220393 0.837340
O O3 0.005024 0.176848 0.809820
O O4 0.120042 0.000000 0.740885
O O5 0.385619 0.204417 0.503931
O O6 0.252177 0.272038 0.400123
O O7 0.322355 0.000000 0.403547
O O8 0.344024 0.768752 0.851854
O O9 0.255204 0.000000 0.912597
O O10 0.250000 0.750000 0.000000
O O11 0.629100 0.500000 0.212087
O O12 0.607916 0.267533 0.315020
O O13 0.642795 0.000000 0.377607
#
# Coordination Sequence:
#
# PCOD9224460 Si02
#       5
#     8   8   8   8   8
#     4  10  23  41  62  89 125 161 199 247 304 359
#     4  10  20  34  58  88 121 163 208 247 292 355
#     4  11  24  44  67  90 119 157 197 252 310 362
#     4  11  23  40  63  92 122 160 204 248 298 360
#     4  10  20  35  56  87 125 163 202 249 300 350
#
# _framework density 9.8765429999999999
#
# number of rings (size 3 to 8) (size 9 to 14) (size 15 to 20)
#    0.000    1.600    2.000    2.400    0.000    6.400 
#    0.000    8.000    0.000    0.000    0.000    0.000 
#    0.000    0.000    0.000    0.000    0.000    0.000 
#
# Total GULP energy -111702.500716 kJ/mol
# GULP energy per Si atom -5585.125036 kJ/mol
# Density = 0.985406 g / cm^3
# Si number density = 9.876543 Si / 1000 Ang^3
#
#
#
# Elastic Constant Matrix: (Units=GPa)
#
#
# Indices 1 2 3 4 5 6 
#
# 1 52.2917 0.5032 23.5661 0.0000 -24.7554 0.0000
# 2 0.5032 39.6596 29.7919 0.0000 -12.2329 0.0000
# 3 23.5661 29.7919 112.5945 0.0000 -28.0863 0.0000
# 4 0.0000 0.0000 0.0000 40.2966 0.0000 -3.8566
# 5 -24.7554 -12.2329 -28.0863 0.0000 -22.0337 0.0000
# 6 0.0000 0.0000 0.0000 -3.8566 0.0000 23.1566
#
#
#
# Elastic Compliance Matrix: (Units=1/GPa)
#
#
# Indices 1 2 3 4 5 6 
#
# 1 0.016829 0.001349 -0.006664 0.000000 -0.011163 0.000000
# 2 0.001349 0.030811 -0.009924 0.000000 -0.005971 0.000000
# 3 -0.006664 -0.009924 0.012249 0.000000 -0.002617 0.000000
# 4 0.000000 0.000000 0.000000 0.025218 0.000000 0.004200
# 5 -0.011163 -0.005971 -0.002617 0.000000 -0.026192 0.000000
# 6 0.000000 0.000000 0.000000 0.004200 0.000000 0.043884
#
#
# Mechanical properties :
#
#
# Convention : Reuss Voigt Hill
#
# Bulk Modulus (GPa) = 34.00054 34.69648 34.34851
# Shear Modulus (GPa) = 34.94547 18.32953 26.63750
#
# Velocity S-wave (km/s) = 4.21065 3.04950 3.67621
# Velocity P-wave (km/s) = 6.39449 5.47746 5.95366
#
# Compressibility (1/GPa) = 0.02941130
#
# Stress axis : x y z
#
# Youngs Moduli (GPa) = 59.42063 32.45630 81.63787
#
# Poissons Ratio (x) = -0.04379 0.54402
# Poissons Ratio (y) = -0.08017 0.81019
# Poissons Ratio (z) = 0.39597 0.32210
#
# Static dielectric constant tensor:
#      x y z
#    x 1.721550 0.000000 -0.015110 
#    y 0.000000 1.669900 0.000000 
#    z -0.015110 0.000000 1.675920 
# 
# From -- ./inp_files/211340.got.cif
#   From: 2010.05.17/outbox.ucp.g08.bks.cvg/sg12_106_cif.got.tgz:211340.got - 2010.06.11 11:47:21.
