data_PCOD9224161
_publ_section_title
;
Structure prediction by ZEFSAII (Michael W. Deem and Ramdas Pophale) SiO2 
 PCOD9224161
Probable space group: C 2/M
;
_chemical_formula_sum "Si O2"
_cell_formula_units_Z 18
_cell_length_a 21.000000
_cell_length_b 15.000000
_cell_length_c 9.000000
_cell_angle_alpha 90.000000
_cell_angle_beta 40.000000
_cell_angle_gamma 90.000000
_cell_volume 1822.302873
_symmetry_space_group_name_H-M "C 2/M"
_symmetry_group_IT_number 12
_symmetry_cell_setting 'monoclinic'
loop_
_space_group_symop_operation_xyz
x,y,z
-x,y,-z
-x,-y,-z
x,-y,z
1/2+x,1/2+y,z
1/2-x,1/2+y,-z
1/2-x,1/2-y,-z
1/2+x,1/2-y,z
loop_
_atom_site_type_symbol
_atom_site_label
_atom_site_fract_x
_atom_site_fract_y
_atom_site_fract_z
Si Si1 0.815907 0.500000 0.946096
Si Si2 0.055168 0.323310 0.252257
Si Si3 0.691086 0.000000 0.684586
Si Si4 0.689370 0.500000 0.852582
Si Si5 0.120344 0.322417 0.670758
Si Si6 0.837724 0.192723 0.147265
O O1 0.885779 0.413331 0.815996
O O2 0.750964 0.500000 0.903905
O O3 0.775782 0.500000 0.196675
O O4 0.000000 0.291588 0.500000
O O5 0.970578 0.335630 0.277634
O O6 0.133011 0.254656 0.042289
O O7 0.632838 0.092133 0.757549
O O8 0.758100 0.000000 0.409525
O O9 0.631019 0.592632 0.948952
O O10 0.116323 0.236459 0.785704
O O11 0.220096 0.311439 0.393531
#
# Coordination Sequence:
#
# PCOD9224161 Si02
#       6
#     4   8   4   4   8   8
#     4  12  24  39  66 100 131 161 199 269 339 384
#     4  12  24  39  63  99 129 164 205 265 324 378
#     4  10  19  39  65  96 124 161 201 263 334 371
#     4  10  24  44  62  93 130 169 221 257 303 382
#     4  10  21  40  65  92 128 161 213 257 319 385
#     4  10  22  42  63  88 126 172 210 258 311 370
#
# _framework density 9.8776119999999992
#
# number of rings (size 3 to 8) (size 9 to 14) (size 15 to 20)
#    0.000    1.333    2.222    4.333    0.000    4.444 
#    0.000    2.778    0.000    0.000    0.000    0.000 
#    0.000    0.000    0.000    0.000    0.000    0.000 
#
# Total GULP energy -100298.725920 kJ/mol
# GULP energy per Si atom -5572.151440 kJ/mol
# Density = 0.985513 g / cm^3
# Si number density = 9.877612 Si / 1000 Ang^3
#
#
#
# Elastic Constant Matrix: (Units=GPa)
#
#
# Indices 1 2 3 4 5 6 
#
# 1 59.1190 17.5943 -0.3677 0.0000 27.2587 0.0000
# 2 17.5943 149.3994 25.1837 0.0000 8.4736 0.0000
# 3 -0.3677 25.1837 112.2237 0.0000 26.0007 0.0000
# 4 0.0000 0.0000 0.0000 18.2684 0.0000 7.5023
# 5 27.2587 8.4736 26.0007 0.0000 35.1323 0.0000
# 6 0.0000 0.0000 0.0000 7.5023 0.0000 24.4879
#
#
#
# Elastic Compliance Matrix: (Units=1/GPa)
#
#
# Indices 1 2 3 4 5 6 
#
# 1 0.031425 -0.003328 0.007619 0.000000 -0.029218 0.000000
# 2 -0.003328 0.007321 -0.002224 0.000000 0.002463 0.000000
# 3 0.007619 -0.002224 0.012891 0.000000 -0.014915 0.000000
# 4 0.000000 0.000000 0.000000 0.062618 0.000000 -0.019184
# 5 -0.029218 0.002463 -0.014915 0.000000 0.061579 0.000000
# 6 0.000000 0.000000 0.000000 -0.019184 0.000000 0.046714
#
#
# Mechanical properties :
#
#
# Convention : Reuss Voigt Hill
#
# Bulk Modulus (GPa) = 17.93068 45.06252 31.49660
# Shear Modulus (GPa) = 21.09685 34.13318 27.61502
#
# Velocity S-wave (km/s) = 3.27144 4.16120 3.74285
# Velocity P-wave (km/s) = 4.83383 6.77845 5.88699
#
# Compressibility (1/GPa) = 0.05577034
#
# Stress axis : x y z
#
# Youngs Moduli (GPa) = 31.82185 136.59987 77.57619
#
# Poissons Ratio (x) = 0.45460 -0.59108
# Poissons Ratio (y) = 0.10590 0.17255
# Poissons Ratio (z) = -0.24246 0.30383
#
# Static dielectric constant tensor:
#      x y z
#    x 1.688500 0.000000 0.012200 
#    y 0.000000 1.736380 0.000000 
#    z 0.012200 0.000000 1.763770 
# 
# From -- ./inp_files/58632.got.cif
#   From: 2010.05.17/outbox.ucp.g08.bks.cvg/sg12_30_cif.got.tgz:58632.got - 2010.06.11 11:47:21.
