data_PCOD9224028
_publ_section_title
;
Structure prediction by ZEFSAII (Michael W. Deem and Ramdas Pophale) SiO2 
 PCOD9224028
Probable space group: C 2/M
;
_chemical_formula_sum "Si O2"
_cell_formula_units_Z 32
_cell_length_a 30.000000
_cell_length_b 18.000000
_cell_length_c 9.000000
_cell_angle_alpha 90.000000
_cell_angle_beta 140.000000
_cell_angle_gamma 90.000000
_cell_volume 3123.947783
_symmetry_space_group_name_H-M "C 2/M"
_symmetry_group_IT_number 12
_symmetry_cell_setting 'monoclinic'
loop_
_space_group_symop_operation_xyz
x,y,z
-x,y,-z
-x,-y,-z
x,-y,z
1/2+x,1/2+y,z
1/2-x,1/2+y,-z
1/2-x,1/2-y,-z
1/2+x,1/2-y,z
loop_
_atom_site_type_symbol
_atom_site_label
_atom_site_fract_x
_atom_site_fract_y
_atom_site_fract_z
Si Si1 0.529747 0.083288 0.240292
Si Si2 0.683011 0.909854 0.545001
Si Si3 0.922117 0.845998 0.101603
Si Si4 0.820624 0.086248 0.064337
Si Si5 0.939967 0.323516 0.223912
Si Si6 0.653816 0.584705 0.351373
Si Si7 0.812642 0.411347 0.791415
Si Si8 0.572174 0.585831 0.436089
O O1 0.610078 0.106953 0.437521
O O2 0.480596 0.143633 0.187156
O O3 0.525211 0.000000 0.299076
O O4 0.500000 0.075096 0.000000
O O5 0.679935 0.887066 0.363571
O O6 0.687780 0.000000 0.551275
O O7 0.750872 0.882747 0.808755
O O8 0.884126 0.903413 0.113337
O O9 0.922354 0.763118 0.165635
O O10 0.001467 0.870052 0.279377
O O11 0.873464 0.854815 0.833543
O O12 0.858810 0.117948 0.307066
O O13 0.804951 0.000000 0.056330
O O14 0.000000 0.335083 0.500000
O O15 0.867249 0.368892 0.036106
O O16 0.658642 0.500000 0.297890
O O17 0.730611 0.599537 0.611448
O O18 0.594750 0.582699 0.323943
O O19 0.827161 0.500000 0.837538
O O20 0.561443 0.500000 0.458543
#
# Coordination Sequence:
#
# PCOD9224028 Si02
#       8
#     8   8   8   8   8   8   8   8
#     4  10  20  38  64  88 111 148 199 250 299 353
#     4   9  17  34  63  91 112 144 195 250 295 349
#     4  12  23  39  59  82 123 167 204 238 285 355
#     4  10  19  35  61  89 117 156 200 245 297 349
#     4  12  27  41  57  88 126 163 201 243 296 354
#     4  10  21  39  65  94 119 150 198 251 303 355
#     4  10  20  40  66  89 116 151 197 252 301 355
#     4  10  21  36  58  91 124 152 194 250 300 349
#
# _framework density 10.243449
#
# number of rings (size 3 to 8) (size 9 to 14) (size 15 to 20)
#    0.000    1.625    2.500    3.000    0.000    5.500 
#    0.000    2.500    0.000    3.000    0.000    0.000 
#    0.000    0.000    0.000    0.000    0.000    0.000 
#
# Total GULP energy -178340.312390 kJ/mol
# GULP energy per Si atom -5573.134762 kJ/mol
# Density = 1.022013 g / cm^3
# Si number density = 10.243449 Si / 1000 Ang^3
#
#
#
# Elastic Constant Matrix: (Units=GPa)
#
#
# Indices 1 2 3 4 5 6 
#
# 1 25.9607 -11.4769 -1.1766 0.0000 13.4369 0.0000
# 2 -11.4769 20.2575 30.0348 0.0000 0.7264 0.0000
# 3 -1.1766 30.0348 126.6473 0.0000 19.1118 0.0000
# 4 0.0000 0.0000 0.0000 20.4308 0.0000 3.4672
# 5 13.4369 0.7264 19.1118 0.0000 29.0736 0.0000
# 6 0.0000 0.0000 0.0000 3.4672 0.0000 6.4404
#
#
#
# Elastic Compliance Matrix: (Units=1/GPa)
#
#
# Indices 1 2 3 4 5 6 
#
# 1 0.082531 0.060476 -0.008427 0.000000 -0.034115 0.000000
# 2 0.060476 0.123796 -0.026767 0.000000 -0.013447 0.000000
# 3 -0.008427 -0.026767 0.014961 0.000000 -0.005271 0.000000
# 4 0.000000 0.000000 0.000000 0.053867 0.000000 -0.029000
# 5 -0.034115 -0.013447 -0.005271 0.000000 0.053963 0.000000
# 6 0.000000 0.000000 0.000000 -0.029000 0.000000 0.170881
#
#
# Mechanical properties :
#
#
# Convention : Reuss Voigt Hill
#
# Bulk Modulus (GPa) = 3.67851 23.06981 13.37416
# Shear Modulus (GPa) = 9.25834 21.55456 15.40645
#
# Velocity S-wave (km/s) = 2.12814 3.24715 2.74526
# Velocity P-wave (km/s) = 2.79965 5.03427 4.07320
#
# Compressibility (1/GPa) = 0.27184944
#
# Stress axis : x y z
#
# Youngs Moduli (GPa) = 12.11670 8.07783 66.84006
#
# Poissons Ratio (x) = -0.48851 0.56328
# Poissons Ratio (y) = -0.73277 1.78914
# Poissons Ratio (z) = 0.10211 0.21622
#
# Static dielectric constant tensor:
#      x y z
#    x 1.779740 0.000000 -0.063510 
#    y 0.000000 1.715980 0.000000 
#    z -0.063510 0.000000 1.841380 
# 
# From -- ./inp_files/112923.got.cif
#   From: 2010.05.17/outbox.ucp.g08.bks.cvg/sg12_57_cif.got.tgz:112923.got - 2010.06.11 11:47:21.
