data_PCOD9224306
_publ_section_title
;
Structure prediction by ZEFSAII (Michael W. Deem and Ramdas Pophale) SiO2 
 PCOD9224306
Probable space group: C 2/M
;
_chemical_formula_sum "Si O2"
_cell_formula_units_Z 28
_cell_length_a 15.000000
_cell_length_b 9.000000
_cell_length_c 24.000000
_cell_angle_alpha 90.000000
_cell_angle_beta 120.000000
_cell_angle_gamma 90.000000
_cell_volume 2805.922308
_symmetry_space_group_name_H-M "C 2/M"
_symmetry_group_IT_number 12
_symmetry_cell_setting 'monoclinic'
loop_
_space_group_symop_operation_xyz
x,y,z
-x,y,-z
-x,-y,-z
x,-y,z
1/2+x,1/2+y,z
1/2-x,1/2+y,-z
1/2-x,1/2-y,-z
1/2+x,1/2-y,z
loop_
_atom_site_type_symbol
_atom_site_label
_atom_site_fract_x
_atom_site_fract_y
_atom_site_fract_z
Si Si1 0.220900 0.674401 0.831197
Si Si2 0.179739 0.166448 0.433056
Si Si3 0.815143 0.175304 0.292771
Si Si4 0.365544 0.675456 0.708211
Si Si5 0.438069 0.671841 0.153804
Si Si6 0.467180 0.669354 0.431660
Si Si7 0.449078 0.679509 0.926952
O O1 0.227399 0.500000 0.822077
O O2 0.169533 0.750532 0.761632
O O3 0.151384 0.713823 0.861644
O O4 0.334424 0.735301 0.878830
O O5 0.250000 0.250000 0.500000
O O6 0.157367 0.220551 0.363069
O O7 0.068453 0.158766 0.426494
O O8 0.222641 0.000000 0.441053
O O9 0.700592 0.216195 0.274326
O O10 0.882578 0.238666 0.365095
O O11 0.835772 0.000000 0.295368
O O12 0.335859 0.500000 0.704619
O O13 0.478549 0.683384 0.770067
O O14 0.402004 0.500000 0.142677
O O15 0.487271 0.703796 0.109363
O O16 0.500000 0.742403 0.500000
O O17 0.430296 0.500000 0.434369
O O18 0.440334 0.500000 0.930316
O O19 0.500000 0.735903 0.000000
#
# Coordination Sequence:
#
# PCOD9224306 Si02
#       7
#     8   8   8   8   8   8   8
#     4  11  22  38  60  89 122 155 195 244 294 346
#     4  10  20  34  52  74 106 143 187 236 292 350
#     4  11  21  35  59  85 110 147 195 242 292 351
#     4  10  20  36  56  80 113 154 192 238 297 349
#     4  10  20  38  62  87 118 157 199 238 289 352
#     4   9  18  33  52  75 104 141 185 234 286 343
#     4   9  19  38  63  88 119 160 198 236 291 355
#
# _framework density 9.9788940000000004
#
# number of rings (size 3 to 8) (size 9 to 14) (size 15 to 20)
#    0.000    2.000    1.429    2.571    0.000    5.143 
#    0.000    2.857    0.000    6.857    0.000    0.000 
#    0.000    0.000    0.000    0.000    0.000    0.000 
#
# Total GULP energy -155978.403622 kJ/mol
# GULP energy per Si atom -5570.657272 kJ/mol
# Density = 0.995618 g / cm^3
# Si number density = 9.978894 Si / 1000 Ang^3
#
#
#
# Elastic Constant Matrix: (Units=GPa)
#
#
# Indices 1 2 3 4 5 6 
#
# 1 30.5907 15.6698 26.6063 0.0000 0.2714 0.0000
# 2 15.6698 15.6224 27.4586 0.0000 -3.0453 0.0000
# 3 26.6063 27.4586 131.0035 0.0000 -14.0630 0.0000
# 4 0.0000 0.0000 0.0000 2.1401 0.0000 -14.1118
# 5 0.2714 -3.0453 -14.0630 0.0000 9.4208 0.0000
# 6 0.0000 0.0000 0.0000 -14.1118 0.0000 18.1113
#
#
#
# Elastic Compliance Matrix: (Units=1/GPa)
#
#
# Indices 1 2 3 4 5 6 
#
# 1 0.073823 -0.075813 -0.002336 0.000000 -0.030121 0.000000
# 2 -0.075813 0.179217 -0.018712 0.000000 0.032184 0.000000
# 3 -0.002336 -0.018712 0.013561 0.000000 0.014262 0.000000
# 4 0.000000 0.000000 0.000000 -0.112926 0.000000 -0.087989
# 5 -0.030121 0.032184 0.014262 0.000000 0.138709 0.000000
# 6 0.000000 0.000000 0.000000 -0.087989 0.000000 -0.013344
#
#
# Mechanical properties :
#
#
# Convention : Reuss Voigt Hill
#
# Bulk Modulus (GPa) = 13.72141 35.18734 24.45437
# Shear Modulus (GPa) = 10.05922 13.09990 11.57956
#
# Velocity S-wave (km/s) = 2.24749 2.56477 2.41135
# Velocity P-wave (km/s) = 3.69121 5.14197 4.47577
#
# Compressibility (1/GPa) = 0.07287880
#
# Stress axis : x y z
#
# Youngs Moduli (GPa) = 13.54583 5.57982 73.74143
#
# Poissons Ratio (x) = 0.42302 0.17226
# Poissons Ratio (y) = 1.02695 1.37986
# Poissons Ratio (z) = 0.03164 0.10441
#
# Static dielectric constant tensor:
#      x y z
#    x 1.733320 0.000000 0.029180 
#    y 0.000000 1.738990 0.000000 
#    z 0.029180 0.000000 1.718220 
# 
# From -- ./inp_files/339083.got.cif
#   From: 2010.05.17/outbox.ucp.g08.bks.cvg/sg12_170_cif.got.tgz:339083.got - 2010.06.11 11:47:21.
