data_PCOD9224416
_publ_section_title
;
Structure prediction by ZEFSAII (Michael W. Deem and Ramdas Pophale) SiO2 
 PCOD9224416
Probable space group: C 2/M
;
_chemical_formula_sum "Si O2"
_cell_formula_units_Z 28
_cell_length_a 27.000000
_cell_length_b 9.000000
_cell_length_c 18.000000
_cell_angle_alpha 90.000000
_cell_angle_beta 40.000000
_cell_angle_gamma 90.000000
_cell_volume 2811.553005
_symmetry_space_group_name_H-M "C 2/M"
_symmetry_group_IT_number 12
_symmetry_cell_setting 'monoclinic'
loop_
_space_group_symop_operation_xyz
x,y,z
-x,y,-z
-x,-y,-z
x,-y,z
1/2+x,1/2+y,z
1/2-x,1/2+y,-z
1/2-x,1/2-y,-z
1/2+x,1/2-y,z
loop_
_atom_site_type_symbol
_atom_site_label
_atom_site_fract_x
_atom_site_fract_y
_atom_site_fract_z
Si Si1 0.412431 0.834161 0.415700
Si Si2 0.739168 0.331048 0.374249
Si Si3 0.061751 0.170112 0.237180
Si Si4 0.708323 0.826669 0.116775
Si Si5 0.201976 0.665763 0.859964
Si Si6 0.052488 0.828071 0.068316
Si Si7 0.399521 0.168856 0.252712
O O1 0.330783 0.779152 0.536739
O O2 0.477026 0.714344 0.360454
O O3 0.408600 0.838165 0.330736
O O4 0.431978 0.000000 0.419269
O O5 0.719394 0.500000 0.422267
O O6 0.763759 0.338534 0.260871
O O7 0.814186 0.278470 0.332459
O O8 0.120561 0.278477 0.209475
O O9 0.064765 0.188661 0.143876
O O10 0.081155 0.000000 0.231234
O O11 0.747146 0.768765 0.146503
O O12 0.718460 0.000000 0.099112
O O13 0.750000 0.750000 0.000000
O O14 0.201206 0.500000 0.893322
O O15 0.116018 0.727944 0.956781
O O16 0.967469 0.772666 0.146421
O O17 0.063016 0.000000 0.038230
O O18 0.406995 0.000000 0.214354
#
# Coordination Sequence:
#
# PCOD9224416 Si02
#       7
#     8   8   8   8   8   8   8
#     4  10  20  35  59  87 114 148 190 239 285 331
#     4  10  22  39  57  80 113 156 195 233 283 339
#     4  10  20  36  59  86 115 147 186 234 283 334
#     4  12  23  37  60  88 116 146 185 231 282 339
#     4  11  23  38  57  81 115 154 191 232 283 341
#     4  10  20  34  55  84 115 147 187 235 286 337
#     4   9  19  36  58  83 113 149 193 236 283 338
#
# _framework density 9.9589090000000002
#
# number of rings (size 3 to 8) (size 9 to 14) (size 15 to 20)
#    0.000    1.714    1.429    3.429    0.000    4.000 
#    0.000    3.571    0.000    4.286    0.000    0.000 
#    0.000    0.000    0.000    0.000    0.000    0.000 
#
# Total GULP energy -156329.545816 kJ/mol
# GULP energy per Si atom -5583.198065 kJ/mol
# Density = 0.993624 g / cm^3
# Si number density = 9.958909 Si / 1000 Ang^3
#
#
#
# Elastic Constant Matrix: (Units=GPa)
#
#
# Indices 1 2 3 4 5 6 
#
# 1 38.4337 12.9739 -2.5788 -0.0057 -17.8416 0.0045
# 2 12.9739 97.1666 49.0256 -0.0092 -3.4131 0.0083
# 3 -2.5788 49.0256 47.6689 -0.0026 -23.3143 0.0019
# 4 -0.0057 -0.0092 -0.0026 19.0967 0.0042 -6.3726
# 5 -17.8416 -3.4131 -23.3143 0.0042 12.2642 -0.0037
# 6 0.0045 0.0083 0.0019 -6.3726 -0.0037 21.0339
#
#
#
# Elastic Compliance Matrix: (Units=1/GPa)
#
#
# Indices 1 2 3 4 5 6 
#
# 1 0.008657 0.009193 -0.022423 0.000008 -0.027474 -0.000006
# 2 0.009193 0.007510 0.004791 0.000001 0.024571 -0.000001
# 3 -0.022423 0.004791 -0.006615 0.000003 -0.043863 -0.000003
# 4 0.000008 0.000001 0.000003 0.058255 0.000004 0.017649
# 5 -0.027474 0.024571 -0.043863 0.000004 -0.034976 -0.000005
# 6 -0.000006 -0.000001 -0.000003 0.017649 -0.000005 0.052889
#
#
# Mechanical properties :
#
#
# Convention : Reuss Voigt Hill
#
# Bulk Modulus (GPa) = -136.47775 33.56785 -51.45495
# Shear Modulus (GPa) = 49.92225 18.73553 34.32889
#
# Velocity S-wave (km/s) = 5.01184 3.07032 4.15604
# Velocity P-wave (km/s) = 5.93109 5.42760 1.69100
#
# Compressibility (1/GPa) = -0.00732720
#
# Stress axis : x y z
#
# Youngs Moduli (GPa) = 115.51090 133.15809 -151.16045
#
# Poissons Ratio (x) = -1.22409 -3.38951
# Poissons Ratio (y) = -1.06186 0.72423
# Poissons Ratio (z) = 2.59013 -0.63798
#
# Static dielectric constant tensor:
#      x y z
#    x 1.698790 0.000000 -0.004790 
#    y 0.000000 1.686920 0.000000 
#    z -0.004790 0.000000 1.679400 
# 
# From -- ./inp_files/292392.got.cif
#   From: 2010.05.17/outbox.ucp.g08.bks.cvg/sg12_147_cif.got.tgz:292392.got - 2010.06.11 11:47:21.
