data_PCOD9224187
_publ_section_title
;
Structure prediction by ZEFSAII (Michael W. Deem and Ramdas Pophale) SiO2 
 PCOD9224187
Probable space group: C 2/M
;
_chemical_formula_sum "Si O2"
_cell_formula_units_Z 32
_cell_length_a 30.000000
_cell_length_b 9.000000
_cell_length_c 15.000000
_cell_angle_alpha 90.000000
_cell_angle_beta 90.000000
_cell_angle_gamma 90.000000
_cell_volume 4050.000000
_symmetry_space_group_name_H-M "C 2/M"
_symmetry_group_IT_number 12
_symmetry_cell_setting 'monoclinic'
loop_
_space_group_symop_operation_xyz
x,y,z
-x,y,-z
-x,-y,-z
x,-y,z
1/2+x,1/2+y,z
1/2-x,1/2+y,-z
1/2-x,1/2-y,-z
1/2+x,1/2-y,z
loop_
_atom_site_type_symbol
_atom_site_label
_atom_site_fract_x
_atom_site_fract_y
_atom_site_fract_z
Si Si1 0.668788 0.173568 0.793352
Si Si2 0.259768 0.672944 0.905434
Si Si3 0.798539 0.321197 0.595331
Si Si4 0.334920 0.822865 0.784502
Si Si5 0.799175 0.678930 0.398019
Si Si6 0.996807 0.667730 0.107631
Si Si7 0.906244 0.176023 0.092457
Si Si8 0.586825 0.324919 0.116701
O O1 0.716545 0.180470 0.841993
O O2 0.674015 0.223137 0.690530
O O3 0.635726 0.272378 0.851001
O O4 0.654484 0.000000 0.795170
O O5 0.270867 0.500000 0.920866
O O6 0.298980 0.751321 0.851076
O O7 0.250000 0.750000 0.000000
O O8 0.793752 0.500000 0.596902
O O9 0.826135 0.276739 0.682334
O O10 0.817024 0.281930 0.496904
O O11 0.749904 0.249244 0.605614
O O12 0.381977 0.767649 0.819053
O O13 0.331238 0.000000 0.789872
O O14 0.794977 0.500000 0.393161
O O15 0.002410 0.500000 0.141643
O O16 0.948964 0.735571 0.128117
O O17 0.036320 0.776695 0.134437
O O18 0.000000 0.661045 0.000000
O O19 0.913618 0.000000 0.098490
O O20 0.901494 0.211204 0.986887
O O21 0.593208 0.500000 0.128564
#
# Coordination Sequence:
#
# PCOD9224187 Si02
#       8
#     8   8   8   8   8   8   8   8
#     4  10  20  32  47  67  93 126 162 197 237 285
#     4  11  22  34  46  64  93 131 167 199 235 279
#     4   9  18  31  49  70  92 120 157 202 247 287
#     4  11  21  32  47  70  97 127 162 199 239 287
#     4   9  17  32  50  68  91 121 158 202 247 288
#     4   9  17  31  51  72  95 123 156 197 241 282
#     4  10  20  32  48  70  97 127 161 198 234 279
#     4  10  20  33  49  70  97 130 164 198 235 279
#
# _framework density 7.9012349999999998
#
# number of rings (size 3 to 8) (size 9 to 14) (size 15 to 20)
#    0.000    2.125    1.250    2.625    0.000    7.000 
#    0.000    0.000    0.000    0.000    0.000    0.875 
#    0.000    7.000    0.000    0.000    0.000    0.000 
#
# Total GULP energy -178402.972670 kJ/mol
# GULP energy per Si atom -5575.092896 kJ/mol
# Density = 0.788325 g / cm^3
# Si number density = 7.901235 Si / 1000 Ang^3
#
#
#
# Elastic Constant Matrix: (Units=GPa)
#
#
# Indices 1 2 3 4 5 6 
#
# 1 29.5448 7.5264 3.3377 0.0000 15.9984 0.0000
# 2 7.5264 34.6787 23.9960 0.0000 7.6489 0.0000
# 3 3.3377 23.9960 70.9879 0.0000 23.7050 0.0000
# 4 0.0000 0.0000 0.0000 18.4104 0.0000 -1.4032
# 5 15.9984 7.6489 23.7050 0.0000 -0.3814 0.0000
# 6 0.0000 0.0000 0.0000 -1.4032 0.0000 26.3934
#
#
#
# Elastic Compliance Matrix: (Units=1/GPa)
#
#
# Indices 1 2 3 4 5 6 
#
# 1 0.018233 -0.003940 -0.010505 0.000000 0.032880 0.000000
# 2 -0.003940 0.038469 -0.009894 0.000000 -0.008757 0.000000
# 3 -0.010505 -0.009894 0.010634 0.000000 0.021836 0.000000
# 4 0.000000 0.000000 0.000000 0.054538 0.000000 0.002899
# 5 0.032880 -0.008757 0.021836 0.000000 -0.061157 0.000000
# 6 0.000000 0.000000 0.000000 0.002899 0.000000 0.038042
#
#
# Mechanical properties :
#
#
# Convention : Reuss Voigt Hill
#
# Bulk Modulus (GPa) = 53.60053 22.77018 38.18535
# Shear Modulus (GPa) = 32.53987 15.57458 24.05722
#
# Velocity S-wave (km/s) = 4.54272 3.14280 3.90599
# Velocity P-wave (km/s) = 7.84269 5.25453 6.67525
#
# Compressibility (1/GPa) = 0.01865653
#
# Stress axis : x y z
#
# Youngs Moduli (GPa) = 54.84559 25.99488 94.04118
#
# Poissons Ratio (x) = 0.10243 0.98790
# Poissons Ratio (y) = 0.21611 0.93047
# Poissons Ratio (z) = 0.57615 0.25720
#
# Static dielectric constant tensor:
#      x y z
#    x 1.512960 0.000000 0.015500 
#    y 0.000000 1.527360 0.000000 
#    z 0.015500 0.000000 1.529710 
# 
# From -- ./inp_files/248380.got.cif
#   From: 2010.05.17/outbox.ucp.g08.bks.cvg/sg12_125_cif.got.tgz:248380.got - 2010.06.11 11:47:21.
