data_PCOD9224057
_publ_section_title
;
Structure prediction by ZEFSAII (Michael W. Deem and Ramdas Pophale) SiO2 
 PCOD9224057
Probable space group: C 2/M
;
_chemical_formula_sum "Si O2"
_cell_formula_units_Z 32
_cell_length_a 21.000000
_cell_length_b 9.000000
_cell_length_c 24.000000
_cell_angle_alpha 90.000000
_cell_angle_beta 130.000000
_cell_angle_gamma 90.000000
_cell_volume 3474.777594
_symmetry_space_group_name_H-M "C 2/M"
_symmetry_group_IT_number 12
_symmetry_cell_setting 'monoclinic'
loop_
_space_group_symop_operation_xyz
x,y,z
-x,y,-z
-x,-y,-z
x,-y,z
1/2+x,1/2+y,z
1/2-x,1/2+y,-z
1/2-x,1/2-y,-z
1/2+x,1/2-y,z
loop_
_atom_site_type_symbol
_atom_site_label
_atom_site_fract_x
_atom_site_fract_y
_atom_site_fract_z
Si Si1 0.761275 0.321345 0.851652
Si Si2 0.825205 0.678669 0.699268
Si Si3 0.010294 0.178653 0.160677
Si Si4 0.600366 0.173764 0.807872
Si Si5 0.334340 0.820091 0.572197
Si Si6 0.920782 0.828570 0.995609
Si Si7 0.308482 0.180932 0.301461
Si Si8 0.485565 0.827890 0.361865
O O1 0.757725 0.500000 0.845349
O O2 0.687798 0.255397 0.848687
O O3 0.740358 0.247098 0.779847
O O4 0.848047 0.268239 0.927173
O O5 0.821696 0.500000 0.703930
O O6 0.900576 0.744345 0.778912
O O7 0.840190 0.711093 0.642056
O O8 0.740749 0.755329 0.673397
O O9 0.954095 0.235778 0.179447
O O10 0.959330 0.220679 0.076344
O O11 0.021286 0.000000 0.166317
O O12 0.551703 0.174967 0.721670
O O13 0.610583 0.000000 0.829241
O O14 0.250000 0.750000 0.500000
O O15 0.420203 0.766679 0.590158
O O16 0.330704 0.000000 0.564689
O O17 0.890600 0.000000 0.984156
O O18 0.000000 0.829305 0.000000
O O19 0.405999 0.229800 0.352512
O O20 0.305823 0.000000 0.297643
O O21 0.495410 0.000000 0.384426
#
# Coordination Sequence:
#
# PCOD9224057 Si02
#       8
#     8   8   8   8   8   8   8   8
#     4  11  22  36  56  84 115 148 194 244 292 348
#     4  11  22  38  60  87 121 153 191 242 295 350
#     4  11  22  35  57  86 113 146 196 246 291 346
#     4  10  19  36  59  81 111 152 191 237 294 345
#     4  10  21  39  61  88 118 153 192 234 289 347
#     4  10  22  39  55  74 108 152 193 239 295 352
#     4  10  20  36  61  87 115 155 198 240 291 346
#     4   8  16  35  59  82 112 152 192 230 281 343
#
# _framework density 9.2092220000000005
#
# number of rings (size 3 to 8) (size 9 to 14) (size 15 to 20)
#    0.000    1.875    1.250    4.125    0.000    3.750 
#    0.000    1.875    0.000    3.750    0.000    0.000 
#    0.000    0.000    0.000    0.000    0.000    0.000 
#
# Total GULP energy -178514.061519 kJ/mol
# GULP energy per Si atom -5578.564422 kJ/mol
# Density = 0.918826 g / cm^3
# Si number density = 9.209222 Si / 1000 Ang^3
#
#
#
# Elastic Constant Matrix: (Units=GPa)
#
#
# Indices 1 2 3 4 5 6 
#
# 1 119.5007 22.8899 25.4628 0.0000 28.8231 0.0000
# 2 22.8899 73.9861 29.5090 0.0000 15.3446 0.0000
# 3 25.4628 29.5090 60.0005 0.0000 33.2905 0.0000
# 4 0.0000 0.0000 0.0000 25.8416 0.0000 2.3341
# 5 28.8231 15.3446 33.2905 0.0000 32.2805 0.0000
# 6 0.0000 0.0000 0.0000 2.3341 0.0000 31.3095
#
#
#
# Elastic Compliance Matrix: (Units=1/GPa)
#
#
# Indices 1 2 3 4 5 6 
#
# 1 0.011008 -0.002124 0.002960 0.000000 -0.011872 0.000000
# 2 -0.002124 0.017246 -0.009547 0.000000 0.003544 0.000000
# 3 0.002960 -0.009547 0.044540 0.000000 -0.044038 0.000000
# 4 0.000000 0.000000 0.000000 0.038960 0.000000 -0.002904
# 5 -0.011872 0.003544 -0.044038 0.000000 0.085310 0.000000
# 6 0.000000 0.000000 0.000000 -0.002904 0.000000 0.032156
#
#
# Mechanical properties :
#
#
# Convention : Reuss Voigt Hill
#
# Bulk Modulus (GPa) = 18.05971 45.46787 31.76379
# Shear Modulus (GPa) = 18.86101 29.59469 24.22785
#
# Velocity S-wave (km/s) = 3.20352 4.01284 3.63080
# Velocity P-wave (km/s) = 4.84870 6.79780 5.90423
#
# Compressibility (1/GPa) = 0.05537187
#
# Stress axis : x y z
#
# Youngs Moduli (GPa) = 90.84543 57.98507 22.45195
#
# Poissons Ratio (x) = 0.12316 -0.06646
# Poissons Ratio (y) = 0.19296 0.21434
# Poissons Ratio (z) = -0.26892 0.55357
#
# Static dielectric constant tensor:
#      x y z
#    x 1.689890 0.000000 -0.014430 
#    y 0.000000 1.620170 0.000000 
#    z -0.014430 0.000000 1.629060 
# 
# From -- ./inp_files/346229.got.cif
#   From: 2010.05.17/outbox.ucp.g08.bks.cvg/sg12_174_cif.got.tgz:346229.got - 2010.06.11 11:47:21.
