data_PCOD9224860
_publ_section_title
;
Structure prediction by ZEFSAII (Michael W. Deem and Ramdas Pophale) SiO2 
 PCOD9224860
Probable space group: C 2/M
;
_chemical_formula_sum "Si O2"
_cell_formula_units_Z 32
_cell_length_a 30.000000
_cell_length_b 9.000000
_cell_length_c 15.000000
_cell_angle_alpha 90.000000
_cell_angle_beta 130.000000
_cell_angle_gamma 90.000000
_cell_volume 3102.479995
_symmetry_space_group_name_H-M "C 2/M"
_symmetry_group_IT_number 12
_symmetry_cell_setting 'monoclinic'
loop_
_space_group_symop_operation_xyz
x,y,z
-x,y,-z
-x,-y,-z
x,-y,z
1/2+x,1/2+y,z
1/2-x,1/2+y,-z
1/2-x,1/2-y,-z
1/2+x,1/2-y,z
loop_
_atom_site_type_symbol
_atom_site_label
_atom_site_fract_x
_atom_site_fract_y
_atom_site_fract_z
Si Si1 0.596148 0.325065 0.806514
Si Si2 0.153268 0.820590 0.064448
Si Si3 0.380967 0.831030 0.330671
Si Si4 0.921755 0.669005 0.714268
Si Si5 0.306918 0.325495 0.535031
Si Si6 0.229351 0.670543 0.686897
Si Si7 0.026714 0.834025 0.938540
Si Si8 0.974744 0.672456 0.594565
O O1 0.589449 0.500000 0.805590
O O2 0.632980 0.270179 0.939403
O O3 0.630519 0.279380 0.763774
O O4 0.532390 0.255442 0.703286
O O5 0.093073 0.785202 0.037222
O O6 0.160259 0.000000 0.068702
O O7 0.211356 0.771151 0.190117
O O8 0.322115 0.840715 0.309143
O O9 0.437051 0.778287 0.460587
O O10 0.393164 0.000000 0.315618
O O11 0.913005 0.500000 0.732106
O O12 0.864607 0.764862 0.657951
O O13 0.982719 0.729868 0.829342
O O14 0.929525 0.674276 0.617878
O O15 0.306325 0.500000 0.543067
O O16 0.250000 0.250000 0.500000
O O17 0.299066 0.275626 0.423232
O O18 0.240084 0.500000 0.665994
O O19 0.027314 0.000000 0.897468
O O20 0.000000 0.846710 0.000000
O O21 0.989105 0.500000 0.598434
#
# Coordination Sequence:
#
# PCOD9224860 Si02
#       8
#     8   8   8   8   8   8   8   8
#     4  11  22  36  57  88 120 155 200 249 303 361
#     4   9  20  38  59  85 122 160 199 248 304 363
#     4  10  21  38  59  84 117 157 202 249 304 363
#     4  11  22  40  65  93 123 160 202 249 303 361
#     4  12  26  43  65  94 126 160 200 251 303 360
#     4  10  21  42  65  86 118 164 207 248 301 363
#     4  10  21  38  61  92 124 162 204 245 305 369
#     4  10  20  37  59  86 119 157 197 243 302 361
#
# _framework density 10.314329000000001
#
# number of rings (size 3 to 8) (size 9 to 14) (size 15 to 20)
#    0.000    1.625    2.500    2.250    1.750    3.750 
#    0.000    1.875    0.000    0.000    0.000    0.000 
#    0.000    0.000    0.000    0.000    0.000    0.000 
#
# Total GULP energy -178209.739262 kJ/mol
# GULP energy per Si atom -5569.054352 kJ/mol
# Density = 1.029085 g / cm^3
# Si number density = 10.314329 Si / 1000 Ang^3
#
#
#
# Elastic Constant Matrix: (Units=GPa)
#
#
# Indices 1 2 3 4 5 6 
#
# 1 83.9566 24.0591 20.1305 0.0000 8.7279 0.0000
# 2 24.0591 75.2866 23.8342 0.0000 7.3259 0.0000
# 3 20.1305 23.8342 87.4362 0.0000 25.9840 0.0000
# 4 0.0000 0.0000 0.0000 20.8711 0.0000 6.1512
# 5 8.7279 7.3259 25.9840 0.0000 43.3752 0.0000
# 6 0.0000 0.0000 0.0000 6.1512 0.0000 24.3129
#
#
#
# Elastic Compliance Matrix: (Units=1/GPa)
#
#
# Indices 1 2 3 4 5 6 
#
# 1 0.013494 -0.003640 -0.001813 0.000000 -0.001014 0.000000
# 2 -0.003640 0.015519 -0.003444 0.000000 0.000175 0.000000
# 3 -0.001813 -0.003444 0.015222 0.000000 -0.008172 0.000000
# 4 0.000000 0.000000 0.000000 0.051774 0.000000 -0.013099
# 5 -0.001014 0.000175 -0.008172 0.000000 0.028125 0.000000
# 6 0.000000 0.000000 0.000000 -0.013099 0.000000 0.044445
#
#
# Mechanical properties :
#
#
# Convention : Reuss Voigt Hill
#
# Bulk Modulus (GPa) = 37.82019 42.52522 40.17271
# Shear Modulus (GPa) = 25.61664 29.62220 27.61942
#
# Velocity S-wave (km/s) = 3.52774 3.79353 3.66305
# Velocity P-wave (km/s) = 5.91328 6.31247 6.11613
#
# Compressibility (1/GPa) = 0.02644091
#
# Stress axis : x y z
#
# Youngs Moduli (GPa) = 74.10650 64.43692 65.69528
#
# Poissons Ratio (x) = 0.23452 0.11912
# Poissons Ratio (y) = 0.26971 0.22627
# Poissons Ratio (z) = 0.13437 0.22194
#
# Static dielectric constant tensor:
#      x y z
#    x 2.118810 0.000000 -0.052060 
#    y 0.000000 1.733820 0.000000 
#    z -0.052060 0.000000 1.688240 
# 
# From -- ./inp_files/250019.got.cif
#   From: 2010.05.17/outbox.ucp.g08.bks.cvg/sg12_126_cif.got.tgz:250019.got - 2010.06.11 11:47:21.
