data_PCOD9224673
_publ_section_title
;
Structure prediction by ZEFSAII (Michael W. Deem and Ramdas Pophale) SiO2 
 PCOD9224673
Probable space group: C 2/M
;
_chemical_formula_sum "Si O2"
_cell_formula_units_Z 30
_cell_length_a 12.000000
_cell_length_b 24.000000
_cell_length_c 21.000000
_cell_angle_alpha 90.000000
_cell_angle_beta 150.000000
_cell_angle_gamma 90.000000
_cell_volume 3024.000000
_symmetry_space_group_name_H-M "C 2/M"
_symmetry_group_IT_number 12
_symmetry_cell_setting 'monoclinic'
loop_
_space_group_symop_operation_xyz
x,y,z
-x,y,-z
-x,-y,-z
x,-y,z
1/2+x,1/2+y,z
1/2-x,1/2+y,-z
1/2-x,1/2-y,-z
1/2+x,1/2-y,z
loop_
_atom_site_type_symbol
_atom_site_label
_atom_site_fract_x
_atom_site_fract_y
_atom_site_fract_z
Si Si1 0.816967 0.763552 0.792650
Si Si2 0.500000 0.201588 0.000000
Si Si3 0.395586 0.308765 0.578488
Si Si4 0.024470 0.434392 0.833347
Si Si5 0.491701 0.335810 0.226425
Si Si6 0.522828 0.435366 0.867455
Si Si7 0.228017 0.869176 0.151038
Si Si8 0.507675 0.567259 0.580649
O O1 0.641863 0.716387 0.685440
O O2 0.699500 0.814648 0.773556
O O3 0.940107 0.791824 0.794459
O O4 0.982671 0.737348 0.926660
O O5 0.729278 0.168491 0.110405
O O6 0.250000 0.250000 0.500000
O O7 0.381702 0.322041 0.646536
O O8 0.386312 0.373135 0.542974
O O9 0.044809 0.500000 0.824608
O O10 0.091279 0.394480 0.807529
O O11 0.770069 0.426209 0.729573
O O12 0.222268 0.424350 0.982524
O O13 0.535310 0.396616 0.220367
O O14 0.500802 0.500000 0.843409
O O15 0.358816 0.416127 0.843028
O O16 0.000000 0.854523 0.000000
O O17 0.500000 0.567699 0.500000
O O18 0.445020 0.500000 0.567006
#
# Coordination Sequence:
#
# PCOD9224673 Si02
#       8
#     8   4   8   8   8   8   8   8
#     4  10  21  36  58  88 120 160 198 252 309 375
#     4  10  20  36  55  84 117 156 194 240 300 376
#     4  11  27  43  64  90 119 165 212 270 327 379
#     4   9  18  32  58  91 125 166 206 254 309 361
#     4  10  23  38  57  87 120 161 203 247 320 378
#     4   9  18  33  56  89 128 164 201 246 304 382
#     4   9  16  30  53  88 127 163 201 244 297 366
#     4  10  24  44  66  92 122 165 217 269 318 372
#
# _framework density 9.9206350000000008
#
# number of rings (size 3 to 8) (size 9 to 14) (size 15 to 20)
#    0.000    2.267    0.667    0.800    7.467    3.200 
#    0.000    0.333    0.000    0.000    0.000    2.800 
#    0.000    0.000    0.000    0.000    0.000    0.000 
#
# Total GULP energy -167060.556735 kJ/mol
# GULP energy per Si atom -5568.685225 kJ/mol
# Density = 0.989806 g / cm^3
# Si number density = 9.920635 Si / 1000 Ang^3
#
#
#
# Elastic Constant Matrix: (Units=GPa)
#
#
# Indices 1 2 3 4 5 6 
#
# 1 61.6994 37.6272 7.7960 0.0026 -17.5300 0.0009
# 2 37.6272 133.1715 27.7855 0.0024 -14.3976 0.0006
# 3 7.7960 27.7855 37.6629 0.0202 -10.5586 0.0054
# 4 0.0026 0.0024 0.0202 33.6108 0.0003 -0.4240
# 5 -17.5300 -14.3976 -10.5586 0.0003 23.1945 -0.0012
# 6 0.0009 0.0006 0.0054 -0.4240 -0.0012 24.4228
#
#
#
# Elastic Compliance Matrix: (Units=1/GPa)
#
#
# Indices 1 2 3 4 5 6 
#
# 1 0.023856 -0.005799 0.003881 -0.000004 0.016197 -0.000001
# 2 -0.005799 0.010458 -0.006790 0.000004 -0.000982 0.000001
# 3 0.003881 -0.006790 0.034845 -0.000021 0.014580 -0.000007
# 4 -0.000004 0.000004 -0.000021 0.029759 -0.000011 0.000517
# 5 0.016197 -0.000982 0.014580 -0.000011 0.061382 -0.000001
# 6 -0.000001 0.000001 -0.000007 0.000517 -0.000001 0.040954
#
#
# Mechanical properties :
#
#
# Convention : Reuss Voigt Hill
#
# Bulk Modulus (GPa) = 19.32679 42.10570 30.71624
# Shear Modulus (GPa) = 21.19374 26.86728 24.03051
#
# Velocity S-wave (km/s) = 3.27182 3.68382 3.48392
# Velocity P-wave (km/s) = 4.90255 6.27386 5.63011
#
# Compressibility (1/GPa) = 0.05174166
#
# Stress axis : x y z
#
# Youngs Moduli (GPa) = 41.91905 95.61876 28.69841
#
# Poissons Ratio (x) = 0.55449 -0.11137
# Poissons Ratio (y) = 0.24309 0.19487
# Poissons Ratio (z) = -0.16268 0.64929
#
# Static dielectric constant tensor:
#      x y z
#    x 1.692350 0.000000 -0.005160 
#    y 0.000000 1.730010 -0.000010 
#    z -0.005160 -0.000010 1.745750 
# 
# From -- ./inp_files/307317.got.cif
#   From: 2010.05.17/outbox.ucp.g08.bks.cvg/sg12_154_cif.got.tgz:307317.got - 2010.06.11 11:47:21.
