data_PCOD9224292
_publ_section_title
;
Structure prediction by ZEFSAII (Michael W. Deem and Ramdas Pophale) SiO2 
 PCOD9224292
Probable space group: C 2/M
;
_chemical_formula_sum "Si O2"
_cell_formula_units_Z 28
_cell_length_a 18.000000
_cell_length_b 27.000000
_cell_length_c 21.000000
_cell_angle_alpha 90.000000
_cell_angle_beta 160.000000
_cell_angle_gamma 90.000000
_cell_volume 3490.657583
_symmetry_space_group_name_H-M "C 2/M"
_symmetry_group_IT_number 12
_symmetry_cell_setting 'monoclinic'
loop_
_space_group_symop_operation_xyz
x,y,z
-x,y,-z
-x,-y,-z
x,-y,z
1/2+x,1/2+y,z
1/2-x,1/2+y,-z
1/2-x,1/2-y,-z
1/2+x,1/2-y,z
loop_
_atom_site_type_symbol
_atom_site_label
_atom_site_fract_x
_atom_site_fract_y
_atom_site_fract_z
Si Si1 0.691837 0.220049 0.106851
Si Si2 0.879057 0.717441 0.550845
Si Si3 0.612469 0.940661 0.929693
Si Si4 0.892964 0.884787 0.250736
Si Si5 0.102431 0.358414 0.326835
Si Si6 0.725415 0.442906 0.719889
Si Si7 0.995143 0.256245 0.170224
O O1 0.794557 0.169790 0.161273
O O2 0.902726 0.253478 0.295052
O O3 0.500000 0.205437 0.000000
O O4 0.553637 0.248365 0.942736
O O5 0.750000 0.750000 0.500000
O O6 0.940014 0.667329 0.638145
O O7 0.684844 0.717849 0.342925
O O8 0.545411 0.903827 0.817772
O O9 0.419975 0.933877 0.827231
O O10 0.624359 0.000000 0.924921
O O11 0.825556 0.919727 0.137465
O O12 0.787301 0.907829 0.229453
O O13 0.149428 0.877825 0.469718
O O14 0.074232 0.311606 0.255248
O O15 0.500000 0.437781 0.500000
O O16 0.742646 0.500000 0.756143
O O17 0.750000 0.250000 0.000000
#
# Coordination Sequence:
#
# PCOD9224292 Si02
#       7
#     8   8   8   8   8   8   8
#     4  12  23  33  53  83 110 136 181 229 261 309
#     4  10  20  37  53  77 100 139 180 216 271 323
#     4  11  23  35  49  70  99 138 180 225 268 304
#     4  12  21  33  49  73  98 139 184 221 259 305
#     4  11  21  34  56  72  97 137 184 220 257 319
#     4  10  20  34  47  63  98 142 180 225 271 302
#     4  11  19  37  58  73 101 144 181 215 266 331
#
# _framework density 8.0214110000000005
#
# number of rings (size 3 to 8) (size 9 to 14) (size 15 to 20)
#    0.000    1.000    8.571    1.714    0.000    2.286 
#    0.000    0.000    0.000    0.000    0.000    0.000 
#    0.000    0.571    0.000    2.714    0.000    0.000 
#
# Total GULP energy -155973.883858 kJ/mol
# GULP energy per Si atom -5570.495852 kJ/mol
# Density = 0.800315 g / cm^3
# Si number density = 8.021411 Si / 1000 Ang^3
#
#
#
# Elastic Constant Matrix: (Units=GPa)
#
#
# Indices 1 2 3 4 5 6 
#
# 1 5.7955 14.3612 11.5081 -0.0126 -4.4623 -0.0019
# 2 14.3612 87.0379 32.1439 -0.0031 -6.4701 -0.0010
# 3 11.5081 32.1439 115.3834 -0.0667 -10.5134 -0.0162
# 4 -0.0126 -0.0031 -0.0667 26.7960 -0.0084 -3.6553
# 5 -4.4623 -6.4701 -10.5134 -0.0084 23.5046 0.0009
# 6 -0.0019 -0.0010 -0.0162 -3.6553 0.0009 27.4984
#
#
#
# Elastic Compliance Matrix: (Units=1/GPa)
#
#
# Indices 1 2 3 4 5 6 
#
# 1 0.373642 -0.051179 -0.018586 0.000143 0.048535 0.000031
# 2 -0.051179 0.019909 -0.000863 -0.000026 -0.004622 -0.000007
# 3 -0.018586 -0.000863 0.010860 0.000020 0.001092 0.000008
# 4 0.000143 -0.000026 0.000020 0.038008 0.000042 0.005052
# 5 0.048535 -0.004622 0.001092 0.000042 0.050975 0.000008
# 6 0.000031 -0.000007 0.000008 0.005052 0.000008 0.037037
#
#
# Mechanical properties :
#
#
# Convention : Reuss Voigt Hill
#
# Bulk Modulus (GPa) = 3.80004 36.02703 19.91353
# Shear Modulus (GPa) = 6.58408 25.57337 16.07872
#
# Velocity S-wave (km/s) = 2.02805 3.99691 3.16925
# Velocity P-wave (km/s) = 2.80318 6.61861 5.08251
#
# Compressibility (1/GPa) = 0.26315545
#
# Stress axis : x y z
#
# Youngs Moduli (GPa) = 2.67636 50.22903 92.07752
#
# Poissons Ratio (x) = 2.57066 1.71139
# Poissons Ratio (y) = 0.13697 0.07946
# Poissons Ratio (z) = 0.04974 0.04335
#
# Static dielectric constant tensor:
#      x y z
#    x 0.943810 -0.000010 -0.238630 
#    y -0.000010 1.552760 0.000000 
#    z -0.238630 0.000000 1.539620 
# 
# From -- ./inp_files/318533.got.cif
#   From: 2010.05.17/outbox.ucp.g08.bks.cvg/sg12_160_cif.got.tgz:318533.got - 2010.06.11 11:47:21.
