data_PCOD9224143
_publ_section_title
;
Structure prediction by ZEFSAII (Michael W. Deem and Ramdas Pophale) SiO2 
 PCOD9224143
Probable space group: C 2/M
;
_chemical_formula_sum "Si O2"
_cell_formula_units_Z 20
_cell_length_a 15.000000
_cell_length_b 15.000000
_cell_length_c 27.000000
_cell_angle_alpha 90.000000
_cell_angle_beta 160.000000
_cell_angle_gamma 90.000000
_cell_volume 2077.772371
_symmetry_space_group_name_H-M "C 2/M"
_symmetry_group_IT_number 12
_symmetry_cell_setting 'monoclinic'
loop_
_space_group_symop_operation_xyz
x,y,z
-x,y,-z
-x,-y,-z
x,-y,z
1/2+x,1/2+y,z
1/2-x,1/2+y,-z
1/2-x,1/2-y,-z
1/2+x,1/2-y,z
loop_
_atom_site_type_symbol
_atom_site_label
_atom_site_fract_x
_atom_site_fract_y
_atom_site_fract_z
Si Si1 0.418066 0.251571 0.666069
Si Si2 0.224346 0.899791 0.879757
Si Si3 0.863846 0.150203 0.058644
Si Si4 0.146468 0.755996 0.675346
Si Si5 0.969123 0.395550 0.776098
O O1 0.510238 0.329479 0.750759
O O2 0.574737 0.266876 0.696172
O O3 0.462413 0.160321 0.721030
O O4 0.118000 0.257565 0.493299
O O5 0.244546 0.898221 0.949559
O O6 0.165447 0.000000 0.832022
O O7 0.500000 0.872461 0.000000
O O8 0.168067 0.168972 0.226126
O O9 0.750000 0.250000 0.000000
O O10 0.755384 0.108907 0.951446
O O11 0.289526 0.839233 0.721886
O O12 0.894326 0.500000 0.731854
#
# Coordination Sequence:
#
# PCOD9224143 Si02
#       5
#     8   8   8   8   8
#     4  11  23  40  65  94 129 167 210 265 329 374
#     4  11  22  37  63  93 120 161 215 263 314 383
#     4  10  19  38  61  87 125 163 203 257 316 375
#     4  10  23  41  63  90 131 171 207 261 322 384
#     4  11  23  41  69  97 126 170 220 265 317 385
#
# _framework density 9.6256939999999993
#
# number of rings (size 3 to 8) (size 9 to 14) (size 15 to 20)
#    0.000    1.400    4.000    3.600    0.000    4.000 
#    0.000    9.000    0.000    0.000    0.000    0.000 
#    0.000    0.000    0.000    0.000    0.000    0.000 
#
# Total GULP energy -111494.506709 kJ/mol
# GULP energy per Si atom -5574.725335 kJ/mol
# Density = 0.960378 g / cm^3
# Si number density = 9.625694 Si / 1000 Ang^3
#
#
#
# Elastic Constant Matrix: (Units=GPa)
#
#
# Indices 1 2 3 4 5 6 
#
# 1 86.2153 25.9127 33.0701 0.0031 -20.2060 0.0005
# 2 25.9127 101.4032 48.6812 0.0042 -1.7101 -0.0028
# 3 33.0701 48.6812 83.9794 -0.0343 -26.9274 0.0177
# 4 0.0031 0.0042 -0.0343 11.0127 0.0044 4.6089
# 5 -20.2060 -1.7101 -26.9274 0.0044 26.6805 0.0002
# 6 0.0005 -0.0028 0.0177 4.6089 0.0002 16.8520
#
#
#
# Elastic Compliance Matrix: (Units=1/GPa)
#
#
# Indices 1 2 3 4 5 6 
#
# 1 0.015412 -0.003488 -0.000557 -0.000010 0.010887 0.000002
# 2 -0.003488 0.016795 -0.013105 -0.000053 -0.014791 0.000031
# 3 -0.000557 -0.013105 0.028562 0.000109 0.027565 -0.000062
# 4 -0.000010 -0.000053 0.000109 0.102542 0.000082 -0.028044
# 5 0.010887 -0.014791 0.027565 0.000082 0.072597 -0.000055
# 6 0.000002 0.000031 -0.000062 -0.028044 -0.000055 0.067010
#
#
# Mechanical properties :
#
#
# Convention : Reuss Voigt Hill
#
# Bulk Modulus (GPa) = 37.77760 54.10288 45.94024
# Shear Modulus (GPa) = 14.44921 21.83795 18.14358
#
# Velocity S-wave (km/s) = 2.74260 3.37168 3.07327
# Velocity P-wave (km/s) = 5.44931 6.58194 6.04223
#
# Compressibility (1/GPa) = 0.02647071
#
# Stress axis : x y z
#
# Youngs Moduli (GPa) = 64.88400 59.54264 35.01157
#
# Poissons Ratio (x) = 0.20766 0.01949
# Poissons Ratio (y) = 0.22629 0.45882
# Poissons Ratio (z) = 0.03612 0.78029
#
# Static dielectric constant tensor:
#      x y z
#    x 1.709040 0.000000 0.032630 
#    y 0.000000 1.687850 0.000000 
#    z 0.032630 0.000000 1.727810 
# 
# From -- ./inp_files/155760.got.cif
#   From: 2010.05.17/outbox.ucp.g08.bks.cvg/sg12_78_cif.got.tgz:155760.got - 2010.06.11 11:47:21.
