data_PCOD9224707
_publ_section_title
;
Structure prediction by ZEFSAII (Michael W. Deem and Ramdas Pophale) SiO2 
 PCOD9224707
Probable space group: C 2/M
;
_chemical_formula_sum "Si O2"
_cell_formula_units_Z 24
_cell_length_a 21.000000
_cell_length_b 9.000000
_cell_length_c 15.000000
_cell_angle_alpha 90.000000
_cell_angle_beta 90.000000
_cell_angle_gamma 90.000000
_cell_volume 2835.000000
_symmetry_space_group_name_H-M "C 2/M"
_symmetry_group_IT_number 12
_symmetry_cell_setting 'monoclinic'
loop_
_space_group_symop_operation_xyz
x,y,z
-x,y,-z
-x,-y,-z
x,-y,z
1/2+x,1/2+y,z
1/2-x,1/2+y,-z
1/2-x,1/2-y,-z
1/2+x,1/2-y,z
loop_
_atom_site_type_symbol
_atom_site_label
_atom_site_fract_x
_atom_site_fract_y
_atom_site_fract_z
Si Si1 0.499211 0.680122 0.397054
Si Si2 0.753338 0.319091 0.601565
Si Si3 0.075599 0.320400 0.105386
Si Si4 0.575740 0.821071 0.897624
Si Si5 0.875243 0.179357 0.283146
Si Si6 0.627578 0.680498 0.286964
O O1 0.500000 0.732663 0.500000
O O2 0.496621 0.500000 0.400180
O O3 0.436513 0.727941 0.342359
O O4 0.563648 0.717970 0.343798
O O5 0.758693 0.500000 0.594388
O O6 0.750000 0.250000 0.500000
O O7 0.688942 0.286280 0.659889
O O8 0.812656 0.251910 0.659069
O O9 0.082332 0.500000 0.113011
O O10 0.114727 0.243127 0.186209
O O11 0.999789 0.285100 0.115506
O O12 0.092315 0.280162 0.001447
O O13 0.615617 0.748746 0.816151
O O14 0.581670 0.000000 0.892070
O O15 0.877323 0.000000 0.273585
O O16 0.634244 0.500000 0.284017
#
# Coordination Sequence:
#
# PCOD9224707 Si02
#       6
#     8   8   8   8   8   8
#     4   9  17  31  52  78 107 138 178 228 278 328
#     4  11  24  41  60  81 113 154 191 231 281 338
#     4   9  18  34  55  83 118 151 182 224 285 340
#     4   9  18  33  56  84 116 150 182 228 284 337
#     4  10  20  36  57  82 111 147 188 233 282 331
#     4  11  21  35  58  85 113 148 188 233 282 333
#
# _framework density 8.4656079999999996
#
# number of rings (size 3 to 8) (size 9 to 14) (size 15 to 20)
#    0.000    2.167    1.667    3.000    0.000    4.667 
#    0.000    2.500    0.000    2.500    0.000    0.000 
#    0.000    0.000    0.000    0.000    0.000    0.000 
#
# Total GULP energy -133799.896821 kJ/mol
# GULP energy per Si atom -5574.995701 kJ/mol
# Density = 0.844634 g / cm^3
# Si number density = 8.465608 Si / 1000 Ang^3
#
#
#
# Elastic Constant Matrix: (Units=GPa)
#
#
# Indices 1 2 3 4 5 6 
#
# 1 137.7327 41.6265 85.6542 0.0000 2.2526 0.0000
# 2 41.6265 61.0673 54.5449 0.0000 2.3987 0.0000
# 3 85.6542 54.5449 207.3897 0.0000 1.7355 0.0000
# 4 0.0000 0.0000 0.0000 40.8790 0.0000 0.9178
# 5 2.2526 2.3987 1.7355 0.0000 40.3611 0.0000
# 6 0.0000 0.0000 0.0000 0.9178 0.0000 27.2152
#
#
#
# Elastic Compliance Matrix: (Units=1/GPa)
#
#
# Indices 1 2 3 4 5 6 
#
# 1 0.010578 -0.004316 -0.003232 0.000000 -0.000195 0.000000
# 2 -0.004316 0.023207 -0.004313 0.000000 -0.000953 0.000000
# 3 -0.003232 -0.004313 0.007290 0.000000 0.000123 0.000000
# 4 0.000000 0.000000 0.000000 0.024481 0.000000 -0.000826
# 5 -0.000195 -0.000953 0.000123 0.000000 0.024839 0.000000
# 6 0.000000 0.000000 0.000000 -0.000826 0.000000 0.036772
#
#
# Mechanical properties :
#
#
# Convention : Reuss Voigt Hill
#
# Bulk Modulus (GPa) = 57.62705 85.53787 71.58246
# Shear Modulus (GPa) = 31.91345 36.64865 34.28105
#
# Velocity S-wave (km/s) = 4.34624 4.65753 4.50458
# Velocity P-wave (km/s) = 7.70041 8.91930 8.33217
#
# Compressibility (1/GPa) = 0.01735296
#
# Stress axis : x y z
#
# Youngs Moduli (GPa) = 94.53564 43.08991 137.17287
#
# Poissons Ratio (x) = 0.18598 0.44335
# Poissons Ratio (y) = 0.40802 0.59165
# Poissons Ratio (z) = 0.30555 0.18585
#
# Static dielectric constant tensor:
#      x y z
#    x 1.573390 0.000000 -0.001280 
#    y 0.000000 1.575390 0.000000 
#    z -0.001280 0.000000 1.576240 
# 
# From -- ./inp_files/229289.got.cif
#   From: 2010.05.17/outbox.ucp.g08.bks.cvg/sg12_115_cif.got.tgz:229289.got - 2010.06.11 11:47:21.
