data_PCOD9224366
_publ_section_title
;
Structure prediction by ZEFSAII (Michael W. Deem and Ramdas Pophale) SiO2 
 PCOD9224366
Probable space group: C 2/M
;
_chemical_formula_sum "Si O2"
_cell_formula_units_Z 32
_cell_length_a 30.000000
_cell_length_b 9.000000
_cell_length_c 24.000000
_cell_angle_alpha 90.000000
_cell_angle_beta 150.000000
_cell_angle_gamma 90.000000
_cell_volume 3240.000000
_symmetry_space_group_name_H-M "C 2/M"
_symmetry_group_IT_number 12
_symmetry_cell_setting 'monoclinic'
loop_
_space_group_symop_operation_xyz
x,y,z
-x,y,-z
-x,-y,-z
x,-y,z
1/2+x,1/2+y,z
1/2-x,1/2+y,-z
1/2-x,1/2-y,-z
1/2+x,1/2-y,z
loop_
_atom_site_type_symbol
_atom_site_label
_atom_site_fract_x
_atom_site_fract_y
_atom_site_fract_z
Si Si1 0.379068 0.323033 0.015775
Si Si2 0.024425 0.323623 0.785280
Si Si3 0.737635 0.673425 0.270116
Si Si4 0.021519 0.676797 0.650849
Si Si5 0.342595 0.667479 0.591445
Si Si6 0.920589 0.666785 0.957027
Si Si7 0.344460 0.663214 0.460858
Si Si8 0.685660 0.180392 0.758607
O O1 0.390304 0.500000 0.023049
O O2 0.401858 0.265442 0.101155
O O3 0.441374 0.234133 0.039824
O O4 0.278333 0.282511 0.889254
O O5 0.030361 0.500000 0.800523
O O6 0.928512 0.262428 0.701626
O O7 0.034380 0.293532 0.730299
O O8 0.745653 0.500000 0.287996
O O9 0.645866 0.716383 0.142657
O O10 0.754130 0.760326 0.344129
O O11 0.807726 0.724499 0.298560
O O12 0.018971 0.500000 0.641739
O O13 0.101773 0.738603 0.701187
O O14 0.927165 0.739950 0.530982
O O15 0.343525 0.500000 0.616095
O O16 0.250000 0.750000 0.500000
O O17 0.350369 0.655442 0.533254
O O18 0.882022 0.500000 0.921594
O O19 0.000000 0.656134 0.000000
O O20 0.349018 0.500000 0.441833
O O21 0.682246 0.000000 0.754838
#
# Coordination Sequence:
#
# PCOD9224366 Si02
#       8
#     8   8   8   8   8   8   8   8
#     4  10  20  35  55  78 107 141 175 213 258 310
#     4  10  20  34  54  79 106 138 176 216 259 308
#     4  10  20  35  56  79 105 139 176 213 256 309
#     4   9  18  35  56  76 103 139 177 215 257 308
#     4  10  21  37  56  77 104 137 173 217 264 311
#     4  10  21  37  56  78 106 137 171 216 264 307
#     4  10  21  36  53  77 108 137 170 215 263 308
#     4   8  17  34  54  77 104 136 175 216 257 303
#
# _framework density 9.8765429999999999
#
# number of rings (size 3 to 8) (size 9 to 14) (size 15 to 20)
#    0.000    2.375    0.000    3.000    0.000    5.000 
#    0.000    7.500    0.000    0.000    0.000    0.000 
#    0.000    0.000    0.000    0.000    0.000    0.000 
#
# Total GULP energy -178205.049585 kJ/mol
# GULP energy per Si atom -5568.907800 kJ/mol
# Density = 0.985406 g / cm^3
# Si number density = 9.876543 Si / 1000 Ang^3
#
#
#
# Elastic Constant Matrix: (Units=GPa)
#
#
# Indices 1 2 3 4 5 6 
#
# 1 28.7399 29.0762 6.4877 0.0000 19.2123 0.0000
# 2 29.0762 -44.1112 -6.8202 0.0000 -40.1659 0.0000
# 3 6.4877 -6.8202 38.2006 0.0000 -21.3580 0.0000
# 4 0.0000 0.0000 0.0000 17.3731 0.0000 31.4852
# 5 19.2123 -40.1659 -21.3580 0.0000 11.3416 0.0000
# 6 0.0000 0.0000 0.0000 31.4852 0.0000 -116.4090
#
#
#
# Elastic Compliance Matrix: (Units=1/GPa)
#
#
# Indices 1 2 3 4 5 6 
#
# 1 0.021367 0.011051 0.000189 0.000000 0.003299 0.000000
# 2 0.011051 0.006030 -0.012740 0.000000 -0.021356 0.000000
# 3 0.000189 -0.012740 0.029016 0.000000 0.009201 0.000000
# 4 0.000000 0.000000 0.000000 0.038627 0.000000 0.010447
# 5 0.003299 -0.021356 0.009201 0.000000 0.024279 0.000000
# 6 0.000000 0.000000 0.000000 0.010447 0.000000 -0.005765
#
#
# Mechanical properties :
#
#
# Convention : Reuss Voigt Hill
#
# Bulk Modulus (GPa) = 18.72260 8.92406 13.82333
# Shear Modulus (GPa) = 37.21379 -17.93316 9.64031
#
# Velocity S-wave (km/s) = 4.34516 -3.01635 2.21156
# Velocity P-wave (km/s) = 5.88836 2.75745 3.67894
#
# Compressibility (1/GPa) = 0.05341139
#
# Stress axis : x y z
#
# Youngs Moduli (GPa) = 46.80192 165.82474 34.46431
#
# Poissons Ratio (x) = -1.83258 -0.00650
# Poissons Ratio (y) = -0.51722 0.43909
# Poissons Ratio (z) = -0.00882 2.11268
#
# Static dielectric constant tensor:
#      x y z
#    x 1.636060 0.000000 0.170570 
#    y 0.000000 1.717720 0.000000 
#    z 0.170570 0.000000 1.385550 
# 
# From -- ./inp_files/249797.got.cif
#   From: 2010.05.17/outbox.ucp.g08.bks.cvg/sg12_125_cif.got.tgz:249797.got - 2010.06.11 11:47:21.
