data_PCOD9224851
_publ_section_title
;
Structure prediction by ZEFSAII (Michael W. Deem and Ramdas Pophale) SiO2 
 PCOD9224851
Probable space group: C 2/M
;
_chemical_formula_sum "Si O2"
_cell_formula_units_Z 32
_cell_length_a 18.000000
_cell_length_b 9.000000
_cell_length_c 30.000000
_cell_angle_alpha 90.000000
_cell_angle_beta 40.000000
_cell_angle_gamma 90.000000
_cell_volume 3123.947783
_symmetry_space_group_name_H-M "C 2/M"
_symmetry_group_IT_number 12
_symmetry_cell_setting 'monoclinic'
loop_
_space_group_symop_operation_xyz
x,y,z
-x,y,-z
-x,-y,-z
x,-y,z
1/2+x,1/2+y,z
1/2-x,1/2+y,-z
1/2-x,1/2-y,-z
1/2+x,1/2-y,z
loop_
_atom_site_type_symbol
_atom_site_label
_atom_site_fract_x
_atom_site_fract_y
_atom_site_fract_z
Si Si1 0.529071 0.174376 0.290401
Si Si2 0.405781 0.179877 0.189092
Si Si3 0.625438 0.326248 0.058068
Si Si4 0.114670 0.667840 0.975472
Si Si5 0.886850 0.331042 0.535312
Si Si6 0.181053 0.327098 0.677723
Si Si7 0.367875 0.834368 0.441390
Si Si8 0.232742 0.677554 0.835106
O O1 0.443999 0.184400 0.287570
O O2 0.458565 0.230836 0.365669
O O3 0.640061 0.272332 0.233937
O O4 0.559765 0.000000 0.282708
O O5 0.533239 0.248731 0.132632
O O6 0.329892 0.226970 0.266478
O O7 0.347274 0.226459 0.169377
O O8 0.414645 0.000000 0.185587
O O9 0.630135 0.500000 0.063969
O O10 0.750000 0.250000 0.000000
O O11 0.586841 0.283861 0.026200
O O12 0.145220 0.500000 0.978417
O O13 0.204534 0.728504 0.898141
O O14 0.000000 0.648877 0.000000
O O15 0.882007 0.500000 0.555398
O O16 0.771116 0.255070 0.604830
O O17 0.908188 0.341424 0.473187
O O18 0.000000 0.248245 0.500000
O O19 0.213545 0.500000 0.664040
O O20 0.250000 0.750000 0.500000
O O21 0.343826 0.000000 0.434918
O O22 0.219830 0.500000 0.843093
#
# Coordination Sequence:
#
# PCOD9224851 Si02
#       8
#     8   8   8   8   8   8   8   8
#     4  10  22  38  57  86 120 152 195 248 298 345
#     4  10  22  43  63  86 122 161 199 243 299 356
#     4  12  26  42  64  93 123 160 205 250 300 358
#     4  10  20  41  67  89 121 159 198 250 304 355
#     4  10  22  38  58  85 117 154 195 241 297 354
#     4  10  22  40  61  85 117 156 198 245 294 350
#     4  10  20  37  59  82 112 151 193 242 294 348
#     4  10  22  39  62  89 119 157 198 239 293 357
#
# _framework density 10.243449
#
# number of rings (size 3 to 8) (size 9 to 14) (size 15 to 20)
#    0.000    1.750    2.500    1.125    3.500    3.000 
#    0.000    0.000    0.000    0.000    0.000    0.000 
#    0.000    0.000    0.000    0.000    0.000    0.000 
#
# Total GULP energy -178280.238768 kJ/mol
# GULP energy per Si atom -5571.257462 kJ/mol
# Density = 1.022013 g / cm^3
# Si number density = 10.243449 Si / 1000 Ang^3
#
#
#
# Elastic Constant Matrix: (Units=GPa)
#
#
# Indices 1 2 3 4 5 6 
#
# 1 31.2697 6.3056 5.6291 0.0000 -0.3995 0.0000
# 2 6.3056 3.8205 5.6839 0.0011 4.2519 0.0006
# 3 5.6291 5.6839 102.8164 -0.0001 8.1925 -0.0002
# 4 0.0000 0.0011 -0.0001 31.1967 -0.0001 77.7047
# 5 -0.3995 4.2519 8.1925 -0.0001 22.6143 -0.0003
# 6 0.0000 0.0006 -0.0002 77.7047 -0.0003 196.1021
#
#
#
# Elastic Compliance Matrix: (Units=1/GPa)
#
#
# Indices 1 2 3 4 5 6 
#
# 1 0.056523 -0.121831 0.001787 0.000263 0.023258 -0.000104
# 2 -0.121831 0.613580 -0.018418 -0.001326 -0.110845 0.000523
# 3 0.001787 -0.018418 0.010676 0.000042 -0.000373 -0.000016
# 4 0.000263 -0.001326 0.000042 2.459578 0.000237 -0.974598
# 5 0.023258 -0.110845 -0.000373 0.000237 0.065607 -0.000093
# 6 -0.000104 0.000523 -0.000016 -0.974598 -0.000093 0.391280
#
#
# Mechanical properties :
#
#
# Convention : Reuss Voigt Hill
#
# Bulk Modulus (GPa) = 2.47613 19.23823 10.85718
# Shear Modulus (GPa) = 1.24726 58.00183 29.62455
#
# Velocity S-wave (km/s) = 0.78111 5.32664 3.80679
# Velocity P-wave (km/s) = 1.42294 6.87326 4.96319
#
# Compressibility (1/GPa) = 0.40385669
#
# Stress axis : x y z
#
# Youngs Moduli (GPa) = 17.69201 1.62978 93.66695
#
# Poissons Ratio (x) = 0.19856 -0.16741
# Poissons Ratio (y) = 2.15543 1.72513
# Poissons Ratio (z) = -0.03162 0.03002
#
# Static dielectric constant tensor:
#      x y z
#    x 1.779870 0.000000 -0.016190 
#    y 0.000000 1.771330 0.000000 
#    z -0.016190 0.000000 1.707410 
# 
# From -- ./inp_files/377962.got.cif
#   From: 2010.05.17/outbox.ucp.g08.bks.cvg/sg12_189_cif.got.tgz:377962.got - 2010.06.11 11:47:21.
