data_PCOD9224456
_publ_section_title
;
Structure prediction by ZEFSAII (Michael W. Deem and Ramdas Pophale) SiO2 
 PCOD9224456
Probable space group: C 2/M
;
_chemical_formula_sum "Si O2"
_cell_formula_units_Z 28
_cell_length_a 18.000000
_cell_length_b 9.000000
_cell_length_c 18.000000
_cell_angle_alpha 90.000000
_cell_angle_beta 110.000000
_cell_angle_gamma 90.000000
_cell_volume 2740.143682
_symmetry_space_group_name_H-M "C 2/M"
_symmetry_group_IT_number 12
_symmetry_cell_setting 'monoclinic'
loop_
_space_group_symop_operation_xyz
x,y,z
-x,y,-z
-x,-y,-z
x,-y,z
1/2+x,1/2+y,z
1/2-x,1/2+y,-z
1/2-x,1/2-y,-z
1/2+x,1/2-y,z
loop_
_atom_site_type_symbol
_atom_site_label
_atom_site_fract_x
_atom_site_fract_y
_atom_site_fract_z
Si Si1 0.185032 0.172450 0.843211
Si Si2 0.319527 0.821169 0.473865
Si Si3 0.372728 0.178544 0.328453
Si Si4 0.844120 0.822732 0.895021
Si Si5 0.561952 0.675902 0.931691
Si Si6 0.573254 0.678100 0.222168
Si Si7 0.045109 0.180101 0.382195
O O1 0.159691 0.268099 0.762596
O O2 0.272458 0.220856 0.892780
O O3 0.136020 0.192326 0.901988
O O4 0.176922 0.000000 0.819072
O O5 0.250000 0.750000 0.500000
O O6 0.321328 0.787220 0.385567
O O7 0.398597 0.755558 0.538080
O O8 0.316206 0.000000 0.479554
O O9 0.456620 0.261792 0.364297
O O10 0.383218 0.000000 0.330858
O O11 0.854370 0.802030 0.809577
O O12 0.830838 0.000000 0.901872
O O13 0.914702 0.780742 0.976421
O O14 0.541823 0.500000 0.931096
O O15 0.494730 0.743208 0.855036
O O16 0.560636 0.500000 0.224349
O O17 0.571733 0.727927 0.306947
O O18 0.049223 0.000000 0.388576
#
# Coordination Sequence:
#
# PCOD9224456 Si02
#       7
#     8   8   8   8   8   8   8
#     4  11  22  37  58  86 122 158 200 253 303 358
#     4  11  26  45  66  94 126 157 197 247 301 363
#     4  11  24  43  65  89 120 160 205 249 297 361
#     4  10  20  34  58  86 118 160 203 249 301 355
#     4   9  17  34  58  85 115 156 206 250 295 352
#     4   9  18  34  58  88 119 153 199 246 290 348
#     4  11  22  40  66  94 126 161 200 247 299 357
#
# _framework density 10.218442
#
# number of rings (size 3 to 8) (size 9 to 14) (size 15 to 20)
#    0.000    1.714    1.429    3.000    2.000    5.714 
#    0.000    1.429    0.000    0.857    0.000    0.000 
#    0.000    0.000    0.000    0.000    0.000    0.000 
#
# Total GULP energy -156089.774456 kJ/mol
# GULP energy per Si atom -5574.634802 kJ/mol
# Density = 1.019518 g / cm^3
# Si number density = 10.218442 Si / 1000 Ang^3
#
#
#
# Elastic Constant Matrix: (Units=GPa)
#
#
# Indices 1 2 3 4 5 6 
#
# 1 34.3808 16.5826 0.6656 0.0000 -6.0723 0.0000
# 2 16.5826 44.7982 13.3948 0.0000 -16.9649 0.0000
# 3 0.6656 13.3948 92.3025 0.0000 -21.2476 0.0000
# 4 0.0000 0.0000 0.0000 26.7537 0.0000 0.0498
# 5 -6.0723 -16.9649 -21.2476 0.0000 36.2151 0.0000
# 6 0.0000 0.0000 0.0000 0.0498 0.0000 28.7476
#
#
#
# Elastic Compliance Matrix: (Units=1/GPa)
#
#
# Indices 1 2 3 4 5 6 
#
# 1 0.035687 -0.013479 0.001876 0.000000 0.000770 0.000000
# 2 -0.013479 0.032337 -0.001883 0.000000 0.011783 0.000000
# 3 0.001876 -0.001883 0.012675 0.000000 0.006869 0.000000
# 4 0.000000 0.000000 0.000000 0.037378 0.000000 -0.000065
# 5 0.000770 0.011783 0.006869 0.000000 0.037292 0.000000
# 6 0.000000 0.000000 0.000000 -0.000065 0.000000 0.034786
#
#
# Mechanical properties :
#
#
# Convention : Reuss Voigt Hill
#
# Bulk Modulus (GPa) = 18.61278 25.86306 22.23792
# Shear Modulus (GPa) = 21.27331 27.73252 24.50292
#
# Velocity S-wave (km/s) = 3.22984 3.68772 3.46635
# Velocity P-wave (km/s) = 4.79962 5.55112 5.18899
#
# Compressibility (1/GPa) = 0.05372652
#
# Stress axis : x y z
#
# Youngs Moduli (GPa) = 28.02134 30.92411 78.89634
#
# Poissons Ratio (x) = 0.41684 -0.14801
# Poissons Ratio (y) = 0.37771 0.14857
# Poissons Ratio (z) = -0.05257 0.05823
#
# Static dielectric constant tensor:
#      x y z
#    x 1.880530 0.000000 0.012670 
#    y 0.000000 1.675290 0.000000 
#    z 0.012670 0.000000 1.734430 
# 
# From -- ./inp_files/275667.got.cif
#   From: 2010.05.17/outbox.ucp.g08.bks.cvg/sg12_138_cif.got.tgz:275667.got - 2010.06.11 11:47:21.
