data_PCOD9224078
_publ_section_title
;
Structure prediction by ZEFSAII (Michael W. Deem and Ramdas Pophale) SiO2 
 PCOD9224078
Probable space group: C 2/M
;
_chemical_formula_sum "Si O2"
_cell_formula_units_Z 24
_cell_length_a 21.000000
_cell_length_b 9.000000
_cell_length_c 21.000000
_cell_angle_alpha 90.000000
_cell_angle_beta 140.000000
_cell_angle_gamma 90.000000
_cell_volume 2551.224023
_symmetry_space_group_name_H-M "C 2/M"
_symmetry_group_IT_number 12
_symmetry_cell_setting 'monoclinic'
loop_
_space_group_symop_operation_xyz
x,y,z
-x,y,-z
-x,-y,-z
x,-y,z
1/2+x,1/2+y,z
1/2-x,1/2+y,-z
1/2-x,1/2-y,-z
1/2+x,1/2-y,z
loop_
_atom_site_type_symbol
_atom_site_label
_atom_site_fract_x
_atom_site_fract_y
_atom_site_fract_z
Si Si1 0.271239 0.178016 0.674582
Si Si2 0.669611 0.824035 0.484938
Si Si3 0.769453 0.179899 0.212099
Si Si4 0.024135 0.827376 0.197674
Si Si5 0.966381 0.176942 0.292125
Si Si6 0.570675 0.825627 0.992616
O O1 0.190437 0.259016 0.570343
O O2 0.257421 0.226129 0.737050
O O3 0.376907 0.228530 0.727791
O O4 0.262966 0.000000 0.664098
O O5 0.750000 0.750000 0.500000
O O6 0.562179 0.770075 0.382824
O O7 0.680625 0.000000 0.491080
O O8 0.872983 0.227886 0.261705
O O9 0.679615 0.219294 0.097490
O O10 0.771782 0.000000 0.215710
O O11 0.957528 0.805862 0.209278
O O12 0.054396 0.000000 0.219568
O O13 0.966640 0.778821 0.091275
O O14 0.982897 0.000000 0.316797
O O15 0.568763 0.000000 0.971253
O O16 0.500000 0.815539 0.000000
#
# Coordination Sequence:
#
# PCOD9224078 Si02
#       6
#     8   8   8   8   8   8
#     4  11  21  38  64  89 116 154 202 245 289 348
#     4  12  24  39  61  90 120 154 198 244 296 352
#     4   9  20  39  62  87 117 159 201 243 291 351
#     4  11  22  35  57  89 121 154 196 247 298 350
#     4  10  22  41  61  85 121 159 198 241 296 354
#     4  10  19  36  61  87 115 154 205 247 288 349
#
# _framework density 9.4072490000000002
#
# number of rings (size 3 to 8) (size 9 to 14) (size 15 to 20)
#    0.000    1.500    3.333    2.500    0.000    2.333 
#    0.000    5.833    0.000    0.000    0.000    0.000 
#    0.000    0.000    0.000    0.000    0.000    0.000 
#
# Total GULP energy -133956.889194 kJ/mol
# GULP energy per Si atom -5581.537050 kJ/mol
# Density = 0.938584 g / cm^3
# Si number density = 9.407249 Si / 1000 Ang^3
#
#
#
# Elastic Constant Matrix: (Units=GPa)
#
#
# Indices 1 2 3 4 5 6 
#
# 1 54.0813 17.0631 11.6052 0.0000 13.9246 0.0000
# 2 17.0631 55.5466 15.4474 0.0000 3.5147 0.0000
# 3 11.6052 15.4474 60.7862 0.0000 3.7744 0.0000
# 4 0.0000 0.0000 0.0000 23.9306 0.0000 3.1704
# 5 13.9246 3.5147 3.7744 0.0000 26.8923 0.0000
# 6 0.0000 0.0000 0.0000 3.1704 0.0000 17.2597
#
#
#
# Elastic Compliance Matrix: (Units=1/GPa)
#
#
# Indices 1 2 3 4 5 6 
#
# 1 0.023746 -0.005938 -0.002329 0.000000 -0.011192 0.000000
# 2 -0.005938 0.020949 -0.004248 0.000000 0.000933 0.000000
# 3 -0.002329 -0.004248 0.018023 0.000000 -0.000768 0.000000
# 4 0.000000 0.000000 0.000000 0.042830 0.000000 -0.007867
# 5 -0.011192 0.000933 -0.000768 0.000000 0.042967 0.000000
# 6 0.000000 0.000000 0.000000 -0.007867 0.000000 0.059384
#
#
# Mechanical properties :
#
#
# Convention : Reuss Voigt Hill
#
# Bulk Modulus (GPa) = 26.53457 28.73840 27.63648
# Shear Modulus (GPa) = 20.36723 22.03640 21.20182
#
# Velocity S-wave (km/s) = 3.29375 3.42606 3.36056
# Velocity P-wave (km/s) = 5.34780 5.56402 5.45698
#
# Compressibility (1/GPa) = 0.03768669
#
# Stress axis : x y z
#
# Youngs Moduli (GPa) = 42.11250 47.73401 55.48447
#
# Poissons Ratio (x) = 0.28346 0.12925
# Poissons Ratio (y) = 0.25008 0.23570
# Poissons Ratio (z) = 0.09810 0.20277
#
# Static dielectric constant tensor:
#      x y z
#    x 1.676860 0.000000 -0.009190 
#    y 0.000000 1.630880 0.000000 
#    z -0.009190 0.000000 1.755760 
# 
# From -- ./inp_files/229915.got.cif
#   From: 2010.05.17/outbox.ucp.g08.bks.cvg/sg12_115_cif.got.tgz:229915.got - 2010.06.11 11:47:21.
