data_PCOD9224669
_publ_section_title
;
Structure prediction by ZEFSAII (Michael W. Deem and Ramdas Pophale) SiO2 
 PCOD9224669
Probable space group: C 2/M
;
_chemical_formula_sum "Si O2"
_cell_formula_units_Z 32
_cell_length_a 30.000000
_cell_length_b 9.000000
_cell_length_c 18.000000
_cell_angle_alpha 90.000000
_cell_angle_beta 40.000000
_cell_angle_gamma 90.000000
_cell_volume 3123.947783
_symmetry_space_group_name_H-M "C 2/M"
_symmetry_group_IT_number 12
_symmetry_cell_setting 'monoclinic'
loop_
_space_group_symop_operation_xyz
x,y,z
-x,y,-z
-x,-y,-z
x,-y,z
1/2+x,1/2+y,z
1/2-x,1/2+y,-z
1/2-x,1/2-y,-z
1/2+x,1/2-y,z
loop_
_atom_site_type_symbol
_atom_site_label
_atom_site_fract_x
_atom_site_fract_y
_atom_site_fract_z
Si Si1 0.831739 0.677869 0.208527
Si Si2 0.783048 0.833944 0.754783
Si Si3 0.911420 0.332486 0.843655
Si Si4 0.937346 0.176316 0.958697
Si Si5 0.924660 0.334855 0.392125
Si Si6 0.298246 0.825731 0.879207
Si Si7 0.942042 0.833293 0.520557
Si Si8 0.411221 0.180600 0.249822
O O1 0.842101 0.500000 0.191043
O O2 0.755122 0.707927 0.273107
O O3 0.852376 0.720384 0.265684
O O4 0.887266 0.757066 0.084879
O O5 0.768652 0.722248 0.838370
O O6 0.866160 0.840040 0.652440
O O7 0.757840 0.000000 0.805378
O O8 0.886744 0.500000 0.895221
O O9 0.903816 0.222899 0.922422
O O10 0.874978 0.286121 0.813086
O O11 0.993377 0.343779 0.728646
O O12 0.014103 0.249550 0.866215
O O13 0.943513 0.000000 0.956797
O O14 0.896716 0.500000 0.441057
O O15 0.923680 0.243153 0.467380
O O16 0.892995 0.271195 0.356936
O O17 0.294706 0.000000 0.886578
O O18 0.250000 0.750000 0.000000
O O19 0.000000 0.761540 0.500000
O O20 0.967794 0.000000 0.471553
O O21 0.419522 0.000000 0.241404
#
# Coordination Sequence:
#
# PCOD9224669 Si02
#       8
#     8   8   8   8   8   8   8   8
#     4  10  20  36  55  72 101 147 187 218 258 315
#     4  10  22  38  55  78 107 141 183 223 262 317
#     4   9  19  35  52  73 104 142 180 214 257 320
#     4  11  21  31  50  82 113 139 174 222 270 313
#     4   9  18  34  56  79 100 127 172 222 260 306
#     4  11  22  35  53  77 107 143 179 216 261 313
#     4  10  21  37  57  81 109 138 168 212 272 326
#     4   9  19  36  56  77 104 142 184 219 258 314
#
# _framework density 10.243449
#
# number of rings (size 3 to 8) (size 9 to 14) (size 15 to 20)
#    0.000    2.125    0.000    4.125    0.000    9.250 
#    0.000    0.625    0.000    0.000    0.000    0.000 
#    0.000    0.000    0.000    0.000    0.000    0.000 
#
# Total GULP energy -178182.643043 kJ/mol
# GULP energy per Si atom -5568.207595 kJ/mol
# Density = 1.022013 g / cm^3
# Si number density = 10.243449 Si / 1000 Ang^3
#
#
#
# Elastic Constant Matrix: (Units=GPa)
#
#
# Indices 1 2 3 4 5 6 
#
# 1 162.7888 47.4299 16.1068 -0.0024 5.5836 -0.0010
# 2 47.4299 14.1029 10.5968 0.0009 12.5367 0.0025
# 3 16.1068 10.5968 13.9412 -0.0005 7.7723 0.0023
# 4 -0.0024 0.0009 -0.0005 13.6571 -0.0004 17.9479
# 5 5.5836 12.5367 7.7723 -0.0004 23.5252 -0.0009
# 6 -0.0010 0.0025 0.0023 17.9479 -0.0009 42.6050
#
#
#
# Elastic Compliance Matrix: (Units=1/GPa)
#
#
# Indices 1 2 3 4 5 6 
#
# 1 -0.004804 0.046472 -0.020351 -0.000006 -0.016901 0.000000
# 2 0.046472 -0.183510 0.045875 0.000023 0.071608 0.000001
# 3 -0.020351 0.045875 0.087408 0.000016 -0.048495 -0.000015
# 4 -0.000006 0.000023 0.000016 0.164033 -0.000016 -0.069101
# 5 -0.016901 0.071608 -0.048495 -0.000016 0.024381 0.000005
# 6 0.000000 0.000001 -0.000015 -0.069101 0.000005 0.052581
#
#
# Mechanical properties :
#
#
# Convention : Reuss Voigt Hill
#
# Bulk Modulus (GPa) = 23.20925 37.67777 30.44351
# Shear Modulus (GPa) = 478.03643 23.73743 250.88693
#
# Velocity S-wave (km/s) = 15.29196 3.40761 11.07827
# Velocity P-wave (km/s) = 17.97625 5.82353 13.36150
#
# Compressibility (1/GPa) = 0.04308626
#
# Stress axis : x y z
#
# Youngs Moduli (GPa) = -208.16909 -5.44929 11.44057
#
# Poissons Ratio (x) = 0.25324 0.23283
# Poissons Ratio (y) = 9.67405 -0.52484
# Poissons Ratio (z) = -4.23648 0.24999
#
# Static dielectric constant tensor:
#      x y z
#    x 1.850980 0.000010 0.017970 
#    y 0.000010 1.698520 0.000000 
#    z 0.017970 0.000000 1.834030 
# 
# From -- ./inp_files/295490.got.cif
#   From: 2010.05.17/outbox.ucp.g08.bks.cvg/sg12_148_cif.got.tgz:295490.got - 2010.06.11 11:47:21.
