data_PCOD9224389
_publ_section_title
;
Structure prediction by ZEFSAII (Michael W. Deem and Ramdas Pophale) SiO2 
 PCOD9224389
Probable space group: C 2/M
;
_chemical_formula_sum "Si O2"
_cell_formula_units_Z 24
_cell_length_a 27.000000
_cell_length_b 9.000000
_cell_length_c 21.000000
_cell_angle_alpha 90.000000
_cell_angle_beta 30.000000
_cell_angle_gamma 90.000000
_cell_volume 2551.500000
_symmetry_space_group_name_H-M "C 2/M"
_symmetry_group_IT_number 12
_symmetry_cell_setting 'monoclinic'
loop_
_space_group_symop_operation_xyz
x,y,z
-x,y,-z
-x,-y,-z
x,-y,z
1/2+x,1/2+y,z
1/2-x,1/2+y,-z
1/2-x,1/2-y,-z
1/2+x,1/2-y,z
loop_
_atom_site_type_symbol
_atom_site_label
_atom_site_fract_x
_atom_site_fract_y
_atom_site_fract_z
Si Si1 0.133058 0.176372 0.283171
Si Si2 0.813361 0.821305 0.489240
Si Si3 0.544433 0.679131 0.248018
Si Si4 0.141088 0.676864 0.018355
Si Si5 0.592484 0.676575 0.944289
Si Si6 0.789570 0.180119 0.667232
O O1 0.063904 0.229132 0.300416
O O2 0.137153 0.227620 0.353898
O O3 0.113123 0.000000 0.310090
O O4 0.244042 0.198330 0.130740
O O5 0.750000 0.750000 0.500000
O O6 0.796668 0.776611 0.583612
O O7 0.931427 0.792188 0.351517
O O8 0.797000 0.000000 0.504309
O O9 0.560161 0.500000 0.229661
O O10 0.614769 0.754003 0.116447
O O11 0.122719 0.500000 0.039983
O O12 0.079945 0.754212 0.028894
O O13 0.611915 0.500000 0.928996
O O14 0.684902 0.759118 0.808782
O O15 0.500000 0.696186 0.000000
O O16 0.793212 0.000000 0.663494
#
# Coordination Sequence:
#
# PCOD9224389 Si02
#       6
#     8   8   8   8   8   8
#     4   8  16  33  57  83 110 139 179 229 278 326
#     4  10  23  39  56  79 110 148 188 228 271 321
#     4  10  20  35  56  82 112 148 185 225 273 324
#     4  10  20  34  54  83 115 145 179 223 274 329
#     4  10  21  35  54  80 108 142 183 227 275 325
#     4   9  19  37  57  80 108 141 183 228 275 324
#
# _framework density 9.4062319999999993
#
# number of rings (size 3 to 8) (size 9 to 14) (size 15 to 20)
#    0.000    2.500    0.000    2.500    2.333    3.333 
#    0.000    6.667    0.000    0.000    0.000    7.000 
#    0.000    0.000    0.000    0.000    0.000    0.000 
#
# Total GULP energy -133616.950253 kJ/mol
# GULP energy per Si atom -5567.372927 kJ/mol
# Density = 0.938482 g / cm^3
# Si number density = 9.406232 Si / 1000 Ang^3
#
#
#
# Elastic Constant Matrix: (Units=GPa)
#
#
# Indices 1 2 3 4 5 6 
#
# 1 191.6072 33.0793 32.3596 -0.0027 17.3701 0.0005
# 2 33.0793 31.1496 12.8519 0.0029 3.5338 -0.0010
# 3 32.3596 12.8519 41.2931 0.0022 20.3725 0.0001
# 4 -0.0027 0.0029 0.0022 20.8266 -0.0006 7.2873
# 5 17.3701 3.5338 20.3725 -0.0006 40.4270 -0.0001
# 6 0.0005 -0.0010 0.0001 7.2873 -0.0001 36.1942
#
#
#
# Elastic Compliance Matrix: (Units=1/GPa)
#
#
# Indices 1 2 3 4 5 6 
#
# 1 0.006836 -0.005882 -0.003102 0.000002 -0.000860 -0.000001
# 2 -0.005882 0.042250 -0.010600 -0.000006 0.004176 0.000003
# 3 -0.003102 -0.010600 0.038373 -0.000003 -0.017078 0.000000
# 4 0.000002 -0.000006 -0.000003 0.051654 0.000002 -0.010400
# 5 -0.000860 0.004176 -0.017078 0.000002 0.033346 0.000000
# 6 -0.000001 0.000003 0.000000 -0.010400 0.000000 0.029723
#
#
# Mechanical properties :
#
#
# Convention : Reuss Voigt Hill
#
# Bulk Modulus (GPa) = 20.70857 46.73683 33.72270
# Shear Modulus (GPa) = 19.42131 31.87350 25.64741
#
# Velocity S-wave (km/s) = 3.21653 4.12062 3.69632
# Velocity P-wave (km/s) = 4.98262 6.89470 6.01512
#
# Compressibility (1/GPa) = 0.04828919
#
# Stress axis : x y z
#
# Youngs Moduli (GPa) = 146.27463 23.66878 26.05997
#
# Poissons Ratio (x) = 0.13923 0.08085
# Poissons Ratio (y) = 0.86045 0.27624
# Poissons Ratio (z) = 0.45381 0.25089
#
# Static dielectric constant tensor:
#      x y z
#    x 1.696450 0.000000 -0.005780 
#    y 0.000000 1.635170 0.000000 
#    z -0.005780 0.000000 1.677630 
# 
# From -- ./inp_files/327153.got.cif
#   From: 2010.05.17/outbox.ucp.g08.bks.cvg/sg12_164_cif.got.tgz:327153.got - 2010.06.11 11:47:21.
