data_PCOD9224269
_publ_section_title
;
Structure prediction by ZEFSAII (Michael W. Deem and Ramdas Pophale) SiO2 
 PCOD9224269
Probable space group: C 2/M
;
_chemical_formula_sum "Si O2"
_cell_formula_units_Z 28
_cell_length_a 27.000000
_cell_length_b 9.000000
_cell_length_c 18.000000
_cell_angle_alpha 90.000000
_cell_angle_beta 40.000000
_cell_angle_gamma 90.000000
_cell_volume 2811.553005
_symmetry_space_group_name_H-M "C 2/M"
_symmetry_group_IT_number 12
_symmetry_cell_setting 'monoclinic'
loop_
_space_group_symop_operation_xyz
x,y,z
-x,y,-z
-x,-y,-z
x,-y,z
1/2+x,1/2+y,z
1/2-x,1/2+y,-z
1/2-x,1/2-y,-z
1/2+x,1/2-y,z
loop_
_atom_site_type_symbol
_atom_site_label
_atom_site_fract_x
_atom_site_fract_y
_atom_site_fract_z
Si Si1 0.346994 0.326483 0.272711
Si Si2 0.578588 0.821529 0.947531
Si Si3 0.831518 0.824371 0.723285
Si Si4 0.664748 0.175077 0.992028
Si Si5 0.098023 0.179034 0.203592
Si Si6 0.672170 0.173272 0.434856
Si Si7 0.065267 0.178383 0.677546
O O1 0.368223 0.500000 0.235266
O O2 0.361502 0.229702 0.182888
O O3 0.254733 0.321420 0.382369
O O4 0.396239 0.272224 0.287837
O O5 0.602526 0.768337 0.001896
O O6 0.575932 0.000000 0.955076
O O7 0.500000 0.766414 0.000000
O O8 0.746816 0.812199 0.857177
O O9 0.888125 0.774442 0.726313
O O10 0.830625 0.737199 0.646209
O O11 0.846352 0.000000 0.691135
O O12 0.650697 0.000000 0.022073
O O13 0.661184 0.260971 0.073394
O O14 0.019501 0.228213 0.252037
O O15 0.100276 0.000000 0.202446
O O16 0.617911 0.268746 0.549696
O O17 0.649521 0.000000 0.457976
O O18 0.063763 0.000000 0.683699
#
# Coordination Sequence:
#
# PCOD9224269 Si02
#       7
#     8   8   8   8   8   8   8
#     4  10  21  37  57  83 113 146 188 231 278 334
#     4  10  20  33  53  83 117 152 186 223 275 336
#     4  10  21  39  60  83 113 151 190 229 280 339
#     4  10  20  35  56  83 115 150 186 227 280 332
#     4  10  22  38  59  85 112 148 192 232 278 337
#     4  11  23  38  59  87 112 145 193 237 280 333
#     4  10  22  40  59  82 114 150 186 232 287 337
#
# _framework density 9.9589090000000002
#
# number of rings (size 3 to 8) (size 9 to 14) (size 15 to 20)
#    0.000    1.857    1.429    2.143    0.000    4.286 
#    0.000    2.857    0.000    0.000    0.000    0.000 
#    0.000    0.000    0.000    0.000    0.000    0.000 
#
# Total GULP energy -156091.320863 kJ/mol
# GULP energy per Si atom -5574.690031 kJ/mol
# Density = 0.993624 g / cm^3
# Si number density = 9.958909 Si / 1000 Ang^3
#
#
#
# Elastic Constant Matrix: (Units=GPa)
#
#
# Indices 1 2 3 4 5 6 
#
# 1 151.7877 9.9682 10.4107 -0.0055 15.9142 0.0004
# 2 9.9682 -24.2688 -16.7522 -0.0075 -3.4128 0.0031
# 3 10.4107 -16.7522 19.4159 -0.0155 1.7263 0.0047
# 4 -0.0055 -0.0075 -0.0155 17.2611 -0.0010 2.8986
# 5 15.9142 -3.4128 1.7263 -0.0010 27.1613 -0.0003
# 6 0.0004 0.0031 0.0047 2.8986 -0.0003 21.1041
#
#
#
# Elastic Compliance Matrix: (Units=1/GPa)
#
#
# Indices 1 2 3 4 5 6 
#
# 1 0.006748 0.003476 -0.000308 0.000003 -0.003497 -0.000001
# 2 0.003476 -0.023943 -0.022199 -0.000032 -0.003634 0.000013
# 3 -0.000308 -0.022199 0.032934 0.000021 -0.004702 -0.000007
# 4 0.000003 -0.000032 0.000021 0.059302 -0.000005 -0.008145
# 5 -0.003497 -0.003634 -0.004702 -0.000005 0.038708 0.000003
# 6 -0.000001 0.000013 -0.000007 -0.008145 0.000003 0.048503
#
#
# Mechanical properties :
#
#
# Convention : Reuss Voigt Hill
#
# Bulk Modulus (GPa) = -44.79624 17.13202 -13.83211
# Shear Modulus (GPa) = 25.92385 22.65915 24.29150
#
# Velocity S-wave (km/s) = 3.61160 3.37654 3.49605
# Velocity P-wave (km/s) = 2.26888 4.88072 3.05562
#
# Compressibility (1/GPa) = -0.02232330
#
# Stress axis : x y z
#
# Youngs Moduli (GPa) = 148.19934 -41.76584 30.36368
#
# Poissons Ratio (x) = 0.14518 0.00935
# Poissons Ratio (y) = -0.51514 0.67404
# Poissons Ratio (z) = 0.04565 -0.92716
#
# Static dielectric constant tensor:
#      x y z
#    x 1.750620 0.000000 -0.095530 
#    y 0.000000 1.673170 0.000000 
#    z -0.095530 0.000000 1.791230 
# 
# From -- ./inp_files/292377.got.cif
#   From: 2010.05.17/outbox.ucp.g08.bks.cvg/sg12_147_cif.got.tgz:292377.got - 2010.06.11 11:47:21.
