data_PCOD9224188
_publ_section_title
;
Structure prediction by ZEFSAII (Michael W. Deem and Ramdas Pophale) SiO2 
 PCOD9224188
Probable space group: C 2/M
;
_chemical_formula_sum "Si O2"
_cell_formula_units_Z 20
_cell_length_a 27.000000
_cell_length_b 9.000000
_cell_length_c 27.000000
_cell_angle_alpha 90.000000
_cell_angle_beta 160.000000
_cell_angle_gamma 90.000000
_cell_volume 2243.994160
_symmetry_space_group_name_H-M "C 2/M"
_symmetry_group_IT_number 12
_symmetry_cell_setting 'monoclinic'
loop_
_space_group_symop_operation_xyz
x,y,z
-x,y,-z
-x,-y,-z
x,-y,z
1/2+x,1/2+y,z
1/2-x,1/2+y,-z
1/2-x,1/2-y,-z
1/2+x,1/2-y,z
loop_
_atom_site_type_symbol
_atom_site_label
_atom_site_fract_x
_atom_site_fract_y
_atom_site_fract_z
Si Si1 0.807939 0.174456 0.960262
Si Si2 0.251070 0.822015 0.632796
Si Si3 0.500615 0.678144 0.671805
Si Si4 0.954825 0.178354 0.901608
Si Si5 0.948594 0.822364 0.734298
O O1 0.663783 0.268018 0.821590
O O2 0.772553 0.000000 0.923678
O O3 0.916019 0.209404 0.016237
O O4 0.893254 0.197043 0.092123
O O5 0.092785 0.775595 0.463888
O O6 0.315327 0.751058 0.743441
O O7 0.347860 0.767879 0.677166
O O8 0.257698 0.000000 0.643628
O O9 0.495332 0.500000 0.668601
O O10 0.441905 0.727715 0.670934
O O11 0.933415 0.000000 0.882633
O O12 0.000000 0.225257 0.000000
O O13 0.915397 0.000000 0.706189
#
# Coordination Sequence:
#
# PCOD9224188 Si02
#       5
#     8   8   8   8   8
#     4   9  18  31  50  75  97 124 166 207 244 289
#     4  10  20  32  49  76 103 129 165 203 244 292
#     4  10  20  32  47  72 107 138 162 197 243 289
#     4   9  19  38  59  74  92 123 164 208 251 296
#     4   9  18  33  50  70 100 138 174 201 232 282
#
# _framework density 8.9126790000000007
#
# number of rings (size 3 to 8) (size 9 to 14) (size 15 to 20)
#    0.000    2.600    0.000    3.000    0.000    6.000 
#    0.000    1.000    0.000    6.000    0.000    0.000 
#    0.000    0.000    0.000    0.000    0.000    0.000 
#
# Total GULP energy -111431.246962 kJ/mol
# GULP energy per Si atom -5571.562348 kJ/mol
# Density = 0.889239 g / cm^3
# Si number density = 8.912679 Si / 1000 Ang^3
#
#
#
# Elastic Constant Matrix: (Units=GPa)
#
#
# Indices 1 2 3 4 5 6 
#
# 1 63.6716 12.4445 25.0216 0.0000 -36.3356 0.0000
# 2 12.4445 7.2879 22.9298 -0.0005 -9.7356 -0.0001
# 3 25.0216 22.9298 83.7099 -0.0005 -31.2887 -0.0001
# 4 0.0000 -0.0005 -0.0005 28.7741 0.0000 -2.3754
# 5 -36.3356 -9.7356 -31.2887 0.0000 34.1303 0.0000
# 6 0.0000 -0.0001 -0.0001 -2.3754 0.0000 25.4189
#
#
#
# Elastic Compliance Matrix: (Units=1/GPa)
#
#
# Indices 1 2 3 4 5 6 
#
# 1 0.192449 -0.851816 0.245786 -0.000012 0.187229 -0.000004
# 2 -0.851816 4.826790 -1.356785 0.000067 -0.773852 0.000026
# 3 0.245786 -1.356785 0.400514 -0.000019 0.241817 -0.000007
# 4 -0.000012 0.000067 -0.000019 0.035024 -0.000010 0.003273
# 5 0.187229 -0.773852 0.241817 -0.000010 0.229572 -0.000004
# 6 -0.000004 0.000026 -0.000007 0.003273 -0.000004 0.039647
#
#
# Mechanical properties :
#
#
# Convention : Reuss Voigt Hill
#
# Bulk Modulus (GPa) = 0.66929 30.60682 15.63805
# Shear Modulus (GPa) = 0.49272 23.94956 12.22114
#
# Velocity S-wave (km/s) = 0.52632 3.66945 2.62125
# Velocity P-wave (km/s) = 0.86351 5.92965 4.23712
#
# Compressibility (1/GPa) = 1.49412367
#
# Stress axis : x y z
#
# Youngs Moduli (GPa) = 5.19617 0.20718 2.49679
#
# Poissons Ratio (x) = 0.17648 -0.61368
# Poissons Ratio (y) = 4.42618 3.38761
# Poissons Ratio (z) = -1.27715 0.28109
#
# Static dielectric constant tensor:
#      x y z
#    x 1.591790 0.000000 -0.002450 
#    y 0.000000 1.567450 0.000000 
#    z -0.002450 0.000000 1.652540 
# 
# From -- ./inp_files/92706.got.cif
#   From: 2010.05.17/outbox.ucp.g08.bks.cvg/sg12_47_cif.got.tgz:92706.got - 2010.06.11 11:47:21.
