data_PCOD9224183
_publ_section_title
;
Structure prediction by ZEFSAII (Michael W. Deem and Ramdas Pophale) SiO2 
 PCOD9224183
Probable space group: C 2/M
;
_chemical_formula_sum "Si O2"
_cell_formula_units_Z 32
_cell_length_a 24.000000
_cell_length_b 9.000000
_cell_length_c 21.000000
_cell_angle_alpha 90.000000
_cell_angle_beta 120.000000
_cell_angle_gamma 90.000000
_cell_volume 3928.291232
_symmetry_space_group_name_H-M "C 2/M"
_symmetry_group_IT_number 12
_symmetry_cell_setting 'monoclinic'
loop_
_space_group_symop_operation_xyz
x,y,z
-x,y,-z
-x,-y,-z
x,-y,z
1/2+x,1/2+y,z
1/2-x,1/2+y,-z
1/2-x,1/2-y,-z
1/2+x,1/2-y,z
loop_
_atom_site_type_symbol
_atom_site_label
_atom_site_fract_x
_atom_site_fract_y
_atom_site_fract_z
Si Si1 0.179093 0.178730 0.614751
Si Si2 0.171762 0.178576 0.756483
Si Si3 0.757782 0.175118 0.902390
Si Si4 0.055356 0.679083 0.482721
Si Si5 0.564095 0.178482 0.343071
Si Si6 0.055320 0.176837 0.783746
Si Si7 0.787768 0.321055 0.580784
Si Si8 0.157148 0.822660 0.940545
O O1 0.170996 0.227658 0.683070
O O2 0.122868 0.252709 0.541992
O O3 0.247283 0.214709 0.621158
O O4 0.171804 0.000000 0.608671
O O5 0.235545 0.238169 0.827571
O O6 0.108953 0.225841 0.761621
O O7 0.172642 0.000000 0.758949
O O8 0.705100 0.225957 0.924695
O O9 0.753466 0.000000 0.888487
O O10 0.825329 0.207990 0.976219
O O11 0.059418 0.500000 0.487865
O O12 0.042725 0.721490 0.402528
O O13 0.000000 0.728097 0.500000
O O14 0.511947 0.245175 0.266026
O O15 0.637866 0.227154 0.375016
O O16 0.562887 0.000000 0.338249
O O17 0.087432 0.204805 0.870997
O O18 0.047584 0.000000 0.771835
O O19 0.787323 0.500000 0.572440
O O20 0.750000 0.250000 0.500000
O O21 0.170917 0.000000 0.937725
#
# Coordination Sequence:
#
# PCOD9224183 Si02
#       8
#     8   8   8   8   8   8   8   8
#     4  10  20  33  50  68  87 118 157 192 229 273
#     4   9  18  31  44  65  97 123 148 188 229 268
#     4   9  15  24  42  66  91 123 156 182 218 269
#     4  10  20  32  46  66  94 123 147 180 230 278
#     4  10  20  32  45  65  92 117 147 191 233 268
#     4   9  17  29  45  65  92 123 150 180 221 269
#     4  10  20  35  52  68  86 114 154 198 238 273
#     4   8  15  27  41  62  94 125 153 186 219 259
#
# _framework density 8.1460360000000005
#
# number of rings (size 3 to 8) (size 9 to 14) (size 15 to 20)
#    0.000    2.625    1.250    1.875    0.000    4.250 
#    0.000    0.000    0.000    0.000    0.000    0.875 
#    0.000    7.000    0.000    0.000    0.000    0.000 
#
# Total GULP energy -178187.704232 kJ/mol
# GULP energy per Si atom -5568.365757 kJ/mol
# Density = 0.812749 g / cm^3
# Si number density = 8.146036 Si / 1000 Ang^3
#
#
#
# Elastic Constant Matrix: (Units=GPa)
#
#
# Indices 1 2 3 4 5 6 
#
# 1 66.0947 10.2611 17.9494 0.0000 25.1977 0.0000
# 2 10.2611 -1.1187 13.0509 0.0000 8.5878 0.0000
# 3 17.9494 13.0509 84.2086 0.0000 32.8652 0.0000
# 4 0.0000 0.0000 0.0000 24.6924 0.0000 9.7477
# 5 25.1977 8.5878 32.8652 0.0000 20.6230 0.0000
# 6 0.0000 0.0000 0.0000 9.7477 0.0000 13.8048
#
#
#
# Elastic Compliance Matrix: (Units=1/GPa)
#
#
# Indices 1 2 3 4 5 6 
#
# 1 0.050217 -0.007195 0.034886 0.000000 -0.113956 0.000000
# 2 -0.007195 -0.211399 -0.009235 0.000000 0.111539 0.000000
# 3 0.034886 -0.009235 0.055564 0.000000 -0.127328 0.000000
# 4 0.000000 0.000000 0.000000 0.056150 0.000000 -0.039648
# 5 -0.113956 0.111539 -0.127328 0.000000 0.344190 0.000000
# 6 0.000000 0.000000 0.000000 -0.039648 0.000000 0.100435
#
#
# Mechanical properties :
#
#
# Convention : Reuss Voigt Hill
#
# Bulk Modulus (GPa) = -14.55479 25.74527 5.59524
# Shear Modulus (GPa) = 14.91010 19.01891 16.96451
#
# Velocity S-wave (km/s) = 3.02847 3.42039 3.23038
# Velocity P-wave (km/s) = 1.80991 5.60673 4.16600
#
# Compressibility (1/GPa) = -0.06870589
#
# Stress axis : x y z
#
# Youngs Moduli (GPa) = 19.91363 -4.73038 17.99713
#
# Poissons Ratio (x) = -0.03404 -0.62785
# Poissons Ratio (y) = 0.14329 0.16620
# Poissons Ratio (z) = -0.69471 -0.04368
#
# Static dielectric constant tensor:
#      x y z
#    x 1.534300 0.000000 0.004440 
#    y 0.000000 1.547780 0.000000 
#    z 0.004440 0.000000 1.574540 
# 
# From -- ./inp_files/323682.got.cif
#   From: 2010.05.17/outbox.ucp.g08.bks.cvg/sg12_162_cif.got.tgz:323682.got - 2010.06.11 11:47:21.
