data_PCOD9224941
_publ_section_title
;
Structure prediction by ZEFSAII (Michael W. Deem and Ramdas Pophale) SiO2 
 PCOD9224941
Probable space group: C 2/M
;
_chemical_formula_sum "Si O2"
_cell_formula_units_Z 32
_cell_length_a 15.000000
_cell_length_b 9.000000
_cell_length_c 30.000000
_cell_angle_alpha 90.000000
_cell_angle_beta 50.000000
_cell_angle_gamma 90.000000
_cell_volume 3102.479995
_symmetry_space_group_name_H-M "C 2/M"
_symmetry_group_IT_number 12
_symmetry_cell_setting 'monoclinic'
loop_
_space_group_symop_operation_xyz
x,y,z
-x,y,-z
-x,-y,-z
x,-y,z
1/2+x,1/2+y,z
1/2-x,1/2+y,-z
1/2-x,1/2-y,-z
1/2+x,1/2-y,z
loop_
_atom_site_type_symbol
_atom_site_label
_atom_site_fract_x
_atom_site_fract_y
_atom_site_fract_z
Si Si1 0.442807 0.677581 0.652850
Si Si2 0.370863 0.330101 0.023156
Si Si3 0.713022 0.321391 0.557788
Si Si4 0.927719 0.671285 0.258493
Si Si5 0.848903 0.820288 0.781946
Si Si6 0.215560 0.677210 0.371260
Si Si7 0.895049 0.330269 0.167675
Si Si8 0.638102 0.667759 0.082435
O O1 0.432627 0.500000 0.650944
O O2 0.578377 0.718521 0.609242
O O3 0.390906 0.714211 0.717994
O O4 0.375042 0.752261 0.633854
O O5 0.358433 0.500000 0.043680
O O6 0.252957 0.236045 0.069206
O O7 0.500000 0.279003 0.000000
O O8 0.360731 0.334855 0.972333
O O9 0.719276 0.500000 0.552928
O O10 0.750000 0.250000 0.500000
O O11 0.791864 0.275614 0.574694
O O12 0.932465 0.500000 0.272167
O O13 0.844412 0.772260 0.314913
O O14 0.867918 0.670000 0.229039
O O15 0.057502 0.739304 0.217043
O O16 0.713619 0.770508 0.825866
O O17 0.852954 0.000000 0.786449
O O18 0.207167 0.500000 0.371515
O O19 0.912315 0.500000 0.147657
O O20 0.017933 0.251730 0.127461
O O21 0.628436 0.500000 0.101594
#
# Coordination Sequence:
#
# PCOD9224941 Si02
#       8
#     8   8   8   8   8   8   8   8
#     4  10  20  39  61  83 114 150 188 231 285 346
#     4   9  19  38  62  84 113 154 194 234 288 343
#     4  10  23  41  60  83 116 150 186 238 293 343
#     4  11  22  37  58  85 113 151 196 234 283 347
#     4  10  20  38  59  82 115 152 191 236 286 340
#     4  11  22  38  60  86 114 147 188 237 286 338
#     4  10  22  39  57  80 119 159 188 232 290 342
#     4  10  21  36  57  87 118 149 192 242 283 335
#
# _framework density 10.314329000000001
#
# number of rings (size 3 to 8) (size 9 to 14) (size 15 to 20)
#    0.000    1.875    2.500    1.125    0.000    5.750 
#    0.000    6.250    0.000    0.000    0.000    0.000 
#    0.000    0.000    0.000    0.000    0.000    0.000 
#
# Total GULP energy -178501.168866 kJ/mol
# GULP energy per Si atom -5578.161527 kJ/mol
# Density = 1.029085 g / cm^3
# Si number density = 10.314329 Si / 1000 Ang^3
#
#
#
# Elastic Constant Matrix: (Units=GPa)
#
#
# Indices 1 2 3 4 5 6 
#
# 1 124.9076 23.7350 -11.0545 0.0000 -8.9666 0.0000
# 2 23.7350 24.1709 5.1736 0.0000 -6.8947 -0.0001
# 3 -11.0545 5.1736 20.9447 0.0000 -4.0703 0.0000
# 4 0.0000 0.0000 0.0000 18.4541 0.0000 -4.4531
# 5 -8.9666 -6.8947 -4.0703 0.0000 25.1208 0.0000
# 6 0.0000 -0.0001 0.0000 -4.4531 0.0000 39.3587
#
#
#
# Elastic Compliance Matrix: (Units=1/GPa)
#
#
# Indices 1 2 3 4 5 6 
#
# 1 0.011407 -0.012633 0.009560 0.000000 0.002153 0.000000
# 2 -0.012633 0.060574 -0.019902 0.000000 0.008891 0.000000
# 3 0.009560 -0.019902 0.059171 0.000000 0.007537 0.000000
# 4 0.000000 0.000000 0.000000 0.055710 0.000000 0.006303
# 5 0.002153 0.008891 0.007537 0.000000 0.044238 0.000000
# 6 0.000000 0.000000 0.000000 0.006303 0.000000 0.026120
#
#
# Mechanical properties :
#
#
# Convention : Reuss Voigt Hill
#
# Bulk Modulus (GPa) = 11.73714 22.85905 17.29809
# Shear Modulus (GPa) = 15.07970 26.73132 20.90551
#
# Velocity S-wave (km/s) = 2.70665 3.60367 3.18688
# Velocity P-wave (km/s) = 3.93319 5.33109 4.68458
#
# Compressibility (1/GPa) = 0.08519963
#
# Stress axis : x y z
#
# Youngs Moduli (GPa) = 87.66450 16.50885 16.90013
#
# Poissons Ratio (x) = 0.20856 -0.16156
# Poissons Ratio (y) = 1.10750 0.33635
# Poissons Ratio (z) = -0.83804 0.32857
#
# Static dielectric constant tensor:
#      x y z
#    x 1.718050 0.000000 0.005350 
#    y 0.000000 1.709390 0.000000 
#    z 0.005350 0.000000 1.813610 
# 
# From -- ./inp_files/375497.got.cif
#   From: 2010.05.17/outbox.ucp.g08.bks.cvg/sg12_188_cif.got.tgz:375497.got - 2010.06.11 11:47:21.
