data_PCOD9224932
_publ_section_title
;
Structure prediction by ZEFSAII (Michael W. Deem and Ramdas Pophale) SiO2 
 PCOD9224932
Probable space group: C 2/M
;
_chemical_formula_sum "Si O2"
_cell_formula_units_Z 28
_cell_length_a 18.000000
_cell_length_b 21.000000
_cell_length_c 21.000000
_cell_angle_alpha 90.000000
_cell_angle_beta 20.000000
_cell_angle_gamma 90.000000
_cell_volume 2714.955898
_symmetry_space_group_name_H-M "C 2/M"
_symmetry_group_IT_number 12
_symmetry_cell_setting 'monoclinic'
loop_
_space_group_symop_operation_xyz
x,y,z
-x,y,-z
-x,-y,-z
x,-y,z
1/2+x,1/2+y,z
1/2-x,1/2+y,-z
1/2-x,1/2-y,-z
1/2+x,1/2-y,z
loop_
_atom_site_type_symbol
_atom_site_label
_atom_site_fract_x
_atom_site_fract_y
_atom_site_fract_z
Si Si1 0.818609 0.925531 0.763445
Si Si2 0.903657 0.392269 0.931285
Si Si3 0.748274 0.187942 0.721340
Si Si4 0.297913 0.928305 0.417432
Si Si5 0.004623 0.074977 0.163077
Si Si6 0.178579 0.838524 0.802701
Si Si7 0.486051 0.073594 0.391699
O O1 0.735043 0.868039 0.786001
O O2 0.057442 0.903468 0.596616
O O3 0.833081 0.000000 0.727069
O O4 0.668635 0.926516 0.946299
O O5 0.044960 0.329873 0.838332
O O6 0.078121 0.428837 0.748598
O O7 0.686187 0.392706 0.062291
O O8 0.736232 0.264547 0.741935
O O9 0.000000 0.177732 0.500000
O O10 0.464348 0.900893 0.336383
O O11 0.261005 0.000000 0.470043
O O12 0.944487 0.119939 0.152098
O O13 0.767566 0.071899 0.386112
O O14 0.067548 0.000000 0.098673
O O15 0.378954 0.880286 0.670332
O O16 0.000000 0.833265 0.000000
O O17 0.571507 0.000000 0.326397
#
# Coordination Sequence:
#
# PCOD9224932 Si02
#       7
#     8   8   8   8   8   8   8
#     4  11  23  42  67  97 134 174 223 281 334 390
#     4  12  23  41  69  98 137 175 223 277 333 401
#     4  12  27  48  67  94 134 182 233 277 333 402
#     4  10  20  37  65  99 133 170 214 273 334 391
#     4  11  23  41  70 104 135 175 223 277 341 400
#     4  12  26  45  67  96 136 182 226 277 335 405
#     4  10  21  42  70 103 138 173 221 277 336 403
#
# _framework density 10.313243
#
# number of rings (size 3 to 8) (size 9 to 14) (size 15 to 20)
#    0.000    0.857    2.857    5.143    0.000    6.571 
#    0.000    2.143    0.000    0.000    0.000    0.000 
#    0.000    0.000    0.000    0.000    0.000    0.000 
#
# Total GULP energy -155912.863368 kJ/mol
# GULP energy per Si atom -5568.316549 kJ/mol
# Density = 1.028977 g / cm^3
# Si number density = 10.313243 Si / 1000 Ang^3
#
#
#
# Elastic Constant Matrix: (Units=GPa)
#
#
# Indices 1 2 3 4 5 6 
#
# 1 136.9335 85.7972 48.2408 -0.3126 -29.2566 0.0555
# 2 85.7972 145.0989 39.4511 -0.1386 -18.7444 -0.0568
# 3 48.2408 39.4511 113.8798 -0.7882 -11.5236 0.1261
# 4 -0.3126 -0.1386 -0.7882 138.2597 -0.2639 -28.1840
# 5 -29.2566 -18.7444 -11.5236 -0.2639 53.0936 0.0622
# 6 0.0555 -0.0568 0.1261 -28.1840 0.0622 32.6507
#
#
#
# Elastic Compliance Matrix: (Units=1/GPa)
#
#
# Indices 1 2 3 4 5 6 
#
# 1 0.013389 -0.006541 -0.002958 0.000011 0.004427 -0.000022
# 2 -0.006541 0.011054 -0.001052 -0.000003 0.000070 0.000032
# 3 -0.002958 -0.001052 0.010425 0.000054 0.000262 0.000009
# 4 0.000011 -0.000003 0.000054 0.008778 0.000051 0.007576
# 5 0.004427 0.000070 0.000262 0.000051 0.021356 -0.000005
# 6 -0.000022 0.000032 0.000009 0.007576 -0.000005 0.037167
#
#
# Mechanical properties :
#
#
# Convention : Reuss Voigt Hill
#
# Bulk Modulus (GPa) = 72.63179 82.54337 77.58758
# Shear Modulus (GPa) = 39.10550 59.62902 49.36726
#
# Velocity S-wave (km/s) = 4.35890 5.38254 4.89754
# Velocity P-wave (km/s) = 7.78606 8.87322 8.34736
#
# Compressibility (1/GPa) = 0.01376808
#
# Stress axis : x y z
#
# Youngs Moduli (GPa) = 74.68911 90.46113 95.92013
#
# Poissons Ratio (x) = 0.59169 0.28370
# Poissons Ratio (y) = 0.48853 0.10089
# Poissons Ratio (z) = 0.22091 0.09514
#
# Static dielectric constant tensor:
#      x y z
#    x 1.895850 0.000000 0.050520 
#    y 0.000000 1.770410 0.000110 
#    z 0.050520 0.000110 1.794690 
# 
# From -- ./inp_files/318016.got.cif
#   From: 2010.05.17/outbox.ucp.g08.bks.cvg/sg12_160_cif.got.tgz:318016.got - 2010.06.11 11:47:21.
