data_PCOD9224604
_publ_section_title
;
Structure prediction by ZEFSAII (Michael W. Deem and Ramdas Pophale) SiO2 
 PCOD9224604
Probable space group: C 2/M
;
_chemical_formula_sum "Si O2"
_cell_formula_units_Z 28
_cell_length_a 27.000000
_cell_length_b 9.000000
_cell_length_c 12.000000
_cell_angle_alpha 90.000000
_cell_angle_beta 110.000000
_cell_angle_gamma 90.000000
_cell_volume 2740.143682
_symmetry_space_group_name_H-M "C 2/M"
_symmetry_group_IT_number 12
_symmetry_cell_setting 'monoclinic'
loop_
_space_group_symop_operation_xyz
x,y,z
-x,y,-z
-x,-y,-z
x,-y,z
1/2+x,1/2+y,z
1/2-x,1/2+y,-z
1/2-x,1/2-y,-z
1/2+x,1/2-y,z
loop_
_atom_site_type_symbol
_atom_site_label
_atom_site_fract_x
_atom_site_fract_y
_atom_site_fract_z
Si Si1 0.620313 0.176338 0.328980
Si Si2 0.473524 0.324200 0.861579
Si Si3 0.893090 0.678374 0.423811
Si Si4 0.451152 0.826355 0.250212
Si Si5 0.795080 0.171835 0.227816
Si Si6 0.809566 0.175094 0.780576
Si Si7 0.143811 0.825744 0.943272
O O1 0.579189 0.237351 0.207007
O O2 0.603548 0.217419 0.442663
O O3 0.673735 0.243899 0.320371
O O4 0.622371 0.000000 0.327489
O O5 0.463847 0.500000 0.858662
O O6 0.509094 0.280262 0.783300
O O7 0.500000 0.281363 0.000000
O O8 0.881931 0.500000 0.408689
O O9 0.941441 0.701509 0.374278
O O10 0.846679 0.774528 0.333689
O O11 0.397475 0.787891 0.142606
O O12 0.465956 0.000000 0.248113
O O13 0.748660 0.277286 0.230306
O O14 0.807423 0.180922 0.105210
O O15 0.783049 0.000000 0.243852
O O16 0.814451 0.000000 0.767089
O O17 0.842565 0.210729 0.919146
O O18 0.124826 0.000000 0.925021
#
# Coordination Sequence:
#
# PCOD9224604 Si02
#       7
#     8   8   8   8   8   8   8
#     4  11  24  41  60  82 111 147 190 235 275 327
#     4  11  24  41  60  85 118 150 180 221 277 335
#     4   9  21  41  60  82 113 147 185 232 283 328
#     4  10  20  36  61  87 112 146 186 230 279 330
#     4  10  20  35  58  85 112 147 191 233 275 332
#     4  11  22  36  55  81 116 153 187 230 285 334
#     4   9  19  35  55  83 117 149 184 230 282 334
#
# _framework density 10.218442
#
# number of rings (size 3 to 8) (size 9 to 14) (size 15 to 20)
#    0.000    1.857    0.000    3.429    0.000    9.143 
#    0.000    2.857    0.000    0.000    0.000    0.000 
#    0.000    0.000    0.000    0.000    0.000    0.000 
#
# Total GULP energy -156227.914167 kJ/mol
# GULP energy per Si atom -5579.568363 kJ/mol
# Density = 1.019518 g / cm^3
# Si number density = 10.218442 Si / 1000 Ang^3
#
#
#
# Elastic Constant Matrix: (Units=GPa)
#
#
# Indices 1 2 3 4 5 6 
#
# 1 54.5539 10.8902 24.5614 0.0000 -23.4426 0.0000
# 2 10.8902 33.1638 36.8400 0.0000 -13.7861 0.0000
# 3 24.5614 36.8400 104.1508 0.0000 -29.9123 0.0000
# 4 0.0000 0.0000 0.0000 25.4819 0.0000 -0.8099
# 5 -23.4426 -13.7861 -29.9123 0.0000 29.8339 0.0000
# 6 0.0000 0.0000 0.0000 -0.8099 0.0000 24.4995
#
#
#
# Elastic Compliance Matrix: (Units=1/GPa)
#
#
# Indices 1 2 3 4 5 6 
#
# 1 0.027690 0.000381 -0.000513 0.000000 0.021420 0.000000
# 2 0.000381 0.050898 -0.015803 0.000000 0.007975 0.000000
# 3 -0.000513 -0.015803 0.018397 0.000000 0.010739 0.000000
# 4 0.000000 0.000000 0.000000 0.039285 0.000000 0.001299
# 5 0.021420 0.007975 0.010739 0.000000 0.064803 0.000000
# 6 0.000000 0.000000 0.000000 0.001299 0.000000 0.040860
#
#
# Mechanical properties :
#
#
# Convention : Reuss Voigt Hill
#
# Bulk Modulus (GPa) = 15.35747 37.38351 26.37049
# Shear Modulus (GPa) = 16.92008 23.93485 20.42747
#
# Velocity S-wave (km/s) = 2.88048 3.42593 3.16498
# Velocity P-wave (km/s) = 4.31205 5.82934 5.12714
#
# Compressibility (1/GPa) = 0.06511488
#
# Stress axis : x y z
#
# Youngs Moduli (GPa) = 36.11455 19.64702 54.35751
#
# Poissons Ratio (x) = -0.00749 0.02789
# Poissons Ratio (y) = -0.01378 0.85902
# Poissons Ratio (z) = 0.01853 0.31049
#
# Static dielectric constant tensor:
#      x y z
#    x 1.873930 0.000000 0.019490 
#    y 0.000000 1.674940 0.000000 
#    z 0.019490 0.000000 1.699690 
# 
# From -- ./inp_files/181024.got.cif
#   From: 2010.05.17/outbox.ucp.g08.bks.cvg/sg12_91_cif.got.tgz:181024.got - 2010.06.11 11:47:21.
