data_PCOD9224825
_publ_section_title
;
Structure prediction by ZEFSAII (Michael W. Deem and Ramdas Pophale) SiO2 
 PCOD9224825
Probable space group: C 2/M
;
_chemical_formula_sum "Si O2"
_cell_formula_units_Z 24
_cell_length_a 15.000000
_cell_length_b 15.000000
_cell_length_c 30.000000
_cell_angle_alpha 90.000000
_cell_angle_beta 20.000000
_cell_angle_gamma 90.000000
_cell_volume 2308.635967
_symmetry_space_group_name_H-M "C 2/M"
_symmetry_group_IT_number 12
_symmetry_cell_setting 'monoclinic'
loop_
_space_group_symop_operation_xyz
x,y,z
-x,y,-z
-x,-y,-z
x,-y,z
1/2+x,1/2+y,z
1/2-x,1/2+y,-z
1/2-x,1/2-y,-z
1/2+x,1/2-y,z
loop_
_atom_site_type_symbol
_atom_site_label
_atom_site_fract_x
_atom_site_fract_y
_atom_site_fract_z
Si Si1 0.790157 0.894482 0.770118
Si Si2 0.400562 0.891619 0.497312
Si Si3 0.001372 0.776403 0.944410
Si Si4 0.725269 0.107100 0.617541
Si Si5 0.621522 0.108428 0.298036
Si Si6 0.479593 0.894759 0.827834
O O1 0.603056 0.823222 0.883685
O O2 0.714315 0.890809 0.753252
O O3 0.093333 0.869368 0.635543
O O4 0.754585 0.000000 0.800087
O O5 0.500000 0.863967 0.500000
O O6 0.570894 0.863861 0.373385
O O7 0.412546 0.000000 0.490788
O O8 0.173697 0.840940 0.830580
O O9 0.717400 0.816134 0.066071
O O10 0.000000 0.785053 0.000000
O O11 0.635574 0.129812 0.610235
O O12 0.547860 0.123727 0.744112
O O13 0.000000 0.148686 0.500000
O O14 0.745998 0.000000 0.606820
O O15 0.667962 0.000000 0.275340
O O16 0.384075 0.000000 0.874808
#
# Coordination Sequence:
#
# PCOD9224825 Si02
#       6
#     8   8   8   8   8   8
#     4  10  23  44  66  89 126 174 225 277 321 372
#     4   9  19  41  69  95 125 169 223 272 323 384
#     4  12  24  40  62  94 136 176 221 262 315 392
#     4   9  16  29  56  93 128 163 204 256 326 394
#     4  10  20  36  62  95 130 166 208 266 330 391
#     4  10  20  38  64  94 133 174 209 262 325 388
#
# _framework density 10.395749
#
# number of rings (size 3 to 8) (size 9 to 14) (size 15 to 20)
#    0.000    2.000    1.667    2.000    0.000    5.667 
#    6.000    0.833    0.000    0.000    0.000    0.000 
#    0.000    0.667    0.000    0.000    0.000    0.000 
#
# Total GULP energy -133664.231831 kJ/mol
# GULP energy per Si atom -5569.342993 kJ/mol
# Density = 1.037209 g / cm^3
# Si number density = 10.395749 Si / 1000 Ang^3
#
#
#
# Elastic Constant Matrix: (Units=GPa)
#
#
# Indices 1 2 3 4 5 6 
#
# 1 163.8318 23.5540 56.2252 -0.0101 21.1660 -0.0137
# 2 23.5540 80.4481 32.3645 -0.1023 6.0957 -0.0050
# 3 56.2252 32.3645 71.9083 -0.1893 6.3864 -0.0141
# 4 -0.0101 -0.1023 -0.1893 15.2014 -0.0408 6.9315
# 5 21.1660 6.0957 6.3864 -0.0408 37.0156 0.0320
# 6 -0.0137 -0.0050 -0.0141 6.9315 0.0320 19.8570
#
#
#
# Elastic Compliance Matrix: (Units=1/GPa)
#
#
# Indices 1 2 3 4 5 6 
#
# 1 0.008886 0.000431 -0.006789 -0.000107 -0.003981 0.000045
# 2 0.000431 0.015266 -0.007071 0.000012 -0.001540 -0.000003
# 3 -0.006789 -0.007071 0.022291 0.000268 0.001201 -0.000086
# 4 -0.000107 0.000012 0.000268 0.078240 0.000123 -0.027312
# 5 -0.003981 -0.001540 0.001201 0.000123 0.029339 -0.000092
# 6 0.000045 -0.000003 -0.000086 -0.027312 -0.000092 0.059894
#
#
# Mechanical properties :
#
#
# Convention : Reuss Voigt Hill
#
# Bulk Modulus (GPa) = 51.05791 60.05284 55.55537
# Shear Modulus (GPa) = 20.21828 28.01778 24.11803
#
# Velocity S-wave (km/s) = 3.12176 3.67489 3.40956
# Velocity P-wave (km/s) = 6.13223 6.85219 6.50219
#
# Compressibility (1/GPa) = 0.01958560
#
# Stress axis : x y z
#
# Youngs Moduli (GPa) = 112.53730 65.50704 44.86104
#
# Poissons Ratio (x) = -0.02823 0.30454
# Poissons Ratio (y) = -0.04849 0.31720
# Poissons Ratio (z) = 0.76397 0.46319
#
# Static dielectric constant tensor:
#      x y z
#    x 1.755140 0.000010 -0.053100 
#    y 0.000010 1.767320 -0.000010 
#    z -0.053100 -0.000010 1.800930 
# 
# From -- ./inp_files/376585.got.cif
#   From: 2010.05.17/outbox.ucp.g08.bks.cvg/sg12_189_cif.got.tgz:376585.got - 2010.06.11 11:47:21.
