data_PCOD9224729
_publ_section_title
;
Structure prediction by ZEFSAII (Michael W. Deem and Ramdas Pophale) SiO2 
 PCOD9224729
Probable space group: C 2/M
;
_chemical_formula_sum "Si O2"
_cell_formula_units_Z 32
_cell_length_a 18.000000
_cell_length_b 9.000000
_cell_length_c 30.000000
_cell_angle_alpha 90.000000
_cell_angle_beta 40.000000
_cell_angle_gamma 90.000000
_cell_volume 3123.947783
_symmetry_space_group_name_H-M "C 2/M"
_symmetry_group_IT_number 12
_symmetry_cell_setting 'monoclinic'
loop_
_space_group_symop_operation_xyz
x,y,z
-x,y,-z
-x,-y,-z
x,-y,z
1/2+x,1/2+y,z
1/2-x,1/2+y,-z
1/2-x,1/2-y,-z
1/2+x,1/2-y,z
loop_
_atom_site_type_symbol
_atom_site_label
_atom_site_fract_x
_atom_site_fract_y
_atom_site_fract_z
Si Si1 0.331928 0.676301 0.265006
Si Si2 0.900894 0.170858 0.639269
Si Si3 0.057977 0.165366 0.278282
Si Si4 0.685698 0.673943 0.631832
Si Si5 0.336032 0.323389 0.496305
Si Si6 0.684538 0.679503 0.989120
Si Si7 0.922881 0.181570 0.129246
Si Si8 0.237390 0.323052 0.142627
O O1 0.343619 0.500000 0.256442
O O2 0.198330 0.720710 0.330965
O O3 0.373863 0.721017 0.294410
O O4 0.391188 0.737677 0.193349
O O5 0.884176 0.170317 0.700226
O O6 0.030255 0.221320 0.568998
O O7 0.886054 0.000000 0.630351
O O8 0.115476 0.280419 0.219114
O O9 0.923418 0.185093 0.350604
O O10 0.071241 0.000000 0.252718
O O11 0.720206 0.500000 0.618301
O O12 0.787041 0.773862 0.566746
O O13 0.331139 0.500000 0.492793
O O14 0.250000 0.250000 0.500000
O O15 0.692399 0.500000 0.987421
O O16 0.737819 0.733046 0.918094
O O17 0.750000 0.750000 0.000000
O O18 0.550453 0.720492 0.055070
O O19 0.831250 0.234355 0.134931
O O20 0.916917 0.000000 0.132830
O O21 0.249336 0.500000 0.135460
#
# Coordination Sequence:
#
# PCOD9224729 Si02
#       8
#     8   8   8   8   8   8   8   8
#     4  10  21  37  60  86 112 149 193 236 279 334
#     4  10  21  38  58  82 114 149 187 233 287 341
#     4  10  20  36  58  83 114 151 186 231 286 337
#     4  10  22  39  57  84 117 149 192 236 284 342
#     4  11  22  38  60  84 113 152 192 235 288 341
#     4  10  22  38  58  85 117 150 184 231 283 332
#     4   9  18  36  60  82 109 149 191 228 275 330
#     4  10  20  36  59  86 111 144 195 239 272 327
#
# _framework density 10.243449
#
# number of rings (size 3 to 8) (size 9 to 14) (size 15 to 20)
#    0.000    2.000    2.500    0.750    1.750    4.500 
#    0.000    3.750    0.000    1.500    0.000    0.000 
#    0.000    0.000    0.000    0.000    0.000    0.000 
#
# Total GULP energy -178278.713412 kJ/mol
# GULP energy per Si atom -5571.209794 kJ/mol
# Density = 1.022013 g / cm^3
# Si number density = 10.243449 Si / 1000 Ang^3
#
#
#
# Elastic Constant Matrix: (Units=GPa)
#
#
# Indices 1 2 3 4 5 6 
#
# 1 38.5349 6.9688 23.0688 -0.0001 9.2407 -0.0001
# 2 6.9688 -14.1410 21.7800 -0.0003 9.6557 -0.0008
# 3 23.0688 21.7800 74.4300 0.0001 2.8688 0.0003
# 4 -0.0001 -0.0003 0.0001 26.3703 0.0000 1.8336
# 5 9.2407 9.6557 2.8688 0.0000 17.8360 0.0001
# 6 -0.0001 -0.0008 0.0003 1.8336 0.0001 18.8671
#
#
#
# Elastic Compliance Matrix: (Units=1/GPa)
#
#
# Indices 1 2 3 4 5 6 
#
# 1 0.035623 -0.005630 -0.008854 0.000000 -0.013984 0.000000
# 2 -0.005630 -0.039272 0.012382 0.000000 0.022186 -0.000002
# 3 -0.008854 0.012382 0.012717 0.000000 -0.004161 0.000000
# 4 0.000000 0.000000 0.000000 0.038179 0.000000 -0.003710
# 5 -0.013984 0.022186 -0.004161 0.000000 0.051970 0.000001
# 6 0.000000 -0.000002 0.000000 -0.003710 0.000001 0.053363
#
#
# Mechanical properties :
#
#
# Convention : Reuss Voigt Hill
#
# Bulk Modulus (GPa) = 205.67966 22.49544 114.08755
# Shear Modulus (GPa) = 31.56437 15.74843 23.65640
#
# Velocity S-wave (km/s) = 3.92945 2.77557 3.40179
# Velocity P-wave (km/s) = 11.00913 4.61258 8.44029
#
# Compressibility (1/GPa) = 0.00486193
#
# Stress axis : x y z
#
# Youngs Moduli (GPa) = 28.07213 -25.46359 78.63574
#
# Poissons Ratio (x) = -0.14337 0.69626
# Poissons Ratio (y) = 0.15806 -0.97366
# Poissons Ratio (z) = 0.24856 0.31529
#
# Static dielectric constant tensor:
#      x y z
#    x 1.825390 0.000000 -0.000060 
#    y 0.000000 1.718920 0.000000 
#    z -0.000060 0.000000 1.743550 
# 
# From -- ./inp_files/346163.got.cif
#   From: 2010.05.17/outbox.ucp.g08.bks.cvg/sg12_174_cif.got.tgz:346163.got - 2010.06.11 11:47:21.
