data_PCOD9224572
_publ_section_title
;
Structure prediction by ZEFSAII (Michael W. Deem and Ramdas Pophale) SiO2 
 PCOD9224572
Probable space group: C 2/M
;
_chemical_formula_sum "Si O2"
_cell_formula_units_Z 28
_cell_length_a 30.000000
_cell_length_b 9.000000
_cell_length_c 15.000000
_cell_angle_alpha 90.000000
_cell_angle_beta 50.000000
_cell_angle_gamma 90.000000
_cell_volume 3102.479995
_symmetry_space_group_name_H-M "C 2/M"
_symmetry_group_IT_number 12
_symmetry_cell_setting 'monoclinic'
loop_
_space_group_symop_operation_xyz
x,y,z
-x,y,-z
-x,-y,-z
x,-y,z
1/2+x,1/2+y,z
1/2-x,1/2+y,-z
1/2-x,1/2-y,-z
1/2+x,1/2-y,z
loop_
_atom_site_type_symbol
_atom_site_label
_atom_site_fract_x
_atom_site_fract_y
_atom_site_fract_z
Si Si1 0.802563 0.177528 0.373079
Si Si2 0.998943 0.165459 0.610254
Si Si3 0.109801 0.666484 0.241153
Si Si4 0.323630 0.832158 0.663990
Si Si5 0.293046 0.175422 0.188718
Si Si6 0.120511 0.170634 0.561059
Si Si7 0.197402 0.174559 0.010576
O O1 0.750000 0.250000 0.500000
O O2 0.806177 0.251704 0.269537
O O3 0.861219 0.194139 0.359031
O O4 0.792109 0.000000 0.376173
O O5 0.056682 0.175553 0.597247
O O6 0.000000 0.169471 0.500000
O O7 0.957363 0.301332 0.686542
O O8 0.974644 0.000000 0.661037
O O9 0.126977 0.500000 0.191022
O O10 0.127912 0.680445 0.321695
O O11 0.143335 0.789795 0.142875
O O12 0.275030 0.708890 0.741157
O O13 0.346866 0.796456 0.536825
O O14 0.299778 0.000000 0.699955
O O15 0.305542 0.000000 0.174541
O O16 0.316933 0.254110 0.068033
O O17 0.141320 0.000000 0.515318
O O18 0.209569 0.000000 0.984877
O O19 0.250000 0.250000 0.000000
#
# Coordination Sequence:
#
# PCOD9224572 Si02
#       7
#     8   8   8   8   8   8   8
#     4  11  22  36  56  84 117 153 195 238 286 343
#     4  10  20  35  57  83 114 153 194 234 283 339
#     4  11  23  37  55  84 119 154 191 232 282 340
#     4  11  21  32  53  82 117 152 190 233 279 337
#     4  12  24  38  57  82 116 154 193 236 287 341
#     4  10  21  36  55  81 116 155 194 235 285 341
#     4  12  24  39  60  85 115 151 190 234 286 343
#
# _framework density 9.0250380000000003
#
# number of rings (size 3 to 8) (size 9 to 14) (size 15 to 20)
#    0.000    1.000    4.286    3.857    0.000    2.571 
#    0.000    0.000    0.000    0.857    0.000    6.000 
#    0.000    0.000    0.000    0.000    0.000    0.000 
#
# Total GULP energy -155903.386112 kJ/mol
# GULP energy per Si atom -5567.978075 kJ/mol
# Density = 0.900450 g / cm^3
# Si number density = 9.025038 Si / 1000 Ang^3
#
#
#
# Elastic Constant Matrix: (Units=GPa)
#
#
# Indices 1 2 3 4 5 6 
#
# 1 110.0606 39.6277 22.3187 0.0000 23.7388 0.0000
# 2 39.6277 116.7138 37.3827 0.0000 18.5884 0.0000
# 3 22.3187 37.3827 38.0555 0.0000 25.0584 0.0000
# 4 0.0000 0.0000 0.0000 24.8158 0.0000 4.4124
# 5 23.7388 18.5884 25.0584 0.0000 33.1297 0.0000
# 6 0.0000 0.0000 0.0000 4.4124 0.0000 32.6279
#
#
#
# Elastic Compliance Matrix: (Units=1/GPa)
#
#
# Indices 1 2 3 4 5 6 
#
# 1 0.011575 -0.003121 0.001167 0.000000 -0.007425 0.000000
# 2 -0.003121 0.013694 -0.016007 0.000000 0.006660 0.000000
# 3 0.001167 -0.016007 0.071628 0.000000 -0.046033 0.000000
# 4 0.000000 0.000000 0.000000 0.041290 0.000000 -0.005584
# 5 -0.007425 0.006660 -0.046033 0.000000 0.066586 0.000000
# 6 0.000000 0.000000 0.000000 -0.005584 0.000000 0.031404
#
#
# Mechanical properties :
#
#
# Convention : Reuss Voigt Hill
#
# Bulk Modulus (GPa) = 16.40036 51.49868 33.94952
# Shear Modulus (GPa) = 17.09857 29.14808 23.12332
#
# Velocity S-wave (km/s) = 3.08114 4.02287 3.58308
# Velocity P-wave (km/s) = 4.66515 7.08315 5.99727
#
# Compressibility (1/GPa) = 0.06097427
#
# Stress axis : x y z
#
# Youngs Moduli (GPa) = 86.39654 73.02568 13.96104
#
# Poissons Ratio (x) = 0.22792 -0.01629
# Poissons Ratio (y) = 0.26965 0.22347
# Poissons Ratio (z) = -0.10082 1.16891
#
# Static dielectric constant tensor:
#      x y z
#    x 1.674960 0.000000 -0.075700 
#    y 0.000000 1.648830 0.000000 
#    z -0.075700 0.000000 1.726260 
# 
# From -- ./inp_files/248896.got.cif
#   From: 2010.05.17/outbox.ucp.g08.bks.cvg/sg12_125_cif.got.tgz:248896.got - 2010.06.11 11:47:21.
