data_PCOD9224737
_publ_section_title
;
Structure prediction by ZEFSAII (Michael W. Deem and Ramdas Pophale) SiO2 
 PCOD9224737
Probable space group: C 2/M
;
_chemical_formula_sum "Si O2"
_cell_formula_units_Z 32
_cell_length_a 30.000000
_cell_length_b 9.000000
_cell_length_c 24.000000
_cell_angle_alpha 90.000000
_cell_angle_beta 150.000000
_cell_angle_gamma 90.000000
_cell_volume 3240.000000
_symmetry_space_group_name_H-M "C 2/M"
_symmetry_group_IT_number 12
_symmetry_cell_setting 'monoclinic'
loop_
_space_group_symop_operation_xyz
x,y,z
-x,y,-z
-x,-y,-z
x,-y,z
1/2+x,1/2+y,z
1/2-x,1/2+y,-z
1/2-x,1/2-y,-z
1/2+x,1/2-y,z
loop_
_atom_site_type_symbol
_atom_site_label
_atom_site_fract_x
_atom_site_fract_y
_atom_site_fract_z
Si Si1 0.474815 0.322099 0.707076
Si Si2 0.777710 0.823086 0.289446
Si Si3 0.892355 0.320752 0.230633
Si Si4 0.458793 0.827153 0.517038
Si Si5 0.980514 0.322374 0.129242
Si Si6 0.271322 0.179788 0.887962
Si Si7 0.346480 0.823505 0.747635
Si Si8 0.211750 0.678481 0.515180
O O1 0.470137 0.500000 0.696985
O O2 0.563651 0.255190 0.775324
O O3 0.479594 0.269386 0.776098
O O4 0.387327 0.246589 0.584809
O O5 0.864656 0.756086 0.413297
O O6 0.763951 0.771819 0.211259
O O7 0.688557 0.793284 0.228317
O O8 0.790318 0.000000 0.301303
O O9 0.889670 0.500000 0.222941
O O10 0.795283 0.257379 0.140672
O O11 0.963968 0.278839 0.356746
O O12 0.500000 0.814421 0.500000
O O13 0.440371 0.000000 0.509215
O O14 0.984158 0.500000 0.145777
O O15 0.049859 0.295753 0.153724
O O16 0.876572 0.284798 0.007268
O O17 0.263197 0.000000 0.883629
O O18 0.280970 0.730070 0.637170
O O19 0.331082 0.000000 0.719710
O O20 0.206612 0.500000 0.505927
O O21 0.250000 0.750000 0.500000
#
# Coordination Sequence:
#
# PCOD9224737 Si02
#       8
#     8   8   8   8   8   8   8   8
#     4  12  25  41  63  91 122 156 199 250 303 361
#     4  10  21  36  59  91 123 156 197 245 299 355
#     4  11  23  40  63  89 120 159 200 247 303 363
#     4  10  20  36  58  86 118 155 195 237 295 360
#     4  10  22  41  63  85 118 161 206 251 297 354
#     4  10  22  40  61  88 120 158 204 253 299 352
#     4  10  21  38  61  90 123 161 201 245 298 356
#     4  12  23  38  62  92 125 161 198 243 299 359
#
# _framework density 9.8765429999999999
#
# number of rings (size 3 to 8) (size 9 to 14) (size 15 to 20)
#    0.000    1.375    2.500    3.375    0.000    5.250 
#    0.000    2.500    0.000    0.000    0.000    3.500 
#    0.000    0.000    0.000    0.000    0.000    0.000 
#
# Total GULP energy -178807.484882 kJ/mol
# GULP energy per Si atom -5587.733903 kJ/mol
# Density = 0.985406 g / cm^3
# Si number density = 9.876543 Si / 1000 Ang^3
#
#
#
# Elastic Constant Matrix: (Units=GPa)
#
#
# Indices 1 2 3 4 5 6 
#
# 1 89.9452 34.6537 18.5816 0.0000 37.2925 0.0000
# 2 34.6537 69.1228 22.9131 0.0000 19.9188 0.0000
# 3 18.5816 22.9131 71.2473 0.0000 37.6905 0.0000
# 4 0.0000 0.0000 0.0000 29.8097 0.0000 4.4913
# 5 37.2925 19.9188 37.6905 0.0000 40.1419 0.0000
# 6 0.0000 0.0000 0.0000 4.4913 0.0000 19.0164
#
#
#
# Elastic Compliance Matrix: (Units=1/GPa)
#
#
# Indices 1 2 3 4 5 6 
#
# 1 0.023694 -0.007292 0.011715 0.000000 -0.029393 0.000000
# 2 -0.007292 0.019267 -0.005604 0.000000 0.002476 0.000000
# 3 0.011715 -0.005604 0.033914 0.000000 -0.039946 0.000000
# 4 0.000000 0.000000 0.000000 0.034784 0.000000 -0.008215
# 5 -0.029393 0.002476 -0.039946 0.000000 0.088496 0.000000
# 6 0.000000 0.000000 0.000000 -0.008215 0.000000 0.054527
#
#
# Mechanical properties :
#
#
# Convention : Reuss Voigt Hill
#
# Bulk Modulus (GPa) = 13.42050 42.51246 27.96648
# Shear Modulus (GPa) = 17.73795 28.07140 22.90468
#
# Velocity S-wave (km/s) = 2.99989 3.77386 3.40891
# Velocity P-wave (km/s) = 4.33682 6.36852 5.44821
#
# Compressibility (1/GPa) = 0.07451290
#
# Stress axis : x y z
#
# Youngs Moduli (GPa) = 42.20486 51.90236 29.48614
#
# Poissons Ratio (x) = 0.37846 -0.34543
# Poissons Ratio (y) = 0.30775 0.16525
# Poissons Ratio (z) = -0.49443 0.29087
#
# Static dielectric constant tensor:
#      x y z
#    x 1.743100 0.000000 -0.012000 
#    y 0.000000 1.663030 0.000000 
#    z -0.012000 0.000000 1.672180 
# 
# From -- ./inp_files/353439.got.cif
#   From: 2010.05.17/outbox.ucp.g08.bks.cvg/sg12_177_cif.got.tgz:353439.got - 2010.06.11 11:47:21.
