data_PCOD9224542
_publ_section_title
;
Structure prediction by ZEFSAII (Michael W. Deem and Ramdas Pophale) SiO2 
 PCOD9224542
Probable space group: C 2/M
;
_chemical_formula_sum "Si O2"
_cell_formula_units_Z 28
_cell_length_a 21.000000
_cell_length_b 9.000000
_cell_length_c 30.000000
_cell_angle_alpha 90.000000
_cell_angle_beta 30.000000
_cell_angle_gamma 90.000000
_cell_volume 2835.000000
_symmetry_space_group_name_H-M "C 2/M"
_symmetry_group_IT_number 12
_symmetry_cell_setting 'monoclinic'
loop_
_space_group_symop_operation_xyz
x,y,z
-x,y,-z
-x,-y,-z
x,-y,z
1/2+x,1/2+y,z
1/2-x,1/2+y,-z
1/2-x,1/2-y,-z
1/2+x,1/2-y,z
loop_
_atom_site_type_symbol
_atom_site_label
_atom_site_fract_x
_atom_site_fract_y
_atom_site_fract_z
Si Si1 0.082153 0.680363 0.908389
Si Si2 0.130507 0.824397 0.284792
Si Si3 0.495644 0.826170 0.289557
Si Si4 0.255370 0.176210 0.545636
Si Si5 0.513354 0.676558 0.543111
Si Si6 0.644444 0.670842 0.126127
Si Si7 0.568848 0.826029 0.084878
O O1 0.070822 0.500000 0.915575
O O2 0.230528 0.713660 0.817707
O O3 0.025695 0.729289 0.895604
O O4 0.000000 0.735695 0.000000
O O5 0.034088 0.723832 0.315726
O O6 0.109487 0.804081 0.350306
O O7 0.106116 0.000000 0.290204
O O8 0.371187 0.732736 0.352711
O O9 0.608380 0.775744 0.188653
O O10 0.471085 0.000000 0.301847
O O11 0.250000 0.250000 0.500000
O O12 0.374796 0.235473 0.500627
O O13 0.256521 0.000000 0.540245
O O14 0.500000 0.721938 0.500000
O O15 0.543340 0.500000 0.525509
O O16 0.617170 0.500000 0.154148
O O17 0.568702 0.728024 0.128956
O O18 0.791712 0.680222 0.022419
O O19 0.544378 0.000000 0.110732
#
# Coordination Sequence:
#
# PCOD9224542 Si02
#       7
#     8   8   8   8   8   8   8
#     4   9  17  31  54  83 114 153 198 240 288 352
#     4  10  20  36  59  84 115 154 197 248 299 358
#     4  12  24  38  60  88 117 152 199 252 304 364
#     4  12  24  41  65  91 121 158 200 251 307 364
#     4  10  22  40  62  91 127 166 205 248 305 372
#     4  10  20  35  56  83 116 155 197 247 300 355
#     4   9  18  34  56  82 117 157 199 244 293 353
#
# _framework density 9.8765429999999999
#
# number of rings (size 3 to 8) (size 9 to 14) (size 15 to 20)
#    0.000    1.714    1.429    3.857    0.000    4.286 
#    0.000    3.571    0.000    1.714    0.000    0.000 
#    0.000    0.000    0.000    0.000    0.000    0.000 
#
# Total GULP energy -156293.368666 kJ/mol
# GULP energy per Si atom -5581.906024 kJ/mol
# Density = 0.985406 g / cm^3
# Si number density = 9.876543 Si / 1000 Ang^3
#
#
#
# Elastic Constant Matrix: (Units=GPa)
#
#
# Indices 1 2 3 4 5 6 
#
# 1 101.6085 41.8758 38.3893 -0.0002 3.8370 0.0012
# 2 41.8758 70.1060 34.3344 -0.0006 -0.3428 0.0022
# 3 38.3893 34.3344 45.8896 0.0000 20.2153 0.0001
# 4 -0.0002 -0.0006 0.0000 14.6689 -0.0001 3.2661
# 5 3.8370 -0.3428 20.2153 -0.0001 21.6820 0.0000
# 6 0.0012 0.0022 0.0001 3.2661 0.0000 24.4712
#
#
#
# Elastic Compliance Matrix: (Units=1/GPa)
#
#
# Indices 1 2 3 4 5 6 
#
# 1 0.017909 0.001865 -0.025445 0.000001 0.020584 -0.000001
# 2 0.001865 0.039118 -0.052530 0.000003 0.049265 -0.000004
# 3 -0.025445 -0.052530 0.137054 -0.000005 -0.124110 0.000006
# 4 0.000001 0.000003 -0.000005 0.070259 0.000005 -0.009377
# 5 0.020584 0.049265 -0.124110 0.000005 0.158972 -0.000006
# 6 -0.000001 -0.000004 0.000006 -0.009377 -0.000006 0.042116
#
#
# Mechanical properties :
#
#
# Convention : Reuss Voigt Hill
#
# Bulk Modulus (GPa) = 23.88919 49.64478 36.76699
# Shear Modulus (GPa) = 7.91638 19.03140 13.47389
#
# Velocity S-wave (km/s) = 2.00409 3.10734 2.61457
# Velocity P-wave (km/s) = 4.18035 6.16939 5.26956
#
# Compressibility (1/GPa) = 0.04185994
#
# Stress axis : x y z
#
# Youngs Moduli (GPa) = 55.83632 25.56389 7.29642
#
# Poissons Ratio (x) = -0.04767 0.18566
# Poissons Ratio (y) = -0.10412 0.38328
# Poissons Ratio (z) = 1.42077 1.34287
#
# Static dielectric constant tensor:
#      x y z
#    x 1.700650 0.000000 -0.015980 
#    y 0.000000 1.657270 0.000000 
#    z -0.015980 0.000000 1.752110 
# 
# From -- ./inp_files/380668.got.cif
#   From: 2010.05.17/outbox.ucp.g08.bks.cvg/sg12_191_cif.got.tgz:380668.got - 2010.06.11 11:47:21.
