data_PCOD9224728
_publ_section_title
;
Structure prediction by ZEFSAII (Michael W. Deem and Ramdas Pophale) SiO2 
 PCOD9224728
Probable space group: C 2/M
;
_chemical_formula_sum "Si O2"
_cell_formula_units_Z 32
_cell_length_a 21.000000
_cell_length_b 9.000000
_cell_length_c 24.000000
_cell_angle_alpha 90.000000
_cell_angle_beta 130.000000
_cell_angle_gamma 90.000000
_cell_volume 3474.777594
_symmetry_space_group_name_H-M "C 2/M"
_symmetry_group_IT_number 12
_symmetry_cell_setting 'monoclinic'
loop_
_space_group_symop_operation_xyz
x,y,z
-x,y,-z
-x,-y,-z
x,-y,z
1/2+x,1/2+y,z
1/2-x,1/2+y,-z
1/2-x,1/2-y,-z
1/2+x,1/2-y,z
loop_
_atom_site_type_symbol
_atom_site_label
_atom_site_fract_x
_atom_site_fract_y
_atom_site_fract_z
Si Si1 0.588583 0.177586 0.759255
Si Si2 0.996589 0.679918 0.174520
Si Si3 0.984756 0.178616 0.390708
Si Si4 0.671114 0.819415 0.216484
Si Si5 0.169803 0.321255 0.985036
Si Si6 0.667067 0.679876 0.620533
Si Si7 0.213572 0.823053 0.123091
Si Si8 0.178720 0.180307 0.499678
O O1 0.530098 0.224091 0.778025
O O2 0.563257 0.268588 0.690965
O O3 0.686484 0.201012 0.825814
O O4 0.577587 0.000000 0.743948
O O5 0.998631 0.500000 0.175904
O O6 0.086660 0.726453 0.201694
O O7 0.917535 0.723431 0.092327
O O8 0.923501 0.230078 0.407030
O O9 0.081223 0.226112 0.437209
O O10 0.988247 0.000000 0.397225
O O11 0.755909 0.778553 0.296760
O O12 0.679238 0.742570 0.161315
O O13 0.669658 0.000000 0.210013
O O14 0.176631 0.500000 0.985663
O O15 0.171731 0.262889 0.048788
O O16 0.250000 0.250000 0.000000
O O17 0.662625 0.500000 0.617611
O O18 0.690864 0.723415 0.571262
O O19 0.199715 0.000000 0.111944
O O20 0.250000 0.250000 0.500000
O O21 0.183660 0.000000 0.497063
#
# Coordination Sequence:
#
# PCOD9224728 Si02
#       8
#     8   8   8   8   8   8   8   8
#     4  10  20  36  58  83 113 149 189 235 283 338
#     4   9  20  37  57  83 112 146 190 236 284 339
#     4  10  20  36  58  85 112 145 192 238 277 327
#     4  10  20  37  61  85 109 146 194 236 280 338
#     4  11  21  37  59  84 115 151 194 240 288 342
#     4   9  18  35  60  83 107 146 192 229 272 332
#     4  11  22  38  58  84 117 150 189 237 289 341
#     4  10  22  38  57  85 119 150 184 232 282 334
#
# _framework density 9.2092220000000005
#
# number of rings (size 3 to 8) (size 9 to 14) (size 15 to 20)
#    0.000    2.000    2.500    1.125    1.750    3.000 
#    0.000    5.625    0.000    1.500    0.000    0.000 
#    0.000    0.000    0.000    0.000    0.000    0.000 
#
# Total GULP energy -178444.371539 kJ/mol
# GULP energy per Si atom -5576.386611 kJ/mol
# Density = 0.918826 g / cm^3
# Si number density = 9.209222 Si / 1000 Ang^3
#
#
#
# Elastic Constant Matrix: (Units=GPa)
#
#
# Indices 1 2 3 4 5 6 
#
# 1 186.3913 21.6049 46.7883 0.0000 -0.3749 0.0000
# 2 21.6049 19.1450 9.9183 0.0000 4.3352 0.0000
# 3 46.7883 9.9183 74.9830 0.0000 -3.6591 0.0000
# 4 0.0000 0.0000 0.0000 19.1593 0.0000 0.1403
# 5 -0.3749 4.3352 -3.6591 0.0000 34.3160 0.0000
# 6 0.0000 0.0000 0.0000 0.1403 0.0000 33.8207
#
#
#
# Elastic Compliance Matrix: (Units=1/GPa)
#
#
# Indices 1 2 3 4 5 6 
#
# 1 0.006958 -0.006144 -0.003506 0.000000 0.000478 0.000000
# 2 -0.006144 0.063725 -0.005017 0.000000 -0.008653 0.000000
# 3 -0.003506 -0.005017 0.016301 0.000000 0.002334 0.000000
# 4 0.000000 0.000000 0.000000 0.052196 0.000000 -0.000216
# 5 0.000478 -0.008653 0.002334 0.000000 0.030488 0.000000
# 6 0.000000 0.000000 0.000000 -0.000216 0.000000 0.029569
#
#
# Mechanical properties :
#
#
# Convention : Reuss Voigt Hill
#
# Bulk Modulus (GPa) = 17.34607 48.57137 32.95872
# Shear Modulus (GPa) = 20.17843 30.93972 25.55908
#
# Velocity S-wave (km/s) = 3.31351 4.10301 3.72921
# Velocity P-wave (km/s) = 4.90687 6.99103 6.03953
#
# Compressibility (1/GPa) = 0.05764993
#
# Stress axis : x y z
#
# Youngs Moduli (GPa) = 143.71433 15.69232 61.34421
#
# Poissons Ratio (x) = 0.09642 0.21506
# Poissons Ratio (y) = 0.88304 0.30779
# Poissons Ratio (z) = 0.50383 0.07873
#
# Static dielectric constant tensor:
#      x y z
#    x 1.628640 0.000000 -0.006240 
#    y 0.000000 1.614740 0.000000 
#    z -0.006240 0.000000 1.660970 
# 
# From -- ./inp_files/346160.got.cif
#   From: 2010.05.17/outbox.ucp.g08.bks.cvg/sg12_174_cif.got.tgz:346160.got - 2010.06.11 11:47:21.
