data_PCOD9224133
_publ_section_title
;
Structure prediction by ZEFSAII (Michael W. Deem and Ramdas Pophale) SiO2 
 PCOD9224133
Probable space group: C 2/M
;
_chemical_formula_sum "Si O2"
_cell_formula_units_Z 20
_cell_length_a 18.000000
_cell_length_b 12.000000
_cell_length_c 21.000000
_cell_angle_alpha 90.000000
_cell_angle_beta 30.000000
_cell_angle_gamma 90.000000
_cell_volume 2268.000000
_symmetry_space_group_name_H-M "C 2/M"
_symmetry_group_IT_number 12
_symmetry_cell_setting 'monoclinic'
loop_
_space_group_symop_operation_xyz
x,y,z
-x,y,-z
-x,-y,-z
x,-y,z
1/2+x,1/2+y,z
1/2-x,1/2+y,-z
1/2-x,1/2-y,-z
1/2+x,1/2-y,z
loop_
_atom_site_type_symbol
_atom_site_label
_atom_site_fract_x
_atom_site_fract_y
_atom_site_fract_z
Si Si1 0.854479 0.364466 0.736117
Si Si2 0.412489 0.243503 0.997326
Si Si3 0.169339 0.869674 0.741699
Si Si4 0.329102 0.736566 0.510801
Si Si5 0.017572 0.500000 0.908155
Si Si6 0.336638 0.500000 0.583786
O O1 0.870103 0.500000 0.737347
O O2 0.774075 0.355487 0.726607
O O3 0.009257 0.296554 0.616488
O O4 0.745810 0.299984 0.867182
O O5 0.508856 0.321466 0.879659
O O6 0.432196 0.116545 0.956144
O O7 0.500000 0.243139 0.000000
O O8 0.238288 0.806089 0.630917
O O9 0.160264 0.000000 0.734807
O O10 0.250000 0.750000 0.500000
O O11 0.334316 0.611077 0.539393
O O12 0.186087 0.500000 0.745895
O O13 0.000000 0.500000 0.000000
O O14 0.500000 0.500000 0.500000
#
# Coordination Sequence:
#
# PCOD9224133 Si02
#       6
#     8   8   8   8   4   4
#     4  10  21  39  66  94 122 161 214 267 323 397
#     4   9  18  33  60  94 124 156 204 271 328 377
#     4  10  19  37  65  90 120 159 211 261 319 385
#     4  12  27  41  61  90 135 173 212 268 331 389
#     4  10  20  36  64  96 134 157 213 289 335 371
#     4  12  26  44  72 100 131 179 235 274 320 400
#
# _framework density 8.8183419999999995
#
# number of rings (size 3 to 8) (size 9 to 14) (size 15 to 20)
#    0.000    1.600    2.000    3.000    8.400    4.000 
#    0.000    1.000    0.000    0.000    0.000    0.000 
#    0.000    0.000    0.000    0.000    0.000    0.000 
#
# Total GULP energy -111349.092030 kJ/mol
# GULP energy per Si atom -5567.454602 kJ/mol
# Density = 0.879827 g / cm^3
# Si number density = 8.818342 Si / 1000 Ang^3
#
#
#
# Elastic Constant Matrix: (Units=GPa)
#
#
# Indices 1 2 3 4 5 6 
#
# 1 67.0295 55.4235 45.8136 -0.0002 9.5006 0.0000
# 2 55.4235 197.1081 93.9553 -0.0006 11.9746 0.0001
# 3 45.8136 93.9553 201.9239 -0.0009 13.0571 0.0001
# 4 -0.0002 -0.0006 -0.0009 45.8751 0.0001 5.0654
# 5 9.5006 11.9746 13.0571 0.0001 13.2658 0.0001
# 6 0.0000 0.0001 0.0001 5.0654 0.0001 22.2277
#
#
#
# Elastic Compliance Matrix: (Units=1/GPa)
#
#
# Indices 1 2 3 4 5 6 
#
# 1 0.021362 -0.004398 -0.002208 0.000000 -0.009156 0.000000
# 2 -0.004398 0.007546 -0.002431 0.000000 -0.001269 0.000000
# 3 -0.002208 -0.002431 0.006771 0.000000 -0.002889 0.000000
# 4 0.000000 0.000000 0.000000 0.022361 0.000000 -0.005096
# 5 -0.009156 -0.001269 -0.002889 0.000000 0.085928 0.000000
# 6 0.000000 0.000000 0.000000 -0.005096 0.000000 0.046150
#
#
# Mechanical properties :
#
#
# Convention : Reuss Voigt Hill
#
# Bulk Modulus (GPa) = 56.80315 95.16068 75.98191
# Shear Modulus (GPa) = 23.35775 34.33167 28.84471
#
# Velocity S-wave (km/s) = 3.64316 4.41682 4.04851
# Velocity P-wave (km/s) = 7.06924 8.94898 8.06407
#
# Compressibility (1/GPa) = 0.01760466
#
# Stress axis : x y z
#
# Youngs Moduli (GPa) = 46.81146 132.52146 147.67778
#
# Poissons Ratio (x) = 0.58280 0.32614
# Poissons Ratio (y) = 0.20587 0.35905
# Poissons Ratio (z) = 0.10338 0.32220
#
# Static dielectric constant tensor:
#      x y z
#    x 1.598330 0.000000 -0.002020 
#    y 0.000000 1.634940 0.000000 
#    z -0.002020 0.000000 1.620490 
# 
# From -- ./inp_files/315560.got.cif
#   From: 2010.05.17/outbox.ucp.g08.bks.cvg/sg12_158_cif.got.tgz:315560.got - 2010.06.11 11:47:21.
