data_PCOD9224135
_publ_section_title
;
Structure prediction by ZEFSAII (Michael W. Deem and Ramdas Pophale) SiO2 
 PCOD9224135
Probable space group: C 2/M
;
_chemical_formula_sum "Si O2"
_cell_formula_units_Z 20
_cell_length_a 15.000000
_cell_length_b 27.000000
_cell_length_c 15.000000
_cell_angle_alpha 90.000000
_cell_angle_beta 160.000000
_cell_angle_gamma 90.000000
_cell_volume 2077.772371
_symmetry_space_group_name_H-M "C 2/M"
_symmetry_group_IT_number 12
_symmetry_cell_setting 'monoclinic'
loop_
_space_group_symop_operation_xyz
x,y,z
-x,y,-z
-x,-y,-z
x,-y,z
1/2+x,1/2+y,z
1/2-x,1/2+y,-z
1/2-x,1/2-y,-z
1/2+x,1/2-y,z
loop_
_atom_site_type_symbol
_atom_site_label
_atom_site_fract_x
_atom_site_fract_y
_atom_site_fract_z
Si Si1 0.814652 0.557637 0.025849
Si Si2 0.646759 0.305877 0.418581
Si Si3 0.913946 0.342105 0.025452
Si Si4 0.250823 0.057044 0.413994
Si Si5 0.275609 0.346653 0.714345
O O1 0.852324 0.500000 0.033202
O O2 0.861592 0.599339 0.995031
O O3 0.013934 0.567169 0.295402
O O4 0.521240 0.562664 0.787790
O O5 0.750000 0.250000 0.500000
O O6 0.662695 0.326853 0.329872
O O7 0.852206 0.327829 0.685270
O O8 0.355414 0.314818 0.189692
O O9 0.000000 0.333529 0.000000
O O10 0.249904 0.094962 0.331529
O O11 0.271297 0.000000 0.404408
O O12 0.000000 0.329460 0.500000
O O13 0.500000 0.337182 0.000000
#
# Coordination Sequence:
#
# PCOD9224135 Si02
#       5
#     8   8   8   8   8
#     4  10  19  37  65  96 134 176 213 261 325 394
#     4  12  27  48  68  95 134 172 221 285 337 384
#     4  12  24  44  73 101 132 173 222 271 336 400
#     4  10  20  37  62  91 133 178 216 261 321 387
#     4  12  24  40  67  95 129 172 220 268 328 393
#
# _framework density 9.6256939999999993
#
# number of rings (size 3 to 8) (size 9 to 14) (size 15 to 20)
#    0.000    0.800    4.000    3.600    0.000    3.600 
#    0.000    0.000    0.000    6.000    0.000    0.000 
#    0.000    0.000    0.000    0.000    0.000    0.000 
#
# Total GULP energy -111557.116917 kJ/mol
# GULP energy per Si atom -5577.855846 kJ/mol
# Density = 0.960378 g / cm^3
# Si number density = 9.625694 Si / 1000 Ang^3
#
#
#
# Elastic Constant Matrix: (Units=GPa)
#
#
# Indices 1 2 3 4 5 6 
#
# 1 162.6962 36.7238 60.6679 -0.0025 -2.7873 -0.0012
# 2 36.7238 97.6615 14.7650 0.0010 -5.0956 -0.0004
# 3 60.6679 14.7650 153.3140 -0.0061 6.0729 -0.0035
# 4 -0.0025 0.0010 -0.0061 28.9245 -0.0054 -2.3533
# 5 -2.7873 -5.0956 6.0729 -0.0054 41.8472 -0.0026
# 6 -0.0012 -0.0004 -0.0035 -2.3533 -0.0026 28.1522
#
#
#
# Elastic Compliance Matrix: (Units=1/GPa)
#
#
# Indices 1 2 3 4 5 6 
#
# 1 0.007782 -0.002460 -0.002868 0.000000 0.000635 0.000000
# 2 -0.002460 0.011253 -0.000159 0.000000 0.001229 0.000000
# 3 -0.002868 -0.000159 0.007725 0.000001 -0.001331 0.000001
# 4 0.000000 0.000000 0.000001 0.034810 0.000004 0.002910
# 5 0.000635 0.001229 -0.001331 0.000004 0.024282 0.000002
# 6 0.000000 0.000000 0.000001 0.002910 0.000002 0.035764
#
#
# Mechanical properties :
#
#
# Convention : Reuss Voigt Hill
#
# Bulk Modulus (GPa) = 63.34268 70.88722 67.11495
# Shear Modulus (GPa) = 36.27127 39.88579 38.07853
#
# Velocity S-wave (km/s) = 4.34531 4.55668 4.45225
# Velocity P-wave (km/s) = 7.62562 8.03656 7.83378
#
# Compressibility (1/GPa) = 0.01578714
#
# Stress axis : x y z
#
# Youngs Moduli (GPa) = 128.50546 88.86906 129.44366
#
# Poissons Ratio (x) = 0.21857 0.37119
# Poissons Ratio (y) = 0.31606 0.02060
# Poissons Ratio (z) = 0.36850 0.01414
#
# Static dielectric constant tensor:
#      x y z
#    x 1.656350 0.000000 0.015880 
#    y 0.000000 1.743040 0.000000 
#    z 0.015880 0.000000 1.686210 
# 
# From -- ./inp_files/7570.got.cif
#   From: 2010.05.17/outbox.ucp.g08.bks.cvg/sg12_4_cif.got.tgz:7570.got - 2010.06.11 11:47:21.
