data_PCOD9224949
_publ_section_title
;
Structure prediction by ZEFSAII (Michael W. Deem and Ramdas Pophale) SiO2 
 PCOD9224949
Probable space group: C 2/M
;
_chemical_formula_sum "Si O2"
_cell_formula_units_Z 24
_cell_length_a 24.000000
_cell_length_b 9.000000
_cell_length_c 12.000000
_cell_angle_alpha 90.000000
_cell_angle_beta 110.000000
_cell_angle_gamma 90.000000
_cell_volume 2435.683273
_symmetry_space_group_name_H-M "C 2/M"
_symmetry_group_IT_number 12
_symmetry_cell_setting 'monoclinic'
loop_
_space_group_symop_operation_xyz
x,y,z
-x,y,-z
-x,-y,-z
x,-y,z
1/2+x,1/2+y,z
1/2-x,1/2+y,-z
1/2-x,1/2-y,-z
1/2+x,1/2-y,z
loop_
_atom_site_type_symbol
_atom_site_label
_atom_site_fract_x
_atom_site_fract_y
_atom_site_fract_z
Si Si1 0.876980 0.177754 0.657904
Si Si2 0.912190 0.179574 0.192604
Si Si3 0.772603 0.676793 0.700698
Si Si4 0.806762 0.677373 0.980482
Si Si5 0.019564 0.321623 0.139937
Si Si6 0.865922 0.179783 0.401847
O O1 0.810227 0.226723 0.640551
O O2 0.890568 0.226031 0.539597
O O3 0.917638 0.258516 0.777015
O O4 0.883803 0.000000 0.670671
O O5 0.973415 0.246158 0.192155
O O6 0.897777 0.227288 0.309777
O O7 0.912074 0.000000 0.187903
O O8 0.862984 0.244226 0.074767
O O9 0.776968 0.500000 0.678191
O O10 0.799029 0.699117 0.842906
O O11 0.703509 0.719198 0.654164
O O12 0.809190 0.500000 0.001915
O O13 0.750000 0.750000 0.000000
O O14 0.019001 0.500000 0.148023
O O15 0.000000 0.283604 0.000000
O O16 0.868395 0.000000 0.403567
#
# Coordination Sequence:
#
# PCOD9224949 Si02
#       6
#     8   8   8   8   8   8
#     4  11  23  39  62  90 118 156 205 248 292 354
#     4  11  22  40  64  90 122 158 199 248 297 354
#     4  10  20  38  60  85 124 164 196 241 300 353
#     4  11  21  35  58  88 122 158 197 242 295 350
#     4  11  25  45  64  85 118 158 197 245 305 360
#     4   9  20  39  60  87 124 161 194 239 305 358
#
# _framework density 9.8534980000000001
#
# number of rings (size 3 to 8) (size 9 to 14) (size 15 to 20)
#    0.000    1.500    1.667    3.500    0.000    7.333 
#    0.000    7.500    0.000    0.000    0.000    0.000 
#    0.000    0.000    0.000    0.000    0.000    0.000 
#
# Total GULP energy -134109.622056 kJ/mol
# GULP energy per Si atom -5587.900919 kJ/mol
# Density = 0.983107 g / cm^3
# Si number density = 9.853498 Si / 1000 Ang^3
#
#
#
# Elastic Constant Matrix: (Units=GPa)
#
#
# Indices 1 2 3 4 5 6 
#
# 1 85.4672 20.5922 25.7839 0.0000 -9.7071 0.0000
# 2 20.5922 63.5454 39.2317 0.0000 -9.0993 0.0000
# 3 25.7839 39.2317 119.5299 0.0000 -12.9315 0.0000
# 4 0.0000 0.0000 0.0000 23.7524 0.0000 0.2491
# 5 -9.7071 -9.0993 -12.9315 0.0000 25.7953 0.0000
# 6 0.0000 0.0000 0.0000 0.2491 0.0000 34.6901
#
#
#
# Elastic Compliance Matrix: (Units=1/GPa)
#
#
# Indices 1 2 3 4 5 6 
#
# 1 0.013224 -0.002861 -0.001570 0.000000 0.003180 0.000000
# 2 -0.002861 0.020739 -0.005831 0.000000 0.003316 0.000000
# 3 -0.001570 -0.005831 0.010925 0.000000 0.002829 0.000000
# 4 0.000000 0.000000 0.000000 0.042104 0.000000 -0.000302
# 5 0.003180 0.003316 0.002829 0.000000 0.042551 0.000000
# 6 0.000000 0.000000 0.000000 -0.000302 0.000000 0.028829
#
#
# Mechanical properties :
#
#
# Convention : Reuss Voigt Hill
#
# Bulk Modulus (GPa) = 41.04295 48.86200 44.95248
# Shear Modulus (GPa) = 26.73561 29.04322 27.88941
#
# Velocity S-wave (km/s) = 3.68728 3.84311 3.76600
# Velocity P-wave (km/s) = 6.24498 6.67389 6.46299
#
# Compressibility (1/GPa) = 0.02436472
#
# Stress axis : x y z
#
# Youngs Moduli (GPa) = 75.61752 48.21925 91.53710
#
# Poissons Ratio (x) = 0.13796 0.14367
# Poissons Ratio (y) = 0.21634 0.53374
# Poissons Ratio (z) = 0.11868 0.28116
#
# Static dielectric constant tensor:
#      x y z
#    x 1.903140 0.000000 0.085340 
#    y 0.000000 1.652430 0.000000 
#    z 0.085340 0.000000 1.727450 
# 
# From -- ./inp_files/173038.got.cif
#   From: 2010.05.17/outbox.ucp.g08.bks.cvg/sg12_87_cif.got.tgz:173038.got - 2010.06.11 11:47:21.
