data_PCOD9224129
_publ_section_title
;
Structure prediction by ZEFSAII (Michael W. Deem and Ramdas Pophale) SiO2 
 PCOD9224129
Probable space group: C 2/M
;
_chemical_formula_sum "Si O2"
_cell_formula_units_Z 24
_cell_length_a 24.000000
_cell_length_b 12.000000
_cell_length_c 9.000000
_cell_angle_alpha 90.000000
_cell_angle_beta 110.000000
_cell_angle_gamma 90.000000
_cell_volume 2435.683273
_symmetry_space_group_name_H-M "C 2/M"
_symmetry_group_IT_number 12
_symmetry_cell_setting 'monoclinic'
loop_
_space_group_symop_operation_xyz
x,y,z
-x,y,-z
-x,-y,-z
x,-y,z
1/2+x,1/2+y,z
1/2-x,1/2+y,-z
1/2-x,1/2-y,-z
1/2+x,1/2-y,z
loop_
_atom_site_type_symbol
_atom_site_label
_atom_site_fract_x
_atom_site_fract_y
_atom_site_fract_z
Si Si1 0.496430 0.865909 0.173908
Si Si2 0.117415 0.625976 0.432875
Si Si3 0.325656 0.685122 0.339424
Si Si4 0.687103 0.127891 0.186869
Si Si5 0.962114 0.000000 0.220661
Si Si6 0.911897 0.000000 0.516216
Si Si7 0.609659 0.715686 0.902860
O O1 0.553218 0.828122 0.321765
O O2 0.437460 0.811050 0.184222
O O3 0.494716 0.000000 0.177108
O O4 0.500000 0.836154 0.000000
O O5 0.107891 0.500000 0.477258
O O6 0.155456 0.694504 0.584454
O O7 0.154882 0.623703 0.315584
O O8 0.256155 0.657492 0.275860
O O9 0.366769 0.604189 0.477436
O O10 0.348083 0.676953 0.191392
O O11 0.682738 0.000000 0.119799
O O12 0.651851 0.222659 0.061526
O O13 0.933800 0.891712 0.112572
O O14 0.939067 0.000000 0.372456
O O15 0.033784 0.000000 0.315561
#
# Coordination Sequence:
#
# PCOD9224129 Si02
#       7
#     8   8   8   8   4   4   8
#     4  10  19  37  63  88 116 156 199 245 302 368
#     4  10  22  38  61  89 120 155 199 250 308 361
#     4  11  22  39  60  90 120 158 208 253 296 359
#     4  11  22  41  63  85 120 169 207 241 303 374
#     4   9  20  36  58  89 124 153 199 254 304 354
#     4   9  18  38  61  82 119 167 198 240 304 362
#     4  11  22  38  62  91 120 159 203 252 307 357
#
# _framework density 9.8534980000000001
#
# number of rings (size 3 to 8) (size 9 to 14) (size 15 to 20)
#    0.000    1.667    2.500    2.500    0.000    3.333 
#    1.500    2.917    0.000    0.000    0.000    0.000 
#    0.000    0.000    0.000    0.000    0.000    0.000 
#
# Total GULP energy -133804.065341 kJ/mol
# GULP energy per Si atom -5575.169389 kJ/mol
# Density = 0.983107 g / cm^3
# Si number density = 9.853498 Si / 1000 Ang^3
#
#
#
# Elastic Constant Matrix: (Units=GPa)
#
#
# Indices 1 2 3 4 5 6 
#
# 1 101.9609 8.1756 10.8424 0.0000 47.3296 0.0000
# 2 8.1756 78.8822 35.9334 0.0000 31.6850 0.0000
# 3 10.8424 35.9334 33.4771 0.0000 32.6565 0.0000
# 4 0.0000 0.0000 0.0000 35.9912 0.0000 15.0811
# 5 47.3296 31.6850 32.6565 0.0000 35.5867 0.0000
# 6 0.0000 0.0000 0.0000 15.0811 0.0000 32.6995
#
#
#
# Elastic Compliance Matrix: (Units=1/GPa)
#
#
# Indices 1 2 3 4 5 6 
#
# 1 -0.003480 0.002775 -0.037742 0.000000 0.036793 0.000000
# 2 0.002775 0.024617 -0.022334 0.000000 -0.005113 0.000000
# 3 -0.037742 -0.022334 -0.021904 0.000000 0.090183 0.000000
# 4 0.000000 0.000000 0.000000 0.034440 0.000000 -0.015884
# 5 0.036793 -0.005113 0.090183 0.000000 -0.099039 0.000000
# 6 0.000000 0.000000 0.000000 -0.015884 0.000000 0.037907
#
#
# Mechanical properties :
#
#
# Convention : Reuss Voigt Hill
#
# Bulk Modulus (GPa) = -8.66766 36.02479 13.67856
# Shear Modulus (GPa) = 102.69390 31.48006 67.08698
#
# Velocity S-wave (km/s) = 7.22658 4.00109 5.84090
# Velocity P-wave (km/s) = 8.07611 6.29800 7.24184
#
# Compressibility (1/GPa) = -0.11537135
#
# Stress axis : x y z
#
# Youngs Moduli (GPa) = -287.31733 40.62158 -45.65312
#
# Poissons Ratio (x) = -0.11271 -1.72305
# Poissons Ratio (y) = 0.79720 -1.01964
# Poissons Ratio (z) = -10.84400 0.90726
#
# Static dielectric constant tensor:
#      x y z
#    x 1.696940 0.000000 -0.019500 
#    y 0.000000 1.752760 0.000000 
#    z -0.019500 0.000000 1.674120 
# 
# From -- ./inp_files/94937.got.cif
#   From: 2010.05.17/outbox.ucp.g08.bks.cvg/sg12_48_cif.got.tgz:94937.got - 2010.06.11 11:47:21.
