data_PCOD9224878
_publ_section_title
;
Structure prediction by ZEFSAII (Michael W. Deem and Ramdas Pophale) SiO2 
 PCOD9224878
Probable space group: C 2/M
;
_chemical_formula_sum "Si O2"
_cell_formula_units_Z 32
_cell_length_a 18.000000
_cell_length_b 9.000000
_cell_length_c 30.000000
_cell_angle_alpha 90.000000
_cell_angle_beta 40.000000
_cell_angle_gamma 90.000000
_cell_volume 3123.947783
_symmetry_space_group_name_H-M "C 2/M"
_symmetry_group_IT_number 12
_symmetry_cell_setting 'monoclinic'
loop_
_space_group_symop_operation_xyz
x,y,z
-x,y,-z
-x,-y,-z
x,-y,z
1/2+x,1/2+y,z
1/2-x,1/2+y,-z
1/2-x,1/2-y,-z
1/2+x,1/2-y,z
loop_
_atom_site_type_symbol
_atom_site_label
_atom_site_fract_x
_atom_site_fract_y
_atom_site_fract_z
Si Si1 0.447196 0.178169 0.185217
Si Si2 0.936651 0.680791 0.773995
Si Si3 0.840028 0.829068 0.568681
Si Si4 0.465613 0.320653 0.942512
Si Si5 0.292388 0.175808 0.683356
Si Si6 0.679726 0.680189 0.908191
Si Si7 0.392278 0.169733 0.381175
Si Si8 0.025206 0.175227 0.579176
O O1 0.502153 0.219360 0.207645
O O2 0.522970 0.241535 0.109925
O O3 0.319608 0.248630 0.243797
O O4 0.440068 0.000000 0.185852
O O5 0.935972 0.500000 0.772185
O O6 0.805068 0.734344 0.836142
O O7 0.011404 0.729320 0.697548
O O8 0.807499 0.725805 0.624911
O O9 0.725361 0.836218 0.591880
O O10 0.938181 0.783505 0.487977
O O11 0.861704 0.000000 0.574340
O O12 0.462719 0.500000 0.938122
O O13 0.580393 0.282124 0.918463
O O14 0.360742 0.275548 0.023500
O O15 0.410730 0.241312 0.648106
O O16 0.285173 0.000000 0.691432
O O17 0.683164 0.500000 0.907572
O O18 0.380901 0.272764 0.428915
O O19 0.420920 0.000000 0.381584
O O20 0.011521 0.000000 0.586929
#
# Coordination Sequence:
#
# PCOD9224878 Si02
#       8
#     8   8   8   8   8   8   8   8
#     4  11  22  38  58  82 116 154 191 238 296 347
#     4   9  18  34  57  81 112 155 196 232 282 342
#     4  10  21  41  63  84 117 156 189 236 299 351
#     4   9  18  34  58  87 117 149 192 237 278 336
#     4  12  25  40  60  85 114 151 198 246 291 350
#     4   8  16  33  57  85 116 151 190 234 282 336
#     4  10  20  37  60  86 117 155 198 239 284 345
#     4  11  24  39  59  87 119 152 191 240 296 351
#
# _framework density 10.243449
#
# number of rings (size 3 to 8) (size 9 to 14) (size 15 to 20)
#    0.000    2.000    1.250    3.375    1.750    3.500 
#    0.000    1.250    0.000    3.000    0.000    0.000 
#    0.000    0.000    0.000    0.000    0.000    0.000 
#
# Total GULP energy -178620.988533 kJ/mol
# GULP energy per Si atom -5581.905892 kJ/mol
# Density = 1.022013 g / cm^3
# Si number density = 10.243449 Si / 1000 Ang^3
#
#
#
# Elastic Constant Matrix: (Units=GPa)
#
#
# Indices 1 2 3 4 5 6 
#
# 1 69.0799 22.0294 19.0981 0.0001 12.1845 0.0006
# 2 22.0294 44.2343 8.7771 0.0004 9.9131 0.0024
# 3 19.0981 8.7771 61.4779 -0.0001 2.5866 0.0002
# 4 0.0001 0.0004 -0.0001 23.9824 -0.0001 7.5713
# 5 12.1845 9.9131 2.5866 -0.0001 38.0397 0.0000
# 6 0.0006 0.0024 0.0002 7.5713 0.0000 20.5953
#
#
#
# Elastic Compliance Matrix: (Units=1/GPa)
#
#
# Indices 1 2 3 4 5 6 
#
# 1 0.018842 -0.007633 -0.004606 0.000000 -0.003733 0.000000
# 2 -0.007633 0.027735 -0.001391 0.000001 -0.004688 -0.000003
# 3 -0.004606 -0.001391 0.017869 0.000000 0.000623 0.000000
# 4 0.000000 0.000001 0.000000 0.047172 0.000000 -0.017342
# 5 -0.003733 -0.004688 0.000623 0.000000 0.028663 0.000001
# 6 0.000000 -0.000003 0.000000 -0.017342 0.000001 0.054930
#
#
# Mechanical properties :
#
#
# Convention : Reuss Voigt Hill
#
# Bulk Modulus (GPa) = 26.89262 30.51127 28.70194
# Shear Modulus (GPa) = 21.28851 24.84931 23.06891
#
# Velocity S-wave (km/s) = 3.22705 3.48650 3.35928
# Velocity P-wave (km/s) = 5.20003 5.57969 5.39321
#
# Compressibility (1/GPa) = 0.03718493
#
# Stress axis : x y z
#
# Youngs Moduli (GPa) = 53.07256 36.05554 55.96151
#
# Poissons Ratio (x) = 0.27522 0.25779
# Poissons Ratio (y) = 0.40511 0.07785
# Poissons Ratio (z) = 0.24448 0.05016
#
# Static dielectric constant tensor:
#      x y z
#    x 1.815450 0.000000 -0.032300 
#    y 0.000000 1.685000 0.000000 
#    z -0.032300 0.000000 1.719240 
# 
# From -- ./inp_files/378142.got.cif
#   From: 2010.05.17/outbox.ucp.g08.bks.cvg/sg12_190_cif.got.tgz:378142.got - 2010.06.11 11:47:21.
