data_PCOD9224346
_publ_section_title
;
Structure prediction by ZEFSAII (Michael W. Deem and Ramdas Pophale) SiO2 
 PCOD9224346
Probable space group: C 2/M
;
_chemical_formula_sum "Si O2"
_cell_formula_units_Z 32
_cell_length_a 21.000000
_cell_length_b 9.000000
_cell_length_c 24.000000
_cell_angle_alpha 90.000000
_cell_angle_beta 50.000000
_cell_angle_gamma 90.000000
_cell_volume 3474.777594
_symmetry_space_group_name_H-M "C 2/M"
_symmetry_group_IT_number 12
_symmetry_cell_setting 'monoclinic'
loop_
_space_group_symop_operation_xyz
x,y,z
-x,y,-z
-x,-y,-z
x,-y,z
1/2+x,1/2+y,z
1/2-x,1/2+y,-z
1/2-x,1/2-y,-z
1/2+x,1/2-y,z
loop_
_atom_site_type_symbol
_atom_site_label
_atom_site_fract_x
_atom_site_fract_y
_atom_site_fract_z
Si Si1 0.403726 0.326443 0.306638
Si Si2 0.177292 0.679747 0.195360
Si Si3 0.180395 0.819661 0.805345
Si Si4 0.334091 0.179557 0.927567
Si Si5 0.254759 0.321152 0.651816
Si Si6 0.495944 0.326703 0.135398
Si Si7 0.426668 0.330899 0.496604
Si Si8 0.507939 0.177924 0.345271
O O1 0.389059 0.500000 0.327208
O O2 0.317882 0.239441 0.346995
O O3 0.454977 0.319215 0.220039
O O4 0.456708 0.246664 0.323519
O O5 0.175904 0.500000 0.195465
O O6 0.266830 0.723030 0.169866
O O7 0.161387 0.726009 0.140573
O O8 0.103379 0.726556 0.279095
O O9 0.230637 0.751660 0.724686
O O10 0.082897 0.775433 0.858029
O O11 0.181105 0.000000 0.798922
O O12 0.417921 0.237168 0.910914
O O13 0.330383 0.000000 0.932402
O O14 0.250000 0.250000 0.000000
O O15 0.252706 0.500000 0.658172
O O16 0.343419 0.278328 0.575177
O O17 0.513979 0.500000 0.112503
O O18 0.500000 0.336939 0.500000
O O19 0.410197 0.500000 0.485659
O O20 0.463255 0.234876 0.425880
O O21 0.506296 0.000000 0.345108
#
# Coordination Sequence:
#
# PCOD9224346 Si02
#       8
#     8   8   8   8   8   8   8   8
#     4  10  20  35  56  80 108 144 185 229 278 333
#     4   9  19  36  58  85 113 144 184 233 278 327
#     4   9  18  35  59  84 112 147 189 230 276 332
#     4  11  22  38  60  85 116 148 182 226 275 330
#     4  10  20  34  53  78 110 145 186 231 279 330
#     4   9  18  34  57  84 111 144 183 223 271 332
#     4  10  22  38  52  72 107 148 186 229 285 341
#     4  11  21  34  56  83 108 140 187 237 284 330
#
# _framework density 9.2092220000000005
#
# number of rings (size 3 to 8) (size 9 to 14) (size 15 to 20)
#    0.000    2.125    1.250    3.000    0.000    3.750 
#    0.000    2.500    0.000    3.750    0.000    0.000 
#    0.000    0.000    0.000    0.000    0.000    0.000 
#
# Total GULP energy -178445.940673 kJ/mol
# GULP energy per Si atom -5576.435646 kJ/mol
# Density = 0.918826 g / cm^3
# Si number density = 9.209222 Si / 1000 Ang^3
#
#
#
# Elastic Constant Matrix: (Units=GPa)
#
#
# Indices 1 2 3 4 5 6 
#
# 1 119.5863 19.7001 27.5091 0.0000 -31.1141 0.0001
# 2 19.7001 43.5653 19.0052 -0.0001 -12.0380 0.0001
# 3 27.5091 19.0052 61.4778 0.0000 -34.0099 0.0000
# 4 0.0000 -0.0001 0.0000 29.0608 0.0000 -4.4058
# 5 -31.1141 -12.0380 -34.0099 0.0000 32.3545 0.0000
# 6 0.0001 0.0001 0.0000 -4.4058 0.0000 23.7745
#
#
#
# Elastic Compliance Matrix: (Units=1/GPa)
#
#
# Indices 1 2 3 4 5 6 
#
# 1 0.011593 -0.002907 0.003059 0.000000 0.013283 0.000000
# 2 -0.002907 0.027382 -0.007347 0.000000 -0.000330 0.000000
# 3 0.003059 -0.007347 0.041300 0.000000 0.043622 0.000000
# 4 0.000000 0.000000 0.000000 0.035405 0.000000 0.006561
# 5 0.013283 -0.000330 0.043622 0.000000 0.089412 0.000000
# 6 0.000000 0.000000 0.000000 0.006561 0.000000 0.043278
#
#
# Mechanical properties :
#
#
# Convention : Reuss Voigt Hill
#
# Bulk Modulus (GPa) = 15.17743 39.67314 27.42528
# Shear Modulus (GPa) = 17.56103 27.59897 22.58000
#
# Velocity S-wave (km/s) = 3.09115 3.87517 3.50515
# Velocity P-wave (km/s) = 4.58241 6.45052 5.59499
#
# Compressibility (1/GPa) = 0.06588732
#
# Stress axis : x y z
#
# Youngs Moduli (GPa) = 86.25693 36.51999 24.21309
#
# Poissons Ratio (x) = 0.10615 -0.07408
# Poissons Ratio (y) = 0.25072 0.17789
# Poissons Ratio (z) = -0.26389 0.26830
#
# Static dielectric constant tensor:
#      x y z
#    x 1.703830 0.000000 0.014950 
#    y 0.000000 1.627650 0.000000 
#    z 0.014950 0.000000 1.629230 
# 
# From -- ./inp_files/345992.got.cif
#   From: 2010.05.17/outbox.ucp.g08.bks.cvg/sg12_173_cif.got.tgz:345992.got - 2010.06.11 11:47:21.
