data_PCOD9224533
_publ_section_title
;
Structure prediction by ZEFSAII (Michael W. Deem and Ramdas Pophale) SiO2 
 PCOD9224533
Probable space group: C 2/M
;
_chemical_formula_sum "Si O2"
_cell_formula_units_Z 32
_cell_length_a 24.000000
_cell_length_b 9.000000
_cell_length_c 30.000000
_cell_angle_alpha 90.000000
_cell_angle_beta 150.000000
_cell_angle_gamma 90.000000
_cell_volume 3240.000000
_symmetry_space_group_name_H-M "C 2/M"
_symmetry_group_IT_number 12
_symmetry_cell_setting 'monoclinic'
loop_
_space_group_symop_operation_xyz
x,y,z
-x,y,-z
-x,-y,-z
x,-y,z
1/2+x,1/2+y,z
1/2-x,1/2+y,-z
1/2-x,1/2-y,-z
1/2+x,1/2-y,z
loop_
_atom_site_type_symbol
_atom_site_label
_atom_site_fract_x
_atom_site_fract_y
_atom_site_fract_z
Si Si1 0.421837 0.331251 0.406576
Si Si2 0.275363 0.677487 0.620283
Si Si3 0.021790 0.325693 0.064855
Si Si4 0.604872 0.176548 0.856132
Si Si5 0.161542 0.670847 0.246492
Si Si6 0.043131 0.322878 0.421958
Si Si7 0.431127 0.180619 0.661678
Si Si8 0.661460 0.827195 0.990316
O O1 0.500000 0.269074 0.500000
O O2 0.460559 0.500000 0.425132
O O3 0.293782 0.334610 0.330628
O O4 0.435483 0.238514 0.371452
O O5 0.282550 0.500000 0.627436
O O6 0.341051 0.745236 0.707909
O O7 0.146371 0.722401 0.525153
O O8 0.325110 0.741592 0.609313
O O9 0.054370 0.500000 0.081098
O O10 0.106306 0.268152 0.162300
O O11 0.905961 0.318270 0.011080
O O12 0.000000 0.262906 0.000000
O O13 0.527654 0.231621 0.762756
O O14 0.586942 0.218931 0.895713
O O15 0.595197 0.000000 0.847676
O O16 0.730082 0.227754 0.933905
O O17 0.119320 0.500000 0.222981
O O18 0.042472 0.500000 0.420519
O O19 0.051889 0.272302 0.377257
O O20 0.421364 0.000000 0.656367
O O21 0.693406 0.000000 0.005332
#
# Coordination Sequence:
#
# PCOD9224533 Si02
#       8
#     8   8   8   8   8   8   8   8
#     4  10  20  35  56  82 107 138 183 225 263 313
#     4  11  22  35  54  81 109 139 180 225 270 319
#     4   9  18  33  54  80 107 137 177 221 264 314
#     4   9  18  33  53  76 102 136 173 210 258 318
#     4  10  20  36  58  80 107 145 183 222 269 319
#     4  10  22  37  54  78 109 145 178 219 273 321
#     4  10  21  37  55  77 108 144 180 216 267 329
#     4   9  17  31  53  78 102 131 171 215 261 307
#
# _framework density 9.8765429999999999
#
# number of rings (size 3 to 8) (size 9 to 14) (size 15 to 20)
#    0.000    2.250    1.250    1.500    0.000    5.250 
#    0.000    4.375    0.000    1.500    0.000    0.000 
#    0.000    0.000    0.000    0.000    0.000    0.000 
#
# Total GULP energy -178152.213047 kJ/mol
# GULP energy per Si atom -5567.256658 kJ/mol
# Density = 0.985406 g / cm^3
# Si number density = 9.876543 Si / 1000 Ang^3
#
#
#
# Elastic Constant Matrix: (Units=GPa)
#
#
# Indices 1 2 3 4 5 6 
#
# 1 115.2202 21.4101 35.5523 0.0000 -27.3964 0.0000
# 2 21.4101 -14.3446 11.0293 0.0001 -10.2250 -0.0002
# 3 35.5523 11.0293 51.1434 0.0001 -18.1864 0.0000
# 4 0.0000 0.0001 0.0001 14.6123 0.0001 -4.7999
# 5 -27.3964 -10.2250 -18.1864 0.0001 32.1775 0.0000
# 6 0.0000 -0.0002 0.0000 -4.7999 0.0000 22.4982
#
#
#
# Elastic Compliance Matrix: (Units=1/GPa)
#
#
# Indices 1 2 3 4 5 6 
#
# 1 0.011409 0.006324 -0.006415 0.000000 0.008097 0.000000
# 2 0.006324 -0.051234 0.003477 0.000000 -0.008931 -0.000001
# 3 -0.006415 0.003477 0.027175 0.000000 0.011002 0.000000
# 4 0.000000 0.000000 0.000000 0.073593 0.000000 0.015701
# 5 0.008097 -0.008931 0.011002 0.000000 0.041352 0.000000
# 6 0.000000 -0.000001 0.000000 0.015701 0.000000 0.047798
#
#
# Mechanical properties :
#
#
# Convention : Reuss Voigt Hill
#
# Bulk Modulus (GPa) = -170.07744 32.00025 -69.03860
# Shear Modulus (GPa) = 35.37063 19.45943 27.41503
#
# Velocity S-wave (km/s) = 4.23618 3.14209 3.72948
# Velocity P-wave (km/s) = 7.89694 5.42208 4.05972
#
# Compressibility (1/GPa) = -0.00587967
#
# Stress axis : x y z
#
# Youngs Moduli (GPa) = 87.65218 -19.51816 36.79881
#
# Poissons Ratio (x) = 0.12343 0.23607
# Poissons Ratio (y) = -0.55430 -0.12795
# Poissons Ratio (z) = 0.56230 0.06786
#
# Static dielectric constant tensor:
#      x y z
#    x 1.737130 0.000000 0.041950 
#    y 0.000000 1.686510 0.000000 
#    z 0.041950 0.000000 1.747370 
# 
# From -- ./inp_files/382455.got.cif
#   From: 2010.05.17/outbox.ucp.g08.bks.cvg/sg12_192_cif.got.tgz:382455.got - 2010.06.11 11:47:21.
