data_PCOD9224731
_publ_section_title
;
Structure prediction by ZEFSAII (Michael W. Deem and Ramdas Pophale) SiO2 
 PCOD9224731
Probable space group: C 2/M
;
_chemical_formula_sum "Si O2"
_cell_formula_units_Z 29
_cell_length_a 21.000000
_cell_length_b 15.000000
_cell_length_c 27.000000
_cell_angle_alpha 90.000000
_cell_angle_beta 20.000000
_cell_angle_gamma 90.000000
_cell_volume 2908.881319
_symmetry_space_group_name_H-M "C 2/M"
_symmetry_group_IT_number 12
_symmetry_cell_setting 'monoclinic'
loop_
_space_group_symop_operation_xyz
x,y,z
-x,y,-z
-x,-y,-z
x,-y,z
1/2+x,1/2+y,z
1/2-x,1/2+y,-z
1/2-x,1/2-y,-z
1/2+x,1/2-y,z
loop_
_atom_site_type_symbol
_atom_site_label
_atom_site_fract_x
_atom_site_fract_y
_atom_site_fract_z
Si Si1 0.527737 0.395672 0.701687
Si Si2 0.500000 0.500000 0.000000
Si Si3 0.799348 0.844399 0.082955
Si Si4 0.836227 0.107696 0.659868
Si Si5 0.292712 0.154595 0.139495
Si Si6 0.135583 0.608766 0.614963
Si Si7 0.133092 0.109080 0.076914
Si Si8 0.436387 0.107814 0.223328
O O1 0.566973 0.500000 0.680547
O O2 0.341861 0.389331 0.803629
O O3 0.703364 0.360056 0.540962
O O4 0.487641 0.360155 0.786944
O O5 0.389315 0.422617 0.049047
O O6 0.826658 0.751797 0.091359
O O7 0.574809 0.859863 0.243042
O O8 0.889155 0.850145 0.961859
O O9 0.821132 0.151057 0.725193
O O10 0.656500 0.136955 0.759625
O O11 0.000000 0.126387 0.500000
O O12 0.840023 0.000000 0.665322
O O13 0.500000 0.115697 0.000000
O O14 0.135587 0.500000 0.613849
O O15 0.164555 0.635591 0.651591
O O16 0.117409 0.000000 0.083909
O O17 0.347317 0.130639 0.933130
O O18 0.423568 0.000000 0.232383
#
# Coordination Sequence:
#
# PCOD9224731 Si02
#       8
#     8   2   8   8   8   8   8   8
#     4  10  21  36  58  86 124 154 184 243 308 369
#     4  12  20  44  72  86 106 160 210 262 294 368
#     4  11  22  39  66  86 110 155 209 260 301 353
#     4  10  20  36  58  83 121 167 200 230 290 371
#     4  12  25  37  54  91 127 161 202 247 305 353
#     4   9  17  35  62  89 111 149 203 246 295 356
#     4   9  17  34  58  83 105 145 197 241 292 355
#     4   8  14  27  52  80 106 145 197 235 268 339
#
# _framework density 9.9694680000000009
#
# number of rings (size 3 to 8) (size 9 to 14) (size 15 to 20)
#    0.000    2.069    2.069    2.897    0.000    5.517 
#    0.000    1.379    0.000    0.828    0.000    0.000 
#    0.000    0.000    0.000    0.000    0.000    0.000 
#
# Total GULP energy -161575.146892 kJ/mol
# GULP energy per Si atom -5571.556789 kJ/mol
# Density = 0.994678 g / cm^3
# Si number density = 9.969468 Si / 1000 Ang^3
#
#
#
# Elastic Constant Matrix: (Units=GPa)
#
#
# Indices 1 2 3 4 5 6 
#
# 1 133.3342 24.9320 48.8283 0.0376 25.4024 -0.0285
# 2 24.9320 39.7743 7.4428 0.0541 13.6602 0.0203
# 3 48.8283 7.4428 93.5497 0.0526 35.3242 0.0230
# 4 0.0376 0.0541 0.0526 13.9757 0.0033 8.6460
# 5 25.4024 13.6602 35.3242 0.0033 45.4569 -0.0133
# 6 -0.0285 0.0203 0.0230 8.6460 -0.0133 21.7591
#
#
#
# Elastic Compliance Matrix: (Units=1/GPa)
#
#
# Indices 1 2 3 4 5 6 
#
# 1 0.010363 -0.005455 -0.004822 -0.000004 -0.000405 0.000025
# 2 -0.005455 0.031027 0.003890 -0.000119 -0.009298 0.000001
# 3 -0.004822 0.003890 0.017438 -0.000057 -0.012025 -0.000013
# 4 -0.000004 -0.000119 -0.000057 0.094875 0.000064 -0.037698
# 5 -0.000405 -0.009298 -0.012025 0.000064 0.034363 0.000016
# 6 0.000025 0.000001 -0.000013 -0.037698 0.000016 0.060937
#
#
# Mechanical properties :
#
#
# Convention : Reuss Voigt Hill
#
# Bulk Modulus (GPa) = 21.71417 47.67382 34.69400
# Shear Modulus (GPa) = 18.04221 28.60202 23.32212
#
# Velocity S-wave (km/s) = 3.01137 3.79156 3.42376
# Velocity P-wave (km/s) = 4.79637 6.56732 5.75043
#
# Compressibility (1/GPa) = 0.04605288
#
# Stress axis : x y z
#
# Youngs Moduli (GPa) = 96.49790 32.23030 57.34758
#
# Poissons Ratio (x) = 0.17580 0.27654
# Poissons Ratio (y) = 0.52635 -0.22306
# Poissons Ratio (z) = 0.46533 -0.12536
#
# Static dielectric constant tensor:
#      x y z
#    x 1.714410 0.000000 -0.001020 
#    y 0.000000 1.721350 0.000030 
#    z -0.001020 0.000030 1.729620 
# 
# From -- ./inp_files/366537.got.cif
#   From: 2010.05.17/outbox.ucp.g08.bks.cvg/sg12_184_cif.got.tgz:366537.got - 2010.06.11 11:47:21.
