data_PCOD9224747
_publ_section_title
;
Structure prediction by ZEFSAII (Michael W. Deem and Ramdas Pophale) SiO2 
 PCOD9224747
Probable space group: C 2/M
;
_chemical_formula_sum "Si O2"
_cell_formula_units_Z 28
_cell_length_a 18.000000
_cell_length_b 9.000000
_cell_length_c 18.000000
_cell_angle_alpha 90.000000
_cell_angle_beta 70.000000
_cell_angle_gamma 90.000000
_cell_volume 2740.143682
_symmetry_space_group_name_H-M "C 2/M"
_symmetry_group_IT_number 12
_symmetry_cell_setting 'monoclinic'
loop_
_space_group_symop_operation_xyz
x,y,z
-x,y,-z
-x,-y,-z
x,-y,z
1/2+x,1/2+y,z
1/2-x,1/2+y,-z
1/2-x,1/2-y,-z
1/2+x,1/2-y,z
loop_
_atom_site_type_symbol
_atom_site_label
_atom_site_fract_x
_atom_site_fract_y
_atom_site_fract_z
Si Si1 0.931609 0.823274 0.580674
Si Si2 0.622095 0.339949 0.695853
Si Si3 0.803510 0.336595 0.037674
Si Si4 0.784415 0.669097 0.559116
Si Si5 0.036614 0.667499 0.109784
Si Si6 0.113958 0.164170 0.874361
Si Si7 0.472610 0.826471 0.719313
O O1 0.852506 0.765056 0.571023
O O2 0.938322 0.757691 0.660746
O O3 0.000000 0.773619 0.500000
O O4 0.934046 0.000000 0.583934
O O5 0.586700 0.500000 0.683201
O O6 0.710281 0.334931 0.638735
O O7 0.625200 0.338804 0.782878
O O8 0.566088 0.209947 0.686822
O O9 0.772096 0.500000 0.060268
O O10 0.818787 0.257334 0.109486
O O11 0.750000 0.250000 0.000000
O O12 0.887218 0.340838 0.966918
O O13 0.810395 0.500000 0.534884
O O14 0.750000 0.750000 0.500000
O O15 0.003659 0.500000 0.129918
O O16 0.053720 0.721533 0.188210
O O17 0.971787 0.764117 0.091106
O O18 0.115045 0.000000 0.906317
O O19 0.455693 0.000000 0.717621
#
# Coordination Sequence:
#
# PCOD9224747 Si02
#       7
#     8   8   8   8   8   8   8
#     4  11  24  40  57  80 113 149 183 224 275 325
#     4   9  20  38  58  82 114 147 177 220 277 328
#     4  11  23  38  55  78 112 148 183 227 277 325
#     4  11  23  39  59  83 112 146 184 225 272 325
#     4   9  20  38  58  81 111 146 181 223 276 327
#     4  10  20  36  59  84 110 143 184 225 268 325
#     4  10  20  36  60  86 110 141 184 228 270 323
#
# _framework density 10.218442
#
# number of rings (size 3 to 8) (size 9 to 14) (size 15 to 20)
#    0.000    1.857    0.000    3.429    0.000   10.857 
#    0.000    5.714    0.000    0.000    0.000    0.000 
#    0.000    0.000    0.000    0.000    0.000    0.000 
#
# Total GULP energy -156123.109744 kJ/mol
# GULP energy per Si atom -5575.825348 kJ/mol
# Density = 1.019518 g / cm^3
# Si number density = 10.218442 Si / 1000 Ang^3
#
#
#
# Elastic Constant Matrix: (Units=GPa)
#
#
# Indices 1 2 3 4 5 6 
#
# 1 57.7988 22.1400 19.9231 0.0000 30.5287 0.0000
# 2 22.1400 51.7157 12.3371 0.0000 18.2313 0.0000
# 3 19.9231 12.3371 46.8115 0.0000 9.5176 0.0000
# 4 0.0000 0.0000 0.0000 22.9596 0.0000 10.4244
# 5 30.5287 18.2313 9.5176 0.0000 28.0707 0.0000
# 6 0.0000 0.0000 0.0000 10.4244 0.0000 35.1109
#
#
#
# Elastic Compliance Matrix: (Units=1/GPa)
#
#
# Indices 1 2 3 4 5 6 
#
# 1 0.044502 -0.001096 -0.009619 0.000000 -0.044425 0.000000
# 2 -0.001096 0.025664 -0.003384 0.000000 -0.014329 0.000000
# 3 -0.009619 -0.003384 0.025534 0.000000 0.004001 0.000000
# 4 0.000000 0.000000 0.000000 0.050341 0.000000 -0.014946
# 5 -0.044425 -0.014329 0.004001 0.000000 0.091890 0.000000
# 6 0.000000 0.000000 0.000000 -0.014946 0.000000 0.032919
#
#
# Mechanical properties :
#
#
# Convention : Reuss Voigt Hill
#
# Bulk Modulus (GPa) = 14.81407 29.45847 22.13627
# Shear Modulus (GPa) = 15.54979 24.02330 19.78654
#
# Velocity S-wave (km/s) = 2.76138 3.43226 3.11493
# Velocity P-wave (km/s) = 4.17509 5.49116 4.87772
#
# Compressibility (1/GPa) = 0.06750340
#
# Stress axis : x y z
#
# Youngs Moduli (GPa) = 22.47110 38.96446 39.16291
#
# Poissons Ratio (x) = 0.04270 0.37670
# Poissons Ratio (y) = 0.02462 0.13253
# Poissons Ratio (z) = 0.21614 0.13186
#
# Static dielectric constant tensor:
#      x y z
#    x 1.666120 0.000000 -0.011390 
#    y 0.000000 1.777310 0.000000 
#    z -0.011390 0.000000 1.715920 
# 
# From -- ./inp_files/275199.got.cif
#   From: 2010.05.17/outbox.ucp.g08.bks.cvg/sg12_138_cif.got.tgz:275199.got - 2010.06.11 11:47:21.
