data_PCOD9224864
_publ_section_title
;
Structure prediction by ZEFSAII (Michael W. Deem and Ramdas Pophale) SiO2 
 PCOD9224864
Probable space group: C 2/M
;
_chemical_formula_sum "Si O2"
_cell_formula_units_Z 28
_cell_length_a 9.000000
_cell_length_b 30.000000
_cell_length_c 21.000000
_cell_angle_alpha 90.000000
_cell_angle_beta 150.000000
_cell_angle_gamma 90.000000
_cell_volume 2835.000000
_symmetry_space_group_name_H-M "C 2/M"
_symmetry_group_IT_number 12
_symmetry_cell_setting 'monoclinic'
loop_
_space_group_symop_operation_xyz
x,y,z
-x,y,-z
-x,-y,-z
x,-y,z
1/2+x,1/2+y,z
1/2-x,1/2+y,-z
1/2-x,1/2-y,-z
1/2+x,1/2-y,z
loop_
_atom_site_type_symbol
_atom_site_label
_atom_site_fract_x
_atom_site_fract_y
_atom_site_fract_z
Si Si1 0.450533 0.364092 0.558846
Si Si2 0.664682 0.608380 0.127506
Si Si3 0.911818 0.685518 0.313252
Si Si4 0.066664 0.409829 0.950615
Si Si5 0.910943 0.684023 0.828856
Si Si6 0.220743 0.447009 0.277847
Si Si7 0.536651 0.251100 0.775818
O O1 0.500000 0.362710 0.500000
O O2 0.670102 0.335991 0.687730
O O3 0.500716 0.415334 0.599574
O O4 0.128588 0.341229 0.440955
O O5 0.758054 0.649136 0.208599
O O6 0.948765 0.578198 0.214224
O O7 0.500000 0.622170 0.000000
O O8 0.412552 0.579382 0.068202
O O9 0.692086 0.715533 0.274293
O O10 0.071571 0.720748 0.324416
O O11 0.028366 0.358829 0.910633
O O12 0.864095 0.439013 0.827929
O O13 0.000000 0.412890 0.000000
O O14 0.778933 0.717270 0.832889
O O15 0.118170 0.715095 0.861049
O O16 0.245641 0.500000 0.300320
#
# Coordination Sequence:
#
# PCOD9224864 Si02
#       7
#     8   8   8   8   8   8   8
#     4  11  20  37  61  80 117 147 184 240 293 345
#     4  10  20  37  60  80 119 153 186 236 282 338
#     4  11  21  37  53  85 114 158 197 233 284 327
#     4  10  21  39  61  86 118 157 186 229 290 343
#     4  10  21  37  53  86 116 155 201 237 281 324
#     4  10  22  40  64  91 110 139 188 238 290 353
#     4  10  21  34  56  82 118 154 204 243 267 321
#
# _framework density 9.8765429999999999
#
# number of rings (size 3 to 8) (size 9 to 14) (size 15 to 20)
#    0.000    1.714    2.857    2.571    0.000    7.143 
#    0.000   14.286    0.000    0.000    0.000    4.000 
#    0.000    0.000    0.000    0.000    0.000    0.000 
#
# Total GULP energy -156102.329441 kJ/mol
# GULP energy per Si atom -5575.083194 kJ/mol
# Density = 0.985406 g / cm^3
# Si number density = 9.876543 Si / 1000 Ang^3
#
#
#
# Elastic Constant Matrix: (Units=GPa)
#
#
# Indices 1 2 3 4 5 6 
#
# 1 120.9423 18.1357 12.3231 0.0002 -12.7231 0.0006
# 2 18.1357 114.9427 10.8286 -0.0029 2.9419 0.0004
# 3 12.3231 10.8286 43.2680 0.0180 -5.7144 -0.0068
# 4 0.0002 -0.0029 0.0180 23.5705 -0.0009 0.4176
# 5 -12.7231 2.9419 -5.7144 -0.0009 19.0699 0.0003
# 6 0.0006 0.0004 -0.0068 0.4176 0.0003 19.0178
#
#
#
# Elastic Compliance Matrix: (Units=1/GPa)
#
#
# Indices 1 2 3 4 5 6 
#
# 1 0.009268 -0.001475 -0.001482 0.000001 0.005967 -0.000001
# 2 -0.001475 0.009229 -0.002298 0.000003 -0.003097 -0.000001
# 3 -0.001482 -0.002298 0.025015 -0.000019 0.006862 0.000009
# 4 0.000001 0.000003 -0.000019 0.042442 -0.000003 -0.000932
# 5 0.005967 -0.003097 0.006862 -0.000003 0.058954 0.000001
# 6 -0.000001 -0.000001 0.000009 -0.000932 0.000001 0.052603
#
#
# Mechanical properties :
#
#
# Convention : Reuss Voigt Hill
#
# Bulk Modulus (GPa) = 30.30308 40.19197 35.24752
# Shear Modulus (GPa) = 22.82858 28.18936 25.50897
#
# Velocity S-wave (km/s) = 3.40324 3.78178 3.59749
# Velocity P-wave (km/s) = 5.55130 6.28176 5.92779
#
# Compressibility (1/GPa) = 0.03299995
#
# Stress axis : x y z
#
# Youngs Moduli (GPa) = 107.89302 108.35915 39.97541
#
# Poissons Ratio (x) = 0.15988 0.05926
# Poissons Ratio (y) = 0.15919 0.09188
# Poissons Ratio (z) = 0.15994 0.24905
#
# Static dielectric constant tensor:
#      x y z
#    x 1.738690 0.000000 0.045430 
#    y 0.000000 1.689790 0.000000 
#    z 0.045430 0.000000 1.737870 
# 
# From -- ./inp_files/303074.got.cif
#   From: 2010.05.17/outbox.ucp.g08.bks.cvg/sg12_152_cif.got.tgz:303074.got - 2010.06.11 11:47:21.
