data_PCOD9224076
_publ_section_title
;
Structure prediction by ZEFSAII (Michael W. Deem and Ramdas Pophale) SiO2 
 PCOD9224076
Probable space group: C 2/M
;
_chemical_formula_sum "Si O2"
_cell_formula_units_Z 28
_cell_length_a 18.000000
_cell_length_b 15.000000
_cell_length_c 21.000000
_cell_angle_alpha 90.000000
_cell_angle_beta 30.000000
_cell_angle_gamma 90.000000
_cell_volume 2835.000000
_symmetry_space_group_name_H-M "C 2/M"
_symmetry_group_IT_number 12
_symmetry_cell_setting 'monoclinic'
loop_
_space_group_symop_operation_xyz
x,y,z
-x,y,-z
-x,-y,-z
x,-y,z
1/2+x,1/2+y,z
1/2-x,1/2+y,-z
1/2-x,1/2-y,-z
1/2+x,1/2-y,z
loop_
_atom_site_type_symbol
_atom_site_label
_atom_site_fract_x
_atom_site_fract_y
_atom_site_fract_z
Si Si1 0.922188 0.284843 0.991147
Si Si2 0.649841 0.597158 0.202897
Si Si3 0.228653 0.724637 0.588148
Si Si4 0.471816 0.405156 0.447706
Si Si5 0.481194 0.105911 0.824321
Si Si6 0.899612 0.096216 0.291640
Si Si7 0.838188 0.098555 0.005528
O O1 0.000697 0.335272 0.874036
O O2 0.758436 0.325701 0.105176
O O3 0.894774 0.179532 0.006262
O O4 0.000000 0.307291 0.000000
O O5 0.709322 0.500000 0.138258
O O6 0.625337 0.598612 0.295963
O O7 0.487271 0.606055 0.293315
O O8 0.250000 0.750000 0.500000
O O9 0.374111 0.678716 0.505690
O O10 0.098245 0.652281 0.690918
O O11 0.193802 0.816269 0.650251
O O12 0.500000 0.408178 0.500000
O O13 0.399513 0.500000 0.481760
O O14 0.317641 0.117132 0.914597
O O15 0.505137 0.000000 0.816608
O O16 0.822476 0.000000 0.347438
O O17 0.035755 0.094113 0.141850
O O18 0.826724 0.000000 0.044300
#
# Coordination Sequence:
#
# PCOD9224076 Si02
#       7
#     8   8   8   8   8   8   8
#     4  12  24  36  59  92 124 156 190 240 299 358
#     4  10  20  36  57  84 117 154 193 237 295 358
#     4  12  23  36  60  88 116 156 197 248 288 345
#     4  10  23  40  57  81 120 164 197 233 289 356
#     4  11  23  39  61  91 121 149 193 251 300 346
#     4  10  19  36  61  85 110 147 198 246 289 341
#     4  10  21  40  63  83 112 155 197 242 293 345
#
# _framework density 9.8765429999999999
#
# number of rings (size 3 to 8) (size 9 to 14) (size 15 to 20)
#    0.000    1.286    4.286    2.143    2.000    2.000 
#    0.000    0.000    0.000    0.429    0.000    0.000 
#    0.000    0.000    0.000    0.000    0.000    0.000 
#
# Total GULP energy -155954.561298 kJ/mol
# GULP energy per Si atom -5569.805761 kJ/mol
# Density = 0.985406 g / cm^3
# Si number density = 9.876543 Si / 1000 Ang^3
#
#
#
# Elastic Constant Matrix: (Units=GPa)
#
#
# Indices 1 2 3 4 5 6 
#
# 1 43.8187 33.7950 13.7824 -0.0004 6.7292 0.0004
# 2 33.7950 129.2529 39.4992 0.0005 -2.7187 -0.0001
# 3 13.7824 39.4992 51.8159 0.0026 11.3387 -0.0006
# 4 -0.0004 0.0005 0.0026 24.8913 0.0000 -1.9669
# 5 6.7292 -2.7187 11.3387 0.0000 12.4180 -0.0002
# 6 0.0004 -0.0001 -0.0006 -1.9669 -0.0002 27.4135
#
#
#
# Elastic Compliance Matrix: (Units=1/GPa)
#
#
# Indices 1 2 3 4 5 6 
#
# 1 0.033372 -0.010666 0.004652 0.000000 -0.024667 -0.000001
# 2 -0.010666 0.015017 -0.013240 0.000001 0.021156 0.000000
# 3 0.004652 -0.013240 0.036666 -0.000004 -0.038899 0.000000
# 4 0.000000 0.000001 -0.000004 0.040404 0.000003 0.002899
# 5 -0.024667 0.021156 -0.038899 0.000003 0.134044 0.000001
# 6 -0.000001 0.000000 0.000000 0.002899 0.000001 0.036686
#
#
# Mechanical properties :
#
#
# Convention : Reuss Voigt Hill
#
# Bulk Modulus (GPa) = 21.48341 44.33784 32.91063
# Shear Modulus (GPa) = 14.27704 22.13197 18.20451
#
# Velocity S-wave (km/s) = 2.69136 3.35092 3.03909
# Velocity P-wave (km/s) = 4.53404 6.12097 5.38627
#
# Compressibility (1/GPa) = 0.04654754
#
# Stress axis : x y z
#
# Youngs Moduli (GPa) = 29.96493 66.59336 27.27302
#
# Poissons Ratio (x) = 0.71029 -0.12687
# Poissons Ratio (y) = 0.31961 0.36108
# Poissons Ratio (z) = -0.13939 0.88167
#
# Static dielectric constant tensor:
#      x y z
#    x 1.729980 0.000000 0.049760 
#    y 0.000000 1.540790 0.000000 
#    z 0.049760 0.000000 1.760310 
# 
# From -- ./inp_files/189168.got.cif
#   From: 2010.05.17/outbox.ucp.g08.bks.cvg/sg12_95_cif.got.tgz:189168.got - 2010.06.11 11:47:21.
