data_PCOD9224800
_publ_section_title
;
Structure prediction by ZEFSAII (Michael W. Deem and Ramdas Pophale) SiO2 
 PCOD9224800
Probable space group: C 2/M
;
_chemical_formula_sum "Si O2"
_cell_formula_units_Z 32
_cell_length_a 21.000000
_cell_length_b 18.000000
_cell_length_c 27.000000
_cell_angle_alpha 90.000000
_cell_angle_beta 20.000000
_cell_angle_gamma 90.000000
_cell_volume 3490.657583
_symmetry_space_group_name_H-M "C 2/M"
_symmetry_group_IT_number 12
_symmetry_cell_setting 'monoclinic'
loop_
_space_group_symop_operation_xyz
x,y,z
-x,y,-z
-x,-y,-z
x,-y,z
1/2+x,1/2+y,z
1/2-x,1/2+y,-z
1/2-x,1/2-y,-z
1/2+x,1/2-y,z
loop_
_atom_site_type_symbol
_atom_site_label
_atom_site_fract_x
_atom_site_fract_y
_atom_site_fract_z
Si Si1 0.737133 0.910950 0.553742
Si Si2 0.103717 0.910402 0.670639
Si Si3 0.026091 0.787143 0.088705
Si Si4 0.078678 0.349128 0.890656
Si Si5 0.659033 0.829127 0.419425
Si Si6 0.993556 0.166309 0.446817
Si Si7 0.319901 0.086915 0.881859
Si Si8 0.185301 0.637320 0.002582
O O1 0.831780 0.891231 0.432228
O O2 0.842549 0.873660 0.522720
O O3 0.518218 0.891517 0.713349
O O4 0.748174 0.000000 0.551434
O O5 0.251948 0.878034 0.601856
O O6 0.897616 0.877890 0.831343
O O7 0.095008 0.000000 0.681677
O O8 0.975945 0.737899 0.077533
O O9 0.836173 0.806362 0.256069
O O10 0.153103 0.858770 0.987757
O O11 0.139943 0.725429 0.037145
O O12 0.300537 0.351156 0.724131
O O13 0.000000 0.376282 0.000000
O O14 0.966334 0.388312 0.927721
O O15 0.500000 0.864196 0.500000
O O16 0.563455 0.753598 0.510096
O O17 0.000000 0.143209 0.500000
O O18 0.281516 0.000000 0.900086
O O19 0.342141 0.099387 0.924587
#
# Coordination Sequence:
#
# PCOD9224800 Si02
#       8
#     8   8   8   8   8   8   8   8
#     4  10  24  40  56  86 124 155 193 244 291 343
#     4  11  24  40  59  87 121 153 195 244 293 347
#     4  10  21  36  60  89 117 143 193 247 281 343
#     4  10  21  35  57  88 119 148 191 243 287 335
#     4  11  21  39  62  89 116 151 192 244 292 349
#     4  11  20  38  61  86 118 159 198 235 286 349
#     4  11  21  37  60  85 115 151 193 238 289 344
#     4  10  20  36  61  86 114 151 193 241 280 339
#
# _framework density 9.1673270000000002
#
# number of rings (size 3 to 8) (size 9 to 14) (size 15 to 20)
#    0.750    0.750    3.750    3.000    1.750    2.000 
#    0.000    1.250    0.000    3.750    0.000    0.000 
#    0.000    0.000    0.000    0.000    0.000    0.000 
#
# Total GULP energy -178439.230545 kJ/mol
# GULP energy per Si atom -5576.225955 kJ/mol
# Density = 0.914646 g / cm^3
# Si number density = 9.167327 Si / 1000 Ang^3
#
#
#
# Elastic Constant Matrix: (Units=GPa)
#
#
# Indices 1 2 3 4 5 6 
#
# 1 46.2937 9.2952 12.0684 0.1077 -1.9252 -0.0652
# 2 9.2952 32.0120 19.5954 -0.0260 -10.4078 -0.0127
# 3 12.0684 19.5954 127.1580 -0.0443 -5.7113 0.0106
# 4 0.1077 -0.0260 -0.0443 11.0924 -0.0261 -0.6548
# 5 -1.9252 -10.4078 -5.7113 -0.0261 25.0744 0.0110
# 6 -0.0652 -0.0127 0.0106 -0.6548 0.0110 15.3491
#
#
#
# Elastic Compliance Matrix: (Units=1/GPa)
#
#
# Indices 1 2 3 4 5 6 
#
# 1 0.023155 -0.006311 -0.001276 -0.000242 -0.001133 0.000085
# 2 -0.006311 0.041192 -0.005054 0.000175 0.015462 0.000007
# 3 -0.001276 -0.005054 0.008755 0.000034 -0.000202 -0.000014
# 4 -0.000242 0.000175 0.000034 0.090383 0.000154 0.003855
# 5 -0.001133 0.015462 -0.000202 0.000154 0.046167 -0.000018
# 6 0.000085 0.000007 -0.000014 0.003855 -0.000018 0.065315
#
#
# Mechanical properties :
#
#
# Convention : Reuss Voigt Hill
#
# Bulk Modulus (GPa) = 20.91188 31.93131 26.42160
# Shear Modulus (GPa) = 15.81335 21.27013 18.54174
#
# Velocity S-wave (km/s) = 2.93999 3.40973 3.18354
# Velocity P-wave (km/s) = 4.79116 5.74067 5.28727
#
# Compressibility (1/GPa) = 0.04781971
#
# Stress axis : x y z
#
# Youngs Moduli (GPa) = 43.18808 24.27662 114.21811
#
# Poissons Ratio (x) = 0.15320 0.14575
# Poissons Ratio (y) = 0.27254 0.57729
# Poissons Ratio (z) = 0.05511 0.12270
#
# Static dielectric constant tensor:
#      x y z
#    x 1.628110 -0.000010 0.004120 
#    y -0.000010 1.632090 0.000050 
#    z 0.004120 0.000050 1.623000 
# 
# From -- ./inp_files/366776.got.cif
#   From: 2010.05.17/outbox.ucp.g08.bks.cvg/sg12_184_cif.got.tgz:366776.got - 2010.06.11 11:47:21.
