data_PCOD9224209
_publ_section_title
;
Structure prediction by ZEFSAII (Michael W. Deem and Ramdas Pophale) SiO2 
 PCOD9224209
Probable space group: C 2/M
;
_chemical_formula_sum "Si O2"
_cell_formula_units_Z 28
_cell_length_a 18.000000
_cell_length_b 24.000000
_cell_length_c 9.000000
_cell_angle_alpha 90.000000
_cell_angle_beta 50.000000
_cell_angle_gamma 90.000000
_cell_volume 2978.380795
_symmetry_space_group_name_H-M "C 2/M"
_symmetry_group_IT_number 12
_symmetry_cell_setting 'monoclinic'
loop_
_space_group_symop_operation_xyz
x,y,z
-x,y,-z
-x,-y,-z
x,-y,z
1/2+x,1/2+y,z
1/2-x,1/2+y,-z
1/2-x,1/2-y,-z
1/2+x,1/2-y,z
loop_
_atom_site_type_symbol
_atom_site_label
_atom_site_fract_x
_atom_site_fract_y
_atom_site_fract_z
Si Si1 0.894612 0.333129 0.557454
Si Si2 0.452671 0.656321 0.719277
Si Si3 0.053431 0.065530 0.776541
Si Si4 0.268714 0.184834 0.991821
Si Si5 0.249266 0.130072 0.507676
Si Si6 0.899636 0.766843 0.328789
Si Si7 0.892883 0.664798 0.109955
O O1 0.843882 0.369854 0.493225
O O2 0.892918 0.271528 0.485109
O O3 0.000000 0.343407 0.500000
O O4 0.812081 0.337473 0.785238
O O5 0.500000 0.669197 0.500000
O O6 0.495846 0.598307 0.722690
O O7 0.337381 0.658612 0.847335
O O8 0.499423 0.699892 0.778435
O O9 0.164897 0.085908 0.641860
O O10 0.049458 0.000000 0.758313
O O11 0.000000 0.079313 0.000000
O O12 0.358056 0.177794 0.990511
O O13 0.250000 0.250000 0.000000
O O14 0.187249 0.188589 0.582707
O O15 0.304137 0.127102 0.281087
O O16 0.895564 0.722321 0.201306
O O17 0.000000 0.640725 0.000000
#
# Coordination Sequence:
#
# PCOD9224209 Si02
#       7
#     8   8   8   8   8   8   8
#     4  11  20  31  47  73 107 141 178 214 250 301
#     4  11  22  36  53  80 112 140 175 220 268 316
#     4  10  22  41  63  83 101 128 172 225 280 334
#     4  12  20  29  48  74 105 144 180 213 253 298
#     4  10  20  36  53  73 104 142 177 216 269 323
#     4  10  20  33  48  71 111 152 182 212 252 310
#     4  11  21  32  48  74 109 149 185 212 247 307
#
# _framework density 9.4010809999999996
#
# number of rings (size 3 to 8) (size 9 to 14) (size 15 to 20)
#    0.000    1.286    0.000   10.714    0.000    3.714 
#    0.000    0.000    0.000    0.857    0.000    2.000 
#    0.000    0.000    0.000    0.000    0.000    0.000 
#
# Total GULP energy -156028.648916 kJ/mol
# GULP energy per Si atom -5572.451747 kJ/mol
# Density = 0.937968 g / cm^3
# Si number density = 9.401081 Si / 1000 Ang^3
#
#
#
# Elastic Constant Matrix: (Units=GPa)
#
#
# Indices 1 2 3 4 5 6 
#
# 1 91.8909 15.7986 -14.5294 0.0000 -14.7368 0.0000
# 2 15.7986 39.6862 11.8783 0.0000 -0.9273 0.0000
# 3 -14.5294 11.8783 49.5285 0.0000 -16.4272 0.0000
# 4 0.0000 0.0000 0.0000 8.9377 0.0000 -3.4881
# 5 -14.7368 -0.9273 -16.4272 0.0000 42.1519 0.0000
# 6 0.0000 0.0000 0.0000 -3.4881 0.0000 16.6183
#
#
#
# Elastic Compliance Matrix: (Units=1/GPa)
#
#
# Indices 1 2 3 4 5 6 
#
# 1 0.015317 -0.008744 0.009535 0.000000 0.008879 0.000000
# 2 -0.008744 0.032322 -0.012742 0.000000 -0.007312 0.000000
# 3 0.009535 -0.012742 0.031073 0.000000 0.015163 0.000000
# 4 0.000000 0.000000 0.000000 0.121868 0.000000 0.025580
# 5 0.008879 -0.007312 0.015163 0.000000 0.032576 0.000000
# 6 0.000000 0.000000 0.000000 0.025580 0.000000 0.065544
#
#
# Mechanical properties :
#
#
# Convention : Reuss Voigt Hill
#
# Bulk Modulus (GPa) = 18.24476 23.04452 20.64464
# Shear Modulus (GPa) = 14.66829 24.73878 19.70354
#
# Velocity S-wave (km/s) = 2.79613 3.63125 3.24070
# Velocity P-wave (km/s) = 4.48877 5.46482 5.00066
#
# Compressibility (1/GPa) = 0.05481025
#
# Stress axis : x y z
#
# Youngs Moduli (GPa) = 65.28482 30.93914 32.18271
#
# Poissons Ratio (x) = 0.27054 -0.30688
# Poissons Ratio (y) = 0.57087 0.41007
# Poissons Ratio (z) = -0.62252 0.39422
#
# Static dielectric constant tensor:
#      x y z
#    x 1.707950 0.000000 0.061590 
#    y 0.000000 1.623760 0.000000 
#    z 0.061590 0.000000 1.757630 
# 
# From -- ./inp_files/79075.got.cif
#   From: 2010.05.17/outbox.ucp.g08.bks.cvg/sg12_40_cif.got.tgz:79075.got - 2010.06.11 11:47:21.
