data_PCOD9224988
_publ_section_title
;
Structure prediction by ZEFSAII (Michael W. Deem and Ramdas Pophale) SiO2 
 PCOD9224988
Probable space group: C 2/M
;
_chemical_formula_sum "Si O2"
_cell_formula_units_Z 28
_cell_length_a 21.000000
_cell_length_b 9.000000
_cell_length_c 15.000000
_cell_angle_alpha 90.000000
_cell_angle_beta 90.000000
_cell_angle_gamma 90.000000
_cell_volume 2835.000000
_symmetry_space_group_name_H-M "C 2/M"
_symmetry_group_IT_number 12
_symmetry_cell_setting 'monoclinic'
loop_
_space_group_symop_operation_xyz
x,y,z
-x,y,-z
-x,-y,-z
x,-y,z
1/2+x,1/2+y,z
1/2-x,1/2+y,-z
1/2-x,1/2-y,-z
1/2+x,1/2-y,z
loop_
_atom_site_type_symbol
_atom_site_label
_atom_site_fract_x
_atom_site_fract_y
_atom_site_fract_z
Si Si1 0.589515 0.679426 0.422215
Si Si2 0.246845 0.671425 0.763464
Si Si3 0.431905 0.669385 0.045234
Si Si4 0.951332 0.176996 0.378584
Si Si5 0.603863 0.167283 0.786594
Si Si6 0.722788 0.824697 0.411000
Si Si7 0.194438 0.179133 0.059437
O O1 0.598287 0.500000 0.416409
O O2 0.525210 0.722362 0.370955
O O3 0.575806 0.719982 0.525216
O O4 0.651900 0.764512 0.393989
O O5 0.260636 0.500000 0.737135
O O6 0.178264 0.673228 0.810454
O O7 0.240799 0.770346 0.676391
O O8 0.296730 0.723981 0.837406
O O9 0.417299 0.500000 0.074907
O O10 0.433899 0.773616 0.129895
O O11 0.500000 0.669343 0.000000
O O12 0.374646 0.714913 0.979905
O O13 0.910197 0.236269 0.299104
O O14 0.951634 0.000000 0.378680
O O15 0.587171 0.000000 0.763736
O O16 0.750000 0.750000 0.500000
O O17 0.725135 0.000000 0.421352
O O18 0.202046 0.000000 0.057992
O O19 0.250000 0.250000 0.000000
#
# Coordination Sequence:
#
# PCOD9224988 Si02
#       7
#     8   8   8   8   8   8   8
#     4   9  19  38  60  83 113 151 194 241 293 349
#     4  10  22  39  59  86 118 158 202 246 301 358
#     4  10  22  39  60  87 118 155 198 244 299 361
#     4   9  19  36  60  85 112 151 195 236 288 357
#     4  11  22  36  57  86 118 150 192 244 295 349
#     4  12  25  39  58  86 120 157 198 246 297 351
#     4  10  20  38  63  87 117 154 198 249 299 358
#
# _framework density 9.8765429999999999
#
# number of rings (size 3 to 8) (size 9 to 14) (size 15 to 20)
#    0.000    1.857    1.429    3.429    0.000    6.571 
#    0.000    4.286    0.000    0.000    0.000    0.000 
#    0.000    0.000    0.000    0.000    0.000    0.000 
#
# Total GULP energy -156221.925676 kJ/mol
# GULP energy per Si atom -5579.354488 kJ/mol
# Density = 0.985406 g / cm^3
# Si number density = 9.876543 Si / 1000 Ang^3
#
#
#
# Elastic Constant Matrix: (Units=GPa)
#
#
# Indices 1 2 3 4 5 6 
#
# 1 64.8607 6.9871 23.5440 0.0000 1.6880 0.0000
# 2 6.9871 -4.7651 15.4767 0.0000 -11.8182 0.0000
# 3 23.5440 15.4767 61.6637 0.0000 11.2104 0.0000
# 4 0.0000 0.0000 0.0000 17.5052 0.0000 -0.7648
# 5 1.6880 -11.8182 11.2104 0.0000 25.3941 0.0000
# 6 0.0000 0.0000 0.0000 -0.7648 0.0000 21.8390
#
#
#
# Elastic Compliance Matrix: (Units=1/GPa)
#
#
# Indices 1 2 3 4 5 6 
#
# 1 0.017986 -0.000551 -0.007029 0.000000 0.001651 0.000000
# 2 -0.000551 -0.056113 0.020696 0.000000 -0.035214 0.000000
# 3 -0.007029 0.020696 0.012906 0.000000 0.004401 0.000000
# 4 0.000000 0.000000 0.000000 0.057213 0.000000 0.002004
# 5 0.001651 -0.035214 0.004401 0.000000 0.020938 0.000000
# 6 0.000000 0.000000 0.000000 0.002004 0.000000 0.045860
#
#
# Mechanical properties :
#
#
# Convention : Reuss Voigt Hill
#
# Bulk Modulus (GPa) = 989.68206 23.75276 506.71741
# Shear Modulus (GPa) = 68.59074 17.99776 43.29425
#
# Velocity S-wave (km/s) = 5.89911 3.02178 4.68671
# Velocity P-wave (km/s) = 23.42036 4.92197 16.92246
#
# Compressibility (1/GPa) = 0.00101043
#
# Stress axis : x y z
#
# Youngs Moduli (GPa) = 55.60031 -17.82131 77.48214
#
# Poissons Ratio (x) = -0.00983 0.54461
# Poissons Ratio (y) = 0.03065 -1.60356
# Poissons Ratio (z) = 0.39081 0.36883
#
# Static dielectric constant tensor:
#      x y z
#    x 1.759070 0.000000 -0.017880 
#    y 0.000000 1.687300 0.000000 
#    z -0.017880 0.000000 1.680000 
# 
# From -- ./inp_files/231040.got.cif
#   From: 2010.05.17/outbox.ucp.g08.bks.cvg/sg12_116_cif.got.tgz:231040.got - 2010.06.11 11:47:21.
