data_PCOD9224098
_publ_section_title
;
Structure prediction by ZEFSAII (Michael W. Deem and Ramdas Pophale) SiO2 
 PCOD9224098
Probable space group: C 2/M
;
_chemical_formula_sum "Si O2"
_cell_formula_units_Z 28
_cell_length_a 15.000000
_cell_length_b 24.000000
_cell_length_c 15.000000
_cell_angle_alpha 90.000000
_cell_angle_beta 30.000000
_cell_angle_gamma 90.000000
_cell_volume 2700.000000
_symmetry_space_group_name_H-M "C 2/M"
_symmetry_group_IT_number 12
_symmetry_cell_setting 'monoclinic'
loop_
_space_group_symop_operation_xyz
x,y,z
-x,y,-z
-x,-y,-z
x,-y,z
1/2+x,1/2+y,z
1/2-x,1/2+y,-z
1/2-x,1/2-y,-z
1/2+x,1/2-y,z
loop_
_atom_site_type_symbol
_atom_site_label
_atom_site_fract_x
_atom_site_fract_y
_atom_site_fract_z
Si Si1 0.592911 0.437095 0.187306
Si Si2 0.612062 0.825769 0.696043
Si Si3 0.001838 0.841458 0.605082
Si Si4 0.089033 0.667365 0.323060
Si Si5 0.663914 0.565785 0.926122
Si Si6 0.495413 0.936431 0.109731
Si Si7 0.804855 0.736600 0.054252
O O1 0.522506 0.500000 0.248947
O O2 0.494665 0.398705 0.343019
O O3 0.594636 0.415954 0.084064
O O4 0.800044 0.437952 0.035689
O O5 0.819121 0.809043 0.521184
O O6 0.535351 0.825489 0.659879
O O7 0.595790 0.888250 0.752515
O O8 0.500445 0.788111 0.864021
O O9 0.000000 0.848166 0.500000
O O10 0.824653 0.810505 0.792919
O O11 0.174890 0.605666 0.243049
O O12 0.253604 0.710275 0.159856
O O13 0.000000 0.676293 0.500000
O O14 0.715345 0.500000 0.888397
O O15 0.500000 0.570106 0.000000
O O16 0.422413 0.000000 0.182691
O O17 0.500000 0.923054 0.000000
O O18 0.750000 0.750000 0.000000
#
# Coordination Sequence:
#
# PCOD9224098 Si02
#       7
#     8   8   8   8   8   8   8
#     4  10  20  39  64  92 133 173 214 269 321 388
#     4  11  24  42  70  92 132 180 212 268 333 382
#     4  12  25  41  65  99 135 172 222 267 326 393
#     4  11  24  44  65 100 128 163 223 276 323 387
#     4  10  22  43  69  95 129 174 213 264 338 393
#     4  10  19  36  64  94 124 166 216 259 315 382
#     4  10  23  47  65  92 132 170 220 271 327 387
#
# _framework density 10.370369999999999
#
# number of rings (size 3 to 8) (size 9 to 14) (size 15 to 20)
#    0.000    1.429    2.857    2.143    2.000    3.429 
#    5.143    0.000    0.000    0.000    0.000    0.000 
#    0.000    0.000    0.000    0.000    0.000    0.000 
#
# Total GULP energy -156362.401309 kJ/mol
# GULP energy per Si atom -5584.371475 kJ/mol
# Density = 1.034677 g / cm^3
# Si number density = 10.370370 Si / 1000 Ang^3
#
#
#
# Elastic Constant Matrix: (Units=GPa)
#
#
# Indices 1 2 3 4 5 6 
#
# 1 128.6200 8.1791 34.6503 0.0064 30.1535 0.0053
# 2 8.1791 72.8482 21.4214 0.0329 20.2725 -0.0200
# 3 34.6503 21.4214 100.1988 0.0673 25.8219 -0.0404
# 4 0.0064 0.0329 0.0673 40.9073 -0.0188 5.5049
# 5 30.1535 20.2725 25.8219 -0.0188 47.6464 0.0059
# 6 0.0053 -0.0200 -0.0404 5.5049 0.0059 20.7940
#
#
#
# Elastic Compliance Matrix: (Units=1/GPa)
#
#
# Indices 1 2 3 4 5 6 
#
# 1 0.009533 0.001040 -0.002151 -0.000001 -0.005310 -0.000004
# 2 0.001040 0.015997 -0.002157 -0.000015 -0.006295 0.000017
# 3 -0.002151 -0.002157 0.012318 -0.000024 -0.004397 0.000030
# 4 -0.000001 -0.000015 -0.000024 0.025349 0.000031 -0.006711
# 5 -0.005310 -0.006295 -0.004397 0.000031 0.029410 -0.000030
# 6 -0.000004 0.000017 0.000030 -0.006711 -0.000030 0.049867
#
#
# Mechanical properties :
#
#
# Convention : Reuss Voigt Hill
#
# Bulk Modulus (GPa) = 31.93674 47.79651 39.86662
# Shear Modulus (GPa) = 31.35844 37.69729 34.52787
#
# Velocity S-wave (km/s) = 3.89257 4.26790 4.08454
# Velocity P-wave (km/s) = 5.96944 6.88341 6.44266
#
# Compressibility (1/GPa) = 0.03131190
#
# Stress axis : x y z
#
# Youngs Moduli (GPa) = 104.89962 62.51317 81.18076
#
# Poissons Ratio (x) = -0.06500 0.17458
# Poissons Ratio (y) = -0.10907 0.17512
# Poissons Ratio (z) = 0.22559 0.13485
#
# Static dielectric constant tensor:
#      x y z
#    x 1.787060 0.000040 -0.022320 
#    y 0.000040 1.823950 0.000020 
#    z -0.022320 0.000020 1.738850 
# 
# From -- ./inp_files/218668.got.cif
#   From: 2010.05.17/outbox.ucp.g08.bks.cvg/sg12_110_cif.got.tgz:218668.got - 2010.06.11 11:47:21.
