data_PCOD9224797
_publ_section_title
;
Structure prediction by ZEFSAII (Michael W. Deem and Ramdas Pophale) SiO2 
 PCOD9224797
Probable space group: C 2/M
;
_chemical_formula_sum "Si O2"
_cell_formula_units_Z 20
_cell_length_a 15.000000
_cell_length_b 9.000000
_cell_length_c 15.000000
_cell_angle_alpha 90.000000
_cell_angle_beta 90.000000
_cell_angle_gamma 90.000000
_cell_volume 2025.000000
_symmetry_space_group_name_H-M "C 2/M"
_symmetry_group_IT_number 12
_symmetry_cell_setting 'monoclinic'
loop_
_space_group_symop_operation_xyz
x,y,z
-x,y,-z
-x,-y,-z
x,-y,z
1/2+x,1/2+y,z
1/2-x,1/2+y,-z
1/2-x,1/2-y,-z
1/2+x,1/2-y,z
loop_
_atom_site_type_symbol
_atom_site_label
_atom_site_fract_x
_atom_site_fract_y
_atom_site_fract_z
Si Si1 0.906609 0.822707 0.088308
Si Si2 0.500332 0.822273 0.606712
Si Si3 0.337111 0.324098 0.288582
Si Si4 0.897017 0.320606 0.907935
Si Si5 0.655634 0.677412 0.278287
O O1 0.858389 0.806621 0.183018
O O2 0.000610 0.736639 0.097139
O O3 0.919838 0.000000 0.073481
O O4 0.862117 0.749266 0.000986
O O5 0.500000 0.800122 0.500000
O O6 0.581516 0.736385 0.653302
O O7 0.414496 0.753270 0.655303
O O8 0.505134 0.000000 0.623816
O O9 0.321665 0.500000 0.304217
O O10 0.252862 0.223361 0.311038
O O11 0.891434 0.500000 0.908662
O O12 0.853950 0.251481 0.819629
O O13 0.642134 0.500000 0.272858
#
# Coordination Sequence:
#
# PCOD9224797 Si02
#       5
#     8   8   8   8   8
#     4  10  20  36  60  91 128 169 214 260 314 375
#     4  11  25  46  71  97 127 163 207 263 325 387
#     4  11  24  42  67  97 130 169 213 263 317 378
#     4  11  21  35  60  91 128 171 215 261 313 374
#     4  12  25  42  66  95 130 171 214 264 316 377
#
# _framework density 9.8765429999999999
#
# number of rings (size 3 to 8) (size 9 to 14) (size 15 to 20)
#    0.000    1.000    2.000    6.600    0.000    5.600 
#    0.000    0.000    0.000    0.000    0.000    0.000 
#    0.000    0.000    0.000    0.000    0.000    0.000 
#
# Total GULP energy -111825.767106 kJ/mol
# GULP energy per Si atom -5591.288355 kJ/mol
# Density = 0.985406 g / cm^3
# Si number density = 9.876543 Si / 1000 Ang^3
#
#
#
# Elastic Constant Matrix: (Units=GPa)
#
#
# Indices 1 2 3 4 5 6 
#
# 1 71.7619 5.5437 27.4312 0.0000 7.0060 0.0000
# 2 5.5437 153.3462 52.2052 0.0000 6.4167 0.0000
# 3 27.4312 52.2052 113.1017 0.0000 5.4790 0.0000
# 4 0.0000 0.0000 0.0000 38.1836 0.0000 1.2837
# 5 7.0060 6.4167 5.4790 0.0000 -24.4604 0.0000
# 6 0.0000 0.0000 0.0000 1.2837 0.0000 27.7959
#
#
#
# Elastic Compliance Matrix: (Units=1/GPa)
#
#
# Indices 1 2 3 4 5 6 
#
# 1 0.015125 0.000725 -0.004177 0.000000 0.003587 0.000000
# 2 0.000725 0.007735 -0.003813 0.000000 0.001383 0.000000
# 3 -0.004177 -0.003813 0.011595 0.000000 0.000401 0.000000
# 4 0.000000 0.000000 0.000000 0.026230 0.000000 -0.001211
# 5 0.003587 0.001383 0.000401 0.000000 -0.039403 0.000000
# 6 0.000000 0.000000 0.000000 -0.001211 0.000000 0.036032
#
#
# Mechanical properties :
#
#
# Convention : Reuss Voigt Hill
#
# Bulk Modulus (GPa) = 50.18592 56.50776 53.34684
# Shear Modulus (GPa) = 63.70397 25.17248 44.43822
#
# Velocity S-wave (km/s) = 5.68508 3.57369 4.74823
# Velocity P-wave (km/s) = 8.27981 6.75999 7.55820
#
# Compressibility (1/GPa) = 0.01992591
#
# Stress axis : x y z
#
# Youngs Moduli (GPa) = 66.11389 129.27720 86.24139
#
# Poissons Ratio (x) = -0.09374 0.36022
# Poissons Ratio (y) = -0.04794 0.32886
# Poissons Ratio (z) = 0.27615 0.49297
#
# Static dielectric constant tensor:
#      x y z
#    x 1.735430 0.000000 0.010950 
#    y 0.000000 1.643610 0.000000 
#    z 0.010950 0.000000 1.689930 
# 
# From -- ./inp_files/211347.got.cif
#   From: 2010.05.17/outbox.ucp.g08.bks.cvg/sg12_106_cif.got.tgz:211347.got - 2010.06.11 11:47:21.
