data_PCOD9224595
_publ_section_title
;
Structure prediction by ZEFSAII (Michael W. Deem and Ramdas Pophale) SiO2 
 PCOD9224595
Probable space group: C 2/M
;
_chemical_formula_sum "Si O2"
_cell_formula_units_Z 32
_cell_length_a 24.000000
_cell_length_b 18.000000
_cell_length_c 21.000000
_cell_angle_alpha 90.000000
_cell_angle_beta 160.000000
_cell_angle_gamma 90.000000
_cell_volume 3102.806740
_symmetry_space_group_name_H-M "C 2/M"
_symmetry_group_IT_number 12
_symmetry_cell_setting 'monoclinic'
loop_
_space_group_symop_operation_xyz
x,y,z
-x,y,-z
-x,-y,-z
x,-y,z
1/2+x,1/2+y,z
1/2-x,1/2+y,-z
1/2-x,1/2-y,-z
1/2+x,1/2-y,z
loop_
_atom_site_type_symbol
_atom_site_label
_atom_site_fract_x
_atom_site_fract_y
_atom_site_fract_z
Si Si1 0.311288 0.084549 0.866331
Si Si2 0.694900 0.263572 0.705862
Si Si3 0.453245 0.818272 0.703779
Si Si4 0.257384 0.411007 0.985643
Si Si5 0.972895 0.087582 0.333515
Si Si6 0.840807 0.368658 0.710930
Si Si7 0.780835 0.205111 0.667681
Si Si8 0.098674 0.806410 0.957193
O O1 0.282668 0.155660 0.790882
O O2 0.167457 0.099314 0.763913
O O3 0.286359 0.000000 0.814278
O O4 0.496105 0.087708 0.092445
O O5 0.500000 0.275988 0.500000
O O6 0.716626 0.205630 0.670523
O O7 0.782278 0.232410 0.863284
O O8 0.590669 0.875930 0.831175
O O9 0.340017 0.861627 0.633085
O O10 0.352698 0.795359 0.532422
O O11 0.538985 0.750912 0.836165
O O12 0.250726 0.500000 0.976667
O O13 0.394491 0.386019 0.183674
O O14 0.300561 0.372091 0.966606
O O15 0.158621 0.113484 0.538455
O O16 0.987474 0.000000 0.345797
O O17 0.870706 0.284588 0.763409
O O18 0.936363 0.157262 0.814508
#
# Coordination Sequence:
#
# PCOD9224595 Si02
#       8
#     8   8   8   8   8   8   8   8
#     4  11  23  41  62  94 137 182 224 271 323 386
#     4  12  24  42  65  92 128 177 224 273 329 392
#     4  11  21  39  67  98 128 168 219 278 328 387
#     4  11  22  37  61  96 135 166 210 271 340 404
#     4  10  20  35  57  91 131 174 215 261 324 390
#     4  11  20  38  64  94 131 168 224 274 323 377
#     4  11  23  39  65  93 126 163 228 273 324 390
#     4  11  22  41  65  92 130 166 218 275 328 386
#
# _framework density 10.313243
#
# number of rings (size 3 to 8) (size 9 to 14) (size 15 to 20)
#    0.000    1.000    3.750    5.625    0.000    0.750 
#    0.000    2.500    0.000    5.625    0.000    0.000 
#    0.000    0.000    0.000    0.000    0.000    0.000 
#
# Total GULP energy -178410.635374 kJ/mol
# GULP energy per Si atom -5575.332355 kJ/mol
# Density = 1.028977 g / cm^3
# Si number density = 10.313243 Si / 1000 Ang^3
#
#
#
# Elastic Constant Matrix: (Units=GPa)
#
#
# Indices 1 2 3 4 5 6 
#
# 1 67.3463 35.7397 42.9035 -0.0083 -15.2923 -0.0100
# 2 35.7397 50.4390 34.7142 -0.0034 -4.5500 -0.0057
# 3 42.9035 34.7142 144.5454 -0.0050 -1.2027 -0.0048
# 4 -0.0083 -0.0034 -0.0050 21.2899 -0.0002 -8.8326
# 5 -15.2923 -4.5500 -1.2027 -0.0002 36.1616 -0.0013
# 6 -0.0100 -0.0057 -0.0048 -8.8326 -0.0013 -3.8642
#
#
#
# Elastic Compliance Matrix: (Units=1/GPa)
#
#
# Indices 1 2 3 4 5 6 
#
# 1 0.028598 -0.016276 -0.004497 -0.000006 0.009896 -0.000033
# 2 -0.016276 0.033302 -0.003190 -0.000001 -0.002799 0.000001
# 3 -0.004497 -0.003190 0.009003 0.000001 -0.002004 0.000003
# 4 -0.000006 -0.000001 0.000001 0.024109 -0.000005 -0.055106
# 5 0.009896 -0.002799 -0.002004 -0.000005 0.031420 -0.000019
# 6 -0.000033 0.000001 0.000003 -0.055106 -0.000019 -0.132827
#
#
# Mechanical properties :
#
#
# Convention : Reuss Voigt Hill
#
# Bulk Modulus (GPa) = 43.52394 54.33840 48.93117
# Shear Modulus (GPa) = 101.64756 20.64901 61.14828
#
# Velocity S-wave (km/s) = 7.02760 3.16744 5.45068
# Velocity P-wave (km/s) = 9.32718 6.30698 7.96161
#
# Compressibility (1/GPa) = 0.02297586
#
# Stress axis : x y z
#
# Youngs Moduli (GPa) = 34.96730 30.02854 111.07958
#
# Poissons Ratio (x) = 0.48874 0.49955
# Poissons Ratio (y) = 0.56913 0.35435
# Poissons Ratio (z) = 0.15726 0.09579
#
# Static dielectric constant tensor:
#      x y z
#    x 1.934950 0.000000 0.082150 
#    y 0.000000 1.806280 -0.000010 
#    z 0.082150 -0.000010 1.822440 
# 
# From -- ./inp_files/326128.got.cif
#   From: 2010.05.17/outbox.ucp.g08.bks.cvg/sg12_164_cif.got.tgz:326128.got - 2010.06.11 11:47:21.
