data_PCOD9224014
_publ_section_title
;
Structure prediction by ZEFSAII (Michael W. Deem and Ramdas Pophale) SiO2 
 PCOD9224014
Probable space group: C 2/M
;
_chemical_formula_sum "Si O2"
_cell_formula_units_Z 32
_cell_length_a 30.000000
_cell_length_b 9.000000
_cell_length_c 18.000000
_cell_angle_alpha 90.000000
_cell_angle_beta 140.000000
_cell_angle_gamma 90.000000
_cell_volume 3123.947783
_symmetry_space_group_name_H-M "C 2/M"
_symmetry_group_IT_number 12
_symmetry_cell_setting 'monoclinic'
loop_
_space_group_symop_operation_xyz
x,y,z
-x,y,-z
-x,-y,-z
x,-y,z
1/2+x,1/2+y,z
1/2-x,1/2+y,-z
1/2-x,1/2-y,-z
1/2+x,1/2-y,z
loop_
_atom_site_type_symbol
_atom_site_label
_atom_site_fract_x
_atom_site_fract_y
_atom_site_fract_z
Si Si1 0.840228 0.177739 0.729408
Si Si2 0.207865 0.176508 0.788926
Si Si3 0.418389 0.322247 0.277074
Si Si4 0.079363 0.825827 0.015779
Si Si5 0.669041 0.324920 0.980321
Si Si6 0.547615 0.823377 0.218348
Si Si7 0.796941 0.678880 0.373856
Si Si8 0.548744 0.178661 0.387918
O O1 0.879018 0.260419 0.713571
O O2 0.760624 0.220556 0.639415
O O3 0.845307 0.000000 0.725903
O O4 0.879330 0.214350 0.857120
O O5 0.130976 0.217412 0.717752
O O6 0.261798 0.231160 0.919718
O O7 0.223214 0.254310 0.731012
O O8 0.212599 0.000000 0.787752
O O9 0.426999 0.500000 0.286614
O O10 0.492025 0.245086 0.369872
O O11 0.376865 0.280045 0.148759
O O12 0.009940 0.735636 0.911834
O O13 0.061292 0.000000 0.998305
O O14 0.126078 0.806450 0.001871
O O15 0.685745 0.500000 0.993735
O O16 0.531664 0.772671 0.281848
O O17 0.548471 0.000000 0.218836
O O18 0.795176 0.500000 0.365183
O O19 0.873766 0.726531 0.493497
O O20 0.546269 0.000000 0.387056
#
# Coordination Sequence:
#
# PCOD9224014 Si02
#       8
#     8   8   8   8   8   8   8   8
#     4  10  21  38  60  84 111 150 195 234 277 344
#     4  11  23  37  58  91 122 149 186 241 295 338
#     4  10  22  39  60  87 120 154 191 233 286 347
#     4  10  19  35  60  86 112 152 195 227 274 347
#     4  10  19  36  61  86 116 157 193 227 279 349
#     4  11  23  37  56  88 121 147 182 239 297 338
#     4  10  22  43  63  81 111 155 201 240 281 342
#     4  10  23  41  61  84 113 151 198 245 287 334
#
# _framework density 10.243449
#
# number of rings (size 3 to 8) (size 9 to 14) (size 15 to 20)
#    0.000    1.750    2.500    1.500    0.000    6.500 
#    0.000    2.500    0.000    0.000    0.000    0.000 
#    0.000    0.000    0.000    0.000    0.000    0.000 
#
# Total GULP energy -178799.358782 kJ/mol
# GULP energy per Si atom -5587.479962 kJ/mol
# Density = 1.022013 g / cm^3
# Si number density = 10.243449 Si / 1000 Ang^3
#
#
#
# Elastic Constant Matrix: (Units=GPa)
#
#
# Indices 1 2 3 4 5 6 
#
# 1 80.3208 27.9549 7.4698 0.0000 31.2799 0.0000
# 2 27.9549 -4.9310 13.8769 0.0000 18.8385 0.0000
# 3 7.4698 13.8769 43.3345 0.0000 31.8884 0.0000
# 4 0.0000 0.0000 0.0000 13.1031 0.0000 6.3824
# 5 31.2799 18.8385 31.8884 0.0000 33.6114 0.0000
# 6 0.0000 0.0000 0.0000 6.3824 0.0000 25.8074
#
#
#
# Elastic Compliance Matrix: (Units=1/GPa)
#
#
# Indices 1 2 3 4 5 6 
#
# 1 0.069912 0.015226 0.123338 0.000000 -0.190612 0.000000
# 2 0.015226 -0.056527 0.008581 0.000000 0.009372 0.000000
# 3 0.123338 0.008581 0.288457 0.000000 -0.393262 0.000000
# 4 0.000000 0.000000 0.000000 0.086770 0.000000 -0.021459
# 5 -0.190612 0.009372 -0.393262 0.000000 0.574992 0.000000
# 6 0.000000 0.000000 0.000000 -0.021459 0.000000 0.044056
#
#
# Mechanical properties :
#
#
# Convention : Reuss Voigt Hill
#
# Bulk Modulus (GPa) = 1.67748 24.14749 12.91249
# Shear Modulus (GPa) = 5.48198 19.13254 12.30726
#
# Velocity S-wave (km/s) = 1.63758 3.05928 2.45365
# Velocity P-wave (km/s) = 2.09669 4.92862 3.78731
#
# Compressibility (1/GPa) = 0.59613114
#
# Stress axis : x y z
#
# Youngs Moduli (GPa) = 14.30375 -17.69065 3.46673
#
# Poissons Ratio (x) = 0.26936 -0.42758
# Poissons Ratio (y) = -0.21779 -0.02975
# Poissons Ratio (z) = -1.76420 0.15180
#
# Static dielectric constant tensor:
#      x y z
#    x 1.741420 0.000000 0.022510 
#    y 0.000000 1.676890 0.000000 
#    z 0.022510 0.000000 1.725530 
# 
# From -- ./inp_files/295525.got.cif
#   From: 2010.05.17/outbox.ucp.g08.bks.cvg/sg12_148_cif.got.tgz:295525.got - 2010.06.11 11:47:21.
