data_PCOD9224150
_publ_section_title
;
Structure prediction by ZEFSAII (Michael W. Deem and Ramdas Pophale) SiO2 
 PCOD9224150
Probable space group: C 2/M
;
_chemical_formula_sum "Si O2"
_cell_formula_units_Z 28
_cell_length_a 18.000000
_cell_length_b 9.000000
_cell_length_c 27.000000
_cell_angle_alpha 90.000000
_cell_angle_beta 140.000000
_cell_angle_gamma 90.000000
_cell_volume 2811.553005
_symmetry_space_group_name_H-M "C 2/M"
_symmetry_group_IT_number 12
_symmetry_cell_setting 'monoclinic'
loop_
_space_group_symop_operation_xyz
x,y,z
-x,y,-z
-x,-y,-z
x,-y,z
1/2+x,1/2+y,z
1/2-x,1/2+y,-z
1/2-x,1/2-y,-z
1/2+x,1/2-y,z
loop_
_atom_site_type_symbol
_atom_site_label
_atom_site_fract_x
_atom_site_fract_y
_atom_site_fract_z
Si Si1 0.370478 0.180815 0.669628
Si Si2 0.940479 0.673076 0.153809
Si Si3 0.001261 0.820822 0.642632
Si Si4 0.104629 0.819725 0.518149
Si Si5 0.709394 0.670928 0.071097
Si Si6 0.239736 0.330116 0.789874
Si Si7 0.985609 0.329975 0.921276
O O1 0.451368 0.227279 0.757699
O O2 0.432807 0.247767 0.653288
O O3 0.234776 0.227933 0.600041
O O4 0.370932 0.000000 0.667602
O O5 0.924999 0.500000 0.161178
O O6 0.813713 0.744957 0.094026
O O7 0.966627 0.672041 0.109837
O O8 0.132920 0.758851 0.711561
O O9 0.933446 0.781929 0.557329
O O10 0.004443 0.000000 0.648616
O O11 0.000000 0.767337 0.500000
O O12 0.106108 0.000000 0.521816
O O13 0.682287 0.500000 0.042582
O O14 0.770790 0.666374 0.156053
O O15 0.588458 0.757570 0.006398
O O16 0.240349 0.500000 0.771836
O O17 0.365553 0.256106 0.852128
O O18 0.963055 0.500000 0.924888
#
# Coordination Sequence:
#
# PCOD9224150 Si02
#       7
#     8   8   8   8   8   8   8
#     4  10  19  38  64  85 115 160 199 230 279 352
#     4   9  19  36  59  85 113 154 199 236 281 346
#     4  11  22  37  60  91 120 148 193 248 290 333
#     4   9  20  36  61  92 119 153 193 233 284 349
#     4  10  20  39  60  80 110 155 205 238 282 355
#     4  11  23  40  61  83 114 160 201 234 286 355
#     4  11  23  36  57  89 120 149 191 250 300 335
#
# _framework density 9.9589090000000002
#
# number of rings (size 3 to 8) (size 9 to 14) (size 15 to 20)
#    0.000    1.857    1.429    2.571    2.000    2.857 
#    0.000    2.857    0.000    2.143    0.000    0.000 
#    0.000    0.000    0.000    0.000    0.000    0.000 
#
# Total GULP energy -156067.236179 kJ/mol
# GULP energy per Si atom -5573.829864 kJ/mol
# Density = 0.993624 g / cm^3
# Si number density = 9.958909 Si / 1000 Ang^3
#
#
#
# Elastic Constant Matrix: (Units=GPa)
#
#
# Indices 1 2 3 4 5 6 
#
# 1 57.9169 3.6101 15.5821 0.0000 15.6775 0.0000
# 2 3.6101 49.7093 16.7964 0.0000 10.1823 0.0000
# 3 15.5821 16.7964 126.7627 0.0000 23.9726 0.0000
# 4 0.0000 0.0000 0.0000 27.8035 0.0000 2.4717
# 5 15.6775 10.1823 23.9726 0.0000 38.9317 0.0000
# 6 0.0000 0.0000 0.0000 2.4717 0.0000 23.7661
#
#
#
# Elastic Compliance Matrix: (Units=1/GPa)
#
#
# Indices 1 2 3 4 5 6 
#
# 1 0.019506 0.000444 -0.001074 0.000000 -0.007310 0.000000
# 2 0.000444 0.021722 -0.002065 0.000000 -0.004588 0.000000
# 3 -0.001074 -0.002065 0.009179 0.000000 -0.004680 0.000000
# 4 0.000000 0.000000 0.000000 0.036302 0.000000 -0.003775
# 5 -0.007310 -0.004588 -0.004680 0.000000 0.032711 0.000000
# 6 0.000000 0.000000 0.000000 -0.003775 0.000000 0.042469
#
#
# Mechanical properties :
#
#
# Convention : Reuss Voigt Hill
#
# Bulk Modulus (GPa) = 22.21401 34.04066 28.12733
# Shear Modulus (GPa) = 27.42918 31.32694 29.37806
#
# Velocity S-wave (km/s) = 3.71498 3.97017 3.84469
# Velocity P-wave (km/s) = 5.43861 6.17608 5.81904
#
# Compressibility (1/GPa) = 0.04501664
#
# Stress axis : x y z
#
# Youngs Moduli (GPa) = 51.26600 46.03547 108.93937
#
# Poissons Ratio (x) = -0.02042 0.11702
# Poissons Ratio (y) = -0.02274 0.22497
# Poissons Ratio (z) = 0.05507 0.09507
#
# Static dielectric constant tensor:
#      x y z
#    x 1.837920 0.000000 0.004610 
#    y 0.000000 1.693330 0.000000 
#    z 0.004610 0.000000 1.675530 
# 
# From -- ./inp_files/363176.got.cif
#   From: 2010.05.17/outbox.ucp.g08.bks.cvg/sg12_182_cif.got.tgz:363176.got - 2010.06.11 11:47:21.
