data_PCOD9224171
_publ_section_title
;
Structure prediction by ZEFSAII (Michael W. Deem and Ramdas Pophale) SiO2 
 PCOD9224171
Probable space group: C 2/M
;
_chemical_formula_sum "Si O2"
_cell_formula_units_Z 32
_cell_length_a 18.000000
_cell_length_b 9.000000
_cell_length_c 30.000000
_cell_angle_alpha 90.000000
_cell_angle_beta 140.000000
_cell_angle_gamma 90.000000
_cell_volume 3123.947783
_symmetry_space_group_name_H-M "C 2/M"
_symmetry_group_IT_number 12
_symmetry_cell_setting 'monoclinic'
loop_
_space_group_symop_operation_xyz
x,y,z
-x,y,-z
-x,-y,-z
x,-y,z
1/2+x,1/2+y,z
1/2-x,1/2+y,-z
1/2-x,1/2-y,-z
1/2+x,1/2-y,z
loop_
_atom_site_type_symbol
_atom_site_label
_atom_site_fract_x
_atom_site_fract_y
_atom_site_fract_z
Si Si1 0.404412 0.822509 0.038090
Si Si2 0.658422 0.818690 0.170311
Si Si3 0.318634 0.823998 0.099461
Si Si4 0.259437 0.818739 0.695444
Si Si5 0.228872 0.176894 0.587204
Si Si6 0.884262 0.178382 0.218939
Si Si7 0.498441 0.674405 0.560077
Si Si8 0.091079 0.829358 0.381410
O O1 0.536204 0.771722 0.093920
O O2 0.374496 0.795103 0.076545
O O3 0.396285 0.000000 0.026742
O O4 0.309882 0.743478 0.964088
O O5 0.680484 0.767125 0.231590
O O6 0.765158 0.775857 0.188465
O O7 0.655750 0.000000 0.170676
O O8 0.387582 0.752720 0.172103
O O9 0.314368 0.000000 0.103624
O O10 0.298926 0.775255 0.663917
O O11 0.126496 0.766828 0.629072
O O12 0.261477 0.000000 0.699389
O O13 0.098235 0.233559 0.518777
O O14 0.303084 0.225001 0.579948
O O15 0.220788 0.000000 0.585307
O O16 0.984986 0.213319 0.300374
O O17 0.882661 0.000000 0.212647
O O18 0.516492 0.500000 0.557211
O O19 0.442289 0.678459 0.582850
O O20 0.121642 0.000000 0.384731
#
# Coordination Sequence:
#
# PCOD9224171 Si02
#       8
#     8   8   8   8   8   8   8   8
#     4   9  19  36  58  81 105 136 174 210 249 303
#     4   9  17  32  54  77 100 135 180 220 252 292
#     4  10  21  36  56  82 112 138 162 206 262 310
#     4   9  16  29  51  78 105 131 172 225 265 297
#     4  10  20  30  51  81 105 132 172 223 269 307
#     4  10  20  35  55  76 101 139 180 216 253 301
#     4   9  16  31  51  75 104 136 175 218 263 307
#     4  10  20  34  51  72 105 143 175 210 257 316
#
# _framework density 10.243449
#
# number of rings (size 3 to 8) (size 9 to 14) (size 15 to 20)
#    0.000    2.500    1.250    1.125    1.750    3.000 
#    0.000    3.125    0.000    3.000    0.000    0.000 
#    0.000    0.000    0.000    0.000    0.000    0.000 
#
# Total GULP energy -178278.437199 kJ/mol
# GULP energy per Si atom -5571.201162 kJ/mol
# Density = 1.022013 g / cm^3
# Si number density = 10.243449 Si / 1000 Ang^3
#
#
#
# Elastic Constant Matrix: (Units=GPa)
#
#
# Indices 1 2 3 4 5 6 
#
# 1 52.5892 19.4199 -2.0703 0.0000 7.8069 0.0000
# 2 19.4199 -5.5524 14.0708 0.0000 -3.8747 0.0000
# 3 -2.0703 14.0708 59.7390 0.0000 -4.2691 0.0000
# 4 0.0000 0.0000 0.0000 14.2182 0.0000 -7.2690
# 5 7.8069 -3.8747 -4.2691 0.0000 32.5929 0.0000
# 6 0.0000 0.0000 0.0000 -7.2690 0.0000 8.2746
#
#
#
# Elastic Compliance Matrix: (Units=1/GPa)
#
#
# Indices 1 2 3 4 5 6 
#
# 1 0.010291 0.023228 -0.005141 0.000000 -0.000377 0.000000
# 2 0.023228 -0.057202 0.013521 0.000000 -0.010593 0.000000
# 3 -0.005141 0.013521 0.013708 0.000000 0.004634 0.000000
# 4 0.000000 0.000000 0.000000 0.127673 0.000000 0.112157
# 5 -0.000377 -0.010593 0.004634 0.000000 0.030120 0.000000
# 6 0.000000 0.000000 0.000000 0.112157 0.000000 0.219379
#
#
# Mechanical properties :
#
#
# Convention : Reuss Voigt Hill
#
# Bulk Modulus (GPa) = 33.31913 18.84630 26.08272
# Shear Modulus (GPa) = 17.19658 16.04083 16.61871
#
# Velocity S-wave (km/s) = 2.90037 2.80121 2.85122
# Velocity P-wave (km/s) = 5.24549 4.43639 4.85781
#
# Compressibility (1/GPa) = 0.03001279
#
# Stress axis : x y z
#
# Youngs Moduli (GPa) = 97.16985 -17.48175 72.95169
#
# Poissons Ratio (x) = 0.40607 0.37508
# Poissons Ratio (y) = -2.25709 -0.98640
# Poissons Ratio (z) = 0.49959 0.23638
#
# Static dielectric constant tensor:
#      x y z
#    x 1.810520 0.000000 0.014090 
#    y 0.000000 1.686900 0.000000 
#    z 0.014090 0.000000 1.726480 
# 
# From -- ./inp_files/378277.got.cif
#   From: 2010.05.17/outbox.ucp.g08.bks.cvg/sg12_190_cif.got.tgz:378277.got - 2010.06.11 11:47:21.
