data_PCOD9224677
_publ_section_title
;
Structure prediction by ZEFSAII (Michael W. Deem and Ramdas Pophale) SiO2 
 PCOD9224677
Probable space group: C 2/M
;
_chemical_formula_sum "Si O2"
_cell_formula_units_Z 24
_cell_length_a 15.000000
_cell_length_b 9.000000
_cell_length_c 18.000000
_cell_angle_alpha 90.000000
_cell_angle_beta 90.000000
_cell_angle_gamma 90.000000
_cell_volume 2430.000000
_symmetry_space_group_name_H-M "C 2/M"
_symmetry_group_IT_number 12
_symmetry_cell_setting 'monoclinic'
loop_
_space_group_symop_operation_xyz
x,y,z
-x,y,-z
-x,-y,-z
x,-y,z
1/2+x,1/2+y,z
1/2-x,1/2+y,-z
1/2-x,1/2-y,-z
1/2+x,1/2-y,z
loop_
_atom_site_type_symbol
_atom_site_label
_atom_site_fract_x
_atom_site_fract_y
_atom_site_fract_z
Si Si1 0.276963 0.828826 0.254908
Si Si2 0.893291 0.166705 0.485747
Si Si3 0.758458 0.674695 0.893813
Si Si4 0.649186 0.824346 0.368020
Si Si5 0.602042 0.321092 0.003992
Si Si6 0.556874 0.828908 0.655895
O O1 0.251840 0.716560 0.190783
O O2 0.217923 0.778612 0.324696
O O3 0.382486 0.819655 0.271593
O O4 0.256765 0.000000 0.235688
O O5 0.851899 0.276906 0.545798
O O6 0.892180 0.226394 0.402831
O O7 0.000000 0.162698 0.500000
O O8 0.857704 0.000000 0.493610
O O9 0.769531 0.500000 0.905928
O O10 0.843710 0.758417 0.926520
O O11 0.667381 0.722336 0.935967
O O12 0.547757 0.793368 0.338839
O O13 0.667115 0.000000 0.359275
O O14 0.599991 0.500000 0.007031
O O15 0.500000 0.268331 0.000000
O O16 0.560621 0.000000 0.628555
#
# Coordination Sequence:
#
# PCOD9224677 Si02
#       6
#     8   8   8   8   8   8
#     4  11  23  38  55  78 111 147 182 222 271 324
#     4   9  17  31  53  79 105 137 181 231 278 325
#     4  10  21  37  57  84 116 145 178 220 264 315
#     4  10  20  36  56  78 106 141 184 231 278 327
#     4   9  19  38  63  88 113 144 180 217 261 313
#     4   9  20  37  55  76 105 143 184 228 277 326
#
# _framework density 9.8765429999999999
#
# number of rings (size 3 to 8) (size 9 to 14) (size 15 to 20)
#    0.000    2.333    0.000    2.000    0.000    7.000 
#    0.000    3.333    0.000    0.000    0.000    0.000 
#    0.000    0.000    0.000    0.000    0.000    0.000 
#
# Total GULP energy -133850.314222 kJ/mol
# GULP energy per Si atom -5577.096426 kJ/mol
# Density = 0.985406 g / cm^3
# Si number density = 9.876543 Si / 1000 Ang^3
#
#
#
# Elastic Constant Matrix: (Units=GPa)
#
#
# Indices 1 2 3 4 5 6 
#
# 1 101.7023 13.6511 14.1330 0.0000 11.9334 0.0000
# 2 13.6511 11.5123 -10.3520 0.0000 5.1873 0.0000
# 3 14.1330 -10.3520 21.4897 0.0000 11.7004 0.0000
# 4 0.0000 0.0000 0.0000 13.4193 0.0000 -9.4270
# 5 11.9334 5.1873 11.7004 0.0000 2.1312 0.0000
# 6 0.0000 0.0000 0.0000 -9.4270 0.0000 14.9838
#
#
#
# Elastic Compliance Matrix: (Units=1/GPa)
#
#
# Indices 1 2 3 4 5 6 
#
# 1 0.014706 -0.013466 -0.005444 0.000000 -0.019678 0.000000
# 2 -0.013466 0.041605 -0.021607 0.000000 0.092761 0.000000
# 3 -0.005444 -0.021607 0.002778 0.000000 0.067824 0.000000
# 4 0.000000 0.000000 0.000000 0.133541 0.000000 0.084017
# 5 -0.019678 0.092761 0.067824 0.000000 -0.018729 0.000000
# 6 0.000000 0.000000 0.000000 0.084017 0.000000 0.119597
#
#
# Mechanical properties :
#
#
# Convention : Reuss Voigt Hill
#
# Bulk Modulus (GPa) = -45.56508 18.84095 -13.36207
# Shear Modulus (GPa) = 13.61594 13.92501 13.77047
#
# Velocity S-wave (km/s) = 2.62831 2.65798 2.64319
# Velocity P-wave (km/s) = 3.72917 4.35646 1.59249
#
# Compressibility (1/GPa) = -0.02194663
#
# Stress axis : x y z
#
# Youngs Moduli (GPa) = 68.00125 24.03585 360.00172
#
# Poissons Ratio (x) = 0.32367 1.95983
# Poissons Ratio (y) = 0.91570 7.77869
# Poissons Ratio (z) = 0.37019 0.51935
#
# Static dielectric constant tensor:
#      x y z
#    x 1.700730 0.000000 0.016050 
#    y 0.000000 1.676450 0.000000 
#    z 0.016050 0.000000 1.760350 
# 
# From -- ./inp_files/267625.got.cif
#   From: 2010.05.17/outbox.ucp.g08.bks.cvg/sg12_134_cif.got.tgz:267625.got - 2010.06.11 11:47:21.
