data_PCOD9224244
_publ_section_title
;
Structure prediction by ZEFSAII (Michael W. Deem and Ramdas Pophale) SiO2 
 PCOD9224244
Probable space group: C 2/M
;
_chemical_formula_sum "Si O2"
_cell_formula_units_Z 32
_cell_length_a 21.000000
_cell_length_b 9.000000
_cell_length_c 24.000000
_cell_angle_alpha 90.000000
_cell_angle_beta 130.000000
_cell_angle_gamma 90.000000
_cell_volume 3474.777594
_symmetry_space_group_name_H-M "C 2/M"
_symmetry_group_IT_number 12
_symmetry_cell_setting 'monoclinic'
loop_
_space_group_symop_operation_xyz
x,y,z
-x,y,-z
-x,-y,-z
x,-y,z
1/2+x,1/2+y,z
1/2-x,1/2+y,-z
1/2-x,1/2-y,-z
1/2+x,1/2-y,z
loop_
_atom_site_type_symbol
_atom_site_label
_atom_site_fract_x
_atom_site_fract_y
_atom_site_fract_z
Si Si1 0.406128 0.175075 0.453562
Si Si2 0.921180 0.666728 0.993232
Si Si3 0.737724 0.679078 0.553736
Si Si4 0.760888 0.330514 0.844052
Si Si5 0.146866 0.324341 0.280370
Si Si6 0.784701 0.671196 0.285786
Si Si7 0.515727 0.676547 0.860934
Si Si8 0.812479 0.167004 0.075584
O O1 0.500000 0.230684 0.500000
O O2 0.345170 0.259832 0.461903
O O3 0.365380 0.183630 0.369424
O O4 0.407972 0.000000 0.470834
O O5 0.892698 0.500000 0.996758
O O6 0.952179 0.766373 0.061182
O O7 0.851427 0.729468 0.912355
O O8 0.000000 0.645886 0.000000
O O9 0.733837 0.500000 0.548110
O O10 0.750000 0.750000 0.500000
O O11 0.815138 0.720288 0.638130
O O12 0.769475 0.500000 0.827093
O O13 0.710409 0.229063 0.773801
O O14 0.719079 0.336644 0.880142
O O15 0.135776 0.500000 0.274533
O O16 0.217183 0.275775 0.276536
O O17 0.064543 0.249294 0.210962
O O18 0.757115 0.500000 0.272052
O O19 0.503099 0.500000 0.854797
O O20 0.594669 0.725133 0.869102
O O21 0.818168 0.000000 0.056072
O O22 0.750000 0.250000 0.000000
#
# Coordination Sequence:
#
# PCOD9224244 Si02
#       8
#     8   8   8   8   8   8   8   8
#     4   9  19  38  62  87 121 157 190 233 285 344
#     4  10  20  33  52  76 102 138 181 221 270 327
#     4  10  21  38  62  90 119 153 193 237 287 344
#     4  10  20  35  53  75 109 147 182 222 273 331
#     4  10  21  38  59  82 111 148 184 222 276 336
#     4  10  20  35  58  86 112 143 182 229 278 322
#     4  11  22  35  54  80 108 138 182 232 275 319
#     4  10  21  37  55  75 104 146 186 226 276 325
#
# _framework density 9.2092220000000005
#
# number of rings (size 3 to 8) (size 9 to 14) (size 15 to 20)
#    0.000    2.000    1.250    2.250    0.000    5.000 
#    2.250    0.000    0.000    0.000    0.000    0.000 
#    0.000    0.000    0.000    0.000    0.000    0.000 
#
# Total GULP energy -178176.536424 kJ/mol
# GULP energy per Si atom -5568.016763 kJ/mol
# Density = 0.918826 g / cm^3
# Si number density = 9.209222 Si / 1000 Ang^3
#
#
#
# Elastic Constant Matrix: (Units=GPa)
#
#
# Indices 1 2 3 4 5 6 
#
# 1 32.6691 10.4791 7.7417 0.0000 0.1489 0.0000
# 2 10.4791 41.9605 31.8967 0.0000 -8.3890 0.0000
# 3 7.7417 31.8967 28.4588 0.0000 -11.1175 0.0000
# 4 0.0000 0.0000 0.0000 28.2501 0.0000 -6.3286
# 5 0.1489 -8.3890 -11.1175 0.0000 28.3166 0.0000
# 6 0.0000 0.0000 0.0000 -6.3286 0.0000 19.6346
#
#
#
# Elastic Compliance Matrix: (Units=1/GPa)
#
#
# Indices 1 2 3 4 5 6 
#
# 1 0.033496 -0.007667 -0.001743 0.000000 -0.003132 0.000000
# 2 -0.007667 0.182942 -0.214697 0.000000 -0.030055 0.000000
# 3 -0.001743 -0.214697 0.296946 0.000000 0.052989 0.000000
# 4 0.000000 0.000000 0.000000 0.038153 0.000000 0.012297
# 5 -0.003132 -0.030055 0.052989 0.000000 0.047232 0.000000
# 6 0.000000 0.000000 0.000000 0.012297 0.000000 0.054894
#
#
# Mechanical properties :
#
#
# Convention : Reuss Voigt Hill
#
# Bulk Modulus (GPa) = 15.34420 22.59149 18.96784
# Shear Modulus (GPa) = 4.44998 18.77165 11.61082
#
# Velocity S-wave (km/s) = 1.55605 3.19592 2.51348
# Velocity P-wave (km/s) = 3.40255 5.09027 4.32945
#
# Compressibility (1/GPa) = 0.06517122
#
# Stress axis : x y z
#
# Youngs Moduli (GPa) = 29.85400 5.46621 3.36761
#
# Poissons Ratio (x) = 0.04191 0.00587
# Poissons Ratio (y) = 0.22888 0.72302
# Poissons Ratio (z) = 0.05203 1.17358
#
# Static dielectric constant tensor:
#      x y z
#    x 1.640970 0.000000 -0.015860 
#    y 0.000000 1.658340 0.000000 
#    z -0.015860 0.000000 1.201740 
# 
# From -- ./inp_files/345979.got.cif
#   From: 2010.05.17/outbox.ucp.g08.bks.cvg/sg12_173_cif.got.tgz:345979.got - 2010.06.11 11:47:21.
