data_PCOD9224981
_publ_section_title
;
Structure prediction by ZEFSAII (Michael W. Deem and Ramdas Pophale) SiO2 
 PCOD9224981
Probable space group: C 2/M
;
_chemical_formula_sum "Si O2"
_cell_formula_units_Z 32
_cell_length_a 27.000000
_cell_length_b 15.000000
_cell_length_c 12.000000
_cell_angle_alpha 90.000000
_cell_angle_beta 140.000000
_cell_angle_gamma 90.000000
_cell_volume 3123.947783
_symmetry_space_group_name_H-M "C 2/M"
_symmetry_group_IT_number 12
_symmetry_cell_setting 'monoclinic'
loop_
_space_group_symop_operation_xyz
x,y,z
-x,y,-z
-x,-y,-z
x,-y,z
1/2+x,1/2+y,z
1/2-x,1/2+y,-z
1/2-x,1/2-y,-z
1/2+x,1/2-y,z
loop_
_atom_site_type_symbol
_atom_site_label
_atom_site_fract_x
_atom_site_fract_y
_atom_site_fract_z
Si Si1 0.980525 0.745024 0.663463
Si Si2 0.114593 0.398831 0.949875
Si Si3 0.593399 0.094829 0.170464
Si Si4 0.244079 0.643944 0.999633
Si Si5 0.179802 0.893802 0.203002
Si Si6 0.405891 0.396425 0.182144
Si Si7 0.919522 0.213548 0.791697
Si Si8 0.656284 0.104465 0.621423
O O1 0.944457 0.799198 0.706756
O O2 0.911791 0.679107 0.501275
O O3 0.048425 0.674064 0.811704
O O4 0.027981 0.822778 0.679893
O O5 0.088772 0.500000 0.876215
O O6 0.193797 0.379290 0.021574
O O7 0.125822 0.397586 0.102014
O O8 0.611589 0.184984 0.263832
O O9 0.617709 0.000000 0.262533
O O10 0.500000 0.092501 0.000000
O O11 0.193867 0.607986 0.809432
O O12 0.250000 0.750000 0.000000
O O13 0.331756 0.609950 0.136643
O O14 0.141056 0.844903 0.242103
O O15 0.269518 0.873114 0.329585
O O16 0.175121 0.000000 0.212024
O O17 0.130384 0.874514 0.004146
O O18 0.432300 0.500000 0.226429
O O19 0.000000 0.210091 0.000000
O O20 0.632099 0.000000 0.559694
#
# Coordination Sequence:
#
# PCOD9224981 Si02
#       8
#     8   8   8   8   8   8   8   8
#     4  12  22  36  59  93 123 166 202 255 310 367
#     4  11  20  33  57  89 120 153 200 251 301 357
#     4   9  17  29  48  79 117 153 189 237 288 344
#     4  11  22  40  66  90 118 153 205 256 310 375
#     4   9  19  37  61  87 119 161 207 255 303 362
#     4  10  20  38  62  88 120 161 207 257 310 364
#     4  11  19  32  57  89 124 156 210 253 296 349
#     4  10  24  43  62  90 129 162 199 255 318 369
#
# _framework density 10.243449
#
# number of rings (size 3 to 8) (size 9 to 14) (size 15 to 20)
#    0.000    1.625    5.000    2.250    1.750    2.250 
#    0.000    1.250    0.000    3.750    0.000    0.000 
#    0.000    0.000    0.000    0.000    0.000    0.000 
#
# Total GULP energy -178589.447085 kJ/mol
# GULP energy per Si atom -5580.920221 kJ/mol
# Density = 1.022013 g / cm^3
# Si number density = 10.243449 Si / 1000 Ang^3
#
#
#
# Elastic Constant Matrix: (Units=GPa)
#
#
# Indices 1 2 3 4 5 6 
#
# 1 154.6954 24.2258 23.8056 0.0000 14.3068 0.0000
# 2 24.2258 111.7832 24.3028 0.0000 21.4804 0.0000
# 3 23.8056 24.3028 47.2862 0.0000 15.2223 0.0000
# 4 0.0000 0.0000 0.0000 24.8020 0.0000 6.8879
# 5 14.3068 21.4804 15.2223 0.0000 26.8930 0.0000
# 6 0.0000 0.0000 0.0000 6.8879 0.0000 31.2132
#
#
#
# Elastic Compliance Matrix: (Units=1/GPa)
#
#
# Indices 1 2 3 4 5 6 
#
# 1 0.007142 -0.000619 -0.002707 0.000000 -0.001773 0.000000
# 2 -0.000619 0.011065 -0.003224 0.000000 -0.006684 0.000000
# 3 -0.002707 -0.003224 0.027972 0.000000 -0.011818 0.000000
# 4 0.000000 0.000000 0.000000 0.042952 0.000000 -0.009478
# 5 -0.001773 -0.006684 -0.011818 0.000000 0.050156 0.000000
# 6 0.000000 0.000000 0.000000 -0.009478 0.000000 0.034129
#
#
# Mechanical properties :
#
#
# Convention : Reuss Voigt Hill
#
# Bulk Modulus (GPa) = 30.22914 50.93704 40.58309
# Shear Modulus (GPa) = 25.31126 32.67702 28.99414
#
# Velocity S-wave (km/s) = 3.51876 3.99810 3.76607
# Velocity P-wave (km/s) = 5.59431 6.79929 6.22602
#
# Compressibility (1/GPa) = 0.03308067
#
# Stress axis : x y z
#
# Youngs Moduli (GPa) = 140.02274 90.37256 35.75041
#
# Poissons Ratio (x) = 0.05590 0.09676
# Poissons Ratio (y) = 0.08661 0.11525
# Poissons Ratio (z) = 0.37899 0.29134
#
# Static dielectric constant tensor:
#      x y z
#    x 1.747460 0.000000 -0.029400 
#    y 0.000000 1.754830 0.000000 
#    z -0.029400 0.000000 1.746310 
# 
# From -- ./inp_files/183850.got.cif
#   From: 2010.05.17/outbox.ucp.g08.bks.cvg/sg12_92_cif.got.tgz:183850.got - 2010.06.11 11:47:21.
