data_PCOD9224952
_publ_section_title
;
Structure prediction by ZEFSAII (Michael W. Deem and Ramdas Pophale) SiO2 
 PCOD9224952
Probable space group: C 2/M
;
_chemical_formula_sum "Si O2"
_cell_formula_units_Z 32
_cell_length_a 18.000000
_cell_length_b 9.000000
_cell_length_c 30.000000
_cell_angle_alpha 90.000000
_cell_angle_beta 140.000000
_cell_angle_gamma 90.000000
_cell_volume 3123.947783
_symmetry_space_group_name_H-M "C 2/M"
_symmetry_group_IT_number 12
_symmetry_cell_setting 'monoclinic'
loop_
_space_group_symop_operation_xyz
x,y,z
-x,y,-z
-x,-y,-z
x,-y,z
1/2+x,1/2+y,z
1/2-x,1/2+y,-z
1/2-x,1/2-y,-z
1/2+x,1/2-y,z
loop_
_atom_site_type_symbol
_atom_site_label
_atom_site_fract_x
_atom_site_fract_y
_atom_site_fract_z
Si Si1 0.602135 0.329761 0.442583
Si Si2 0.530938 0.679471 0.312543
Si Si3 0.218042 0.675815 0.575831
Si Si4 0.854809 0.831934 0.375137
Si Si5 0.186513 0.178527 0.226843
Si Si6 0.226511 0.180766 0.824914
Si Si7 0.698048 0.178567 0.043367
Si Si8 0.926610 0.177994 0.092808
O O1 0.644190 0.500000 0.455367
O O2 0.558026 0.266215 0.375068
O O3 0.689773 0.240361 0.514199
O O4 0.482133 0.337547 0.413759
O O5 0.522553 0.500000 0.311579
O O6 0.653186 0.712940 0.346338
O O7 0.409567 0.726123 0.236165
O O8 0.206391 0.500000 0.569001
O O9 0.137130 0.748156 0.574771
O O10 0.769791 0.749453 0.301841
O O11 0.813242 0.000000 0.362920
O O12 0.222671 0.243245 0.195446
O O13 0.051057 0.217304 0.169988
O O14 0.197855 0.000000 0.233060
O O15 0.292454 0.222335 0.900607
O O16 0.231756 0.000000 0.823177
O O17 0.820542 0.219348 0.076448
O O18 0.686741 0.000000 0.036444
O O19 0.599740 0.249544 0.967287
O O20 0.923970 0.000000 0.086455
#
# Coordination Sequence:
#
# PCOD9224952 Si02
#       8
#     8   8   8   8   8   8   8   8
#     4  10  20  39  61  79 109 153 194 231 284 345
#     4   9  19  37  59  82 112 153 190 230 286 341
#     4  11  23  36  58  88 115 146 189 241 290 338
#     4  11  23  40  60  82 113 154 193 234 284 342
#     4  11  23  38  59  86 116 151 189 237 290 335
#     4  10  20  38  61  83 113 154 195 232 278 340
#     4   9  19  36  62  88 112 150 194 231 271 333
#     4   9  20  38  59  85 119 153 184 229 287 335
#
# _framework density 10.243449
#
# number of rings (size 3 to 8) (size 9 to 14) (size 15 to 20)
#    0.000    2.000    1.250    1.875    1.750    4.500 
#    0.000    4.375    0.000    0.000    0.000    0.000 
#    0.000    0.000    0.000    0.000    0.000    0.000 
#
# Total GULP energy -178544.778657 kJ/mol
# GULP energy per Si atom -5579.524333 kJ/mol
# Density = 1.022013 g / cm^3
# Si number density = 10.243449 Si / 1000 Ang^3
#
#
#
# Elastic Constant Matrix: (Units=GPa)
#
#
# Indices 1 2 3 4 5 6 
#
# 1 50.2136 16.1862 3.6381 0.0000 -12.8740 0.0000
# 2 16.1862 46.7540 19.4398 0.0000 -0.7766 0.0000
# 3 3.6381 19.4398 57.9752 0.0000 -1.3362 0.0000
# 4 0.0000 0.0000 0.0000 32.3913 0.0000 -0.0581
# 5 -12.8740 -0.7766 -1.3362 0.0000 34.0856 0.0000
# 6 0.0000 0.0000 0.0000 -0.0581 0.0000 18.8578
#
#
#
# Elastic Compliance Matrix: (Units=1/GPa)
#
#
# Indices 1 2 3 4 5 6 
#
# 1 0.025185 -0.009292 0.001751 0.000000 0.009369 0.000000
# 2 -0.009292 0.028283 -0.008975 0.000000 -0.003217 0.000000
# 3 0.001751 -0.008975 0.020177 0.000000 0.001248 0.000000
# 4 0.000000 0.000000 0.000000 0.030873 0.000000 0.000095
# 5 0.009369 -0.003217 0.001248 0.000000 0.032852 0.000000
# 6 0.000000 0.000000 0.000000 0.000095 0.000000 0.053029
#
#
# Mechanical properties :
#
#
# Convention : Reuss Voigt Hill
#
# Bulk Modulus (GPa) = 24.62141 25.94124 25.28133
# Shear Modulus (GPa) = 21.09983 24.77885 22.93934
#
# Velocity S-wave (km/s) = 3.21272 3.48156 3.34983
# Velocity P-wave (km/s) = 5.07999 5.37136 5.22770
#
# Compressibility (1/GPa) = 0.04061505
#
# Stress axis : x y z
#
# Youngs Moduli (GPa) = 39.70563 35.35631 49.56138
#
# Poissons Ratio (x) = 0.32852 -0.08679
# Poissons Ratio (y) = 0.36893 0.44481
# Poissons Ratio (z) = -0.06953 0.31732
#
# Static dielectric constant tensor:
#      x y z
#    x 1.815290 0.000000 0.026810 
#    y 0.000000 1.703990 0.000000 
#    z 0.026810 0.000000 1.698760 
# 
# From -- ./inp_files/378355.got.cif
#   From: 2010.05.17/outbox.ucp.g08.bks.cvg/sg12_190_cif.got.tgz:378355.got - 2010.06.11 11:47:21.
