data_PCOD9224050
_publ_section_title
;
Structure prediction by ZEFSAII (Michael W. Deem and Ramdas Pophale) SiO2 
 PCOD9224050
Probable space group: C 2/M
;
_chemical_formula_sum "Si O2"
_cell_formula_units_Z 28
_cell_length_a 18.000000
_cell_length_b 9.000000
_cell_length_c 27.000000
_cell_angle_alpha 90.000000
_cell_angle_beta 140.000000
_cell_angle_gamma 90.000000
_cell_volume 2811.553005
_symmetry_space_group_name_H-M "C 2/M"
_symmetry_group_IT_number 12
_symmetry_cell_setting 'monoclinic'
loop_
_space_group_symop_operation_xyz
x,y,z
-x,y,-z
-x,-y,-z
x,-y,z
1/2+x,1/2+y,z
1/2-x,1/2+y,-z
1/2-x,1/2-y,-z
1/2+x,1/2-y,z
loop_
_atom_site_type_symbol
_atom_site_label
_atom_site_fract_x
_atom_site_fract_y
_atom_site_fract_z
Si Si1 0.644562 0.820146 0.476918
Si Si2 0.989856 0.170640 0.785912
Si Si3 0.747788 0.324598 0.926515
Si Si4 0.461360 0.332146 0.078117
Si Si5 0.303719 0.320843 0.854354
Si Si6 0.379958 0.819730 0.325908
Si Si7 0.759543 0.681086 0.366889
O O1 0.750000 0.750000 0.500000
O O2 0.515291 0.772728 0.393522
O O3 0.670022 0.781446 0.547589
O O4 0.649656 0.000000 0.475462
O O5 0.117468 0.241154 0.853121
O O6 0.970744 0.165904 0.835012
O O7 0.874794 0.234510 0.701806
O O8 0.002256 0.000000 0.773631
O O9 0.734176 0.500000 0.929306
O O10 0.794159 0.282412 0.896748
O O11 0.845883 0.264087 0.013940
O O12 0.421285 0.500000 0.048008
O O13 0.564911 0.294780 0.095061
O O14 0.291807 0.500000 0.857887
O O15 0.205332 0.280477 0.763221
O O16 0.323231 0.770225 0.349080
O O17 0.381722 0.000000 0.327799
O O18 0.753312 0.500000 0.361544
#
# Coordination Sequence:
#
# PCOD9224050 Si02
#       7
#     8   8   8   8   8   8   8
#     4  10  21  34  56  87 115 140 170 214 266 317
#     4   9  18  33  53  78 105 138 179 220 264 313
#     4  11  23  34  50  78 113 143 171 216 273 327
#     4  10  19  36  58  76  98 137 187 228 263 307
#     4  10  20  35  56  78 103 139 182 225 264 307
#     4   9  17  33  56  82 106 135 183 229 257 296
#     4   9  16  32  57  81 105 137 181 224 257 300
#
# _framework density 9.9589090000000002
#
# number of rings (size 3 to 8) (size 9 to 14) (size 15 to 20)
#    0.000    2.286    1.429    1.714    2.000    4.000 
#    0.000    0.714    0.000    3.429    0.000    0.000 
#    0.000    0.000    0.000    0.000    0.000    0.000 
#
# Total GULP energy -155870.093596 kJ/mol
# GULP energy per Si atom -5566.789057 kJ/mol
# Density = 0.993624 g / cm^3
# Si number density = 9.958909 Si / 1000 Ang^3
#
#
#
# Elastic Constant Matrix: (Units=GPa)
#
#
# Indices 1 2 3 4 5 6 
#
# 1 49.5829 12.5623 9.1434 0.0000 13.1192 0.0000
# 2 12.5623 -26.0686 14.0427 0.0000 23.7185 0.0000
# 3 9.1434 14.0427 122.6412 0.0000 27.1734 0.0000
# 4 0.0000 0.0000 0.0000 20.4089 0.0000 6.3284
# 5 13.1192 23.7185 27.1734 0.0000 31.6000 0.0000
# 6 0.0000 0.0000 0.0000 6.3284 0.0000 8.3074
#
#
#
# Elastic Compliance Matrix: (Units=1/GPa)
#
#
# Indices 1 2 3 4 5 6 
#
# 1 0.022604 0.001316 0.000571 0.000000 -0.010863 0.000000
# 2 0.001316 -0.022508 -0.001412 0.000000 0.017562 0.000000
# 3 0.000571 -0.001412 0.009995 0.000000 -0.007772 0.000000
# 4 0.000000 0.000000 0.000000 0.064152 0.000000 -0.048870
# 5 -0.010863 0.017562 -0.007772 0.000000 0.029657 0.000000
# 6 0.000000 0.000000 0.000000 -0.048870 0.000000 0.157603
#
#
# Mechanical properties :
#
#
# Convention : Reuss Voigt Hill
#
# Bulk Modulus (GPa) = 90.56906 24.18359 57.37632
# Shear Modulus (GPa) = 18.92268 19.42373 19.17321
#
# Velocity S-wave (km/s) = 3.08561 3.12620 3.10597
# Velocity P-wave (km/s) = 7.63314 5.01985 6.46002
#
# Compressibility (1/GPa) = 0.01104130
#
# Stress axis : x y z
#
# Youngs Moduli (GPa) = 44.24038 -44.42882 100.04977
#
# Poissons Ratio (x) = 0.05848 -0.05713
# Poissons Ratio (y) = -0.05823 0.14128
# Poissons Ratio (z) = -0.02526 -0.06274
#
# Static dielectric constant tensor:
#      x y z
#    x 1.880300 0.000000 0.002600 
#    y 0.000000 1.700130 0.000000 
#    z 0.002600 0.000000 1.699760 
# 
# From -- ./inp_files/362936.got.cif
#   From: 2010.05.17/outbox.ucp.g08.bks.cvg/sg12_182_cif.got.tgz:362936.got - 2010.06.11 11:47:21.
