data_PCOD9224375
_publ_section_title
;
Structure prediction by ZEFSAII (Michael W. Deem and Ramdas Pophale) SiO2 
 PCOD9224375
Probable space group: C 2/M
;
_chemical_formula_sum "Si O2"
_cell_formula_units_Z 32
_cell_length_a 30.000000
_cell_length_b 9.000000
_cell_length_c 15.000000
_cell_angle_alpha 90.000000
_cell_angle_beta 130.000000
_cell_angle_gamma 90.000000
_cell_volume 3102.479995
_symmetry_space_group_name_H-M "C 2/M"
_symmetry_group_IT_number 12
_symmetry_cell_setting 'monoclinic'
loop_
_space_group_symop_operation_xyz
x,y,z
-x,y,-z
-x,-y,-z
x,-y,z
1/2+x,1/2+y,z
1/2-x,1/2+y,-z
1/2-x,1/2-y,-z
1/2+x,1/2-y,z
loop_
_atom_site_type_symbol
_atom_site_label
_atom_site_fract_x
_atom_site_fract_y
_atom_site_fract_z
Si Si1 0.167110 0.326717 0.805765
Si Si2 0.543660 0.679023 0.635691
Si Si3 0.228144 0.329348 0.343861
Si Si4 0.522053 0.322080 0.269824
Si Si5 0.352391 0.340108 0.868854
Si Si6 0.655685 0.676166 0.406847
Si Si7 0.041198 0.338680 0.968896
Si Si8 0.205893 0.167563 0.027950
O O1 0.156108 0.500000 0.778755
O O2 0.108759 0.240228 0.705857
O O3 0.182917 0.284274 0.927750
O O4 0.231371 0.290612 0.849504
O O5 0.500000 0.719456 0.500000
O O6 0.547945 0.500000 0.644385
O O7 0.512833 0.731263 0.687640
O O8 0.216108 0.500000 0.303454
O O9 0.208722 0.207272 0.248984
O O10 0.296172 0.318152 0.453557
O O11 0.186310 0.280856 0.372654
O O12 0.523203 0.500000 0.276191
O O13 0.590219 0.276946 0.348145
O O14 0.486267 0.271520 0.137786
O O15 0.372162 0.500000 0.860972
O O16 0.398915 0.215658 0.912198
O O17 0.343138 0.344814 0.961598
O O18 0.654247 0.500000 0.377295
O O19 0.047705 0.500000 0.934371
O O20 0.000000 0.347168 0.000000
O O21 0.212953 0.000000 0.997693
#
# Coordination Sequence:
#
# PCOD9224375 Si02
#       8
#     8   8   8   8   8   8   8   8
#     4  10  20  36  58  82 108 138 177 225 276 327
#     4  10  22  39  58  81 112 150 189 230 276 328
#     4  10  20  34  54  81 111 140 176 226 274 319
#     4  10  21  38  59  82 110 148 192 231 271 328
#     4  11  22  36  55  79 109 144 181 220 267 326
#     4   9  19  36  56  77 105 144 185 221 267 326
#     4  11  24  39  56  83 117 149 184 230 281 330
#     4   9  20  37  56  80 109 141 176 219 273 331
#
# _framework density 10.314329000000001
#
# number of rings (size 3 to 8) (size 9 to 14) (size 15 to 20)
#    0.000    2.000    0.000    3.000    0.000   10.250 
#    0.000    1.250    0.000    0.000    0.000    0.000 
#    0.000    0.000    0.000    0.000    0.000    0.000 
#
# Total GULP energy -178204.654851 kJ/mol
# GULP energy per Si atom -5568.895464 kJ/mol
# Density = 1.029085 g / cm^3
# Si number density = 10.314329 Si / 1000 Ang^3
#
#
#
# Elastic Constant Matrix: (Units=GPa)
#
#
# Indices 1 2 3 4 5 6 
#
# 1 23.6044 7.8872 35.6042 0.0000 9.6436 0.0000
# 2 7.8872 2.8174 2.4495 0.0000 8.5380 0.0000
# 3 35.6042 2.4495 73.1242 0.0000 23.6264 0.0000
# 4 0.0000 0.0000 0.0000 17.1077 0.0000 0.2352
# 5 9.6436 8.5380 23.6264 0.0000 31.2862 0.0000
# 6 0.0000 0.0000 0.0000 0.2352 0.0000 29.2586
#
#
#
# Elastic Compliance Matrix: (Units=1/GPa)
#
#
# Indices 1 2 3 4 5 6 
#
# 1 -0.003802 0.140102 0.012080 0.000000 -0.046185 0.000000
# 2 0.140102 -0.117438 -0.080269 0.000000 0.049481 0.000000
# 3 0.012080 -0.080269 0.006095 0.000000 0.013579 0.000000
# 4 0.000000 0.000000 0.000000 0.058460 0.000000 -0.000470
# 5 -0.046185 0.049481 0.013579 0.000000 0.022441 0.000000
# 6 0.000000 0.000000 0.000000 -0.000470 0.000000 0.034182
#
#
# Mechanical properties :
#
#
# Convention : Reuss Voigt Hill
#
# Bulk Modulus (GPa) = 34.86680 21.26976 28.06828
# Shear Modulus (GPa) = -37.22220 19.10415 -9.05903
#
# Velocity S-wave (km/s) = -4.25242 3.04649 -2.09786
# Velocity P-wave (km/s) = 2.67806 4.76528 2.78711
#
# Compressibility (1/GPa) = 0.02868058
#
# Stress axis : x y z
#
# Youngs Moduli (GPa) = -263.02493 -8.51512 164.07267
#
# Poissons Ratio (x) = 1.19298 -1.98205
# Poissons Ratio (y) = 36.85023 13.16996
# Poissons Ratio (z) = 3.17742 -0.68350
#
# Static dielectric constant tensor:
#      x y z
#    x 1.669370 0.000000 -0.130500 
#    y 0.000000 1.763710 0.000000 
#    z -0.130500 0.000000 1.682350 
# 
# From -- ./inp_files/250015.got.cif
#   From: 2010.05.17/outbox.ucp.g08.bks.cvg/sg12_126_cif.got.tgz:250015.got - 2010.06.11 11:47:21.
