data_PCOD9224429
_publ_section_title
;
Structure prediction by ZEFSAII (Michael W. Deem and Ramdas Pophale) SiO2 
 PCOD9224429
Probable space group: C 2/M
;
_chemical_formula_sum "Si O2"
_cell_formula_units_Z 32
_cell_length_a 15.000000
_cell_length_b 9.000000
_cell_length_c 30.000000
_cell_angle_alpha 90.000000
_cell_angle_beta 130.000000
_cell_angle_gamma 90.000000
_cell_volume 3102.479995
_symmetry_space_group_name_H-M "C 2/M"
_symmetry_group_IT_number 12
_symmetry_cell_setting 'monoclinic'
loop_
_space_group_symop_operation_xyz
x,y,z
-x,y,-z
-x,-y,-z
x,-y,z
1/2+x,1/2+y,z
1/2-x,1/2+y,-z
1/2-x,1/2-y,-z
1/2+x,1/2-y,z
loop_
_atom_site_type_symbol
_atom_site_label
_atom_site_fract_x
_atom_site_fract_y
_atom_site_fract_z
Si Si1 0.816046 0.670212 0.639494
Si Si2 0.634792 0.170552 0.446603
Si Si3 0.346657 0.825937 0.815428
Si Si4 0.462078 0.821703 0.763703
Si Si5 0.425989 0.169102 0.430922
Si Si6 0.219817 0.675906 0.846892
Si Si7 0.068448 0.170656 0.926046
Si Si8 0.321264 0.828823 0.959458
O O1 0.797523 0.500000 0.648069
O O2 0.862914 0.668633 0.605138
O O3 0.912070 0.739878 0.702192
O O4 0.693438 0.748766 0.601466
O O5 0.750000 0.250000 0.500000
O O6 0.515471 0.240563 0.425085
O O7 0.638387 0.000000 0.464732
O O8 0.364620 0.797568 0.769228
O O9 0.252118 0.720778 0.807389
O O10 0.472698 0.779863 0.875309
O O11 0.323496 0.000000 0.816018
O O12 0.590407 0.766791 0.815942
O O13 0.479970 0.000000 0.766117
O O14 0.500000 0.168330 0.500000
O O15 0.399775 0.000000 0.409185
O O16 0.229852 0.500000 0.858083
O O17 0.308567 0.764855 0.906310
O O18 0.191500 0.178877 0.939480
O O19 0.027344 0.000000 0.911349
O O20 0.098078 0.224973 0.984979
O O21 0.358455 0.000000 0.972562
#
# Coordination Sequence:
#
# PCOD9224429 Si02
#       8
#     8   8   8   8   8   8   8   8
#     4  10  21  38  60  86 112 151 198 238 281 340
#     4  10  20  34  56  83 116 151 188 229 279 338
#     4  11  22  39  61  85 115 154 195 242 297 348
#     4   9  21  41  61  81 115 153 192 241 293 343
#     4  10  20  35  55  84 121 153 183 230 288 339
#     4  11  22  39  62  87 115 154 197 242 294 350
#     4  10  20  35  58  88 119 152 194 241 292 353
#     4  10  20  35  58  88 120 153 192 240 295 353
#
# _framework density 10.314329000000001
#
# number of rings (size 3 to 8) (size 9 to 14) (size 15 to 20)
#    0.000    1.875    2.500    1.500    0.000    3.250 
#    0.000    6.250    0.000    0.000    0.000    0.000 
#    0.000    0.000    0.000    0.000    0.000    0.000 
#
# Total GULP energy -178445.093585 kJ/mol
# GULP energy per Si atom -5576.409175 kJ/mol
# Density = 1.029085 g / cm^3
# Si number density = 10.314329 Si / 1000 Ang^3
#
#
#
# Elastic Constant Matrix: (Units=GPa)
#
#
# Indices 1 2 3 4 5 6 
#
# 1 74.6031 9.1282 9.1297 0.0000 7.4507 0.0000
# 2 9.1282 22.0979 -1.4809 0.0000 -12.5770 0.0000
# 3 9.1297 -1.4809 53.5881 0.0000 -18.2174 0.0000
# 4 0.0000 0.0000 0.0000 -44.0852 0.0000 -20.9301
# 5 7.4507 -12.5770 -18.2174 0.0000 -1.1403 0.0000
# 6 0.0000 0.0000 0.0000 -20.9301 0.0000 17.8640
#
#
#
# Elastic Compliance Matrix: (Units=1/GPa)
#
#
# Indices 1 2 3 4 5 6 
#
# 1 0.011591 0.002412 0.002300 0.000000 0.012380 0.000000
# 2 0.002412 0.022534 -0.012272 0.000000 -0.036722 0.000000
# 3 0.002300 -0.012272 0.010738 0.000000 -0.021157 0.000000
# 4 0.000000 0.000000 0.000000 -0.014576 0.000000 -0.017077
# 5 0.012380 -0.036722 -0.021157 0.000000 -0.053045 0.000000
# 6 0.000000 0.000000 0.000000 -0.017077 0.000000 0.035970
#
#
# Mechanical properties :
#
#
# Convention : Reuss Voigt Hill
#
# Bulk Modulus (GPa) = 33.62028 20.42701 27.02364
# Shear Modulus (GPa) = 130.73265 3.42850 67.08057
#
# Velocity S-wave (km/s) = 7.96943 1.29059 5.70865
# Velocity P-wave (km/s) = 10.05066 3.48491 7.52198
#
# Compressibility (1/GPa) = 0.02974395
#
# Stress axis : x y z
#
# Youngs Moduli (GPa) = 86.27213 44.37735 93.13086
#
# Poissons Ratio (x) = -0.10704 -0.21424
# Poissons Ratio (y) = -0.20810 1.14290
# Poissons Ratio (z) = -0.19846 0.54460
#
# Static dielectric constant tensor:
#      x y z
#    x 1.802700 0.000000 -0.031620 
#    y 0.000000 1.709380 0.000000 
#    z -0.031620 0.000000 1.753420 
# 
# From -- ./inp_files/375665.got.cif
#   From: 2010.05.17/outbox.ucp.g08.bks.cvg/sg12_188_cif.got.tgz:375665.got - 2010.06.11 11:47:21.
