data_PCOD9224561
_publ_section_title
;
Structure prediction by ZEFSAII (Michael W. Deem and Ramdas Pophale) SiO2 
 PCOD9224561
Probable space group: C 2/M
;
_chemical_formula_sum "Si O2"
_cell_formula_units_Z 28
_cell_length_a 21.000000
_cell_length_b 9.000000
_cell_length_c 30.000000
_cell_angle_alpha 90.000000
_cell_angle_beta 30.000000
_cell_angle_gamma 90.000000
_cell_volume 2835.000000
_symmetry_space_group_name_H-M "C 2/M"
_symmetry_group_IT_number 12
_symmetry_cell_setting 'monoclinic'
loop_
_space_group_symop_operation_xyz
x,y,z
-x,y,-z
-x,-y,-z
x,-y,z
1/2+x,1/2+y,z
1/2-x,1/2+y,-z
1/2-x,1/2-y,-z
1/2+x,1/2-y,z
loop_
_atom_site_type_symbol
_atom_site_label
_atom_site_fract_x
_atom_site_fract_y
_atom_site_fract_z
Si Si1 0.084440 0.676203 0.560377
Si Si2 0.565179 0.820928 0.184033
Si Si3 0.871453 0.678203 0.231788
Si Si4 0.875918 0.175836 0.368637
Si Si5 0.100586 0.322236 0.887866
Si Si6 0.324711 0.679345 0.072072
Si Si7 0.094436 0.825946 0.401396
O O1 0.073688 0.500000 0.575814
O O2 0.089256 0.767732 0.603185
O O3 0.224592 0.701838 0.453776
O O4 0.970929 0.733006 0.598125
O O5 0.499634 0.765684 0.177913
O O6 0.463772 0.766574 0.281825
O O7 0.706890 0.772765 0.112384
O O8 0.571623 0.000000 0.180053
O O9 0.876739 0.500000 0.234698
O O10 0.863693 0.707525 0.184357
O O11 0.733759 0.728699 0.332518
O O12 0.899541 0.000000 0.350032
O O13 0.101639 0.500000 0.895432
O O14 0.191613 0.238127 0.867486
O O15 0.957642 0.257388 0.978961
O O16 0.337424 0.500000 0.063739
O O17 0.000000 0.820508 0.500000
O O18 0.106319 0.000000 0.380104
#
# Coordination Sequence:
#
# PCOD9224561 Si02
#       7
#     8   8   8   8   8   8   8
#     4  10  21  36  54  79 110 148 191 238 289 335
#     4  10  21  38  59  83 114 150 187 233 287 340
#     4   9  20  37  57  84 115 151 193 236 281 338
#     4  10  21  36  55  80 112 146 189 236 282 339
#     4  10  20  37  60  84 113 150 191 233 280 341
#     4  10  21  37  59  86 115 146 184 236 292 340
#     4  10  20  35  57  82 111 152 196 236 282 337
#
# _framework density 9.8765429999999999
#
# number of rings (size 3 to 8) (size 9 to 14) (size 15 to 20)
#    0.000    2.143    0.000    3.429    2.000    4.857 
#    0.000    2.857    0.000    0.000    0.000    0.000 
#    0.000    0.000    0.000    0.000    0.000    0.000 
#
# Total GULP energy -156164.782603 kJ/mol
# GULP energy per Si atom -5577.313664 kJ/mol
# Density = 0.985406 g / cm^3
# Si number density = 9.876543 Si / 1000 Ang^3
#
#
#
# Elastic Constant Matrix: (Units=GPa)
#
#
# Indices 1 2 3 4 5 6 
#
# 1 97.0274 9.1490 18.9855 0.0033 -25.3502 -0.0071
# 2 9.1490 27.1405 -0.6664 0.0048 -7.1492 -0.0078
# 3 18.9855 -0.6664 31.5916 -0.0004 -9.2913 0.0000
# 4 0.0033 0.0048 -0.0004 8.5746 -0.0003 0.7627
# 5 -25.3502 -7.1492 -9.2913 -0.0003 23.4807 0.0017
# 6 -0.0071 -0.0078 0.0000 0.7627 0.0017 25.6046
#
#
#
# Elastic Compliance Matrix: (Units=1/GPa)
#
#
# Indices 1 2 3 4 5 6 
#
# 1 0.015033 -0.001564 -0.005018 -0.000005 0.013768 0.000003
# 2 -0.001564 0.040936 0.005627 -0.000023 0.013002 0.000012
# 3 -0.005018 0.005627 0.038137 0.000001 0.011387 -0.000001
# 4 -0.000005 -0.000023 0.000001 0.116934 -0.000010 -0.003483
# 5 0.013768 0.013002 0.011387 -0.000010 0.065917 0.000004
# 6 0.000003 0.000012 -0.000001 -0.003483 0.000004 0.039159
#
#
# Mechanical properties :
#
#
# Convention : Reuss Voigt Hill
#
# Bulk Modulus (GPa) = 10.84642 23.41065 17.12853
# Shear Modulus (GPa) = 14.33664 20.08475 17.21070
#
# Velocity S-wave (km/s) = 2.69698 3.19217 2.95497
# Velocity P-wave (km/s) = 3.89887 5.04619 4.50917
#
# Compressibility (1/GPa) = 0.09219635
#
# Stress axis : x y z
#
# Youngs Moduli (GPa) = 66.52103 24.42860 26.22111
#
# Poissons Ratio (x) = 0.03821 0.13158
# Poissons Ratio (y) = 0.10405 -0.14756
# Poissons Ratio (z) = 0.33380 -0.13747
#
# Static dielectric constant tensor:
#      x y z
#    x 1.755520 0.000000 0.040970 
#    y 0.000000 1.661230 0.000000 
#    z 0.040970 0.000000 1.743390 
# 
# From -- ./inp_files/380635.got.cif
#   From: 2010.05.17/outbox.ucp.g08.bks.cvg/sg12_191_cif.got.tgz:380635.got - 2010.06.11 11:47:21.
