data_PCOD9224436
_publ_section_title
;
Structure prediction by ZEFSAII (Michael W. Deem and Ramdas Pophale) SiO2 
 PCOD9224436
Probable space group: C 2/M
;
_chemical_formula_sum "Si O2"
_cell_formula_units_Z 32
_cell_length_a 30.000000
_cell_length_b 9.000000
_cell_length_c 18.000000
_cell_angle_alpha 90.000000
_cell_angle_beta 40.000000
_cell_angle_gamma 90.000000
_cell_volume 3123.947783
_symmetry_space_group_name_H-M "C 2/M"
_symmetry_group_IT_number 12
_symmetry_cell_setting 'monoclinic'
loop_
_space_group_symop_operation_xyz
x,y,z
-x,y,-z
-x,-y,-z
x,-y,z
1/2+x,1/2+y,z
1/2-x,1/2+y,-z
1/2-x,1/2-y,-z
1/2+x,1/2-y,z
loop_
_atom_site_type_symbol
_atom_site_label
_atom_site_fract_x
_atom_site_fract_y
_atom_site_fract_z
Si Si1 0.154406 0.825655 0.446298
Si Si2 0.138149 0.323467 0.182297
Si Si3 0.503815 0.325986 0.632873
Si Si4 0.448598 0.174779 0.003181
Si Si5 0.702324 0.831435 0.823457
Si Si6 0.676236 0.175848 0.573303
Si Si7 0.710131 0.672477 0.958809
Si Si8 0.967916 0.824106 0.227262
O O1 0.224246 0.818521 0.309988
O O2 0.165520 0.715725 0.500458
O O3 0.080362 0.790063 0.502514
O O4 0.147843 0.000000 0.480509
O O5 0.133965 0.500000 0.188560
O O6 0.065277 0.259022 0.302828
O O7 0.209658 0.277972 0.132132
O O8 0.156523 0.263812 0.076930
O O9 0.490888 0.500000 0.637088
O O10 0.515050 0.300244 0.707160
O O11 0.470172 0.258410 0.900891
O O12 0.462974 0.000000 0.972478
O O13 0.500000 0.232825 0.000000
O O14 0.368869 0.184143 0.131071
O O15 0.695774 0.705236 0.892614
O O16 0.699827 0.000000 0.859396
O O17 0.750000 0.250000 0.500000
O O18 0.605862 0.246192 0.697827
O O19 0.678874 0.000000 0.584165
O O20 0.704730 0.500000 0.986174
O O21 0.961477 0.000000 0.223933
#
# Coordination Sequence:
#
# PCOD9224436 Si02
#       8
#     8   8   8   8   8   8   8   8
#     4   9  20  38  57  81 110 146 189 230 273 330
#     4  10  20  34  56  84 113 143 184 231 277 332
#     4   9  18  34  56  81 111 143 180 230 279 323
#     4  10  22  37  54  81 111 145 184 226 280 336
#     4  10  21  38  59  80 111 150 187 226 274 336
#     4  11  22  36  57  82 108 142 183 232 282 329
#     4  10  21  36  55  83 114 146 183 228 279 331
#     4  10  21  37  55  80 110 142 183 229 275 328
#
# _framework density 10.243449
#
# number of rings (size 3 to 8) (size 9 to 14) (size 15 to 20)
#    0.000    2.125    0.000    3.750    1.750    7.250 
#    0.000    0.625    0.000    3.750    0.000    0.000 
#    0.000    0.000    0.000    0.000    0.000    0.000 
#
# Total GULP energy -178440.181404 kJ/mol
# GULP energy per Si atom -5576.255669 kJ/mol
# Density = 1.022013 g / cm^3
# Si number density = 10.243449 Si / 1000 Ang^3
#
#
#
# Elastic Constant Matrix: (Units=GPa)
#
#
# Indices 1 2 3 4 5 6 
#
# 1 44.3623 16.3558 20.9446 0.0017 -28.5590 -0.0007
# 2 16.3558 39.9597 14.6429 0.0049 -16.1139 -0.0027
# 3 20.9446 14.6429 85.1275 -0.0019 -39.1664 -0.0016
# 4 0.0017 0.0049 -0.0019 21.5415 -0.0003 -6.9100
# 5 -28.5590 -16.1139 -39.1664 -0.0003 38.6081 0.0011
# 6 -0.0007 -0.0027 -0.0016 -6.9100 0.0011 26.1635
#
#
#
# Elastic Compliance Matrix: (Units=1/GPa)
#
#
# Indices 1 2 3 4 5 6 
#
# 1 0.046944 -0.005852 0.008082 -0.000001 0.040481 -0.000001
# 2 -0.005852 0.030877 0.000124 -0.000006 0.008685 0.000001
# 3 0.008082 0.000124 0.023463 0.000002 0.029832 0.000001
# 4 -0.000001 -0.000006 0.000002 0.050719 -0.000001 0.013395
# 5 0.040481 0.008685 0.029832 -0.000001 0.089734 0.000000
# 6 -0.000001 0.000001 0.000001 0.013395 0.000000 0.041759
#
#
# Mechanical properties :
#
#
# Convention : Reuss Voigt Hill
#
# Bulk Modulus (GPa) = 9.43468 30.37070 19.90269
# Shear Modulus (GPa) = 15.91759 25.09636 20.50698
#
# Velocity S-wave (km/s) = 2.79043 3.50379 3.16726
# Velocity P-wave (km/s) = 3.87263 5.58797 4.80742
#
# Compressibility (1/GPa) = 0.10599188
#
# Stress axis : x y z
#
# Youngs Moduli (GPa) = 21.30199 32.38663 42.62085
#
# Poissons Ratio (x) = 0.18952 -0.34444
# Poissons Ratio (y) = 0.12465 -0.00530
# Poissons Ratio (z) = -0.17215 -0.00402
#
# Static dielectric constant tensor:
#      x y z
#    x 1.790230 0.000000 -0.002740 
#    y 0.000000 1.705020 0.000000 
#    z -0.002740 0.000000 1.752180 
# 
# From -- ./inp_files/295458.got.cif
#   From: 2010.05.17/outbox.ucp.g08.bks.cvg/sg12_148_cif.got.tgz:295458.got - 2010.06.11 11:47:21.
