data_PCOD9224305
_publ_section_title
;
Structure prediction by ZEFSAII (Michael W. Deem and Ramdas Pophale) SiO2 
 PCOD9224305
Probable space group: C 2/M
;
_chemical_formula_sum "Si O2"
_cell_formula_units_Z 32
_cell_length_a 15.000000
_cell_length_b 9.000000
_cell_length_c 30.000000
_cell_angle_alpha 90.000000
_cell_angle_beta 60.000000
_cell_angle_gamma 90.000000
_cell_volume 3507.402885
_symmetry_space_group_name_H-M "C 2/M"
_symmetry_group_IT_number 12
_symmetry_cell_setting 'monoclinic'
loop_
_space_group_symop_operation_xyz
x,y,z
-x,y,-z
-x,-y,-z
x,-y,z
1/2+x,1/2+y,z
1/2-x,1/2+y,-z
1/2-x,1/2-y,-z
1/2+x,1/2-y,z
loop_
_atom_site_type_symbol
_atom_site_label
_atom_site_fract_x
_atom_site_fract_y
_atom_site_fract_z
Si Si1 0.055504 0.679808 0.202564
Si Si2 0.397223 0.679365 0.997285
Si Si3 0.176934 0.324745 0.716030
Si Si4 0.030205 0.832307 0.611250
Si Si5 0.336608 0.179462 0.918388
Si Si6 0.898329 0.667183 0.495976
Si Si7 0.743885 0.331367 0.608871
Si Si8 0.129193 0.823285 0.274655
O O1 0.058250 0.500000 0.202551
O O2 0.107787 0.724923 0.142162
O O3 0.111659 0.743093 0.232303
O O4 0.936406 0.727553 0.240648
O O5 0.400952 0.500000 0.991896
O O6 0.286582 0.716272 0.048555
O O7 0.500000 0.723387 0.000000
O O8 0.388481 0.750093 0.949837
O O9 0.168760 0.500000 0.707865
O O10 0.227887 0.250085 0.659694
O O11 0.255206 0.305838 0.737119
O O12 0.066619 0.748911 0.557664
O O13 0.130892 0.840566 0.616502
O O14 0.943379 0.767771 0.666155
O O15 0.996895 0.000000 0.606883
O O16 0.344548 0.000000 0.919595
O O17 0.860964 0.500000 0.493632
O O18 0.814678 0.735341 0.551373
O O19 0.000000 0.656454 0.500000
O O20 0.783633 0.500000 0.606927
O O21 0.106160 0.000000 0.275444
#
# Coordination Sequence:
#
# PCOD9224305 Si02
#       8
#     8   8   8   8   8   8   8   8
#     4  10  21  37  55  79 110 143 180 221 265 312
#     4   9  18  34  56  82 112 146 183 220 260 309
#     4  10  21  36  55  78 104 138 179 219 264 319
#     4  10  20  34  52  73  98 131 171 214 263 318
#     4   9  19  35  54  79 113 146 179 222 265 308
#     4  10  21  34  49  73 101 128 165 214 265 320
#     4  10  20  35  53  74 101 133 171 215 265 321
#     4  10  21  37  55  77 106 139 177 222 267 315
#
# _framework density 9.1235599999999994
#
# number of rings (size 3 to 8) (size 9 to 14) (size 15 to 20)
#    0.000    2.250    1.250    1.125    0.000    4.000 
#    0.000    0.000    0.000    0.000    0.000    0.000 
#    0.000    0.000    0.000    0.000    0.000    0.000 
#
# Total GULP energy -178295.941129 kJ/mol
# GULP energy per Si atom -5571.748160 kJ/mol
# Density = 0.910279 g / cm^3
# Si number density = 9.123560 Si / 1000 Ang^3
#
#
#
# Elastic Constant Matrix: (Units=GPa)
#
#
# Indices 1 2 3 4 5 6 
#
# 1 87.2668 21.3467 49.3560 0.0000 13.7187 0.0000
# 2 21.3467 25.1303 42.2422 0.0000 8.8889 0.0000
# 3 49.3560 42.2422 179.5615 0.0000 19.8078 0.0000
# 4 0.0000 0.0000 0.0000 30.1158 0.0000 0.2576
# 5 13.7187 8.8889 19.8078 0.0000 18.4548 0.0000
# 6 0.0000 0.0000 0.0000 0.2576 0.0000 5.6514
#
#
#
# Elastic Compliance Matrix: (Units=1/GPa)
#
#
# Indices 1 2 3 4 5 6 
#
# 1 0.015288 -0.008228 -0.001645 0.000000 -0.005636 0.000000
# 2 -0.008228 0.075383 -0.013772 0.000000 -0.015410 0.000000
# 3 -0.001645 -0.013772 0.009522 0.000000 -0.002364 0.000000
# 4 0.000000 0.000000 0.000000 0.033218 0.000000 -0.001514
# 5 -0.005636 -0.015410 -0.002364 0.000000 0.068336 0.000000
# 6 0.000000 0.000000 0.000000 -0.001514 0.000000 0.177017
#
#
# Mechanical properties :
#
#
# Convention : Reuss Voigt Hill
#
# Bulk Modulus (GPa) = 18.90269 57.53871 38.22070
# Shear Modulus (GPa) = 11.26917 22.77862 17.02390
#
# Velocity S-wave (km/s) = 2.48782 3.53702 3.05776
# Velocity P-wave (km/s) = 4.31673 6.94854 5.78430
#
# Compressibility (1/GPa) = 0.05290252
#
# Stress axis : x y z
#
# Youngs Moduli (GPa) = 65.41035 13.26565 105.02003
#
# Poissons Ratio (x) = 0.10915 0.17275
# Poissons Ratio (y) = 0.53819 1.44638
# Poissons Ratio (z) = 0.10759 0.18270
#
# Static dielectric constant tensor:
#      x y z
#    x 1.640470 0.000000 -0.030000 
#    y 0.000000 1.668900 0.000000 
#    z -0.030000 0.000000 1.624330 
# 
# From -- ./inp_files/375069.got.cif
#   From: 2010.05.17/outbox.ucp.g08.bks.cvg/sg12_188_cif.got.tgz:375069.got - 2010.06.11 11:47:21.
