data_PCOD9224220
_publ_section_title
;
Structure prediction by ZEFSAII (Michael W. Deem and Ramdas Pophale) SiO2 
 PCOD9224220
Probable space group: C 2/M
;
_chemical_formula_sum "Si O2"
_cell_formula_units_Z 32
_cell_length_a 30.000000
_cell_length_b 9.000000
_cell_length_c 24.000000
_cell_angle_alpha 90.000000
_cell_angle_beta 30.000000
_cell_angle_gamma 90.000000
_cell_volume 3240.000000
_symmetry_space_group_name_H-M "C 2/M"
_symmetry_group_IT_number 12
_symmetry_cell_setting 'monoclinic'
loop_
_space_group_symop_operation_xyz
x,y,z
-x,y,-z
-x,-y,-z
x,-y,z
1/2+x,1/2+y,z
1/2-x,1/2+y,-z
1/2-x,1/2-y,-z
1/2+x,1/2-y,z
loop_
_atom_site_type_symbol
_atom_site_label
_atom_site_fract_x
_atom_site_fract_y
_atom_site_fract_z
Si Si1 0.021678 0.182166 0.138612
Si Si2 0.903666 0.674795 0.623770
Si Si3 0.844888 0.171502 0.390878
Si Si4 0.753509 0.174423 0.294568
Si Si5 0.558845 0.677930 0.310771
Si Si6 0.366755 0.671703 0.496492
Si Si7 0.582672 0.328083 0.951978
Si Si8 0.654443 0.678453 0.093108
O O1 0.098115 0.225303 0.099957
O O2 0.923383 0.231719 0.265874
O O3 0.016983 0.000000 0.143720
O O4 0.050988 0.233633 0.045564
O O5 0.912691 0.500000 0.625819
O O6 0.829434 0.691968 0.657509
O O7 0.881664 0.756884 0.704665
O O8 0.000000 0.732711 0.500000
O O9 0.750000 0.250000 0.500000
O O10 0.881407 0.174291 0.414584
O O11 0.828770 0.000000 0.392504
O O12 0.721103 0.246476 0.386989
O O13 0.836811 0.240302 0.170723
O O14 0.770601 0.000000 0.286618
O O15 0.555373 0.500000 0.318946
O O16 0.457497 0.736188 0.424192
O O17 0.596556 0.715703 0.209935
O O18 0.357964 0.500000 0.523049
O O19 0.610515 0.500000 0.933788
O O20 0.500000 0.331510 0.000000
O O21 0.664253 0.500000 0.079489
O O22 0.750000 0.750000 0.000000
#
# Coordination Sequence:
#
# PCOD9224220 Si02
#       8
#     8   8   8   8   8   8   8   8
#     4   9  18  36  58  80 112 148 182 227 279 329
#     4  10  20  33  49  78 115 143 172 220 277 324
#     4  10  21  37  59  85 110 142 181 226 283 337
#     4  10  21  35  54  82 111 142 185 228 270 323
#     4  10  20  35  54  77 107 145 188 223 264 333
#     4  10  20  36  56  80 111 144 181 224 274 331
#     4   9  19  34  54  81 107 138 186 233 267 313
#     4  10  21  37  57  81 110 148 188 228 277 333
#
# _framework density 9.8765429999999999
#
# number of rings (size 3 to 8) (size 9 to 14) (size 15 to 20)
#    0.000    2.250    2.500    0.000    3.500    1.750 
#    0.000    0.625    0.000    1.125    0.000    0.000 
#    0.000    0.000    0.000    0.000    0.000    0.000 
#
# Total GULP energy -178327.056825 kJ/mol
# GULP energy per Si atom -5572.720526 kJ/mol
# Density = 0.985406 g / cm^3
# Si number density = 9.876543 Si / 1000 Ang^3
#
#
#
# Elastic Constant Matrix: (Units=GPa)
#
#
# Indices 1 2 3 4 5 6 
#
# 1 21.6589 9.7171 18.9459 0.0069 15.4365 0.0053
# 2 9.7171 -5.5070 29.8017 0.0001 -0.0589 0.0069
# 3 18.9459 29.8017 149.9631 0.0117 7.3874 0.0139
# 4 0.0069 0.0001 0.0117 23.3924 -0.0039 -1.5547
# 5 15.4365 -0.0589 7.3874 -0.0039 29.8771 -0.0038
# 6 0.0053 0.0069 0.0139 -1.5547 -0.0038 13.1740
#
#
#
# Elastic Compliance Matrix: (Units=1/GPa)
#
#
# Indices 1 2 3 4 5 6 
#
# 1 0.062338 0.036305 -0.013674 -0.000019 -0.028755 -0.000040
# 2 0.036305 -0.065749 0.009526 -0.000019 -0.021243 0.000002
# 3 -0.013674 0.009526 0.006230 0.000002 0.005543 -0.000004
# 4 -0.000019 -0.000019 0.000002 0.043087 0.000016 0.005085
# 5 -0.028755 -0.021243 0.005543 0.000016 0.046915 0.000032
# 6 -0.000040 0.000002 -0.000004 0.005085 0.000032 0.076507
#
#
# Mechanical properties :
#
#
# Convention : Reuss Voigt Hill
#
# Bulk Modulus (GPa) = 14.89588 31.44937 23.17263
# Shear Modulus (GPa) = 39.24940 20.46538 29.85739
#
# Velocity S-wave (km/s) = 4.46241 3.22228 3.89206
# Velocity P-wave (km/s) = 5.84023 5.45893 5.65280
#
# Compressibility (1/GPa) = 0.06713264
#
# Stress axis : x y z
#
# Youngs Moduli (GPa) = 16.04165 -15.20931 160.52164
#
# Poissons Ratio (x) = 0.55218 2.19494
# Poissons Ratio (y) = -0.58239 -1.52912
# Poissons Ratio (z) = 0.21935 0.14488
#
# Static dielectric constant tensor:
#      x y z
#    x 1.742010 0.000000 0.003070 
#    y 0.000000 1.691770 0.000010 
#    z 0.003070 0.000010 1.768500 
# 
# From -- ./inp_files/249993.got.cif
#   From: 2010.05.17/outbox.ucp.g08.bks.cvg/sg12_125_cif.got.tgz:249993.got - 2010.06.11 11:47:21.
