data_PCOD9224618
_publ_section_title
;
Structure prediction by ZEFSAII (Michael W. Deem and Ramdas Pophale) SiO2 
 PCOD9224618
Probable space group: C 2/M
;
_chemical_formula_sum "Si O2"
_cell_formula_units_Z 32
_cell_length_a 15.000000
_cell_length_b 18.000000
_cell_length_c 15.000000
_cell_angle_alpha 90.000000
_cell_angle_beta 120.000000
_cell_angle_gamma 90.000000
_cell_volume 3507.402885
_symmetry_space_group_name_H-M "C 2/M"
_symmetry_group_IT_number 12
_symmetry_cell_setting 'monoclinic'
loop_
_space_group_symop_operation_xyz
x,y,z
-x,y,-z
-x,-y,-z
x,-y,z
1/2+x,1/2+y,z
1/2-x,1/2+y,-z
1/2-x,1/2-y,-z
1/2+x,1/2-y,z
loop_
_atom_site_type_symbol
_atom_site_label
_atom_site_fract_x
_atom_site_fract_y
_atom_site_fract_z
Si Si1 0.280488 0.671404 0.190737
Si Si2 0.352195 0.265593 0.735181
Si Si3 0.587724 0.214451 0.848896
Si Si4 0.610440 0.587753 0.601432
Si Si5 0.309959 0.866622 0.583304
Si Si6 0.951689 0.414620 0.307914
Si Si7 0.226379 0.411037 0.637702
Si Si8 0.388777 0.914336 0.992749
O O1 0.207243 0.723305 0.214868
O O2 0.332308 0.720853 0.138650
O O3 0.367387 0.637079 0.299738
O O4 0.207012 0.605192 0.119262
O O5 0.475181 0.252498 0.805756
O O6 0.323842 0.216727 0.631478
O O7 0.309947 0.350648 0.716471
O O8 0.587357 0.155689 0.767374
O O9 0.610096 0.156677 0.940263
O O10 0.500000 0.607624 0.500000
O O11 0.604973 0.500000 0.619788
O O12 0.712759 0.600413 0.590750
O O13 0.424083 0.905003 0.642443
O O14 0.284117 0.880390 0.467613
O O15 0.929237 0.500000 0.267245
O O16 0.885105 0.407101 0.366843
O O17 0.254606 0.500000 0.653088
O O18 0.377419 0.000000 0.021829
O O19 0.500000 0.912889 0.000000
#
# Coordination Sequence:
#
# PCOD9224618 Si02
#       8
#     8   8   8   8   8   8   8   8
#     4  11  22  42  62  92 126 161 204 250 306 369
#     4  10  22  39  57  88 122 161 206 248 308 367
#     4  11  22  40  63  89 124 160 198 248 312 370
#     4  10  22  39  59  87 125 168 210 253 300 355
#     4  10  21  36  58  83 118 162 212 263 309 352
#     4  10  20  35  58  88 119 155 200 259 314 363
#     4  11  21  36  56  84 121 164 212 253 301 366
#     4  11  23  41  69  99 121 151 199 261 321 370
#
# _framework density 9.1235599999999994
#
# number of rings (size 3 to 8) (size 9 to 14) (size 15 to 20)
#    0.000    1.500    2.500    3.000    1.750    1.000 
#    2.250    0.625    0.000    0.000    0.000    1.750 
#    0.000    0.000    0.000    0.000    0.000    0.000 
#
# Total GULP energy -178186.860395 kJ/mol
# GULP energy per Si atom -5568.339387 kJ/mol
# Density = 0.910279 g / cm^3
# Si number density = 9.123560 Si / 1000 Ang^3
#
#
#
# Elastic Constant Matrix: (Units=GPa)
#
#
# Indices 1 2 3 4 5 6 
#
# 1 107.9210 52.2107 30.5437 0.0000 3.2797 0.0000
# 2 52.2107 117.2528 31.6797 0.0000 10.3404 0.0000
# 3 30.5437 31.6797 60.3706 0.0000 5.8146 0.0000
# 4 0.0000 0.0000 0.0000 16.0823 0.0000 -3.1085
# 5 3.2797 10.3404 5.8146 0.0000 26.1905 0.0000
# 6 0.0000 0.0000 0.0000 -3.1085 0.0000 39.1030
#
#
#
# Elastic Compliance Matrix: (Units=1/GPa)
#
#
# Indices 1 2 3 4 5 6 
#
# 1 0.012618 -0.004620 -0.004070 0.000000 0.001148 0.000000
# 2 -0.004620 0.011838 -0.003556 0.000000 -0.003306 0.000000
# 3 -0.004070 -0.003556 0.020749 0.000000 -0.002693 0.000000
# 4 0.000000 0.000000 0.000000 0.063150 0.000000 0.005020
# 5 0.001148 -0.003306 -0.002693 0.000000 0.039941 0.000000
# 6 0.000000 0.000000 0.000000 0.005020 0.000000 0.025973
#
#
# Mechanical properties :
#
#
# Convention : Reuss Voigt Hill
#
# Bulk Modulus (GPa) = 48.28005 57.15696 52.71850
# Shear Modulus (GPa) = 24.31116 27.68253 25.99684
#
# Velocity S-wave (km/s) = 3.65407 3.89921 3.77863
# Velocity P-wave (km/s) = 6.65728 7.18774 6.92759
#
# Compressibility (1/GPa) = 0.02071249
#
# Stress axis : x y z
#
# Youngs Moduli (GPa) = 79.25010 84.47191 48.19499
#
# Poissons Ratio (x) = 0.39028 0.19616
# Poissons Ratio (y) = 0.36615 0.17139
# Poissons Ratio (z) = 0.32255 0.30040
#
# Static dielectric constant tensor:
#      x y z
#    x 1.615400 0.000000 -0.008130 
#    y 0.000000 1.617900 0.000000 
#    z -0.008130 0.000000 1.700420 
# 
# From -- ./inp_files/216409.got.cif
#   From: 2010.05.17/outbox.ucp.g08.bks.cvg/sg12_109_cif.got.tgz:216409.got - 2010.06.11 11:47:21.
