data_PCOD9224818
_publ_section_title
;
Structure prediction by ZEFSAII (Michael W. Deem and Ramdas Pophale) SiO2 
 PCOD9224818
Probable space group: C 2/M
;
_chemical_formula_sum "Si O2"
_cell_formula_units_Z 32
_cell_length_a 18.000000
_cell_length_b 9.000000
_cell_length_c 30.000000
_cell_angle_alpha 90.000000
_cell_angle_beta 40.000000
_cell_angle_gamma 90.000000
_cell_volume 3123.947783
_symmetry_space_group_name_H-M "C 2/M"
_symmetry_group_IT_number 12
_symmetry_cell_setting 'monoclinic'
loop_
_space_group_symop_operation_xyz
x,y,z
-x,y,-z
-x,-y,-z
x,-y,z
1/2+x,1/2+y,z
1/2-x,1/2+y,-z
1/2-x,1/2-y,-z
1/2+x,1/2-y,z
loop_
_atom_site_type_symbol
_atom_site_label
_atom_site_fract_x
_atom_site_fract_y
_atom_site_fract_z
Si Si1 0.470477 0.325071 0.562919
Si Si2 0.539264 0.834335 0.931354
Si Si3 0.127727 0.678352 0.564004
Si Si4 0.372702 0.326075 0.941238
Si Si5 0.255814 0.160116 0.283060
Si Si6 0.005523 0.330511 0.706074
Si Si7 0.515860 0.833185 0.191427
Si Si8 0.740219 0.338151 0.804635
O O1 0.500000 0.275047 0.500000
O O2 0.502684 0.500000 0.551769
O O3 0.539454 0.232290 0.567325
O O4 0.335677 0.312326 0.636245
O O5 0.456811 0.728349 0.941467
O O6 0.669493 0.778562 0.866049
O O7 0.528917 0.000000 0.916705
O O8 0.500000 0.836110 0.000000
O O9 0.131899 0.500000 0.562976
O O10 0.250000 0.750000 0.500000
O O11 0.082249 0.734588 0.632458
O O12 0.360399 0.500000 0.947885
O O13 0.426088 0.266521 0.871443
O O14 0.250000 0.250000 0.000000
O O15 0.383815 0.144561 0.240615
O O16 0.264865 0.290284 0.243849
O O17 0.220253 0.000000 0.278156
O O18 0.048921 0.500000 0.695202
O O19 0.991695 0.249936 0.758533
O O20 0.875066 0.342960 0.750535
O O21 0.571541 0.000000 0.168631
O O22 0.688966 0.500000 0.836496
#
# Coordination Sequence:
#
# PCOD9224818 Si02
#       8
#     8   8   8   8   8   8   8   8
#     4  10  22  39  62  92 123 163 209 253 305 367
#     4  11  25  44  65  93 126 162 204 254 307 360
#     4  11  23  41  62  88 124 164 205 255 309 367
#     4  12  26  44  65  92 126 164 204 251 305 366
#     4  10  20  36  62  89 119 159 205 255 305 359
#     4   9  21  39  62  90 122 161 203 249 305 363
#     4  10  21  40  64  90 121 163 206 249 303 362
#     4  11  21  38  63  91 122 159 204 253 305 362
#
# _framework density 10.243449
#
# number of rings (size 3 to 8) (size 9 to 14) (size 15 to 20)
#    0.000    1.500    2.500    2.250    3.500    1.250 
#    0.000    1.875    0.000    0.000    0.000    0.000 
#    0.000    0.000    0.000    0.000    0.000    0.000 
#
# Total GULP energy -178269.014223 kJ/mol
# GULP energy per Si atom -5570.906694 kJ/mol
# Density = 1.022013 g / cm^3
# Si number density = 10.243449 Si / 1000 Ang^3
#
#
#
# Elastic Constant Matrix: (Units=GPa)
#
#
# Indices 1 2 3 4 5 6 
#
# 1 28.9578 25.6815 53.7671 -0.0001 24.2568 0.0000
# 2 25.6815 83.9428 59.9444 0.0003 5.3678 -0.0006
# 3 53.7671 59.9444 151.5542 0.0001 2.8785 -0.0001
# 4 -0.0001 0.0003 0.0001 43.8843 0.0000 -1.8394
# 5 24.2568 5.3678 2.8785 0.0000 23.1180 -0.0001
# 6 0.0000 -0.0006 -0.0001 -1.8394 -0.0001 29.2460
#
#
#
# Elastic Compliance Matrix: (Units=1/GPa)
#
#
# Indices 1 2 3 4 5 6 
#
# 1 -0.073928 0.000192 0.024738 0.000000 0.074444 0.000000
# 2 0.000192 0.016818 -0.006658 0.000000 -0.003277 0.000000
# 3 0.024738 -0.006658 0.000921 0.000000 -0.024525 0.000000
# 4 0.000000 0.000000 0.000000 0.022847 0.000000 0.001437
# 5 0.074444 -0.003277 -0.024525 0.000000 -0.031041 0.000000
# 6 0.000000 0.000000 0.000000 0.001437 0.000000 0.034283
#
#
# Mechanical properties :
#
#
# Convention : Reuss Voigt Hill
#
# Bulk Modulus (GPa) = -50.90296 60.36007 4.72856
# Shear Modulus (GPa) = -68.31581 27.58711 -20.36435
#
# Velocity S-wave (km/s) = -5.78087 3.67355 -3.15623
# Velocity P-wave (km/s) = 8.33418 6.89348 3.31199
#
# Compressibility (1/GPa) = -0.01964522
#
# Stress axis : x y z
#
# Youngs Moduli (GPa) = -13.52674 59.45915 1085.47804
#
# Poissons Ratio (x) = -0.01139 -26.85226
# Poissons Ratio (y) = 0.00259 7.22698
# Poissons Ratio (z) = 0.33462 0.39587
#
# Static dielectric constant tensor:
#      x y z
#    x 0.887020 -0.000020 1.534540 
#    y -0.000020 1.827500 0.000040 
#    z 1.534540 0.000040 -1.061090 
# 
# From -- ./inp_files/378172.got.cif
#   From: 2010.05.17/outbox.ucp.g08.bks.cvg/sg12_190_cif.got.tgz:378172.got - 2010.06.11 11:47:21.
