data_PCOD9224554
_publ_section_title
;
Structure prediction by ZEFSAII (Michael W. Deem and Ramdas Pophale) SiO2 
 PCOD9224554
Probable space group: C 2/M
;
_chemical_formula_sum "Si O2"
_cell_formula_units_Z 28
_cell_length_a 15.000000
_cell_length_b 9.000000
_cell_length_c 21.000000
_cell_angle_alpha 90.000000
_cell_angle_beta 90.000000
_cell_angle_gamma 90.000000
_cell_volume 2835.000000
_symmetry_space_group_name_H-M "C 2/M"
_symmetry_group_IT_number 12
_symmetry_cell_setting 'monoclinic'
loop_
_space_group_symop_operation_xyz
x,y,z
-x,y,-z
-x,-y,-z
x,-y,z
1/2+x,1/2+y,z
1/2-x,1/2+y,-z
1/2-x,1/2-y,-z
1/2+x,1/2-y,z
loop_
_atom_site_type_symbol
_atom_site_label
_atom_site_fract_x
_atom_site_fract_y
_atom_site_fract_z
Si Si1 0.603409 0.317732 0.499071
Si Si2 0.143493 0.823572 0.063883
Si Si3 0.326043 0.667720 0.633411
Si Si4 0.334163 0.671204 0.366446
Si Si5 0.996414 0.835639 0.721615
Si Si6 0.006414 0.327878 0.153857
Si Si7 0.652554 0.822469 0.933327
O O1 0.500000 0.275961 0.500000
O O2 0.604606 0.500000 0.498372
O O3 0.648793 0.263619 0.434703
O O4 0.648591 0.263671 0.563545
O O5 0.245540 0.774891 0.075759
O O6 0.080563 0.767409 0.118939
O O7 0.141098 0.000000 0.059186
O O8 0.115901 0.753024 0.996825
O O9 0.296717 0.500000 0.621579
O O10 0.247199 0.751608 0.667036
O O11 0.411372 0.665754 0.676964
O O12 0.312311 0.500000 0.375550
O O13 0.421252 0.681996 0.324995
O O14 0.992576 0.707911 0.772586
O O15 0.002229 0.000000 0.752726
O O16 0.022483 0.500000 0.140009
O O17 0.910486 0.286455 0.125245
O O18 0.652170 0.000000 0.942588
#
# Coordination Sequence:
#
# PCOD9224554 Si02
#       7
#     8   8   8   8   8   8   8
#     4   9  15  30  57  82 106 140 180 221 272 332
#     4  10  20  36  60  88 115 144 181 223 267 322
#     4  10  20  35  57  81 107 142 181 224 277 332
#     4  10  20  35  57  82 108 140 182 229 274 327
#     4  10  22  39  55  75 106 147 189 225 266 326
#     4  11  23  38  57  80 111 149 185 225 274 321
#     4   9  20  38  58  83 115 147 179 220 273 324
#
# _framework density 9.8765429999999999
#
# number of rings (size 3 to 8) (size 9 to 14) (size 15 to 20)
#    0.000    2.143    1.429    1.714    0.000    5.714 
#    0.000    4.286    0.000    0.857    0.000    0.000 
#    0.000    0.000    0.000    0.000    0.000    0.000 
#
# Total GULP energy -156059.253485 kJ/mol
# GULP energy per Si atom -5573.544767 kJ/mol
# Density = 0.985406 g / cm^3
# Si number density = 9.876543 Si / 1000 Ang^3
#
#
#
# Elastic Constant Matrix: (Units=GPa)
#
#
# Indices 1 2 3 4 5 6 
#
# 1 88.5274 47.1405 0.9662 0.0000 11.9712 0.0000
# 2 47.1405 -8.0303 33.5579 0.0000 -14.3981 0.0000
# 3 0.9662 33.5579 23.8731 0.0000 34.4663 0.0000
# 4 0.0000 0.0000 0.0000 21.9254 0.0000 0.1008
# 5 11.9712 -14.3981 34.4663 0.0000 -9.0419 0.0000
# 6 0.0000 0.0000 0.0000 0.1008 0.0000 5.4638
#
#
#
# Elastic Compliance Matrix: (Units=1/GPa)
#
#
# Indices 1 2 3 4 5 6 
#
# 1 -0.111850 0.322235 0.077833 0.000000 -0.364518 0.000000
# 2 0.322235 -0.844789 -0.212757 0.000000 0.960855 0.000000
# 3 0.077833 -0.212757 -0.046144 0.000000 0.265943 0.000000
# 4 0.000000 0.000000 0.000000 0.045613 0.000000 -0.000842
# 5 -0.364518 0.960855 0.265943 0.000000 -1.109516 0.000000
# 6 0.000000 0.000000 0.000000 -0.000842 0.000000 0.183038
#
#
# Mechanical properties :
#
#
# Convention : Reuss Voigt Hill
#
# Bulk Modulus (GPa) = -1.59195 29.74437 14.07621
# Shear Modulus (GPa) = -2.02621 5.18317 1.57848
#
# Velocity S-wave (km/s) = -1.01390 1.62163 0.89490
# Velocity P-wave (km/s) = 1.47592 4.31243 2.86519
#
# Compressibility (1/GPa) = -0.62815913
#
# Stress axis : x y z
#
# Youngs Moduli (GPa) = -8.94054 -1.18373 -21.67120
#
# Poissons Ratio (x) = 0.38144 1.68674
# Poissons Ratio (y) = 2.88096 -4.61069
# Poissons Ratio (z) = 0.69587 -0.25185
#
# Static dielectric constant tensor:
#      x y z
#    x 1.720900 0.000000 0.014400 
#    y 0.000000 1.679850 0.000000 
#    z 0.014400 0.000000 1.697600 
# 
# From -- ./inp_files/308906.got.cif
#   From: 2010.05.17/outbox.ucp.g08.bks.cvg/sg12_155_cif.got.tgz:308906.got - 2010.06.11 11:47:21.
