data_PCOD9224765
_publ_section_title
;
Structure prediction by ZEFSAII (Michael W. Deem and Ramdas Pophale) SiO2 
 PCOD9224765
Probable space group: C 2/M
;
_chemical_formula_sum "Si O2"
_cell_formula_units_Z 28
_cell_length_a 27.000000
_cell_length_b 9.000000
_cell_length_c 18.000000
_cell_angle_alpha 90.000000
_cell_angle_beta 40.000000
_cell_angle_gamma 90.000000
_cell_volume 2811.553005
_symmetry_space_group_name_H-M "C 2/M"
_symmetry_group_IT_number 12
_symmetry_cell_setting 'monoclinic'
loop_
_space_group_symop_operation_xyz
x,y,z
-x,y,-z
-x,-y,-z
x,-y,z
1/2+x,1/2+y,z
1/2-x,1/2+y,-z
1/2-x,1/2-y,-z
1/2+x,1/2-y,z
loop_
_atom_site_type_symbol
_atom_site_label
_atom_site_fract_x
_atom_site_fract_y
_atom_site_fract_z
Si Si1 0.330389 0.178598 0.930205
Si Si2 0.331823 0.820834 0.375574
Si Si3 0.342825 0.329392 0.658797
Si Si4 0.442938 0.178167 0.666550
Si Si5 0.109933 0.676488 0.530619
Si Si6 0.085655 0.177583 0.866997
Si Si7 0.829780 0.326839 0.096169
O O1 0.390623 0.217161 0.797326
O O2 0.321908 0.000000 0.941721
O O3 0.250000 0.250000 0.000000
O O4 0.355330 0.222353 0.984714
O O5 0.250000 0.750000 0.500000
O O6 0.384312 0.795961 0.388622
O O7 0.376187 0.753475 0.251689
O O8 0.321556 0.000000 0.376364
O O9 0.364761 0.500000 0.624466
O O10 0.406131 0.246526 0.635475
O O11 0.330368 0.258828 0.591742
O O12 0.262769 0.321661 0.795175
O O13 0.528363 0.224700 0.590658
O O14 0.443044 0.000000 0.657493
O O15 0.119296 0.500000 0.509531
O O16 0.139631 0.225728 0.873217
O O17 0.085154 0.000000 0.855013
O O18 0.000000 0.218644 0.000000
O O19 0.852768 0.500000 0.082077
#
# Coordination Sequence:
#
# PCOD9224765 Si02
#       7
#     8   8   8   8   8   8   8
#     4  10  20  36  59  87 119 156 198 246 296 356
#     4  11  24  44  71  97 126 166 215 268 322 382
#     4  11  22  37  58  89 123 157 198 244 297 358
#     4  10  21  37  58  84 119 158 199 242 293 359
#     4  10  23  40  60  87 117 156 201 246 300 362
#     4  11  26  45  65  95 131 166 211 268 326 381
#     4  10  22  39  62  89 120 159 205 251 302 370
#
# _framework density 9.9589090000000002
#
# number of rings (size 3 to 8) (size 9 to 14) (size 15 to 20)
#    0.000    1.571    1.429    2.571    2.000    8.571 
#    0.000    0.000    0.000    0.000    0.000    0.000 
#    0.000    0.000    0.000    0.000    0.000    0.000 
#
# Total GULP energy -156219.608501 kJ/mol
# GULP energy per Si atom -5579.271732 kJ/mol
# Density = 0.993624 g / cm^3
# Si number density = 9.958909 Si / 1000 Ang^3
#
#
#
# Elastic Constant Matrix: (Units=GPa)
#
#
# Indices 1 2 3 4 5 6 
#
# 1 95.6050 33.9190 48.5179 0.0009 25.2096 0.0001
# 2 33.9190 42.3827 47.2344 0.0059 9.6557 -0.0034
# 3 48.5179 47.2344 134.1684 0.0038 30.1728 -0.0025
# 4 0.0009 0.0059 0.0038 30.9216 -0.0016 5.8667
# 5 25.2096 9.6557 30.1728 -0.0016 44.1542 0.0004
# 6 0.0001 -0.0034 -0.0025 5.8667 0.0004 16.6616
#
#
#
# Elastic Compliance Matrix: (Units=1/GPa)
#
#
# Indices 1 2 3 4 5 6 
#
# 1 0.016372 -0.010950 -0.000593 0.000002 -0.006548 -0.000003
# 2 -0.010950 0.046191 -0.013513 -0.000009 0.005385 0.000010
# 3 -0.000593 -0.013513 0.013806 0.000001 -0.006141 -0.000001
# 4 0.000002 -0.000009 0.000001 0.034655 0.000002 -0.012202
# 5 -0.006548 0.005385 -0.006141 0.000002 0.029405 -0.000001
# 6 -0.000003 0.000010 -0.000001 -0.012202 -0.000001 0.064315
#
#
# Mechanical properties :
#
#
# Convention : Reuss Voigt Hill
#
# Bulk Modulus (GPa) = 38.08488 59.05541 48.57014
# Shear Modulus (GPa) = 18.96757 27.84648 23.40702
#
# Velocity S-wave (km/s) = 3.08927 3.74313 3.43181
# Velocity P-wave (km/s) = 5.64689 6.95667 6.33572
#
# Compressibility (1/GPa) = 0.02625714
#
# Stress axis : x y z
#
# Youngs Moduli (GPa) = 61.07969 21.64932 72.43256
#
# Poissons Ratio (x) = 0.23706 0.04295
# Poissons Ratio (y) = 0.66883 0.97877
# Poissons Ratio (z) = 0.03622 0.29254
#
# Static dielectric constant tensor:
#      x y z
#    x 1.705940 0.000000 -0.024360 
#    y 0.000000 1.689560 0.000000 
#    z -0.024360 0.000000 1.739510 
# 
# From -- ./inp_files/292457.got.cif
#   From: 2010.05.17/outbox.ucp.g08.bks.cvg/sg12_147_cif.got.tgz:292457.got - 2010.06.11 11:47:21.
