data_PCOD9224788
_publ_section_title
;
Structure prediction by ZEFSAII (Michael W. Deem and Ramdas Pophale) SiO2 
 PCOD9224788
Probable space group: C 2/M
;
_chemical_formula_sum "Si O2"
_cell_formula_units_Z 20
_cell_length_a 18.000000
_cell_length_b 15.000000
_cell_length_c 15.000000
_cell_angle_alpha 90.000000
_cell_angle_beta 30.000000
_cell_angle_gamma 90.000000
_cell_volume 2025.000000
_symmetry_space_group_name_H-M "C 2/M"
_symmetry_group_IT_number 12
_symmetry_cell_setting 'monoclinic'
loop_
_space_group_symop_operation_xyz
x,y,z
-x,y,-z
-x,-y,-z
x,-y,z
1/2+x,1/2+y,z
1/2-x,1/2+y,-z
1/2-x,1/2-y,-z
1/2+x,1/2-y,z
loop_
_atom_site_type_symbol
_atom_site_label
_atom_site_fract_x
_atom_site_fract_y
_atom_site_fract_z
Si Si1 0.086239 0.599687 0.544474
Si Si2 0.757068 0.106169 0.037024
Si Si3 0.165810 0.395204 0.666047
Si Si4 0.136951 0.711456 0.994106
Si Si5 0.652391 0.711893 0.390672
O O1 0.115497 0.500000 0.476842
O O2 0.165544 0.605783 0.558721
O O3 0.135162 0.684903 0.437639
O O4 0.908442 0.607099 0.746890
O O5 0.854524 0.183921 0.984094
O O6 0.802848 0.000000 0.987945
O O7 0.729422 0.149700 0.968154
O O8 0.146883 0.500000 0.711554
O O9 0.306510 0.350226 0.567918
O O10 0.025341 0.332885 0.837552
O O11 0.215948 0.704402 0.817339
O O12 0.500000 0.685476 0.500000
#
# Coordination Sequence:
#
# PCOD9224788 Si02
#       5
#     8   8   8   8   8
#     4   9  19  39  64  88 117 159 199 235 294 357
#     4   9  18  36  62  87 117 158 199 238 288 354
#     4  10  23  43  64  82 116 166 203 235 289 361
#     4  10  20  36  60  89 117 157 198 239 292 352
#     4  12  23  36  60  95 124 148 191 255 301 340
#
# _framework density 9.8765429999999999
#
# number of rings (size 3 to 8) (size 9 to 14) (size 15 to 20)
#    0.000    2.000    2.000    3.000    0.000    4.000 
#    0.000    1.000    0.000    2.400    0.000    0.000 
#    0.000    0.000    0.000    0.000    0.000    0.000 
#
# Total GULP energy -111656.052469 kJ/mol
# GULP energy per Si atom -5582.802623 kJ/mol
# Density = 0.985406 g / cm^3
# Si number density = 9.876543 Si / 1000 Ang^3
#
#
#
# Elastic Constant Matrix: (Units=GPa)
#
#
# Indices 1 2 3 4 5 6 
#
# 1 90.0930 34.3133 9.3934 0.0002 -23.4826 -0.0002
# 2 34.3133 151.1838 7.4149 0.0005 -13.1680 -0.0005
# 3 9.3934 7.4149 18.1676 0.0007 3.6462 -0.0007
# 4 0.0002 0.0005 0.0007 39.3840 -0.0004 3.0165
# 5 -23.4826 -13.1680 3.6462 -0.0004 26.6433 0.0003
# 6 -0.0002 -0.0005 -0.0007 3.0165 0.0003 14.2426
#
#
#
# Elastic Compliance Matrix: (Units=1/GPa)
#
#
# Indices 1 2 3 4 5 6 
#
# 1 0.017082 -0.001970 -0.011161 0.000000 0.015610 -0.000001
# 2 -0.001970 0.007377 -0.002442 0.000000 0.002244 0.000000
# 3 -0.011161 -0.002442 0.065835 -0.000002 -0.020054 0.000004
# 4 0.000000 0.000000 -0.000002 0.025810 0.000001 -0.005466
# 5 0.015610 0.002244 -0.020054 0.000001 0.055144 -0.000002
# 6 -0.000001 0.000000 0.000004 -0.005466 -0.000002 0.071370
#
#
# Mechanical properties :
#
#
# Convention : Reuss Voigt Hill
#
# Bulk Modulus (GPa) = 16.90688 40.18750 28.54719
# Shear Modulus (GPa) = 17.03690 29.94218 23.48954
#
# Velocity S-wave (km/s) = 2.94001 3.89758 3.45216
# Velocity P-wave (km/s) = 4.48359 6.37526 5.51119
#
# Compressibility (1/GPa) = 0.05914750
#
# Stress axis : x y z
#
# Youngs Moduli (GPa) = 58.54023 135.55968 15.18938
#
# Poissons Ratio (x) = 0.26706 0.16953
# Poissons Ratio (y) = 0.11533 0.03710
# Poissons Ratio (z) = 0.65337 0.33110
#
# Static dielectric constant tensor:
#      x y z
#    x 1.736940 0.000000 -0.001360 
#    y 0.000000 1.678100 0.000000 
#    z -0.001360 0.000000 1.695870 
# 
# From -- ./inp_files/58987.got.cif
#   From: 2010.05.17/outbox.ucp.g08.bks.cvg/sg12_30_cif.got.tgz:58987.got - 2010.06.11 11:47:21.
