data_PCOD9224139
_publ_section_title
;
Structure prediction by ZEFSAII (Michael W. Deem and Ramdas Pophale) SiO2 
 PCOD9224139
Probable space group: C 2/M
;
_chemical_formula_sum "Si O2"
_cell_formula_units_Z 24
_cell_length_a 24.000000
_cell_length_b 12.000000
_cell_length_c 12.000000
_cell_angle_alpha 90.000000
_cell_angle_beta 130.000000
_cell_angle_gamma 90.000000
_cell_volume 2647.449595
_symmetry_space_group_name_H-M "C 2/M"
_symmetry_group_IT_number 12
_symmetry_cell_setting 'monoclinic'
loop_
_space_group_symop_operation_xyz
x,y,z
-x,y,-z
-x,-y,-z
x,-y,z
1/2+x,1/2+y,z
1/2-x,1/2+y,-z
1/2-x,1/2-y,-z
1/2+x,1/2-y,z
loop_
_atom_site_type_symbol
_atom_site_label
_atom_site_fract_x
_atom_site_fract_y
_atom_site_fract_z
Si Si1 0.570568 0.500000 0.437093
Si Si2 0.763563 0.369462 0.713528
Si Si3 0.687041 0.708690 0.841425
Si Si4 0.078880 0.367719 0.154662
Si Si5 0.596749 0.500000 0.738514
Si Si6 0.134755 0.767235 0.439054
Si Si7 0.916282 0.367621 0.413182
O O1 0.590981 0.500000 0.595251
O O2 0.484100 0.500000 0.320970
O O3 0.599658 0.387707 0.418693
O O4 0.751911 0.500000 0.671568
O O5 0.724420 0.339268 0.778004
O O6 0.850364 0.354523 0.833670
O O7 0.720609 0.293912 0.568277
O O8 0.639720 0.609044 0.829780
O O9 0.633654 0.809147 0.742348
O O10 0.750000 0.750000 0.000000
O O11 0.076007 0.500000 0.183346
O O12 0.103016 0.288970 0.287648
O O13 0.000000 0.341162 0.000000
O O14 0.110141 0.683656 0.504950
O O15 0.909606 0.500000 0.403196
O O16 0.000000 0.336589 0.500000
#
# Coordination Sequence:
#
# PCOD9224139 Si02
#       7
#     4   8   8   8   4   8   8
#     4  11  20  34  67  84 112 148 199 236 279 334
#     4  10  19  38  60  83 108 150 194 234 278 337
#     4  11  22  35  58  84 120 151 187 234 283 343
#     4  10  23  39  59  83 113 147 189 236 290 340
#     4  11  20  38  56  90 113 154 194 234 280 342
#     4  11  19  37  59  86 110 148 192 238 277 340
#     4  10  21  35  55  83 115 148 188 234 283 335
#
# _framework density 9.0653279999999992
#
# number of rings (size 3 to 8) (size 9 to 14) (size 15 to 20)
#    0.000    1.500    5.000    2.000    1.167    2.667 
#    0.000    3.750    1.833    0.000    0.000    0.000 
#    0.000    0.000    0.000    0.000    0.000    0.000 
#
# Total GULP energy -133805.292163 kJ/mol
# GULP energy per Si atom -5575.220507 kJ/mol
# Density = 0.904470 g / cm^3
# Si number density = 9.065328 Si / 1000 Ang^3
#
#
#
# Elastic Constant Matrix: (Units=GPa)
#
#
# Indices 1 2 3 4 5 6 
#
# 1 68.0752 25.2640 39.3590 0.0000 37.9956 0.0000
# 2 25.2640 48.8308 42.0907 0.0000 21.3131 0.0000
# 3 39.3590 42.0907 117.2161 0.0000 42.1131 0.0000
# 4 0.0000 0.0000 0.0000 33.0327 0.0000 7.2624
# 5 37.9956 21.3131 42.1131 0.0000 34.0818 0.0000
# 6 0.0000 0.0000 0.0000 7.2624 0.0000 16.3626
#
#
#
# Elastic Compliance Matrix: (Units=1/GPa)
#
#
# Indices 1 2 3 4 5 6 
#
# 1 0.040848 -0.004302 0.005797 0.000000 -0.050011 0.000000
# 2 -0.004302 0.032005 -0.008237 0.000000 -0.005040 0.000000
# 3 0.005797 -0.008237 0.018009 0.000000 -0.023564 0.000000
# 4 0.000000 0.000000 0.000000 0.033547 0.000000 -0.014889
# 5 -0.050011 -0.005040 -0.023564 0.000000 0.117363 0.000000
# 6 0.000000 0.000000 0.000000 -0.014889 0.000000 0.067724
#
#
# Mechanical properties :
#
#
# Convention : Reuss Voigt Hill
#
# Bulk Modulus (GPa) = 12.92394 49.72772 31.32583
# Shear Modulus (GPa) = 14.33602 25.18930 19.76266
#
# Velocity S-wave (km/s) = 2.81500 3.73140 3.30512
# Velocity P-wave (km/s) = 4.20825 6.78612 5.64627
#
# Compressibility (1/GPa) = 0.07737581
#
# Stress axis : x y z
#
# Youngs Moduli (GPa) = 24.48099 31.24551 55.52921
#
# Poissons Ratio (x) = 0.13443 -0.32189
# Poissons Ratio (y) = 0.10532 0.45741
# Poissons Ratio (z) = -0.14191 0.25738
#
# Static dielectric constant tensor:
#      x y z
#    x 1.645620 0.000000 -0.000270 
#    y 0.000000 1.601920 0.000000 
#    z -0.000270 0.000000 1.612950 
# 
# From -- ./inp_files/174889.got.cif
#   From: 2010.05.17/outbox.ucp.g08.bks.cvg/sg12_88_cif.got.tgz:174889.got - 2010.06.11 11:47:21.
