data_PCOD9224354
_publ_section_title
;
Structure prediction by ZEFSAII (Michael W. Deem and Ramdas Pophale) SiO2 
 PCOD9224354
Probable space group: C 2/M
;
_chemical_formula_sum "Si O2"
_cell_formula_units_Z 22
_cell_length_a 9.000000
_cell_length_b 24.000000
_cell_length_c 12.000000
_cell_angle_alpha 90.000000
_cell_angle_beta 60.000000
_cell_angle_gamma 90.000000
_cell_volume 2244.737847
_symmetry_space_group_name_H-M "C 2/M"
_symmetry_group_IT_number 12
_symmetry_cell_setting 'monoclinic'
loop_
_space_group_symop_operation_xyz
x,y,z
-x,y,-z
-x,-y,-z
x,-y,z
1/2+x,1/2+y,z
1/2-x,1/2+y,-z
1/2-x,1/2-y,-z
1/2+x,1/2-y,z
loop_
_atom_site_type_symbol
_atom_site_label
_atom_site_fract_x
_atom_site_fract_y
_atom_site_fract_z
Si Si1 0.175415 0.884440 0.558345
Si Si2 0.132047 0.500000 0.548131
Si Si3 0.361900 0.500000 0.949217
Si Si4 0.697506 0.406683 0.209428
Si Si5 0.530254 0.000000 0.824474
Si Si6 0.667455 0.812170 0.701380
Si Si7 0.138307 0.696978 0.351218
O O1 0.223066 0.841466 0.440716
O O2 0.260860 0.856871 0.637554
O O3 0.976619 0.897148 0.655010
O O4 0.258058 0.943786 0.497620
O O5 0.014794 0.500000 0.699571
O O6 0.000000 0.500000 0.500000
O O7 0.374166 0.442164 0.871466
O O8 0.500000 0.500000 0.000000
O O9 0.159869 0.500000 0.056994
O O10 0.848940 0.448053 0.190841
O O11 0.793923 0.347522 0.200003
O O12 0.733594 0.749546 0.698581
O O13 0.474684 0.812015 0.719159
O O14 0.000000 0.710296 0.500000
#
# Coordination Sequence:
#
# PCOD9224354 Si02
#       7
#     8   4   4   8   4   8   8
#     4  11  22  35  57  97 137 170 202 251 317 376
#     4  12  23  34  59  95 135 159 203 249 316 379
#     4  11  28  49  65  87 119 168 218 263 317 376
#     4  11  22  39  64  88 123 162 212 258 311 370
#     4  11  25  43  62  88 126 164 207 259 311 377
#     4  11  20  35  58  91 135 170 210 258 310 373
#     4  10  20  34  53  89 142 176 208 246 310 382
#
# _framework density 9.8006989999999998
#
# number of rings (size 3 to 8) (size 9 to 14) (size 15 to 20)
#    0.000    1.091    1.818    8.727    2.545    0.727 
#    0.000    0.000    0.000    0.000    0.000   35.636 
#    0.000    0.000    0.000    0.000    0.000    0.000 
#
# Total GULP energy -122518.606957 kJ/mol
# GULP energy per Si atom -5569.027589 kJ/mol
# Density = 0.977839 g / cm^3
# Si number density = 9.800699 Si / 1000 Ang^3
#
#
#
# Elastic Constant Matrix: (Units=GPa)
#
#
# Indices 1 2 3 4 5 6 
#
# 1 100.2306 6.0526 46.4262 0.0000 5.9151 0.0000
# 2 6.0526 104.5703 32.5793 0.0000 -2.5729 0.0000
# 3 46.4262 32.5793 42.4910 0.0000 2.8770 0.0000
# 4 0.0000 0.0000 0.0000 18.6965 0.0000 4.9867
# 5 5.9151 -2.5729 2.8770 0.0000 41.0735 0.0000
# 6 0.0000 0.0000 0.0000 4.9867 0.0000 37.0853
#
#
#
# Elastic Compliance Matrix: (Units=1/GPa)
#
#
# Indices 1 2 3 4 5 6 
#
# 1 0.025965 0.009600 -0.035687 0.000000 -0.000638 0.000000
# 2 0.009600 0.016202 -0.022996 0.000000 0.001243 0.000000
# 3 -0.035687 -0.022996 0.080288 0.000000 -0.001925 0.000000
# 4 0.000000 0.000000 0.000000 0.055476 0.000000 -0.007460
# 5 -0.000638 0.001243 -0.001925 0.000000 0.024651 0.000000
# 6 0.000000 0.000000 0.000000 -0.007460 0.000000 0.027968
#
#
# Mechanical properties :
#
#
# Convention : Reuss Voigt Hill
#
# Bulk Modulus (GPa) = 41.16978 46.37867 43.77423
# Shear Modulus (GPa) = 14.84504 30.18665 22.51584
#
# Velocity S-wave (km/s) = 2.75498 3.92857 3.39290
# Velocity P-wave (km/s) = 5.58292 6.65511 6.14245
#
# Compressibility (1/GPa) = 0.02428966
#
# Stress axis : x y z
#
# Youngs Moduli (GPa) = 38.51351 61.71934 12.45510
#
# Poissons Ratio (x) = -0.59249 0.44448
# Poissons Ratio (y) = -0.36972 0.28642
# Poissons Ratio (z) = 1.37443 1.41930
#
# Static dielectric constant tensor:
#      x y z
#    x 1.735500 0.000000 0.042820 
#    y 0.000000 1.586770 0.000000 
#    z 0.042820 0.000000 1.717810 
# 
# From -- ./inp_files/122391.got.cif
#   From: 2010.05.17/outbox.ucp.g08.bks.cvg/sg12_62_cif.got.tgz:122391.got - 2010.06.11 11:47:21.
