data_PCOD9224358
_publ_section_title
;
Structure prediction by ZEFSAII (Michael W. Deem and Ramdas Pophale) SiO2 
 PCOD9224358
Probable space group: C 2/M
;
_chemical_formula_sum "Si O2"
_cell_formula_units_Z 32
_cell_length_a 15.000000
_cell_length_b 9.000000
_cell_length_c 30.000000
_cell_angle_alpha 90.000000
_cell_angle_beta 60.000000
_cell_angle_gamma 90.000000
_cell_volume 3507.402885
_symmetry_space_group_name_H-M "C 2/M"
_symmetry_group_IT_number 12
_symmetry_cell_setting 'monoclinic'
loop_
_space_group_symop_operation_xyz
x,y,z
-x,y,-z
-x,-y,-z
x,-y,z
1/2+x,1/2+y,z
1/2-x,1/2+y,-z
1/2-x,1/2-y,-z
1/2+x,1/2-y,z
loop_
_atom_site_type_symbol
_atom_site_label
_atom_site_fract_x
_atom_site_fract_y
_atom_site_fract_z
Si Si1 0.439294 0.175684 0.381921
Si Si2 0.915316 0.821285 0.080499
Si Si3 0.396420 0.675544 0.252637
Si Si4 0.523622 0.321337 0.443968
Si Si5 0.188106 0.322513 0.809955
Si Si6 0.580924 0.322977 0.273993
Si Si7 0.756104 0.677334 0.360343
Si Si8 0.647110 0.321294 0.005181
O O1 0.446551 0.251668 0.427764
O O2 0.530833 0.240774 0.328416
O O3 0.332925 0.205177 0.382487
O O4 0.451403 0.000000 0.382953
O O5 0.846912 0.744859 0.134775
O O6 0.870947 0.785586 0.042555
O O7 0.912068 0.000000 0.085818
O O8 0.036276 0.777401 0.054169
O O9 0.386250 0.500000 0.247943
O O10 0.388092 0.761976 0.208769
O O11 0.502326 0.702899 0.252774
O O12 0.304753 0.734941 0.307044
O O13 0.500000 0.273501 0.500000
O O14 0.516248 0.500000 0.443924
O O15 0.640016 0.280807 0.401005
O O16 0.186162 0.500000 0.812079
O O17 0.304019 0.276512 0.767170
O O18 0.581448 0.500000 0.283377
O O19 0.759194 0.500000 0.349725
O O20 0.655754 0.500000 0.006873
O O21 0.750000 0.250000 0.000000
#
# Coordination Sequence:
#
# PCOD9224358 Si02
#       8
#     8   8   8   8   8   8   8   8
#     4  10  20  34  54  78 102 130 168 215 260 301
#     4   9  20  38  55  77 110 144 176 213 261 313
#     4  10  20  35  55  78 104 138 176 211 255 312
#     4  10  21  36  53  73 100 136 172 206 255 316
#     4  11  22  35  53  79 110 141 173 215 260 302
#     4   9  20  37  54  74 104 140 174 207 252 312
#     4   9  19  36  54  74 103 135 169 212 258 306
#     4   9  19  37  60  81 105 140 180 220 262 307
#
# _framework density 9.1235599999999994
#
# number of rings (size 3 to 8) (size 9 to 14) (size 15 to 20)
#    0.000    2.375    0.000    2.625    0.000    8.250 
#    0.000    5.000    0.000    0.000    0.000    0.000 
#    0.000    0.000    0.000    0.000    0.000    0.000 
#
# Total GULP energy -178615.883180 kJ/mol
# GULP energy per Si atom -5581.746349 kJ/mol
# Density = 0.910279 g / cm^3
# Si number density = 9.123560 Si / 1000 Ang^3
#
#
#
# Elastic Constant Matrix: (Units=GPa)
#
#
# Indices 1 2 3 4 5 6 
#
# 1 69.9634 26.3196 14.0880 0.0000 2.2086 0.0000
# 2 26.3196 16.3291 16.6515 0.0000 6.5599 0.0000
# 3 14.0880 16.6515 27.0036 0.0000 16.5927 0.0000
# 4 0.0000 0.0000 0.0000 31.0123 0.0000 3.7599
# 5 2.2086 6.5599 16.5927 0.0000 14.9519 0.0000
# 6 0.0000 0.0000 0.0000 3.7599 0.0000 26.4766
#
#
#
# Elastic Compliance Matrix: (Units=1/GPa)
#
#
# Indices 1 2 3 4 5 6 
#
# 1 0.235868 -0.925094 0.689739 0.000000 -0.394400 0.000000
# 2 -0.925094 3.938222 -3.043343 0.000001 1.786128 0.000001
# 3 0.689739 -3.043343 2.502285 -0.000001 -1.543545 -0.000001
# 4 0.000000 0.000001 -0.000001 0.032810 0.000000 -0.004659
# 5 -0.394400 1.786128 -1.543545 0.000000 1.054434 0.000001
# 6 0.000000 0.000001 -0.000001 -0.004659 0.000001 0.038431
#
#
# Mechanical properties :
#
#
# Convention : Reuss Voigt Hill
#
# Bulk Modulus (GPa) = 8.40477 25.26827 16.83652
# Shear Modulus (GPa) = 0.34724 18.23728 9.29226
#
# Velocity S-wave (km/s) = 0.43671 3.16485 2.25909
# Velocity P-wave (km/s) = 2.20689 5.21852 4.00645
#
# Compressibility (1/GPa) = 0.11898004
#
# Stress axis : x y z
#
# Youngs Moduli (GPa) = 4.23965 0.25392 0.39963
#
# Poissons Ratio (x) = 0.23490 -0.27564
# Poissons Ratio (y) = 3.92208 1.21623
# Poissons Ratio (z) = -2.92426 0.77277
#
# Static dielectric constant tensor:
#      x y z
#    x 1.623880 0.000000 0.012330 
#    y 0.000000 1.606530 0.000000 
#    z 0.012330 0.000000 1.613980 
# 
# From -- ./inp_files/338821.got.cif
#   From: 2010.05.17/outbox.ucp.g08.bks.cvg/sg12_170_cif.got.tgz:338821.got - 2010.06.11 11:47:21.
