data_PCOD9224635
_publ_section_title
;
Structure prediction by ZEFSAII (Michael W. Deem and Ramdas Pophale) SiO2 
 PCOD9224635
Probable space group: C 2/M
;
_chemical_formula_sum "Si O2"
_cell_formula_units_Z 32
_cell_length_a 15.000000
_cell_length_b 9.000000
_cell_length_c 24.000000
_cell_angle_alpha 90.000000
_cell_angle_beta 90.000000
_cell_angle_gamma 90.000000
_cell_volume 3240.000000
_symmetry_space_group_name_H-M "C 2/M"
_symmetry_group_IT_number 12
_symmetry_cell_setting 'monoclinic'
loop_
_space_group_symop_operation_xyz
x,y,z
-x,y,-z
-x,-y,-z
x,-y,z
1/2+x,1/2+y,z
1/2-x,1/2+y,-z
1/2-x,1/2-y,-z
1/2+x,1/2-y,z
loop_
_atom_site_type_symbol
_atom_site_label
_atom_site_fract_x
_atom_site_fract_y
_atom_site_fract_z
Si Si1 0.044958 0.822458 0.384597
Si Si2 0.059630 0.174488 0.257930
Si Si3 0.292224 0.178603 0.555436
Si Si4 0.195530 0.176382 0.874466
Si Si5 0.370924 0.324564 0.858965
Si Si6 0.373648 0.173503 0.236566
Si Si7 0.350706 0.178052 0.364181
Si Si8 0.470022 0.680506 0.060264
O O1 0.086291 0.803996 0.322067
O O2 0.111063 0.746219 0.428646
O O3 0.947723 0.745347 0.380698
O O4 0.036452 0.000000 0.394923
O O5 0.127101 0.202263 0.207533
O O6 0.975762 0.277498 0.244803
O O7 0.032561 0.000000 0.252884
O O8 0.250000 0.250000 0.500000
O O9 0.224454 0.233538 0.602989
O O10 0.296563 0.000000 0.551522
O O11 0.292994 0.233862 0.886587
O O12 0.166925 0.234873 0.813816
O O13 0.126070 0.233162 0.920195
O O14 0.192255 0.000000 0.873409
O O15 0.356544 0.500000 0.866770
O O16 0.462533 0.284403 0.889466
O O17 0.334361 0.198184 0.298188
O O18 0.365842 0.000000 0.223350
O O19 0.348778 0.000000 0.375768
O O20 0.467973 0.500000 0.057027
O O21 0.500000 0.735972 0.000000
#
# Coordination Sequence:
#
# PCOD9224635 Si02
#       8
#     8   8   8   8   8   8   8   8
#     4  10  21  39  63  92 125 160 201 249 303 364
#     4   9  18  35  59  86 120 158 195 238 297 360
#     4  12  26  44  65  91 123 162 208 252 300 359
#     4  11  22  36  56  86 118 153 199 246 297 356
#     4  10  20  36  57  85 118 156 196 240 299 357
#     4  10  20  35  59  88 122 157 195 242 299 356
#     4  10  22  41  63  91 124 161 203 251 303 359
#     4   9  19  38  61  81 112 159 203 245 297 356
#
# _framework density 9.8765429999999999
#
# number of rings (size 3 to 8) (size 9 to 14) (size 15 to 20)
#    0.000    1.875    1.250    2.625    1.750    3.500 
#    0.000    2.500    0.000    2.625    0.000    0.000 
#    0.000    0.000    0.000    0.000    0.000    0.000 
#
# Total GULP energy -178625.030954 kJ/mol
# GULP energy per Si atom -5582.032217 kJ/mol
# Density = 0.985406 g / cm^3
# Si number density = 9.876543 Si / 1000 Ang^3
#
#
#
# Elastic Constant Matrix: (Units=GPa)
#
#
# Indices 1 2 3 4 5 6 
#
# 1 26.4070 5.1031 -18.3774 0.0000 -16.8390 0.0000
# 2 5.1031 46.2566 2.5770 0.0000 -12.8486 0.0000
# 3 -18.3774 2.5770 11.0574 0.0000 -7.6919 0.0000
# 4 0.0000 0.0000 0.0000 16.7150 0.0000 1.0500
# 5 -16.8390 -12.8486 -7.6919 0.0000 19.0393 0.0000
# 6 0.0000 0.0000 0.0000 1.0500 0.0000 31.8287
#
#
#
# Elastic Compliance Matrix: (Units=1/GPa)
#
#
# Indices 1 2 3 4 5 6 
#
# 1 -0.013514 -0.005350 -0.044562 0.000000 -0.033566 0.000000
# 2 -0.005350 0.025110 -0.008690 0.000000 0.008703 0.000000
# 3 -0.044562 -0.008690 -0.018216 0.000000 -0.052636 0.000000
# 4 0.000000 0.000000 0.000000 0.059951 0.000000 -0.001978
# 5 -0.033566 0.008703 -0.052636 0.000000 0.007445 0.000000
# 6 0.000000 0.000000 0.000000 -0.001978 0.000000 0.031483
#
#
# Mechanical properties :
#
#
# Convention : Reuss Voigt Hill
#
# Bulk Modulus (GPa) = -8.07601 6.92512 -0.57544
# Shear Modulus (GPa) = 29.72843 19.81117 24.76980
#
# Velocity S-wave (km/s) = 3.88364 3.17036 3.54499
# Velocity P-wave (km/s) = 4.00161 4.11279 4.05758
#
# Compressibility (1/GPa) = -0.12382352
#
# Stress axis : x y z
#
# Youngs Moduli (GPa) = -73.99986 39.82421 -54.89657
#
# Poissons Ratio (x) = 0.21306 -2.44632
# Poissons Ratio (y) = -0.39591 -0.47703
# Poissons Ratio (z) = -3.29761 0.34606
#
# Static dielectric constant tensor:
#      x y z
#    x 1.704970 0.000000 -0.031670 
#    y 0.000000 1.656670 0.000000 
#    z -0.031670 0.000000 1.707390 
# 
# From -- ./inp_files/338896.got.cif
#   From: 2010.05.17/outbox.ucp.g08.bks.cvg/sg12_170_cif.got.tgz:338896.got - 2010.06.11 11:47:21.
