data_PCOD9224807
_publ_section_title
;
Structure prediction by ZEFSAII (Michael W. Deem and Ramdas Pophale) SiO2 
 PCOD9224807
Probable space group: C 2/M
;
_chemical_formula_sum "Si O2"
_cell_formula_units_Z 28
_cell_length_a 27.000000
_cell_length_b 9.000000
_cell_length_c 12.000000
_cell_angle_alpha 90.000000
_cell_angle_beta 70.000000
_cell_angle_gamma 90.000000
_cell_volume 2740.143682
_symmetry_space_group_name_H-M "C 2/M"
_symmetry_group_IT_number 12
_symmetry_cell_setting 'monoclinic'
loop_
_space_group_symop_operation_xyz
x,y,z
-x,y,-z
-x,-y,-z
x,-y,z
1/2+x,1/2+y,z
1/2-x,1/2+y,-z
1/2-x,1/2-y,-z
1/2+x,1/2-y,z
loop_
_atom_site_type_symbol
_atom_site_label
_atom_site_fract_x
_atom_site_fract_y
_atom_site_fract_z
Si Si1 0.988634 0.330310 0.807400
Si Si2 0.402269 0.322163 0.277686
Si Si3 0.844883 0.833068 0.698933
Si Si4 0.193758 0.675311 0.057618
Si Si5 0.897789 0.320026 0.041084
Si Si6 0.302748 0.671835 0.493973
Si Si7 0.556111 0.834023 0.400305
O O1 0.005575 0.500000 0.818828
O O2 0.952542 0.334450 0.725718
O O3 0.039690 0.236411 0.738682
O O4 0.952300 0.277430 0.937073
O O5 0.403004 0.500000 0.276848
O O6 0.392239 0.257037 0.163169
O O7 0.355824 0.268267 0.395064
O O8 0.829325 0.718876 0.805299
O O9 0.807011 0.821983 0.623336
O O10 0.902070 0.791871 0.607313
O O11 0.844161 0.000000 0.744953
O O12 0.199753 0.500000 0.043464
O O13 0.250000 0.750000 0.000000
O O14 0.151153 0.723515 0.998794
O O15 0.898253 0.500000 0.050217
O O16 0.299554 0.500000 0.463072
O O17 0.250000 0.750000 0.500000
O O18 0.500000 0.809719 0.500000
O O19 0.574453 0.000000 0.420012
#
# Coordination Sequence:
#
# PCOD9224807 Si02
#       7
#     8   8   8   8   8   8   8
#     4  10  20  38  60  88 123 162 203 245 302 367
#     4  11  24  40  60  91 125 158 205 258 305 358
#     4  11  23  41  64  92 126 161 204 255 314 371
#     4  11  24  43  66  94 127 162 206 257 310 368
#     4  10  22  41  63  88 124 164 202 247 303 367
#     4  10  25  45  63  88 122 161 206 256 307 363
#     4  10  20  36  61  91 123 163 210 252 301 369
#
# _framework density 10.218442
#
# number of rings (size 3 to 8) (size 9 to 14) (size 15 to 20)
#    0.000    1.571    1.429    2.571    2.000    6.571 
#    0.000    0.000    0.000    0.000    0.000    0.000 
#    0.000    0.000    0.000    0.000    0.000    0.000 
#
# Total GULP energy -156371.407083 kJ/mol
# GULP energy per Si atom -5584.693110 kJ/mol
# Density = 1.019518 g / cm^3
# Si number density = 10.218442 Si / 1000 Ang^3
#
#
#
# Elastic Constant Matrix: (Units=GPa)
#
#
# Indices 1 2 3 4 5 6 
#
# 1 101.4599 39.2668 12.5776 0.0000 -7.7997 0.0000
# 2 39.2668 6.8216 1.1732 0.0000 12.8492 0.0000
# 3 12.5776 1.1732 47.5804 0.0000 -2.5015 0.0000
# 4 0.0000 0.0000 0.0000 27.9037 0.0000 -8.4007
# 5 -7.7997 12.8492 -2.5015 0.0000 11.0788 0.0000
# 6 0.0000 0.0000 0.0000 -8.4007 0.0000 28.0558
#
#
#
# Elastic Compliance Matrix: (Units=1/GPa)
#
#
# Indices 1 2 3 4 5 6 
#
# 1 0.002781 0.015621 -0.001993 0.000000 -0.016609 0.000000
# 2 0.015621 -0.030822 -0.000923 0.000000 0.046537 0.000000
# 3 -0.001993 -0.000923 0.021808 0.000000 0.004591 0.000000
# 4 0.000000 0.000000 0.000000 0.039388 0.000000 0.011794
# 5 -0.016609 0.046537 0.004591 0.000000 0.025632 0.000000
# 6 0.000000 0.000000 0.000000 0.011794 0.000000 0.039175
#
#
# Mechanical properties :
#
#
# Convention : Reuss Voigt Hill
#
# Bulk Modulus (GPa) = 52.14931 29.09968 40.62450
# Shear Modulus (GPa) = 63.33584 20.26395 41.79989
#
# Velocity S-wave (km/s) = 5.57299 3.15229 4.52742
# Velocity P-wave (km/s) = 8.18435 5.24585 6.87396
#
# Compressibility (1/GPa) = 0.01917571
#
# Stress axis : x y z
#
# Youngs Moduli (GPa) = 359.59590 -32.44383 45.85450
#
# Poissons Ratio (x) = 0.50680 0.09141
# Poissons Ratio (y) = -5.61715 0.04231
# Poissons Ratio (z) = 0.71685 -0.02993
#
# Static dielectric constant tensor:
#      x y z
#    x 1.752030 0.000000 -0.013290 
#    y 0.000000 1.709620 0.000000 
#    z -0.013290 0.000000 1.759900 
# 
# From -- ./inp_files/180763.got.cif
#   From: 2010.05.17/outbox.ucp.g08.bks.cvg/sg12_91_cif.got.tgz:180763.got - 2010.06.11 11:47:21.
