data_PCOD9224806
_publ_section_title
;
Structure prediction by ZEFSAII (Michael W. Deem and Ramdas Pophale) SiO2 
 PCOD9224806
Probable space group: C 2/M
;
_chemical_formula_sum "Si O2"
_cell_formula_units_Z 28
_cell_length_a 27.000000
_cell_length_b 9.000000
_cell_length_c 12.000000
_cell_angle_alpha 90.000000
_cell_angle_beta 70.000000
_cell_angle_gamma 90.000000
_cell_volume 2740.143682
_symmetry_space_group_name_H-M "C 2/M"
_symmetry_group_IT_number 12
_symmetry_cell_setting 'monoclinic'
loop_
_space_group_symop_operation_xyz
x,y,z
-x,y,-z
-x,-y,-z
x,-y,z
1/2+x,1/2+y,z
1/2-x,1/2+y,-z
1/2-x,1/2-y,-z
1/2+x,1/2-y,z
loop_
_atom_site_type_symbol
_atom_site_label
_atom_site_fract_x
_atom_site_fract_y
_atom_site_fract_z
Si Si1 0.005408 0.324912 0.817744
Si Si2 0.385679 0.324829 0.202867
Si Si3 0.849360 0.822525 0.659488
Si Si4 0.206567 0.671280 0.108259
Si Si5 0.888579 0.328028 0.985728
Si Si6 0.307239 0.678790 0.452591
Si Si7 0.533319 0.669336 0.362497
O O1 0.011996 0.500000 0.825874
O O2 0.996602 0.276482 0.697920
O O3 0.056889 0.245454 0.823809
O O4 0.948898 0.284894 0.914862
O O5 0.390637 0.500000 0.212930
O O6 0.366809 0.279919 0.095766
O O7 0.342956 0.268138 0.323271
O O8 0.803659 0.749943 0.767337
O O9 0.839493 0.785667 0.539305
O O10 0.907690 0.778692 0.654797
O O11 0.846692 0.000000 0.674033
O O12 0.220606 0.500000 0.112270
O O13 0.250000 0.750000 0.000000
O O14 0.150147 0.679809 0.088915
O O15 0.888594 0.500000 0.023946
O O16 0.301601 0.500000 0.450260
O O17 0.250000 0.750000 0.500000
O O18 0.500000 0.661431 0.500000
O O19 0.536009 0.500000 0.313476
#
# Coordination Sequence:
#
# PCOD9224806 Si02
#       7
#     8   8   8   8   8   8   8
#     4  11  22  39  61  90 126 163 204 249 305 368
#     4  11  24  41  63  92 125 162 208 255 303 365
#     4  10  21  40  64  90 123 161 202 250 307 363
#     4  11  24  42  64  92 126 161 205 255 307 365
#     4  10  23  42  62  89 127 164 201 254 310 361
#     4  10  24  44  64  90 123 160 205 255 305 361
#     4  10  20  36  61  90 124 162 202 251 303 360
#
# _framework density 10.218442
#
# number of rings (size 3 to 8) (size 9 to 14) (size 15 to 20)
#    0.000    1.571    1.429    2.571    2.000    8.286 
#    0.000    1.429    0.000    0.000    0.000    0.000 
#    0.000    0.000    0.000    0.000    0.000    0.000 
#
# Total GULP energy -156370.572971 kJ/mol
# GULP energy per Si atom -5584.663320 kJ/mol
# Density = 1.019518 g / cm^3
# Si number density = 10.218442 Si / 1000 Ang^3
#
#
#
# Elastic Constant Matrix: (Units=GPa)
#
#
# Indices 1 2 3 4 5 6 
#
# 1 24.2456 12.8815 -9.2617 0.0000 -8.5413 0.0000
# 2 12.8815 3.6179 33.9963 0.0000 0.6962 0.0000
# 3 -9.2617 33.9963 80.0981 0.0000 -11.4838 0.0000
# 4 0.0000 0.0000 0.0000 14.2912 0.0000 17.7979
# 5 -8.5413 0.6962 -11.4838 0.0000 26.8210 0.0000
# 6 0.0000 0.0000 0.0000 17.7979 0.0000 10.9020
#
#
#
# Elastic Compliance Matrix: (Units=1/GPa)
#
#
# Indices 1 2 3 4 5 6 
#
# 1 0.020297 0.032014 -0.011116 0.000000 0.000874 0.000000
# 2 0.032014 -0.032536 0.020343 0.000000 0.019750 0.000000
# 3 -0.011116 0.020343 0.002112 0.000000 -0.003164 0.000000
# 4 0.000000 0.000000 0.000000 -0.067730 0.000000 0.110571
# 5 0.000874 0.019750 -0.003164 0.000000 0.035695 0.000000
# 6 0.000000 0.000000 0.000000 0.110571 0.000000 -0.088786
#
#
# Mechanical properties :
#
#
# Convention : Reuss Voigt Hill
#
# Bulk Modulus (GPa) = 13.82064 20.35485 17.08774
# Shear Modulus (GPa) = -26.41164 15.09253 -5.65955
#
# Velocity S-wave (km/s) = -3.59883 2.72047 -1.66592
# Velocity P-wave (km/s) = 3.23906 4.45527 2.16310
#
# Compressibility (1/GPa) = 0.07235557
#
# Stress axis : x y z
#
# Youngs Moduli (GPa) = 49.26766 -30.73551 473.53876
#
# Poissons Ratio (x) = 0.98397 5.26371
# Poissons Ratio (y) = -1.57727 -9.63298
# Poissons Ratio (z) = 0.54764 0.62524
#
# Static dielectric constant tensor:
#      x y z
#    x 1.727990 0.000000 0.006150 
#    y 0.000000 1.703000 0.000000 
#    z 0.006150 0.000000 1.754870 
# 
# From -- ./inp_files/180822.got.cif
#   From: 2010.05.17/outbox.ucp.g08.bks.cvg/sg12_91_cif.got.tgz:180822.got - 2010.06.11 11:47:21.
