data_PCOD9224106
_publ_section_title
;
Structure prediction by ZEFSAII (Michael W. Deem and Ramdas Pophale) SiO2 
 PCOD9224106
Probable space group: C 2/M
;
_chemical_formula_sum "Si O2"
_cell_formula_units_Z 28
_cell_length_a 15.000000
_cell_length_b 9.000000
_cell_length_c 30.000000
_cell_angle_alpha 90.000000
_cell_angle_beta 50.000000
_cell_angle_gamma 90.000000
_cell_volume 3102.479995
_symmetry_space_group_name_H-M "C 2/M"
_symmetry_group_IT_number 12
_symmetry_cell_setting 'monoclinic'
loop_
_space_group_symop_operation_xyz
x,y,z
-x,y,-z
-x,-y,-z
x,-y,z
1/2+x,1/2+y,z
1/2-x,1/2+y,-z
1/2-x,1/2-y,-z
1/2+x,1/2-y,z
loop_
_atom_site_type_symbol
_atom_site_label
_atom_site_fract_x
_atom_site_fract_y
_atom_site_fract_z
Si Si1 0.381032 0.319751 0.092892
Si Si2 0.781743 0.680335 0.772114
Si Si3 0.560920 0.830170 0.436832
Si Si4 0.964922 0.823910 0.316515
Si Si5 0.153678 0.669353 0.561358
Si Si6 0.151561 0.180226 0.999368
Si Si7 0.269933 0.322288 0.310494
O O1 0.380601 0.500000 0.093223
O O2 0.296960 0.270578 0.160395
O O3 0.517502 0.277378 0.055072
O O4 0.338641 0.276772 0.056519
O O5 0.785660 0.500000 0.772315
O O6 0.731896 0.728790 0.739842
O O7 0.912272 0.743176 0.728789
O O8 0.500000 0.760033 0.500000
O O9 0.461349 0.839058 0.431948
O O10 0.670781 0.760141 0.375971
O O11 0.595721 0.000000 0.439666
O O12 0.886533 0.757114 0.381747
O O13 0.892167 0.802138 0.294861
O O14 0.980748 0.000000 0.319295
O O15 0.190149 0.500000 0.560321
O O16 0.250000 0.750000 0.500000
O O17 0.159961 0.000000 0.999290
O O18 0.250000 0.250000 0.000000
O O19 0.245194 0.500000 0.316486
#
# Coordination Sequence:
#
# PCOD9224106 Si02
#       7
#     8   8   8   8   8   8   8
#     4   8  17  33  55  79 109 149 188 224 267 325
#     4  10  19  37  59  77 104 147 192 226 265 327
#     4   9  16  29  51  74  95 128 173 215 256 318
#     4  11  22  36  55  81 111 140 176 229 281 328
#     4  11  21  35  56  79 106 140 180 225 278 337
#     4   9  17  33  55  83 114 147 186 226 270 320
#     4   9  18  33  53  75 100 138 182 217 263 331
#
# _framework density 9.0250380000000003
#
# number of rings (size 3 to 8) (size 9 to 14) (size 15 to 20)
#    0.000    2.429    1.429    2.571    0.000    3.429 
#    0.000    5.714    0.000    1.714    0.000    0.000 
#    0.000    0.000    0.000    0.000    0.000    0.000 
#
# Total GULP energy -156001.954533 kJ/mol
# GULP energy per Si atom -5571.498376 kJ/mol
# Density = 0.900450 g / cm^3
# Si number density = 9.025038 Si / 1000 Ang^3
#
#
#
# Elastic Constant Matrix: (Units=GPa)
#
#
# Indices 1 2 3 4 5 6 
#
# 1 108.6712 25.8134 71.8175 0.0000 9.5910 0.0000
# 2 25.8134 38.2598 32.8654 0.0000 -0.8589 0.0000
# 3 71.8175 32.8654 182.8423 0.0000 11.4398 0.0000
# 4 0.0000 0.0000 0.0000 17.0919 0.0000 -1.8553
# 5 9.5910 -0.8589 11.4398 0.0000 24.3337 0.0000
# 6 0.0000 0.0000 0.0000 -1.8553 0.0000 25.0887
#
#
#
# Elastic Compliance Matrix: (Units=1/GPa)
#
#
# Indices 1 2 3 4 5 6 
#
# 1 0.013580 -0.005745 -0.004074 0.000000 -0.003640 0.000000
# 2 -0.005745 0.033688 -0.004137 0.000000 0.005398 0.000000
# 3 -0.004074 -0.004137 0.007955 0.000000 -0.002280 0.000000
# 4 0.000000 0.000000 0.000000 0.058981 0.000000 0.004362
# 5 -0.003640 0.005398 -0.002280 0.000000 0.043793 0.000000
# 6 0.000000 0.000000 0.000000 0.004362 0.000000 0.040181
#
#
# Mechanical properties :
#
#
# Convention : Reuss Voigt Hill
#
# Bulk Modulus (GPa) = 36.61235 65.64066 51.12651
# Shear Modulus (GPa) = 21.25924 26.58799 23.92361
#
# Velocity S-wave (km/s) = 3.43562 3.84215 3.64456
# Velocity P-wave (km/s) = 6.00548 7.49184 6.78946
#
# Compressibility (1/GPa) = 0.02731319
#
# Stress axis : x y z
#
# Youngs Moduli (GPa) = 73.63717 29.68457 125.69948
#
# Poissons Ratio (x) = 0.17053 0.51206
# Poissons Ratio (y) = 0.42303 0.51996
# Poissons Ratio (z) = 0.29997 0.12279
#
# Static dielectric constant tensor:
#      x y z
#    x 1.646520 0.000000 -0.012650 
#    y 0.000000 1.625520 0.000000 
#    z -0.012650 0.000000 1.649090 
# 
# From -- ./inp_files/374947.got.cif
#   From: 2010.05.17/outbox.ucp.g08.bks.cvg/sg12_188_cif.got.tgz:374947.got - 2010.06.11 11:47:21.
