data_PCOD9224070
_publ_section_title
;
Structure prediction by ZEFSAII (Michael W. Deem and Ramdas Pophale) SiO2 
 PCOD9224070
Probable space group: C 2/M
;
_chemical_formula_sum "Si O2"
_cell_formula_units_Z 28
_cell_length_a 27.000000
_cell_length_b 18.000000
_cell_length_c 9.000000
_cell_angle_alpha 90.000000
_cell_angle_beta 140.000000
_cell_angle_gamma 90.000000
_cell_volume 2811.553005
_symmetry_space_group_name_H-M "C 2/M"
_symmetry_group_IT_number 12
_symmetry_cell_setting 'monoclinic'
loop_
_space_group_symop_operation_xyz
x,y,z
-x,y,-z
-x,-y,-z
x,-y,z
1/2+x,1/2+y,z
1/2-x,1/2+y,-z
1/2-x,1/2-y,-z
1/2+x,1/2-y,z
loop_
_atom_site_type_symbol
_atom_site_label
_atom_site_fract_x
_atom_site_fract_y
_atom_site_fract_z
Si Si1 0.474806 0.089825 0.780959
Si Si2 0.916272 0.911584 0.726324
Si Si3 0.309756 0.589344 0.887109
Si Si4 0.518219 0.586539 0.713018
Si Si5 0.330301 0.090359 0.263719
Si Si6 0.262300 0.336601 0.489079
Si Si7 0.634284 0.910872 0.991008
O O1 0.394790 0.117702 0.528239
O O2 0.466816 0.000000 0.775728
O O3 0.500000 0.118823 0.000000
O O4 0.546963 0.103789 0.839804
O O5 0.846518 0.860325 0.619298
O O6 0.943142 0.885997 0.625502
O O7 0.893201 0.000000 0.681964
O O8 0.000000 0.904976 0.000000
O O9 0.316721 0.500000 0.909010
O O10 0.257204 0.614097 0.903687
O O11 0.260082 0.614490 0.633169
O O12 0.396599 0.619468 0.069364
O O13 0.500000 0.587862 0.500000
O O14 0.523634 0.500000 0.774825
O O15 0.330564 0.000000 0.273815
O O16 0.355123 0.109173 0.155720
O O17 0.250000 0.250000 0.500000
O O18 0.195554 0.365726 0.228143
O O19 0.648115 0.000000 0.041682
#
# Coordination Sequence:
#
# PCOD9224070 Si02
#       7
#     8   8   8   8   8   8   8
#     4   9  16  29  52  83 115 147 186 234 285 338
#     4  10  19  37  65  91 116 155 205 257 307 358
#     4  10  19  36  60  87 118 151 191 245 306 368
#     4   9  18  31  58  96 122 142 185 254 319 367
#     4   9  18  31  55  89 119 146 187 248 302 348
#     4  12  25  39  55  83 122 161 203 248 302 365
#     4  10  20  35  58  84 112 153 204 252 296 355
#
# _framework density 9.9589090000000002
#
# number of rings (size 3 to 8) (size 9 to 14) (size 15 to 20)
#    0.000    2.143    1.429    2.571    2.000    4.000 
#    0.000    2.857    0.000    0.000    0.000    0.000 
#    0.000    0.000    0.000    0.000    0.000    0.143 
#
# Total GULP energy -155992.465039 kJ/mol
# GULP energy per Si atom -5571.159466 kJ/mol
# Density = 0.993624 g / cm^3
# Si number density = 9.958909 Si / 1000 Ang^3
#
#
#
# Elastic Constant Matrix: (Units=GPa)
#
#
# Indices 1 2 3 4 5 6 
#
# 1 139.1389 31.7218 24.3436 0.0000 9.5018 0.0000
# 2 31.7218 23.7371 15.3571 0.0000 19.7794 0.0000
# 3 24.3436 15.3571 71.6287 0.0000 17.4294 0.0000
# 4 0.0000 0.0000 0.0000 6.9190 0.0000 5.5559
# 5 9.5018 19.7794 17.4294 0.0000 26.9751 0.0000
# 6 0.0000 0.0000 0.0000 5.5559 0.0000 1.5188
#
#
#
# Elastic Compliance Matrix: (Units=1/GPa)
#
#
# Indices 1 2 3 4 5 6 
#
# 1 0.014861 -0.039055 -0.002814 0.000000 0.025220 0.000000
# 2 -0.039055 0.212238 0.002717 0.000000 -0.143621 0.000000
# 3 -0.002814 0.002717 0.017298 0.000000 -0.012178 0.000000
# 4 0.000000 0.000000 0.000000 -0.074600 0.000000 0.272893
# 5 0.025220 -0.143621 -0.012178 0.000000 0.141365 0.000000
# 6 0.000000 0.000000 0.000000 0.272893 0.000000 -0.339846
#
#
# Mechanical properties :
#
#
# Convention : Reuss Voigt Hill
#
# Bulk Modulus (GPa) = 6.02074 41.92774 23.97424
# Shear Modulus (GPa) = 47.62650 17.95474 32.79062
#
# Velocity S-wave (km/s) = 4.89524 3.00566 4.06186
# Velocity P-wave (km/s) = 5.91444 5.75685 5.83618
#
# Compressibility (1/GPa) = 0.16609264
#
# Stress axis : x y z
#
# Youngs Moduli (GPa) = 67.28976 4.71170 57.81014
#
# Poissons Ratio (x) = 0.18401 0.16269
# Poissons Ratio (y) = 2.62799 -0.15707
# Poissons Ratio (z) = 0.18937 -0.01280
#
# Static dielectric constant tensor:
#      x y z
#    x 1.891160 0.000000 -0.042580 
#    y 0.000000 1.668610 0.000000 
#    z -0.042580 0.000000 1.710220 
# 
# From -- ./inp_files/105939.got.cif
#   From: 2010.05.17/outbox.ucp.g08.bks.cvg/sg12_53_cif.got.tgz:105939.got - 2010.06.11 11:47:21.
