data_PCOD9224716
_publ_section_title
;
Structure prediction by ZEFSAII (Michael W. Deem and Ramdas Pophale) SiO2 
 PCOD9224716
Probable space group: C 2/M
;
_chemical_formula_sum "Si O2"
_cell_formula_units_Z 32
_cell_length_a 24.000000
_cell_length_b 9.000000
_cell_length_c 30.000000
_cell_angle_alpha 90.000000
_cell_angle_beta 150.000000
_cell_angle_gamma 90.000000
_cell_volume 3240.000000
_symmetry_space_group_name_H-M "C 2/M"
_symmetry_group_IT_number 12
_symmetry_cell_setting 'monoclinic'
loop_
_space_group_symop_operation_xyz
x,y,z
-x,y,-z
-x,-y,-z
x,-y,z
1/2+x,1/2+y,z
1/2-x,1/2+y,-z
1/2-x,1/2-y,-z
1/2+x,1/2-y,z
loop_
_atom_site_type_symbol
_atom_site_label
_atom_site_fract_x
_atom_site_fract_y
_atom_site_fract_z
Si Si1 0.359725 0.678368 0.597980
Si Si2 0.479411 0.321832 0.537430
Si Si3 0.142688 0.178187 0.902366
Si Si4 0.219521 0.324264 0.369742
Si Si5 0.284447 0.676097 0.145140
Si Si6 0.023773 0.678248 0.967237
Si Si7 0.438700 0.823017 0.318538
Si Si8 0.442306 0.822086 0.817944
O O1 0.360517 0.500000 0.594843
O O2 0.250000 0.750000 0.500000
O O3 0.349273 0.729177 0.642112
O O4 0.464011 0.745906 0.643682
O O5 0.500000 0.280789 0.500000
O O6 0.497452 0.500000 0.553584
O O7 0.350579 0.291285 0.461072
O O8 0.552025 0.238433 0.624806
O O9 0.149335 0.213306 0.854276
O O10 0.036067 0.243893 0.853175
O O11 0.146607 0.000000 0.909188
O O12 0.250000 0.250000 0.000000
O O13 0.204963 0.500000 0.370294
O O14 0.172776 0.299323 0.287730
O O15 0.300234 0.500000 0.165301
O O16 0.153646 0.700557 0.045982
O O17 0.327335 0.770510 0.216309
O O18 0.004755 0.500000 0.956597
O O19 0.000000 0.739635 0.000000
O O20 0.951429 0.731769 0.875157
O O21 0.451564 0.000000 0.326733
O O22 0.464733 0.000000 0.833428
#
# Coordination Sequence:
#
# PCOD9224716 Si02
#       8
#     8   8   8   8   8   8   8   8
#     4  12  23  38  62  90 122 157 195 243 302 364
#     4  10  22  41  64  90 120 159 205 251 296 349
#     4  11  21  35  58  87 117 153 190 237 297 354
#     4  10  21  37  61  91 123 156 195 244 299 357
#     4  10  21  38  60  88 119 153 198 246 295 357
#     4   9  18  35  60  87 116 152 199 249 292 339
#     4  12  25  40  61  90 122 161 200 246 304 357
#     4  10  20  36  57  87 119 152 193 239 290 350
#
# _framework density 9.8765429999999999
#
# number of rings (size 3 to 8) (size 9 to 14) (size 15 to 20)
#    0.000    1.500    2.500    3.375    0.000    4.750 
#    0.000    3.750    0.000    3.000    0.000    0.000 
#    0.000    0.000    0.000    0.000    0.000    0.000 
#
# Total GULP energy -178796.706131 kJ/mol
# GULP energy per Si atom -5587.397067 kJ/mol
# Density = 0.985406 g / cm^3
# Si number density = 9.876543 Si / 1000 Ang^3
#
#
#
# Elastic Constant Matrix: (Units=GPa)
#
#
# Indices 1 2 3 4 5 6 
#
# 1 89.5637 22.7079 10.8968 0.0000 -39.3753 0.0000
# 2 22.7079 65.3814 28.9484 0.0000 -20.8219 0.0000
# 3 10.8968 28.9484 74.4097 -0.0001 -43.1677 0.0000
# 4 0.0000 0.0000 -0.0001 24.2407 0.0000 -4.1474
# 5 -39.3753 -20.8219 -43.1677 0.0000 35.8248 0.0000
# 6 0.0000 0.0000 0.0000 -4.1474 0.0000 26.1934
#
#
#
# Elastic Compliance Matrix: (Units=1/GPa)
#
#
# Indices 1 2 3 4 5 6 
#
# 1 -0.071036 0.008263 -0.117362 -0.000001 -0.214691 0.000000
# 2 0.008263 0.018045 0.010377 0.000000 0.032074 0.000000
# 3 -0.117362 0.010377 -0.148678 -0.000001 -0.302114 0.000000
# 4 -0.000001 0.000000 -0.000001 0.042402 -0.000002 0.006714
# 5 -0.214691 0.032074 -0.302114 -0.000002 -0.553450 -0.000001
# 6 0.000000 0.000000 0.000000 0.006714 -0.000001 0.039241
#
#
# Mechanical properties :
#
#
# Convention : Reuss Voigt Hill
#
# Bulk Modulus (GPa) = -2.50556 39.38456 18.43950
# Shear Modulus (GPa) = -8.20922 28.37188 10.08133
#
# Velocity S-wave (km/s) = -2.04082 3.79400 2.26158
# Velocity P-wave (km/s) = 2.61236 6.25894 4.02181
#
# Compressibility (1/GPa) = -0.39911298
#
# Stress axis : x y z
#
# Youngs Moduli (GPa) = -14.07729 55.41704 -6.72595
#
# Poissons Ratio (x) = -0.45791 -0.78937
# Poissons Ratio (y) = 0.11632 0.06979
# Poissons Ratio (z) = -1.65213 -0.57505
#
# Static dielectric constant tensor:
#      x y z
#    x 1.690390 0.000000 -0.025440 
#    y 0.000000 1.656930 0.000000 
#    z -0.025440 0.000000 1.728850 
# 
# From -- ./inp_files/382401.got.cif
#   From: 2010.05.17/outbox.ucp.g08.bks.cvg/sg12_192_cif.got.tgz:382401.got - 2010.06.11 11:47:21.
