data_PCOD9224230
_publ_section_title
;
Structure prediction by ZEFSAII (Michael W. Deem and Ramdas Pophale) SiO2 
 PCOD9224230
Probable space group: C 2/M
;
_chemical_formula_sum "Si O2"
_cell_formula_units_Z 28
_cell_length_a 30.000000
_cell_length_b 9.000000
_cell_length_c 12.000000
_cell_angle_alpha 90.000000
_cell_angle_beta 110.000000
_cell_angle_gamma 90.000000
_cell_volume 3044.604091
_symmetry_space_group_name_H-M "C 2/M"
_symmetry_group_IT_number 12
_symmetry_cell_setting 'monoclinic'
loop_
_space_group_symop_operation_xyz
x,y,z
-x,y,-z
-x,-y,-z
x,-y,z
1/2+x,1/2+y,z
1/2-x,1/2+y,-z
1/2-x,1/2-y,-z
1/2+x,1/2-y,z
loop_
_atom_site_type_symbol
_atom_site_label
_atom_site_fract_x
_atom_site_fract_y
_atom_site_fract_z
Si Si1 0.937677 0.320916 0.875268
Si Si2 0.890484 0.820208 0.258421
Si Si3 0.530339 0.680368 0.862748
Si Si4 0.748463 0.169613 0.693405
Si Si5 0.351500 0.323931 0.685567
Si Si6 0.861458 0.671867 0.464640
Si Si7 0.283406 0.325741 0.116991
O O1 0.942429 0.500000 0.882220
O O2 0.885244 0.269890 0.795424
O O3 0.977259 0.251192 0.824022
O O4 0.947483 0.249339 0.005158
O O5 0.934829 0.785121 0.213418
O O6 0.886554 0.739124 0.375525
O O7 0.838948 0.779045 0.161218
O O8 0.890878 0.000000 0.275344
O O9 0.527299 0.500000 0.867937
O O10 0.795250 0.204322 0.660677
O O11 0.696201 0.169727 0.594473
O O12 0.740340 0.283925 0.785880
O O13 0.755667 0.000000 0.742495
O O14 0.359035 0.500000 0.707627
O O15 0.368422 0.274167 0.577828
O O16 0.876421 0.500000 0.493646
O O17 0.283259 0.500000 0.099795
O O18 0.250000 0.250000 0.000000
#
# Coordination Sequence:
#
# PCOD9224230 Si02
#       7
#     8   8   8   8   8   8   8
#     4  11  23  38  57  86 116 142 182 235 284 331
#     4   9  20  37  58  80 108 148 187 222 272 335
#     4  10  20  39  63  84 110 147 186 226 280 340
#     4   9  20  36  54  78 110 150 189 227 274 326
#     4  11  22  37  58  81 112 151 191 231 275 331
#     4  10  20  36  57  84 115 146 185 232 278 327
#     4  10  20  33  50  78 113 147 184 227 270 324
#
# _framework density 9.1965979999999998
#
# number of rings (size 3 to 8) (size 9 to 14) (size 15 to 20)
#    0.000    2.000    0.000    4.286    2.000    3.429 
#    0.000    0.714    0.000    4.286    0.000    0.000 
#    0.000    0.000    0.000    0.000    0.000    0.000 
#
# Total GULP energy -156056.822411 kJ/mol
# GULP energy per Si atom -5573.457943 kJ/mol
# Density = 0.917567 g / cm^3
# Si number density = 9.196598 Si / 1000 Ang^3
#
#
#
# Elastic Constant Matrix: (Units=GPa)
#
#
# Indices 1 2 3 4 5 6 
#
# 1 111.5987 32.5605 10.4849 0.0000 -28.2827 0.0000
# 2 32.5605 82.2732 13.6432 0.0000 -5.0681 0.0000
# 3 10.4849 13.6432 26.0702 0.0000 -7.4672 0.0000
# 4 0.0000 0.0000 0.0000 29.6068 0.0000 -3.3264
# 5 -28.2827 -5.0681 -7.4672 0.0000 23.2615 0.0000
# 6 0.0000 0.0000 0.0000 -3.3264 0.0000 33.9619
#
#
#
# Elastic Compliance Matrix: (Units=1/GPa)
#
#
# Indices 1 2 3 4 5 6 
#
# 1 0.014633 -0.005007 0.001672 0.000000 0.017237 0.000000
# 2 -0.005007 0.015034 -0.007334 0.000000 -0.005166 0.000000
# 3 0.001672 -0.007334 0.045865 0.000000 0.015159 0.000000
# 4 0.000000 0.000000 0.000000 0.034152 0.000000 0.003345
# 5 0.017237 -0.005166 0.015159 0.000000 0.067688 0.000000
# 6 0.000000 0.000000 0.000000 0.003345 0.000000 0.029772
#
#
# Mechanical properties :
#
#
# Convention : Reuss Voigt Hill
#
# Bulk Modulus (GPa) = 18.45160 37.03548 27.74354
# Shear Modulus (GPa) = 20.28020 28.24961 24.26490
#
# Velocity S-wave (km/s) = 3.32413 3.92327 3.63606
# Velocity P-wave (km/s) = 4.97862 6.37980 5.72226
#
# Compressibility (1/GPa) = 0.05419585
#
# Stress axis : x y z
#
# Youngs Moduli (GPa) = 68.33940 66.51613 21.80304
#
# Poissons Ratio (x) = 0.33302 -0.03646
# Poissons Ratio (y) = 0.34215 0.15990
# Poissons Ratio (z) = -0.11428 0.48781
#
# Static dielectric constant tensor:
#      x y z
#    x 1.627350 0.000000 0.020690 
#    y 0.000000 1.614320 0.000000 
#    z 0.020690 0.000000 1.686240 
# 
# From -- ./inp_files/186814.got.cif
#   From: 2010.05.17/outbox.ucp.g08.bks.cvg/sg12_94_cif.got.tgz:186814.got - 2010.06.11 11:47:21.
