data_PCOD9224433
_publ_section_title
;
Structure prediction by ZEFSAII (Michael W. Deem and Ramdas Pophale) SiO2 
 PCOD9224433
Probable space group: C 2/M
;
_chemical_formula_sum "Si O2"
_cell_formula_units_Z 32
_cell_length_a 30.000000
_cell_length_b 9.000000
_cell_length_c 18.000000
_cell_angle_alpha 90.000000
_cell_angle_beta 140.000000
_cell_angle_gamma 90.000000
_cell_volume 3123.947783
_symmetry_space_group_name_H-M "C 2/M"
_symmetry_group_IT_number 12
_symmetry_cell_setting 'monoclinic'
loop_
_space_group_symop_operation_xyz
x,y,z
-x,y,-z
-x,-y,-z
x,-y,z
1/2+x,1/2+y,z
1/2-x,1/2+y,-z
1/2-x,1/2-y,-z
1/2+x,1/2-y,z
loop_
_atom_site_type_symbol
_atom_site_label
_atom_site_fract_x
_atom_site_fract_y
_atom_site_fract_z
Si Si1 0.675950 0.171066 0.070494
Si Si2 0.604167 0.323675 0.860053
Si Si3 0.550451 0.679181 0.130216
Si Si4 0.081131 0.325688 0.585805
Si Si5 0.689980 0.828633 0.264362
Si Si6 0.151417 0.820251 0.532367
Si Si7 0.964070 0.819817 0.723994
Si Si8 0.183403 0.822106 0.826270
O O1 0.678395 0.171915 0.161172
O O2 0.748568 0.227857 0.129712
O O3 0.663614 0.000000 0.030576
O O4 0.620589 0.279644 0.964609
O O5 0.605496 0.500000 0.852470
O O6 0.526016 0.268810 0.748710
O O7 0.663819 0.261612 0.882563
O O8 0.547800 0.500000 0.126324
O O9 0.629136 0.730859 0.219853
O O10 0.528038 0.735183 0.182504
O O11 0.500000 0.733495 0.000000
O O12 0.099992 0.500000 0.614978
O O13 0.110404 0.259987 0.546237
O O14 0.118977 0.228030 0.695707
O O15 0.000000 0.313307 0.500000
O O16 0.768790 0.775843 0.374498
O O17 0.684908 0.000000 0.284047
O O18 0.109595 0.785233 0.404618
O O19 0.150487 0.000000 0.545088
O O20 0.968875 0.000000 0.732305
O O21 0.188900 0.000000 0.835486
#
# Coordination Sequence:
#
# PCOD9224433 Si02
#       8
#     8   8   8   8   8   8   8   8
#     4  10  20  35  53  79 115 148 184 233 287 339
#     4  10  20  34  56  84 110 145 194 237 280 337
#     4  10  21  38  60  86 117 149 186 234 287 344
#     4  11  23  36  53  82 118 152 191 239 287 334
#     4  10  21  37  58  84 113 147 190 239 287 338
#     4  10  20  39  62  81 110 152 194 236 282 340
#     4   9  19  36  58  84 111 145 191 236 280 336
#     4  10  20  36  56  80 110 149 196 233 275 342
#
# _framework density 10.243449
#
# number of rings (size 3 to 8) (size 9 to 14) (size 15 to 20)
#    0.000    2.000    1.250    2.250    0.000    5.750 
#    0.000    1.875    0.000    0.000    0.000    0.000 
#    0.000    0.000    0.000    0.000    0.000    0.000 
#
# Total GULP energy -178304.402458 kJ/mol
# GULP energy per Si atom -5572.012577 kJ/mol
# Density = 1.022013 g / cm^3
# Si number density = 10.243449 Si / 1000 Ang^3
#
#
#
# Elastic Constant Matrix: (Units=GPa)
#
#
# Indices 1 2 3 4 5 6 
#
# 1 86.5011 2.9280 -3.1669 0.0000 17.3458 0.0000
# 2 2.9280 -32.9247 -34.5461 0.0000 3.6940 0.0000
# 3 -3.1669 -34.5461 -26.5812 0.0000 8.0343 0.0000
# 4 0.0000 0.0000 0.0000 11.1414 0.0000 9.6369
# 5 17.3458 3.6940 8.0343 0.0000 26.6340 0.0000
# 6 0.0000 0.0000 0.0000 9.6369 0.0000 22.7457
#
#
#
# Elastic Compliance Matrix: (Units=1/GPa)
#
#
# Indices 1 2 3 4 5 6 
#
# 1 0.015077 -0.015719 0.014959 0.000000 -0.012152 0.000000
# 2 -0.015719 0.112484 -0.133744 0.000000 0.034980 0.000000
# 3 0.014959 -0.133744 0.125624 0.000000 -0.029088 0.000000
# 4 0.000000 0.000000 0.000000 0.141674 0.000000 -0.060024
# 5 -0.012152 0.034980 -0.029088 0.000000 0.049383 0.000000
# 6 0.000000 0.000000 0.000000 -0.060024 0.000000 0.069395
#
#
# Mechanical properties :
#
#
# Convention : Reuss Voigt Hill
#
# Bulk Modulus (GPa) = -63.20981 -4.73053 -33.97017
# Shear Modulus (GPa) = 6.43194 16.22291 11.32742
#
# Velocity S-wave (km/s) = 1.77380 2.81707 2.35396
# Velocity P-wave (km/s) = 5.16968 2.87525 3.03797
#
# Compressibility (1/GPa) = -0.01582033
#
# Stress axis : x y z
#
# Youngs Moduli (GPa) = 66.32615 8.89013 7.96026
#
# Poissons Ratio (x) = 0.13974 -0.11908
# Poissons Ratio (y) = 1.04255 1.06463
# Poissons Ratio (z) = -0.99219 1.18900
#
# Static dielectric constant tensor:
#      x y z
#    x 1.799170 0.000000 0.020490 
#    y 0.000000 1.699250 0.000000 
#    z 0.020490 0.000000 1.783810 
# 
# From -- ./inp_files/295828.got.cif
#   From: 2010.05.17/outbox.ucp.g08.bks.cvg/sg12_148_cif.got.tgz:295828.got - 2010.06.11 11:47:21.
