data_PCOD9224955
_publ_section_title
;
Structure prediction by ZEFSAII (Michael W. Deem and Ramdas Pophale) SiO2 
 PCOD9224955
Probable space group: C 2/M
;
_chemical_formula_sum "Si O2"
_cell_formula_units_Z 32
_cell_length_a 18.000000
_cell_length_b 9.000000
_cell_length_c 30.000000
_cell_angle_alpha 90.000000
_cell_angle_beta 40.000000
_cell_angle_gamma 90.000000
_cell_volume 3123.947783
_symmetry_space_group_name_H-M "C 2/M"
_symmetry_group_IT_number 12
_symmetry_cell_setting 'monoclinic'
loop_
_space_group_symop_operation_xyz
x,y,z
-x,y,-z
-x,-y,-z
x,-y,z
1/2+x,1/2+y,z
1/2-x,1/2+y,-z
1/2-x,1/2-y,-z
1/2+x,1/2-y,z
loop_
_atom_site_type_symbol
_atom_site_label
_atom_site_fract_x
_atom_site_fract_y
_atom_site_fract_z
Si Si1 0.022717 0.668578 0.437242
Si Si2 0.300881 0.671194 0.933603
Si Si3 0.870610 0.327293 0.070955
Si Si4 0.421570 0.171680 0.315335
Si Si5 0.827938 0.669019 0.783339
Si Si6 0.259812 0.166192 0.715129
Si Si7 0.287668 0.676772 0.528082
Si Si8 0.960599 0.667439 0.194304
O O1 0.011139 0.500000 0.423697
O O2 0.919769 0.774693 0.471083
O O3 0.000000 0.656582 0.500000
O O4 0.148579 0.723611 0.363589
O O5 0.326045 0.500000 0.931895
O O6 0.205118 0.678368 0.939142
O O7 0.418717 0.749085 0.864202
O O8 0.250000 0.750000 0.000000
O O9 0.884372 0.500000 0.078448
O O10 0.786929 0.245521 0.144585
O O11 0.000000 0.269396 0.000000
O O12 0.547948 0.244344 0.263906
O O13 0.306163 0.231323 0.391827
O O14 0.411941 0.167345 0.266907
O O15 0.433770 0.000000 0.325843
O O16 0.828834 0.500000 0.802030
O O17 0.826401 0.659445 0.731003
O O18 0.144779 0.253251 0.781002
O O19 0.225020 0.000000 0.716536
O O20 0.282818 0.500000 0.529778
O O21 0.250000 0.750000 0.500000
O O22 0.978135 0.500000 0.170612
#
# Coordination Sequence:
#
# PCOD9224955 Si02
#       8
#     8   8   8   8   8   8   8   8
#     4  10  21  39  61  86 121 162 203 253 310 365
#     4  11  24  42  64  91 124 159 195 241 294 352
#     4  10  23  42  62  88 121 153 188 239 295 341
#     4   9  19  37  60  84 114 154 197 245 298 354
#     4  10  20  38  61  84 115 156 198 239 290 354
#     4  10  22  38  58  87 123 159 198 247 302 358
#     4  11  22  37  59  87 120 158 203 253 306 365
#     4  11  22  39  63  88 117 156 202 248 295 351
#
# _framework density 10.243449
#
# number of rings (size 3 to 8) (size 9 to 14) (size 15 to 20)
#    0.000    1.750    1.250    2.625    1.750    4.000 
#    0.000    4.375    0.000    0.000    0.000    0.000 
#    0.000    0.000    0.000    0.000    0.000    0.000 
#
# Total GULP energy -178276.428626 kJ/mol
# GULP energy per Si atom -5571.138395 kJ/mol
# Density = 1.022013 g / cm^3
# Si number density = 10.243449 Si / 1000 Ang^3
#
#
#
# Elastic Constant Matrix: (Units=GPa)
#
#
# Indices 1 2 3 4 5 6 
#
# 1 45.6938 23.4914 9.9836 0.0007 -12.9016 0.0005
# 2 23.4914 66.1295 42.2809 0.0019 -15.2880 0.0007
# 3 9.9836 42.2809 118.7263 -0.0006 -20.3207 -0.0002
# 4 0.0007 0.0019 -0.0006 98.9393 0.0000 17.4040
# 5 -12.9016 -15.2880 -20.3207 0.0000 34.9558 0.0000
# 6 0.0005 0.0007 -0.0002 17.4040 0.0000 28.4869
#
#
#
# Elastic Compliance Matrix: (Units=1/GPa)
#
#
# Indices 1 2 3 4 5 6 
#
# 1 0.028631 -0.009973 0.002450 0.000000 0.007630 0.000000
# 2 -0.009973 0.023877 -0.007226 0.000000 0.002561 0.000000
# 3 0.002450 -0.007226 0.011553 0.000000 0.004460 0.000000
# 4 0.000000 0.000000 0.000000 0.011324 0.000000 -0.006919
# 5 0.007630 0.002561 0.004460 0.000000 0.035136 0.000000
# 6 0.000000 0.000000 0.000000 -0.006919 0.000000 0.039331
#
#
# Mechanical properties :
#
#
# Convention : Reuss Voigt Hill
#
# Bulk Modulus (GPa) = 28.93304 42.45127 35.69216
# Shear Modulus (GPa) = 26.19552 42.79598 34.49575
#
# Velocity S-wave (km/s) = 3.57970 4.57545 4.10786
# Velocity P-wave (km/s) = 5.58919 6.97705 6.32132
#
# Compressibility (1/GPa) = 0.03456256
#
# Stress axis : x y z
#
# Youngs Moduli (GPa) = 34.92714 41.88161 86.55402
#
# Poissons Ratio (x) = 0.41770 -0.21206
# Poissons Ratio (y) = 0.34834 0.62545
# Poissons Ratio (z) = -0.08557 0.30264
#
# Static dielectric constant tensor:
#      x y z
#    x 1.756990 0.000000 0.012670 
#    y 0.000000 1.742990 0.000000 
#    z 0.012670 0.000000 1.701710 
# 
# From -- ./inp_files/378158.got.cif
#   From: 2010.05.17/outbox.ucp.g08.bks.cvg/sg12_190_cif.got.tgz:378158.got - 2010.06.11 11:47:21.
