data_PCOD9224275
_publ_section_title
;
Structure prediction by ZEFSAII (Michael W. Deem and Ramdas Pophale) SiO2 
 PCOD9224275
Probable space group: C 2/M
;
_chemical_formula_sum "Si O2"
_cell_formula_units_Z 32
_cell_length_a 27.000000
_cell_length_b 12.000000
_cell_length_c 21.000000
_cell_angle_alpha 90.000000
_cell_angle_beta 150.000000
_cell_angle_gamma 90.000000
_cell_volume 3402.000000
_symmetry_space_group_name_H-M "C 2/M"
_symmetry_group_IT_number 12
_symmetry_cell_setting 'monoclinic'
loop_
_space_group_symop_operation_xyz
x,y,z
-x,y,-z
-x,-y,-z
x,-y,z
1/2+x,1/2+y,z
1/2-x,1/2+y,-z
1/2-x,1/2-y,-z
1/2+x,1/2-y,z
loop_
_atom_site_type_symbol
_atom_site_label
_atom_site_fract_x
_atom_site_fract_y
_atom_site_fract_z
Si Si1 0.752301 0.230169 0.340976
Si Si2 0.112197 0.630661 0.605772
Si Si3 0.083933 0.876357 0.225557
Si Si4 0.195124 0.370401 0.839868
Si Si5 0.977563 0.629771 0.256072
Si Si6 0.898845 0.627579 0.917594
Si Si7 0.387891 0.237017 0.035398
Si Si8 0.156090 0.201833 0.433121
O O1 0.829890 0.298356 0.383195
O O2 0.671121 0.313128 0.283959
O O3 0.687255 0.146046 0.228214
O O4 0.806389 0.163162 0.457142
O O5 0.106859 0.500000 0.579447
O O6 0.170660 0.635985 0.737663
O O7 0.000000 0.665511 0.500000
O O8 0.111657 0.879297 0.331371
O O9 0.979711 0.812700 0.113671
O O10 0.072759 0.000000 0.186845
O O11 0.210527 0.500000 0.873756
O O12 0.100089 0.333317 0.775671
O O13 0.296284 0.304084 0.962747
O O14 0.000505 0.500000 0.291740
O O15 0.926048 0.651156 0.130742
O O16 0.076566 0.702523 0.361801
O O17 0.922006 0.500000 0.956662
O O18 0.859147 0.678061 0.938471
O O19 0.000000 0.678171 0.000000
O O20 0.250000 0.250000 0.500000
#
# Coordination Sequence:
#
# PCOD9224275 Si02
#       8
#     8   8   8   8   8   8   8   8
#     4  11  20  38  57  84 113 151 188 232 285 334
#     4  10  20  33  54  83 115 151 190 233 282 335
#     4  10  21  36  56  82 114 147 183 233 287 343
#     4  10  20  34  55  85 116 149 188 233 281 334
#     4  10  21  37  59  85 114 149 193 236 278 330
#     4  11  23  39  59  84 115 150 193 234 276 338
#     4  11  20  38  56  85 116 152 187 231 281 336
#     4   9  21  36  55  81 111 145 186 232 284 327
#
# _framework density 9.4062319999999993
#
# number of rings (size 3 to 8) (size 9 to 14) (size 15 to 20)
#    0.000    1.750    2.500    2.250    0.000    4.000 
#    0.000    0.625    0.000    1.125    0.000    0.000 
#    0.000    0.000    0.000    0.000    0.000    0.000 
#
# Total GULP energy -178281.001909 kJ/mol
# GULP energy per Si atom -5571.281310 kJ/mol
# Density = 0.938482 g / cm^3
# Si number density = 9.406232 Si / 1000 Ang^3
#
#
#
# Elastic Constant Matrix: (Units=GPa)
#
#
# Indices 1 2 3 4 5 6 
#
# 1 108.6821 12.7431 18.3139 0.0000 22.3617 0.0000
# 2 12.7431 28.1729 -2.6265 0.0000 14.4451 0.0000
# 3 18.3139 -2.6265 65.4371 0.0000 3.1264 0.0000
# 4 0.0000 0.0000 0.0000 -72.7806 0.0000 13.4765
# 5 22.3617 14.4451 3.1264 0.0000 44.1067 0.0000
# 6 0.0000 0.0000 0.0000 13.4765 0.0000 20.0558
#
#
#
# Elastic Compliance Matrix: (Units=1/GPa)
#
#
# Indices 1 2 3 4 5 6 
#
# 1 0.010951 -0.002995 -0.002977 0.000000 -0.004360 0.000000
# 2 -0.002995 0.043853 0.003223 0.000000 -0.013072 0.000000
# 3 -0.002977 0.003223 0.016278 0.000000 -0.000700 0.000000
# 4 0.000000 0.000000 0.000000 -0.012220 0.000000 0.008211
# 5 -0.004360 -0.013072 -0.000700 0.000000 0.029214 0.000000
# 6 0.000000 0.000000 0.000000 0.008211 0.000000 0.044344
#
#
# Mechanical properties :
#
#
# Convention : Reuss Voigt Hill
#
# Bulk Modulus (GPa) = 15.24780 28.79479 22.02130
# Shear Modulus (GPa) = 31.29336 9.86716 20.58026
#
# Velocity S-wave (km/s) = 4.08295 2.29268 3.31111
# Velocity P-wave (km/s) = 5.50909 4.72737 5.13313
#
# Compressibility (1/GPa) = 0.06558323
#
# Stress axis : x y z
#
# Youngs Moduli (GPa) = 91.31520 22.80366 61.43347
#
# Poissons Ratio (x) = 0.06830 0.18287
# Poissons Ratio (y) = 0.27352 -0.19800
# Poissons Ratio (z) = 0.27183 -0.07350
#
# Static dielectric constant tensor:
#      x y z
#    x 1.630360 0.000000 -0.015170 
#    y 0.000000 1.555300 0.000000 
#    z -0.015170 0.000000 1.705760 
# 
# From -- ./inp_files/327828.got.cif
#   From: 2010.05.17/outbox.ucp.g08.bks.cvg/sg12_164_cif.got.tgz:327828.got - 2010.06.11 11:47:21.
