data_PCOD9224401
_publ_section_title
;
Structure prediction by ZEFSAII (Michael W. Deem and Ramdas Pophale) SiO2 
 PCOD9224401
Probable space group: C 2/M
;
_chemical_formula_sum "Si O2"
_cell_formula_units_Z 32
_cell_length_a 18.000000
_cell_length_b 9.000000
_cell_length_c 30.000000
_cell_angle_alpha 90.000000
_cell_angle_beta 140.000000
_cell_angle_gamma 90.000000
_cell_volume 3123.947783
_symmetry_space_group_name_H-M "C 2/M"
_symmetry_group_IT_number 12
_symmetry_cell_setting 'monoclinic'
loop_
_space_group_symop_operation_xyz
x,y,z
-x,y,-z
-x,-y,-z
x,-y,z
1/2+x,1/2+y,z
1/2-x,1/2+y,-z
1/2-x,1/2-y,-z
1/2+x,1/2-y,z
loop_
_atom_site_type_symbol
_atom_site_label
_atom_site_fract_x
_atom_site_fract_y
_atom_site_fract_z
Si Si1 0.377648 0.676792 0.154444
Si Si2 0.966341 0.177431 0.094673
Si Si3 0.550017 0.821788 0.473249
Si Si4 0.607249 0.169729 0.274320
Si Si5 0.379807 0.179703 0.968327
Si Si6 0.531069 0.678904 0.651248
Si Si7 0.793929 0.320787 0.775891
Si Si8 0.799487 0.673194 0.586250
O O1 0.379260 0.500000 0.161329
O O2 0.411145 0.708082 0.117991
O O3 0.488994 0.743326 0.229921
O O4 0.247884 0.727853 0.107361
O O5 0.097039 0.242114 0.150556
O O6 0.968398 0.000000 0.089550
O O7 0.890325 0.258356 0.022880
O O8 0.500000 0.792037 0.500000
O O9 0.473805 0.734886 0.402004
O O10 0.681112 0.763581 0.524195
O O11 0.546125 0.000000 0.464656
O O12 0.678238 0.218490 0.263243
O O13 0.685425 0.174275 0.353567
O O14 0.572070 0.000000 0.249172
O O15 0.379692 0.000000 0.968020
O O16 0.500000 0.228002 0.000000
O O17 0.519949 0.500000 0.648962
O O18 0.661696 0.718522 0.727947
O O19 0.418128 0.755350 0.621593
O O20 0.803933 0.500000 0.786137
O O21 0.789124 0.500000 0.566655
#
# Coordination Sequence:
#
# PCOD9224401 Si02
#       8
#     8   8   8   8   8   8   8   8
#     4   9  19  35  55  79 106 139 180 225 272 323
#     4  10  20  34  55  81 107 138 178 226 275 321
#     4  11  24  41  62  87 114 147 189 236 283 330
#     4   9  19  36  58  82 107 141 184 227 272 324
#     4  10  21  36  53  75 106 143 181 221 269 327
#     4  11  23  39  60  85 115 151 189 229 278 335
#     4   9  19  37  59  81 107 143 185 225 270 328
#     4  11  23  39  59  85 119 153 187 229 278 333
#
# _framework density 10.243449
#
# number of rings (size 3 to 8) (size 9 to 14) (size 15 to 20)
#    0.000    2.000    0.000    3.000    0.000    6.250 
#    0.000    6.250    0.000    0.000    0.000    0.000 
#    0.000    0.000    0.000    0.000    0.000    0.000 
#
# Total GULP energy -178604.668415 kJ/mol
# GULP energy per Si atom -5581.395888 kJ/mol
# Density = 1.022013 g / cm^3
# Si number density = 10.243449 Si / 1000 Ang^3
#
#
#
# Elastic Constant Matrix: (Units=GPa)
#
#
# Indices 1 2 3 4 5 6 
#
# 1 58.7092 13.9488 2.7316 0.0000 32.2340 0.0000
# 2 13.9488 28.0712 6.2709 0.0000 13.6730 0.0000
# 3 2.7316 6.2709 64.3013 0.0000 28.1531 0.0000
# 4 0.0000 0.0000 0.0000 31.3796 0.0000 5.4793
# 5 32.2340 13.6730 28.1531 0.0000 45.9406 0.0000
# 6 0.0000 0.0000 0.0000 5.4793 0.0000 27.0956
#
#
#
# Elastic Compliance Matrix: (Units=1/GPa)
#
#
# Indices 1 2 3 4 5 6 
#
# 1 0.034020 -0.005112 0.012079 0.000000 -0.029751 0.000000
# 2 -0.005112 0.042596 0.000059 0.000000 -0.009127 0.000000
# 3 0.012079 0.000059 0.025627 0.000000 -0.024198 0.000000
# 4 0.000000 0.000000 0.000000 0.033034 0.000000 -0.006680
# 5 -0.029751 -0.009127 -0.024198 0.000000 0.060187 0.000000
# 6 0.000000 0.000000 0.000000 -0.006680 0.000000 0.038257
#
#
# Mechanical properties :
#
#
# Convention : Reuss Voigt Hill
#
# Bulk Modulus (GPa) = 8.59873 21.88714 15.24293
# Shear Modulus (GPa) = 19.34716 29.42519 24.38618
#
# Velocity S-wave (km/s) = 3.07639 3.79396 3.45386
# Velocity P-wave (km/s) = 4.10185 5.46798 4.83343
#
# Compressibility (1/GPa) = 0.11629623
#
# Stress axis : x y z
#
# Youngs Moduli (GPa) = 29.39418 23.47620 39.02077
#
# Poissons Ratio (x) = 0.12001 -0.47134
# Poissons Ratio (y) = 0.15027 -0.00230
# Poissons Ratio (z) = -0.35506 -0.00139
#
# Static dielectric constant tensor:
#      x y z
#    x 1.740190 0.000000 -0.028460 
#    y 0.000000 1.699750 0.000000 
#    z -0.028460 0.000000 1.748740 
# 
# From -- ./inp_files/378286.got.cif
#   From: 2010.05.17/outbox.ucp.g08.bks.cvg/sg12_190_cif.got.tgz:378286.got - 2010.06.11 11:47:21.
