data_PCOD9224713
_publ_section_title
;
Structure prediction by ZEFSAII (Michael W. Deem and Ramdas Pophale) SiO2 
 PCOD9224713
Probable space group: C 2/M
;
_chemical_formula_sum "Si O2"
_cell_formula_units_Z 28
_cell_length_a 18.000000
_cell_length_b 18.000000
_cell_length_c 9.000000
_cell_angle_alpha 90.000000
_cell_angle_beta 110.000000
_cell_angle_gamma 90.000000
_cell_volume 2740.143682
_symmetry_space_group_name_H-M "C 2/M"
_symmetry_group_IT_number 12
_symmetry_cell_setting 'monoclinic'
loop_
_space_group_symop_operation_xyz
x,y,z
-x,y,-z
-x,-y,-z
x,-y,z
1/2+x,1/2+y,z
1/2-x,1/2+y,-z
1/2-x,1/2-y,-z
1/2+x,1/2-y,z
loop_
_atom_site_type_symbol
_atom_site_label
_atom_site_fract_x
_atom_site_fract_y
_atom_site_fract_z
Si Si1 0.375354 0.587199 0.531178
Si Si2 0.257431 0.915913 0.314500
Si Si3 0.010898 0.311801 0.834911
Si Si4 0.176026 0.844813 0.812543
Si Si5 0.069232 0.417916 0.424753
Si Si6 0.982030 0.866716 0.160807
Si Si7 0.185993 0.328228 0.914499
O O1 0.371267 0.500000 0.482782
O O2 0.308095 0.601438 0.608339
O O3 0.354332 0.639129 0.375234
O O4 0.457835 0.600078 0.675554
O O5 0.344561 0.913746 0.444904
O O6 0.260936 0.859835 0.181563
O O7 0.242998 0.000000 0.251121
O O8 0.010383 0.222819 0.813772
O O9 0.094230 0.349752 0.847590
O O10 0.943214 0.350923 0.695667
O O11 0.000000 0.324681 0.000000
O O12 0.108796 0.885930 0.863535
O O13 0.177631 0.759869 0.875363
O O14 0.268629 0.859887 0.908922
O O15 0.061087 0.500000 0.349250
O O16 0.000000 0.411853 0.500000
O O17 0.000000 0.884891 0.000000
#
# Coordination Sequence:
#
# PCOD9224713 Si02
#       7
#     8   8   8   8   8   8   8
#     4  11  25  42  63  92 122 158 204 256 308 356
#     4  10  22  39  59  87 121 160 203 242 294 364
#     4  10  22  36  60  90 120 156 202 247 296 354
#     4  10  23  39  61  91 121 154 201 251 301 356
#     4  10  20  36  57  84 119 158 200 244 294 355
#     4  10  22  42  63  88 122 157 201 249 302 368
#     4  10  21  40  60  87 123 161 198 244 300 358
#
# _framework density 10.218442
#
# number of rings (size 3 to 8) (size 9 to 14) (size 15 to 20)
#    0.000    1.857    1.429    1.286    4.000    4.000 
#    0.000    0.000    0.000    0.000    0.000    0.000 
#    0.000    0.000    0.000    0.000    0.000    0.000 
#
# Total GULP energy -156034.617826 kJ/mol
# GULP energy per Si atom -5572.664922 kJ/mol
# Density = 1.019518 g / cm^3
# Si number density = 10.218442 Si / 1000 Ang^3
#
#
#
# Elastic Constant Matrix: (Units=GPa)
#
#
# Indices 1 2 3 4 5 6 
#
# 1 79.9110 6.3947 13.2691 0.0000 9.9722 0.0000
# 2 6.3947 17.6112 22.8344 0.0000 0.1459 0.0000
# 3 13.2691 22.8344 82.1469 0.0000 18.1847 0.0000
# 4 0.0000 0.0000 0.0000 12.8427 0.0000 -1.9562
# 5 9.9722 0.1459 18.1847 0.0000 27.7303 0.0000
# 6 0.0000 0.0000 0.0000 -1.9562 0.0000 20.0709
#
#
#
# Elastic Compliance Matrix: (Units=1/GPa)
#
#
# Indices 1 2 3 4 5 6 
#
# 1 0.013516 -0.005491 0.000483 0.000000 -0.005148 0.000000
# 2 -0.005491 0.099817 -0.031796 0.000000 0.022300 0.000000
# 3 0.000483 -0.031796 0.024490 0.000000 -0.016066 0.000000
# 4 0.000000 0.000000 0.000000 0.079039 0.000000 0.007703
# 5 -0.005148 0.022300 -0.016066 0.000000 0.048331 0.000000
# 6 0.000000 0.000000 0.000000 0.007703 0.000000 0.050574
#
#
# Mechanical properties :
#
#
# Convention : Reuss Voigt Hill
#
# Bulk Modulus (GPa) = 15.57268 29.40728 22.48998
# Shear Modulus (GPa) = 12.17197 21.27351 16.72274
#
# Velocity S-wave (km/s) = 2.44312 3.22986 2.86363
# Velocity P-wave (km/s) = 3.94903 5.32258 4.68640
#
# Compressibility (1/GPa) = 0.06421502
#
# Stress axis : x y z
#
# Youngs Moduli (GPa) = 73.98861 10.01831 40.83273
#
# Poissons Ratio (x) = 0.05501 -0.01971
# Poissons Ratio (y) = 0.40627 1.29831
# Poissons Ratio (z) = -0.03572 0.31854
#
# Static dielectric constant tensor:
#      x y z
#    x 1.779950 0.000000 0.006050 
#    y 0.000000 1.739450 0.000000 
#    z 0.006050 0.000000 1.736670 
# 
# From -- ./inp_files/75970.got.cif
#   From: 2010.05.17/outbox.ucp.g08.bks.cvg/sg12_38_cif.got.tgz:75970.got - 2010.06.11 11:47:21.
