data_PCOD9224637
_publ_section_title
;
Structure prediction by ZEFSAII (Michael W. Deem and Ramdas Pophale) SiO2 
 PCOD9224637
Probable space group: C 2/M
;
_chemical_formula_sum "Si O2"
_cell_formula_units_Z 32
_cell_length_a 9.000000
_cell_length_b 21.000000
_cell_length_c 21.000000
_cell_angle_alpha 90.000000
_cell_angle_beta 60.000000
_cell_angle_gamma 90.000000
_cell_volume 3437.254828
_symmetry_space_group_name_H-M "C 2/M"
_symmetry_group_IT_number 12
_symmetry_cell_setting 'monoclinic'
loop_
_space_group_symop_operation_xyz
x,y,z
-x,y,-z
-x,-y,-z
x,-y,z
1/2+x,1/2+y,z
1/2-x,1/2+y,-z
1/2-x,1/2-y,-z
1/2+x,1/2-y,z
loop_
_atom_site_type_symbol
_atom_site_label
_atom_site_fract_x
_atom_site_fract_y
_atom_site_fract_z
Si Si1 0.671998 0.211978 0.077153
Si Si2 0.510190 0.926978 0.073516
Si Si3 0.311737 0.423434 0.269094
Si Si4 0.625561 0.748886 0.616399
Si Si5 0.770333 0.198463 0.709070
Si Si6 0.297508 0.570133 0.768277
Si Si7 0.853058 0.800958 0.169852
Si Si8 0.927159 0.348547 0.578494
O O1 0.597785 0.140834 0.075650
O O2 0.802763 0.198712 0.106659
O O3 0.534492 0.263505 0.133793
O O4 0.750000 0.250000 0.000000
O O5 0.319229 0.926089 0.143797
O O6 0.579328 0.000000 0.076073
O O7 0.500000 0.925315 0.000000
O O8 0.277297 0.500000 0.262104
O O9 0.502210 0.422068 0.259005
O O10 0.329163 0.370744 0.207787
O O11 0.175400 0.392725 0.348746
O O12 0.641069 0.778735 0.683157
O O13 0.464722 0.702070 0.642677
O O14 0.795117 0.705195 0.579154
O O15 0.577918 0.808447 0.581535
O O16 0.733250 0.127936 0.739543
O O17 0.762691 0.250868 0.766184
O O18 0.271062 0.500000 0.745402
O O19 0.000000 0.382868 0.500000
#
# Coordination Sequence:
#
# PCOD9224637 Si02
#       8
#     8   8   8   8   8   8   8   8
#     4  12  26  40  60  93 125 160 206 254 316 372
#     4  10  22  39  59  84 119 158 200 250 308 369
#     4  11  24  40  62  91 121 163 213 252 307 376
#     4  10  20  35  59  88 123 149 201 250 294 362
#     4  11  18  35  60  87 114 152 197 251 302 343
#     4  10  20  36  60  87 114 153 200 250 299 361
#     4  12  23  39  64  85 121 161 203 264 302 359
#     4  11  22  38  61  93 127 163 198 253 315 369
#
# _framework density 9.3097549999999991
#
# number of rings (size 3 to 8) (size 9 to 14) (size 15 to 20)
#    0.000    1.125    5.000    3.000    1.750    0.750 
#    0.000    1.875    0.000    1.500    0.000    1.750 
#    0.000    0.000    0.000    0.000    0.000    0.000 
#
# Total GULP energy -178164.481433 kJ/mol
# GULP energy per Si atom -5567.640045 kJ/mol
# Density = 0.928857 g / cm^3
# Si number density = 9.309755 Si / 1000 Ang^3
#
#
#
# Elastic Constant Matrix: (Units=GPa)
#
#
# Indices 1 2 3 4 5 6 
#
# 1 53.4101 18.8969 22.1436 0.0000 1.0276 0.0000
# 2 18.8969 151.9063 45.6354 0.0000 3.7119 0.0000
# 3 22.1436 45.6354 88.5678 0.0000 13.0825 0.0000
# 4 0.0000 0.0000 0.0000 30.1873 0.0000 -13.3903
# 5 1.0276 3.7119 13.0825 0.0000 6.7948 0.0000
# 6 0.0000 0.0000 0.0000 -13.3903 0.0000 58.8747
#
#
#
# Elastic Compliance Matrix: (Units=1/GPa)
#
#
# Indices 1 2 3 4 5 6 
#
# 1 0.021484 -0.001034 -0.006208 0.000000 0.009268 0.000000
# 2 -0.001034 0.007955 -0.004502 0.000000 0.004478 0.000000
# 3 -0.006208 -0.004502 0.020487 0.000000 -0.036047 0.000000
# 4 0.000000 0.000000 0.000000 0.036843 0.000000 0.008380
# 5 0.009268 0.004478 -0.036047 0.000000 0.212728 0.000000
# 6 0.000000 0.000000 0.000000 0.008380 0.000000 0.018891
#
#
# Mechanical properties :
#
#
# Convention : Reuss Voigt Hill
#
# Bulk Modulus (GPa) = 37.82286 51.91510 44.86898
# Shear Modulus (GPa) = 14.25769 32.98526 23.62148
#
# Velocity S-wave (km/s) = 2.77020 4.21354 3.56566
# Velocity P-wave (km/s) = 5.53079 7.18432 6.41109
#
# Compressibility (1/GPa) = 0.02643904
#
# Stress axis : x y z
#
# Youngs Moduli (GPa) = 46.54572 125.71355 48.81177
#
# Poissons Ratio (x) = 0.13001 0.30300
# Poissons Ratio (y) = 0.04814 0.21973
# Poissons Ratio (z) = 0.28893 0.56591
#
# Static dielectric constant tensor:
#      x y z
#    x 1.658100 0.000000 -0.027420 
#    y 0.000000 1.656790 0.000000 
#    z -0.027420 0.000000 1.713140 
# 
# From -- ./inp_files/301714.got.cif
#   From: 2010.05.17/outbox.ucp.g08.bks.cvg/sg12_151_cif.got.tgz:301714.got - 2010.06.11 11:47:21.
