data_PCOD9224648
_publ_section_title
;
Structure prediction by ZEFSAII (Michael W. Deem and Ramdas Pophale) SiO2 
 PCOD9224648
Probable space group: C 2/M
;
_chemical_formula_sum "Si O2"
_cell_formula_units_Z 32
_cell_length_a 30.000000
_cell_length_b 15.000000
_cell_length_c 9.000000
_cell_angle_alpha 90.000000
_cell_angle_beta 130.000000
_cell_angle_gamma 90.000000
_cell_volume 3102.479995
_symmetry_space_group_name_H-M "C 2/M"
_symmetry_group_IT_number 12
_symmetry_cell_setting 'monoclinic'
loop_
_space_group_symop_operation_xyz
x,y,z
-x,y,-z
-x,-y,-z
x,-y,z
1/2+x,1/2+y,z
1/2-x,1/2+y,-z
1/2-x,1/2-y,-z
1/2+x,1/2-y,z
loop_
_atom_site_type_symbol
_atom_site_label
_atom_site_fract_x
_atom_site_fract_y
_atom_site_fract_z
Si Si1 0.752062 0.904719 0.678923
Si Si2 0.618448 0.597045 0.933143
Si Si3 0.772648 0.396673 0.711457
Si Si4 0.613026 0.777176 0.098281
Si Si5 0.589077 0.241569 0.399489
Si Si6 0.552920 0.398120 0.501076
Si Si7 0.494519 0.900138 0.167675
Si Si8 0.289215 0.737862 0.229297
O O1 0.758087 0.896302 0.515177
O O2 0.724744 0.816305 0.683836
O O3 0.720248 0.000000 0.637032
O O4 0.813507 0.909422 0.889869
O O5 0.592204 0.500000 0.920701
O O6 0.606025 0.607254 0.732324
O O7 0.601940 0.683548 0.992646
O O8 0.789901 0.500000 0.778225
O O9 0.826450 0.327217 0.811713
O O10 0.728799 0.356266 0.737682
O O11 0.608189 0.762595 0.266910
O O12 0.563673 0.844310 0.935469
O O13 0.554272 0.330897 0.367200
O O14 0.549182 0.155988 0.341169
O O15 0.642140 0.247832 0.628587
O O16 0.500000 0.377995 0.500000
O O17 0.548937 0.500000 0.441668
O O18 0.491982 0.000000 0.221443
O O19 0.500000 0.905003 0.000000
O O20 0.250000 0.750000 0.000000
#
# Coordination Sequence:
#
# PCOD9224648 Si02
#       8
#     8   8   8   8   8   8   8   8
#     4  10  20  37  60  87 121 162 207 255 314 381
#     4  10  20  35  60  88 119 164 206 253 315 381
#     4  11  23  40  64  92 127 171 215 262 321 389
#     4  11  20  38  67  93 130 160 214 269 322 381
#     4  11  23  37  63  94 123 163 212 265 320 375
#     4  10  22  41  61  85 121 166 211 254 319 387
#     4   9  20  38  60  90 123 161 207 258 315 375
#     4  12  24  39  60  91 131 166 210 265 320 386
#
# _framework density 10.314329000000001
#
# number of rings (size 3 to 8) (size 9 to 14) (size 15 to 20)
#    0.000    1.500    2.500    3.000    0.000    2.500 
#    0.000    0.000    0.000    5.625    0.000    0.000 
#    0.000    0.000    0.000    0.000    0.000    0.000 
#
# Total GULP energy -178395.148297 kJ/mol
# GULP energy per Si atom -5574.848384 kJ/mol
# Density = 1.029085 g / cm^3
# Si number density = 10.314329 Si / 1000 Ang^3
#
#
#
# Elastic Constant Matrix: (Units=GPa)
#
#
# Indices 1 2 3 4 5 6 
#
# 1 12.7844 23.0784 24.1978 0.0000 18.8005 0.0000
# 2 23.0784 137.8689 37.6465 0.0000 7.1697 0.0000
# 3 24.1978 37.6465 65.9123 0.0000 12.9016 0.0000
# 4 0.0000 0.0000 0.0000 36.6770 0.0000 -8.1631
# 5 18.8005 7.1697 12.9016 0.0000 21.9363 0.0000
# 6 0.0000 0.0000 0.0000 -8.1631 0.0000 -4.2749
#
#
#
# Elastic Compliance Matrix: (Units=1/GPa)
#
#
# Indices 1 2 3 4 5 6 
#
# 1 -0.141868 0.011463 0.025393 0.000000 0.102907 0.000000
# 2 0.011463 0.007668 -0.006977 0.000000 -0.008226 0.000000
# 3 0.025393 -0.006977 0.015424 0.000000 -0.028554 0.000000
# 4 0.000000 0.000000 0.000000 0.019133 0.000000 -0.036536
# 5 0.102907 -0.008226 -0.028554 0.000000 -0.023128 0.000000
# 6 0.000000 0.000000 0.000000 -0.036536 0.000000 -0.164155
#
#
# Mechanical properties :
#
#
# Convention : Reuss Voigt Hill
#
# Bulk Modulus (GPa) = -16.94316 42.93454 12.99569
# Shear Modulus (GPa) = -13.64790 19.64386 2.99798
#
# Velocity S-wave (km/s) = -2.57495 3.08922 1.20684
# Velocity P-wave (km/s) = 4.13179 5.79505 2.87323
#
# Compressibility (1/GPa) = -0.05902087
#
# Stress axis : x y z
#
# Youngs Moduli (GPa) = -7.04878 130.42004 64.83561
#
# Poissons Ratio (x) = -1.49495 -1.64637
# Poissons Ratio (y) = 0.08080 0.45238
# Poissons Ratio (z) = 0.17899 0.90998
#
# Static dielectric constant tensor:
#      x y z
#    x 1.851970 0.000000 0.124970 
#    y 0.000000 1.806420 0.000000 
#    z 0.124970 0.000000 1.800060 
# 
# From -- ./inp_files/112042.got.cif
#   From: 2010.05.17/outbox.ucp.g08.bks.cvg/sg12_57_cif.got.tgz:112042.got - 2010.06.11 11:47:21.
