data_PCOD9224200
_publ_section_title
;
Structure prediction by ZEFSAII (Michael W. Deem and Ramdas Pophale) SiO2 
 PCOD9224200
Probable space group: C 2/M
;
_chemical_formula_sum "Si O2"
_cell_formula_units_Z 32
_cell_length_a 12.000000
_cell_length_b 27.000000
_cell_length_c 21.000000
_cell_angle_alpha 90.000000
_cell_angle_beta 30.000000
_cell_angle_gamma 90.000000
_cell_volume 3402.000000
_symmetry_space_group_name_H-M "C 2/M"
_symmetry_group_IT_number 12
_symmetry_cell_setting 'monoclinic'
loop_
_space_group_symop_operation_xyz
x,y,z
-x,y,-z
-x,-y,-z
x,-y,z
1/2+x,1/2+y,z
1/2-x,1/2+y,-z
1/2-x,1/2-y,-z
1/2+x,1/2-y,z
loop_
_atom_site_type_symbol
_atom_site_label
_atom_site_fract_x
_atom_site_fract_y
_atom_site_fract_z
Si Si1 0.306350 0.735097 0.145031
Si Si2 0.248140 0.280475 0.696434
Si Si3 0.625314 0.555621 0.286153
Si Si4 0.950591 0.356579 0.764936
Si Si5 0.599614 0.694629 0.691781
Si Si6 0.343052 0.351046 0.468784
Si Si7 0.249209 0.610746 0.903001
Si Si8 0.618235 0.941506 0.099889
O O1 0.362845 0.758597 0.184731
O O2 0.245399 0.677018 0.168791
O O3 0.080759 0.764643 0.241232
O O4 0.500000 0.746103 0.000000
O O5 0.078752 0.321289 0.752317
O O6 0.266761 0.229556 0.647708
O O7 0.481529 0.309991 0.590401
O O8 0.532842 0.500000 0.334742
O O9 0.473350 0.597867 0.392085
O O10 0.677280 0.571124 0.187450
O O11 0.858309 0.556491 0.208536
O O12 0.136655 0.361722 0.617259
O O13 0.871649 0.405752 0.842426
O O14 0.711613 0.669790 0.574571
O O15 0.439780 0.653590 0.805308
O O16 0.000000 0.627321 0.000000
O O17 0.228312 0.585845 0.983316
O O18 0.689129 0.000000 0.072623
#
# Coordination Sequence:
#
# PCOD9224200 Si02
#       8
#     8   8   8   8   8   8   8   8
#     4  10  23  36  52  79 108 140 179 219 260 314
#     4  10  21  35  53  78 105 144 176 217 256 312
#     4   9  17  31  52  77 107 141 173 219 269 314
#     4  11  23  35  53  77 110 146 175 218 263 315
#     4   9  20  33  56  78 105 144 178 216 263 308
#     4  10  20  36  50  79 112 139 180 215 261 314
#     4   9  17  30  52  78 111 137 175 224 263 318
#     4  10  20  32  51  80 108 142 178 214 270 323
#
# _framework density 9.4062319999999993
#
# number of rings (size 3 to 8) (size 9 to 14) (size 15 to 20)
#    0.000    2.250    1.250    1.125    5.250    8.500 
#    0.000    1.250    0.000    0.375    0.000    0.000 
#    0.000    3.250    0.000    0.000    0.000    0.000 
#
# Total GULP energy -178350.746200 kJ/mol
# GULP energy per Si atom -5573.460819 kJ/mol
# Density = 0.938482 g / cm^3
# Si number density = 9.406232 Si / 1000 Ang^3
#
#
#
# Elastic Constant Matrix: (Units=GPa)
#
#
# Indices 1 2 3 4 5 6 
#
# 1 13.4097 28.4200 39.6963 -0.0001 28.3148 -0.0051
# 2 28.4200 146.5433 43.9795 0.0067 26.5739 0.0035
# 3 39.6963 43.9795 87.0563 -0.1231 35.1058 0.0616
# 4 -0.0001 0.0067 -0.1231 15.3370 0.0196 2.0595
# 5 28.3148 26.5739 35.1058 0.0196 24.8801 -0.0054
# 6 -0.0051 0.0035 0.0616 2.0595 -0.0054 23.5963
#
#
#
# Elastic Compliance Matrix: (Units=1/GPa)
#
#
# Indices 1 2 3 4 5 6 
#
# 1 -0.053070 -0.000806 -0.000223 -0.000082 0.061573 0.000010
# 2 -0.000806 0.008532 -0.001480 -0.000008 -0.006107 0.000002
# 3 -0.000223 -0.001480 0.026907 0.000276 -0.036131 -0.000102
# 4 -0.000082 -0.000008 0.000276 0.065978 -0.000341 -0.005759
# 5 0.061573 -0.006107 -0.036131 -0.000341 0.027624 0.000145
# 6 0.000010 0.000002 -0.000102 -0.005759 0.000145 0.042882
#
#
# Mechanical properties :
#
#
# Convention : Reuss Voigt Hill
#
# Bulk Modulus (GPa) = -44.14943 52.35568 4.10312
# Shear Modulus (GPa) = 42.98484 21.75691 32.37088
#
# Velocity S-wave (km/s) = 4.78526 3.40445 4.15265
# Velocity P-wave (km/s) = 2.64812 6.58365 5.01781
#
# Compressibility (1/GPa) = -0.02265035
#
# Stress axis : x y z
#
# Youngs Moduli (GPa) = -18.84289 117.20803 37.16567
#
# Poissons Ratio (x) = 0.09451 0.00829
# Poissons Ratio (y) = -0.01519 0.05500
# Poissons Ratio (z) = -0.00420 0.17345
#
# Static dielectric constant tensor:
#      x y z
#    x 1.734370 0.000000 0.025560 
#    y 0.000000 1.664020 0.000010 
#    z 0.025560 0.000010 1.644580 
# 
# From -- ./inp_files/307467.got.cif
#   From: 2010.05.17/outbox.ucp.g08.bks.cvg/sg12_154_cif.got.tgz:307467.got - 2010.06.11 11:47:21.
