data_PCOD9224265
_publ_section_title
;
Structure prediction by ZEFSAII (Michael W. Deem and Ramdas Pophale) SiO2 
 PCOD9224265
Probable space group: C 2/M
;
_chemical_formula_sum "Si O2"
_cell_formula_units_Z 32
_cell_length_a 24.000000
_cell_length_b 9.000000
_cell_length_c 30.000000
_cell_angle_alpha 90.000000
_cell_angle_beta 30.000000
_cell_angle_gamma 90.000000
_cell_volume 3240.000000
_symmetry_space_group_name_H-M "C 2/M"
_symmetry_group_IT_number 12
_symmetry_cell_setting 'monoclinic'
loop_
_space_group_symop_operation_xyz
x,y,z
-x,y,-z
-x,-y,-z
x,-y,z
1/2+x,1/2+y,z
1/2-x,1/2+y,-z
1/2-x,1/2-y,-z
1/2+x,1/2-y,z
loop_
_atom_site_type_symbol
_atom_site_label
_atom_site_fract_x
_atom_site_fract_y
_atom_site_fract_z
Si Si1 0.198316 0.164602 0.161248
Si Si2 0.734404 0.178792 0.363272
Si Si3 0.433029 0.177136 0.273002
Si Si4 0.130421 0.826630 0.913370
Si Si5 0.514140 0.822733 0.665142
Si Si6 0.526509 0.819267 0.560946
Si Si7 0.355188 0.667873 0.905900
Si Si8 0.726387 0.819812 0.269524
O O1 0.321149 0.227075 0.081208
O O2 0.115296 0.276077 0.243929
O O3 0.169103 0.160635 0.129924
O O4 0.185422 0.000000 0.188952
O O5 0.815096 0.267954 0.338771
O O6 0.608792 0.219257 0.464182
O O7 0.766143 0.217437 0.291148
O O8 0.746397 0.000000 0.360648
O O9 0.443154 0.233598 0.317095
O O10 0.527972 0.245524 0.175141
O O11 0.445534 0.000000 0.264361
O O12 0.191948 0.772057 0.826041
O O13 0.158301 0.000000 0.901557
O O14 0.000000 0.814530 0.000000
O O15 0.567775 0.771578 0.581633
O O16 0.521902 0.000000 0.660354
O O17 0.400470 0.765154 0.644794
O O18 0.521806 0.000000 0.564028
O O19 0.366288 0.500000 0.915903
O O20 0.250000 0.750000 0.000000
O O21 0.722136 0.000000 0.269916
#
# Coordination Sequence:
#
# PCOD9224265 Si02
#       8
#     8   8   8   8   8   8   8   8
#     4  10  20  34  53  79 109 138 171 219 275 323
#     4  10  20  33  53  80 109 144 183 230 280 327
#     4  10  21  36  53  77 112 149 181 220 273 327
#     4  10  20  34  54  79 105 139 183 225 268 322
#     4   9  17  33  57  78 101 139 183 224 265 322
#     4   9  16  30  56  82 102 134 186 235 276 324
#     4  10  21  37  58  83 109 140 181 225 269 325
#     4   9  17  32  54  79 106 137 182 232 274 326
#
# _framework density 9.8765429999999999
#
# number of rings (size 3 to 8) (size 9 to 14) (size 15 to 20)
#    0.000    2.375    1.250    1.500    0.000    5.250 
#    0.000    2.500    0.000    0.750    0.000    0.000 
#    0.000    0.000    0.000    0.000    0.000    0.000 
#
# Total GULP energy -178146.702793 kJ/mol
# GULP energy per Si atom -5567.084462 kJ/mol
# Density = 0.985406 g / cm^3
# Si number density = 9.876543 Si / 1000 Ang^3
#
#
#
# Elastic Constant Matrix: (Units=GPa)
#
#
# Indices 1 2 3 4 5 6 
#
# 1 44.1239 13.6088 9.7850 0.0001 -8.9785 -0.0001
# 2 13.6088 -4.9826 14.7322 0.0002 1.0696 0.0006
# 3 9.7850 14.7322 50.7979 0.0005 3.2204 -0.0006
# 4 0.0001 0.0002 0.0005 12.4273 -0.0002 -4.1805
# 5 -8.9785 1.0696 3.2204 -0.0002 11.3365 0.0004
# 6 -0.0001 0.0006 -0.0006 -4.1805 0.0004 18.3509
#
#
#
# Elastic Compliance Matrix: (Units=1/GPa)
#
#
# Indices 1 2 3 4 5 6 
#
# 1 0.021382 0.025149 -0.012562 0.000000 0.018130 -0.000001
# 2 0.025149 -0.078447 0.016471 0.000002 0.022641 0.000003
# 3 -0.012562 0.016471 0.018389 -0.000001 -0.016727 0.000000
# 4 0.000000 0.000002 -0.000001 0.087146 0.000001 0.019853
# 5 0.018130 0.022641 -0.016727 0.000001 0.105185 -0.000003
# 6 -0.000001 0.000003 0.000000 0.019853 -0.000003 0.059016
#
#
# Mechanical properties :
#
#
# Convention : Reuss Voigt Hill
#
# Bulk Modulus (GPa) = 51.43750 18.46567 34.95158
# Shear Modulus (GPa) = 31.04943 11.87716 21.46329
#
# Velocity S-wave (km/s) = 3.96899 2.45476 3.29991
# Velocity P-wave (km/s) = 6.86299 4.17169 5.67907
#
# Compressibility (1/GPa) = 0.01944107
#
# Stress axis : x y z
#
# Youngs Moduli (GPa) = 46.76885 -12.74742 54.38012
#
# Poissons Ratio (x) = 0.32059 0.68311
# Poissons Ratio (y) = -1.17620 -0.89571
# Poissons Ratio (z) = 0.58750 0.20997
#
# Static dielectric constant tensor:
#      x y z
#    x 1.766220 0.000000 -0.011710 
#    y 0.000000 1.693430 0.000000 
#    z -0.011710 0.000000 1.698470 
# 
# From -- ./inp_files/382349.got.cif
#   From: 2010.05.17/outbox.ucp.g08.bks.cvg/sg12_192_cif.got.tgz:382349.got - 2010.06.11 11:47:21.
