data_PCOD9224650
_publ_section_title
;
Structure prediction by ZEFSAII (Michael W. Deem and Ramdas Pophale) SiO2 
 PCOD9224650
Probable space group: C 2/M
;
_chemical_formula_sum "Si O2"
_cell_formula_units_Z 28
_cell_length_a 30.000000
_cell_length_b 9.000000
_cell_length_c 15.000000
_cell_angle_alpha 90.000000
_cell_angle_beta 130.000000
_cell_angle_gamma 90.000000
_cell_volume 3102.479995
_symmetry_space_group_name_H-M "C 2/M"
_symmetry_group_IT_number 12
_symmetry_cell_setting 'monoclinic'
loop_
_space_group_symop_operation_xyz
x,y,z
-x,y,-z
-x,-y,-z
x,-y,z
1/2+x,1/2+y,z
1/2-x,1/2+y,-z
1/2-x,1/2-y,-z
1/2+x,1/2-y,z
loop_
_atom_site_type_symbol
_atom_site_label
_atom_site_fract_x
_atom_site_fract_y
_atom_site_fract_z
Si Si1 0.195415 0.178547 0.302453
Si Si2 0.761579 0.176125 0.111154
Si Si3 0.138837 0.676737 0.056293
Si Si4 0.562259 0.319728 0.799211
Si Si5 0.816702 0.823019 0.503727
Si Si6 0.064306 0.822637 0.449646
Si Si7 0.381825 0.820490 0.306730
O O1 0.153610 0.251236 0.172874
O O2 0.178094 0.212279 0.383682
O O3 0.262146 0.239402 0.387778
O O4 0.194992 0.000000 0.289882
O O5 0.701131 0.190797 0.086514
O O6 0.815887 0.256603 0.229439
O O7 0.774757 0.000000 0.118771
O O8 0.750000 0.250000 0.000000
O O9 0.125709 0.500000 0.048333
O O10 0.090167 0.753040 0.927627
O O11 0.569112 0.500000 0.809930
O O12 0.494334 0.288206 0.683303
O O13 0.596737 0.246543 0.760391
O O14 0.877907 0.792652 0.534527
O O15 0.804887 0.000000 0.481626
O O16 0.076723 0.737995 0.559316
O O17 0.061701 0.000000 0.465953
O O18 0.381647 0.000000 0.304516
#
# Coordination Sequence:
#
# PCOD9224650 Si02
#       7
#     8   8   8   8   8   8   8
#     4  10  20  35  60  90 116 146 183 227 282 340
#     4  11  22  36  56  81 112 148 186 231 279 330
#     4  11  23  38  57  83 116 151 186 229 284 338
#     4  11  23  39  59  80 109 150 195 238 278 332
#     4   9  19  38  61  86 116 145 183 234 282 331
#     4  10  22  40  60  82 109 148 194 237 282 330
#     4  12  24  37  56  84 116 151 188 232 285 339
#
# _framework density 9.0250380000000003
#
# number of rings (size 3 to 8) (size 9 to 14) (size 15 to 20)
#    0.000    1.429    1.429    4.286    0.000    9.143 
#    0.000    0.714    0.000    4.286    0.000    0.000 
#    0.000    0.000    0.000    0.000    0.000    0.000 
#
# Total GULP energy -156323.305970 kJ/mol
# GULP energy per Si atom -5582.975213 kJ/mol
# Density = 0.900450 g / cm^3
# Si number density = 9.025038 Si / 1000 Ang^3
#
#
#
# Elastic Constant Matrix: (Units=GPa)
#
#
# Indices 1 2 3 4 5 6 
#
# 1 48.2223 26.3106 33.6150 0.0000 0.9220 0.0000
# 2 26.3106 117.3561 73.8575 0.0000 -0.6110 0.0000
# 3 33.6150 73.8575 196.1033 0.0000 0.3368 0.0000
# 4 0.0000 0.0000 0.0000 46.4454 0.0000 0.1549
# 5 0.9220 -0.6110 0.3368 0.0000 35.9484 0.0000
# 6 0.0000 0.0000 0.0000 0.1549 0.0000 22.1517
#
#
#
# Elastic Compliance Matrix: (Units=1/GPa)
#
#
# Indices 1 2 3 4 5 6 
#
# 1 0.024782 -0.003784 -0.002822 0.000000 -0.000673 0.000000
# 2 -0.003784 0.011748 -0.003777 0.000000 0.000332 0.000000
# 3 -0.002822 -0.003777 0.007005 0.000000 -0.000057 0.000000
# 4 0.000000 0.000000 0.000000 0.021531 0.000000 -0.000151
# 5 -0.000673 0.000332 -0.000057 0.000000 0.027841 0.000000
# 6 0.000000 0.000000 0.000000 -0.000151 0.000000 0.045144
#
#
# Mechanical properties :
#
#
# Convention : Reuss Voigt Hill
#
# Bulk Modulus (GPa) = 43.91528 69.91642 56.91585
# Shear Modulus (GPa) = 30.04711 36.10234 33.07472
#
# Velocity S-wave (km/s) = 4.08444 4.47712 4.28528
# Velocity P-wave (km/s) = 6.82833 8.09598 7.48903
#
# Compressibility (1/GPa) = 0.02277112
#
# Stress axis : x y z
#
# Youngs Moduli (GPa) = 40.35267 85.12234 142.74514
#
# Poissons Ratio (x) = 0.32206 0.40280
# Poissons Ratio (y) = 0.15267 0.53908
# Poissons Ratio (z) = 0.11387 0.32147
#
# Static dielectric constant tensor:
#      x y z
#    x 1.646810 0.000000 -0.005410 
#    y 0.000000 1.616410 0.000000 
#    z -0.005410 0.000000 1.609230 
# 
# From -- ./inp_files/249293.got.cif
#   From: 2010.05.17/outbox.ucp.g08.bks.cvg/sg12_125_cif.got.tgz:249293.got - 2010.06.11 11:47:21.
