data_PCOD9224598
_publ_section_title
;
Structure prediction by ZEFSAII (Michael W. Deem and Ramdas Pophale) SiO2 
 PCOD9224598
Probable space group: C 2/M
;
_chemical_formula_sum "Si O2"
_cell_formula_units_Z 28
_cell_length_a 18.000000
_cell_length_b 9.000000
_cell_length_c 18.000000
_cell_angle_alpha 90.000000
_cell_angle_beta 110.000000
_cell_angle_gamma 90.000000
_cell_volume 2740.143682
_symmetry_space_group_name_H-M "C 2/M"
_symmetry_group_IT_number 12
_symmetry_cell_setting 'monoclinic'
loop_
_space_group_symop_operation_xyz
x,y,z
-x,y,-z
-x,-y,-z
x,-y,z
1/2+x,1/2+y,z
1/2-x,1/2+y,-z
1/2-x,1/2-y,-z
1/2+x,1/2-y,z
loop_
_atom_site_type_symbol
_atom_site_label
_atom_site_fract_x
_atom_site_fract_y
_atom_site_fract_z
Si Si1 0.357479 0.178224 0.110842
Si Si2 0.406086 0.827154 0.964334
Si Si3 0.715155 0.673301 0.166295
Si Si4 0.991547 0.822533 0.253986
Si Si5 0.346436 0.835988 0.730290
Si Si6 0.985017 0.822765 0.576840
Si Si7 0.675136 0.165969 0.447005
O O1 0.276034 0.217272 0.123170
O O2 0.425425 0.258579 0.178788
O O3 0.367710 0.000000 0.118827
O O4 0.367086 0.218714 0.028686
O O5 0.371365 0.720109 0.890801
O O6 0.385062 0.000000 0.943505
O O7 0.500000 0.817937 0.000000
O O8 0.722225 0.500000 0.182494
O O9 0.721717 0.765691 0.243182
O O10 0.075052 0.761887 0.252967
O O11 0.973675 0.769988 0.332811
O O12 0.993367 0.000000 0.254241
O O13 0.315417 0.849615 0.637189
O O14 0.369139 0.000000 0.765872
O O15 0.896269 0.775968 0.562239
O O16 0.000000 0.760778 0.500000
O O17 0.996296 0.000000 0.577749
O O18 0.750000 0.250000 0.500000
O O19 0.662233 0.000000 0.473784
#
# Coordination Sequence:
#
# PCOD9224598 Si02
#       7
#     8   8   8   8   8   8   8
#     4  10  22  38  55  81 117 149 179 223 276 326
#     4  10  21  38  60  82 107 146 188 224 271 329
#     4  11  23  37  56  84 115 146 183 229 274 318
#     4  10  20  35  58  84 109 143 186 229 273 325
#     4  10  21  38  58  79 108 147 187 227 276 332
#     4   9  19  36  56  80 112 146 182 226 274 328
#     4  10  21  36  56  81 109 144 185 230 278 327
#
# _framework density 10.218442
#
# number of rings (size 3 to 8) (size 9 to 14) (size 15 to 20)
#    0.000    2.000    0.000    3.000    0.000    6.857 
#    0.000    4.286    0.000    0.000    0.000    0.000 
#    0.000    0.000    0.000    0.000    0.000    0.000 
#
# Total GULP energy -155949.895481 kJ/mol
# GULP energy per Si atom -5569.639124 kJ/mol
# Density = 1.019518 g / cm^3
# Si number density = 10.218442 Si / 1000 Ang^3
#
#
#
# Elastic Constant Matrix: (Units=GPa)
#
#
# Indices 1 2 3 4 5 6 
#
# 1 40.3388 12.2695 44.9336 0.0000 -23.1515 0.0000
# 2 12.2695 -77.9830 10.1672 0.0000 0.8773 0.0000
# 3 44.9336 10.1672 84.3190 0.0000 -17.8414 0.0000
# 4 0.0000 0.0000 0.0000 15.0590 0.0000 5.3339
# 5 -23.1515 0.8773 -17.8414 0.0000 39.8967 0.0000
# 6 0.0000 0.0000 0.0000 5.3339 0.0000 25.5044
#
#
#
# Elastic Compliance Matrix: (Units=1/GPa)
#
#
# Indices 1 2 3 4 5 6 
#
# 1 0.083024 0.008354 -0.038763 0.000000 0.030659 0.000000
# 2 0.008354 -0.011744 -0.002160 0.000000 0.004140 0.000000
# 3 -0.038763 -0.002160 0.030957 0.000000 -0.008603 0.000000
# 4 0.000000 0.000000 0.000000 0.071718 0.000000 -0.014999
# 5 0.030659 0.004140 -0.008603 0.000000 0.038918 0.000000
# 6 0.000000 0.000000 0.000000 -0.014999 0.000000 0.042346
#
#
# Mechanical properties :
#
#
# Convention : Reuss Voigt Hill
#
# Bulk Modulus (GPa) = 26.95540 20.15727 23.55633
# Shear Modulus (GPa) = 15.02750 14.71232 14.86991
#
# Velocity S-wave (km/s) = 2.71461 2.68599 2.70034
# Velocity P-wave (km/s) = 4.80038 4.41633 4.61236
#
# Compressibility (1/GPa) = 0.03709832
#
# Stress axis : x y z
#
# Youngs Moduli (GPa) = 12.04470 -85.15022 32.30303
#
# Poissons Ratio (x) = 0.71132 1.25218
# Poissons Ratio (y) = -0.10062 0.06976
# Poissons Ratio (z) = 0.46689 -0.18389
#
# Static dielectric constant tensor:
#      x y z
#    x 1.705790 0.000000 -0.045550 
#    y 0.000000 1.725080 0.000000 
#    z -0.045550 0.000000 1.797120 
# 
# From -- ./inp_files/275538.got.cif
#   From: 2010.05.17/outbox.ucp.g08.bks.cvg/sg12_138_cif.got.tgz:275538.got - 2010.06.11 11:47:21.
