data_PCOD9224345
_publ_section_title
;
Structure prediction by ZEFSAII (Michael W. Deem and Ramdas Pophale) SiO2 
 PCOD9224345
Probable space group: C 2/M
;
_chemical_formula_sum "Si O2"
_cell_formula_units_Z 32
_cell_length_a 15.000000
_cell_length_b 9.000000
_cell_length_c 30.000000
_cell_angle_alpha 90.000000
_cell_angle_beta 130.000000
_cell_angle_gamma 90.000000
_cell_volume 3102.479995
_symmetry_space_group_name_H-M "C 2/M"
_symmetry_group_IT_number 12
_symmetry_cell_setting 'monoclinic'
loop_
_space_group_symop_operation_xyz
x,y,z
-x,y,-z
-x,-y,-z
x,-y,z
1/2+x,1/2+y,z
1/2-x,1/2+y,-z
1/2-x,1/2-y,-z
1/2+x,1/2-y,z
loop_
_atom_site_type_symbol
_atom_site_label
_atom_site_fract_x
_atom_site_fract_y
_atom_site_fract_z
Si Si1 0.818891 0.180061 0.480012
Si Si2 0.122284 0.679020 0.060924
Si Si3 0.880166 0.821384 0.134193
Si Si4 0.115385 0.822126 0.155222
Si Si5 0.015734 0.676606 0.254169
Si Si6 0.122391 0.167901 0.367584
Si Si7 0.459506 0.667262 0.400913
Si Si8 0.244019 0.821939 0.284289
O O1 0.750000 0.250000 0.500000
O O2 0.745758 0.248928 0.415254
O O3 0.955131 0.218641 0.531610
O O4 0.809853 0.000000 0.476721
O O5 0.118323 0.500000 0.059627
O O6 0.247336 0.720654 0.078664
O O7 0.127915 0.737853 0.113063
O O8 0.000000 0.732115 0.000000
O O9 0.988662 0.783059 0.136442
O O10 0.913178 0.745827 0.191734
O O11 0.884231 0.000000 0.140695
O O12 0.219868 0.789348 0.223979
O O13 0.115537 0.000000 0.148019
O O14 0.008612 0.500000 0.251482
O O15 0.032483 0.740126 0.308706
O O16 0.135083 0.737642 0.271008
O O17 0.054245 0.153988 0.391949
O O18 0.141859 0.000000 0.356585
O O19 0.415231 0.500000 0.397155
O O20 0.357449 0.765521 0.346971
O O21 0.234305 0.000000 0.285315
#
# Coordination Sequence:
#
# PCOD9224345 Si02
#       8
#     8   8   8   8   8   8   8   8
#     4   9  17  31  49  73 106 143 184 231 280 336
#     4  10  22  39  61  90 121 155 196 238 284 343
#     4   9  20  40  60  82 119 160 192 237 296 349
#     4   9  20  38  58  83 117 156 195 239 291 343
#     4  11  22  36  56  81 109 142 186 233 280 341
#     4  10  20  34  53  78 108 143 183 231 286 338
#     4   9  19  33  52  78 107 141 182 228 279 334
#     4  10  21  37  56  79 111 145 181 229 285 340
#
# _framework density 10.314329000000001
#
# number of rings (size 3 to 8) (size 9 to 14) (size 15 to 20)
#    0.000    2.375    0.000    3.750    1.750    6.750 
#    0.000    0.625    0.000    3.750    0.000    0.000 
#    0.000    0.000    0.000    0.000    0.000    0.000 
#
# Total GULP energy -178433.256326 kJ/mol
# GULP energy per Si atom -5576.039260 kJ/mol
# Density = 1.029085 g / cm^3
# Si number density = 10.314329 Si / 1000 Ang^3
#
#
#
# Elastic Constant Matrix: (Units=GPa)
#
#
# Indices 1 2 3 4 5 6 
#
# 1 44.5217 9.1280 33.1237 0.0000 6.9514 0.0000
# 2 9.1280 56.5690 24.1764 0.0000 12.8599 0.0000
# 3 33.1237 24.1764 92.1795 0.0000 30.7593 0.0000
# 4 0.0000 0.0000 0.0000 34.0652 0.0000 3.7353
# 5 6.9514 12.8599 30.7593 0.0000 39.1275 0.0000
# 6 0.0000 0.0000 0.0000 3.7353 0.0000 21.7436
#
#
#
# Elastic Compliance Matrix: (Units=1/GPa)
#
#
# Indices 1 2 3 4 5 6 
#
# 1 0.031240 -0.000709 -0.012560 0.000000 0.004557 0.000000
# 2 -0.000709 0.020246 -0.003900 0.000000 -0.003462 0.000000
# 3 -0.012560 -0.003900 0.020622 0.000000 -0.012698 0.000000
# 4 0.000000 0.000000 0.000000 0.029919 0.000000 -0.005140
# 5 0.004557 -0.003462 -0.012698 0.000000 0.035868 0.000000
# 6 0.000000 0.000000 0.000000 -0.005140 0.000000 0.046874
#
#
# Mechanical properties :
#
#
# Convention : Reuss Voigt Hill
#
# Bulk Modulus (GPa) = 26.47659 36.23626 31.35642
# Shear Modulus (GPa) = 21.58000 27.44340 24.51170
#
# Velocity S-wave (km/s) = 3.23788 3.65136 3.45082
# Velocity P-wave (km/s) = 5.18085 5.94816 5.57772
#
# Compressibility (1/GPa) = 0.03776921
#
# Stress axis : x y z
#
# Youngs Moduli (GPa) = 32.01073 49.39309 48.49197
#
# Poissons Ratio (x) = 0.03501 0.60907
# Poissons Ratio (y) = 0.02269 0.18912
# Poissons Ratio (z) = 0.40207 0.19263
#
# Static dielectric constant tensor:
#      x y z
#    x 1.836050 0.000000 -0.057750 
#    y 0.000000 1.693520 0.000000 
#    z -0.057750 0.000000 1.804550 
# 
# From -- ./inp_files/375653.got.cif
#   From: 2010.05.17/outbox.ucp.g08.bks.cvg/sg12_188_cif.got.tgz:375653.got - 2010.06.11 11:47:21.
