data_PCOD9224686
_publ_section_title
;
Structure prediction by ZEFSAII (Michael W. Deem and Ramdas Pophale) SiO2 
 PCOD9224686
Probable space group: C 2/M
;
_chemical_formula_sum "Si O2"
_cell_formula_units_Z 32
_cell_length_a 30.000000
_cell_length_b 9.000000
_cell_length_c 15.000000
_cell_angle_alpha 90.000000
_cell_angle_beta 120.000000
_cell_angle_gamma 90.000000
_cell_volume 3507.402885
_symmetry_space_group_name_H-M "C 2/M"
_symmetry_group_IT_number 12
_symmetry_cell_setting 'monoclinic'
loop_
_space_group_symop_operation_xyz
x,y,z
-x,y,-z
-x,-y,-z
x,-y,z
1/2+x,1/2+y,z
1/2-x,1/2+y,-z
1/2-x,1/2-y,-z
1/2+x,1/2-y,z
loop_
_atom_site_type_symbol
_atom_site_label
_atom_site_fract_x
_atom_site_fract_y
_atom_site_fract_z
Si Si1 0.804415 0.176211 0.035837
Si Si2 0.536082 0.177786 0.794271
Si Si3 0.881202 0.321140 0.976059
Si Si4 0.890738 0.824773 0.270991
Si Si5 0.082760 0.321145 0.338344
Si Si6 0.357922 0.323745 0.766402
Si Si7 0.860260 0.820524 0.439969
Si Si8 0.256970 0.176734 0.409489
O O1 0.840759 0.196087 0.158591
O O2 0.799986 0.000000 0.013543
O O3 0.750000 0.250000 0.000000
O O4 0.832919 0.258148 0.983263
O O5 0.563341 0.243412 0.734220
O O6 0.476537 0.218598 0.739618
O O7 0.539350 0.000000 0.792315
O O8 0.569188 0.222259 0.914403
O O9 0.879092 0.500000 0.967585
O O10 0.879977 0.248611 0.877973
O O11 0.878434 0.777361 0.359048
O O12 0.902372 0.000000 0.284400
O O13 0.087666 0.500000 0.347647
O O14 0.117422 0.256275 0.294024
O O15 0.101709 0.247398 0.448598
O O16 0.368368 0.500000 0.774069
O O17 0.296308 0.303958 0.697218
O O18 0.804288 0.754661 0.407178
O O19 0.858772 0.000000 0.444645
O O20 0.250000 0.250000 0.500000
O O21 0.266633 0.000000 0.429256
#
# Coordination Sequence:
#
# PCOD9224686 Si02
#       8
#     8   8   8   8   8   8   8   8
#     4  10  20  36  56  84 116 152 197 242 290 348
#     4   9  21  41  63  87 116 152 197 245 292 345
#     4  10  21  39  61  85 116 155 194 241 295 348
#     4   9  21  39  59  84 117 154 192 238 292 347
#     4  11  23  40  62  87 116 154 198 245 295 347
#     4  11  24  40  59  89 121 153 196 242 291 353
#     4  11  23  39  59  88 121 155 198 241 290 354
#     4  11  23  39  60  85 118 157 196 241 294 347
#
# _framework density 9.1235599999999994
#
# number of rings (size 3 to 8) (size 9 to 14) (size 15 to 20)
#    0.000    1.750    1.250    2.250    1.750    5.500 
#    0.000    5.000    0.000    0.000    0.000    0.000 
#    0.000    0.000    0.000    0.000    0.000    0.000 
#
# Total GULP energy -178766.336184 kJ/mol
# GULP energy per Si atom -5586.448006 kJ/mol
# Density = 0.910279 g / cm^3
# Si number density = 9.123560 Si / 1000 Ang^3
#
#
#
# Elastic Constant Matrix: (Units=GPa)
#
#
# Indices 1 2 3 4 5 6 
#
# 1 6.5787 13.9213 19.8590 0.0000 22.2277 0.0000
# 2 13.9213 65.3974 34.8254 0.0000 7.6722 0.0000
# 3 19.8590 34.8254 79.8117 0.0000 -14.5982 0.0000
# 4 0.0000 0.0000 0.0000 32.9399 0.0000 -2.2281
# 5 22.2277 7.6722 -14.5982 0.0000 31.2326 0.0000
# 6 0.0000 0.0000 0.0000 -2.2281 0.0000 32.4781
#
#
#
# Elastic Compliance Matrix: (Units=1/GPa)
#
#
# Indices 1 2 3 4 5 6 
#
# 1 -0.043364 -0.007469 0.021902 0.000000 0.042933 0.000000
# 2 -0.007469 0.021809 -0.008382 0.000000 -0.003960 0.000000
# 3 0.021902 -0.008382 0.009035 0.000000 -0.009305 0.000000
# 4 0.000000 0.000000 0.000000 0.030500 0.000000 0.002092
# 5 0.042933 -0.003960 -0.009305 0.000000 -0.001913 0.000000
# 6 0.000000 0.000000 0.000000 0.002092 0.000000 0.030934
#
#
# Mechanical properties :
#
#
# Convention : Reuss Voigt Hill
#
# Bulk Modulus (GPa) = -2392.50956 32.11102 -1180.19927
# Shear Modulus (GPa) = 143.84453 24.87558 84.36006
#
# Velocity S-wave (km/s) = 8.88833 3.69624 6.80679
# Velocity P-wave (km/s) = 34.76609 5.98768 24.21599
#
# Compressibility (1/GPa) = -0.00041797
#
# Stress axis : x y z
#
# Youngs Moduli (GPa) = -23.06058 45.85211 110.67608
#
# Poissons Ratio (x) = 0.34247 -2.42401
# Poissons Ratio (y) = -0.17224 0.92771
# Poissons Ratio (z) = 0.50507 0.38434
#
# Static dielectric constant tensor:
#      x y z
#    x 1.615340 0.000000 0.029440 
#    y 0.000000 1.608300 0.000000 
#    z 0.029440 0.000000 1.638790 
# 
# From -- ./inp_files/249162.got.cif
#   From: 2010.05.17/outbox.ucp.g08.bks.cvg/sg12_125_cif.got.tgz:249162.got - 2010.06.11 11:47:21.
