data_PCOD9224616
_publ_section_title
;
Structure prediction by ZEFSAII (Michael W. Deem and Ramdas Pophale) SiO2 
 PCOD9224616
Probable space group: C 2/M
;
_chemical_formula_sum "Si O2"
_cell_formula_units_Z 24
_cell_length_a 18.000000
_cell_length_b 9.000000
_cell_length_c 30.000000
_cell_angle_alpha 90.000000
_cell_angle_beta 150.000000
_cell_angle_gamma 90.000000
_cell_volume 2430.000000
_symmetry_space_group_name_H-M "C 2/M"
_symmetry_group_IT_number 12
_symmetry_cell_setting 'monoclinic'
loop_
_space_group_symop_operation_xyz
x,y,z
-x,y,-z
-x,-y,-z
x,-y,z
1/2+x,1/2+y,z
1/2-x,1/2+y,-z
1/2-x,1/2-y,-z
1/2+x,1/2-y,z
loop_
_atom_site_type_symbol
_atom_site_label
_atom_site_fract_x
_atom_site_fract_y
_atom_site_fract_z
Si Si1 0.625364 0.673741 0.642549
Si Si2 0.725362 0.325514 0.535157
Si Si3 0.249828 0.676474 0.794248
Si Si4 0.343470 0.677733 0.685064
Si Si5 0.048366 0.329148 0.972925
Si Si6 0.845401 0.676905 0.152414
O O1 0.667683 0.500000 0.663201
O O2 0.449118 0.683467 0.543541
O O3 0.659327 0.741219 0.708779
O O4 0.718840 0.761352 0.654106
O O5 0.768298 0.500000 0.555840
O O6 0.750000 0.250000 0.500000
O O7 0.811591 0.241897 0.619201
O O8 0.250047 0.500000 0.786690
O O9 0.185049 0.702637 0.810317
O O10 0.416944 0.740856 0.880460
O O11 0.343941 0.500000 0.684819
O O12 0.503244 0.742195 0.782053
O O13 0.058802 0.500000 0.963185
O O14 0.205075 0.245513 0.053640
O O15 0.000000 0.331715 0.000000
O O16 0.854852 0.500000 0.150649
#
# Coordination Sequence:
#
# PCOD9224616 Si02
#       6
#     8   8   8   8   8   8
#     4  11  24  41  60  84 117 155 193 236 289 345
#     4  11  24  42  65  91 118 150 191 238 287 341
#     4  10  20  35  58  87 117 152 195 240 288 342
#     4  12  25  40  60  86 118 155 194 237 289 346
#     4   9  17  31  54  84 117 152 193 240 288 338
#     4  10  20  36  59  86 118 154 195 242 289 341
#
# _framework density 9.8765429999999999
#
# number of rings (size 3 to 8) (size 9 to 14) (size 15 to 20)
#    0.000    1.500    0.000    5.500    0.000   11.333 
#    0.000    0.833    0.000    0.000    0.000    0.000 
#    0.000    0.000    0.000    0.000    0.000    0.000 
#
# Total GULP energy -134249.459096 kJ/mol
# GULP energy per Si atom -5593.727462 kJ/mol
# Density = 0.985406 g / cm^3
# Si number density = 9.876543 Si / 1000 Ang^3
#
#
#
# Elastic Constant Matrix: (Units=GPa)
#
#
# Indices 1 2 3 4 5 6 
#
# 1 39.7850 28.2670 -12.3742 0.0000 23.8796 0.0000
# 2 28.2670 142.7960 25.3297 0.0000 23.8688 0.0001
# 3 -12.3742 25.3297 59.2382 0.0001 20.3319 0.0000
# 4 0.0000 0.0000 0.0001 36.5823 0.0000 -0.3090
# 5 23.8796 23.8688 20.3319 0.0000 23.6192 0.0000
# 6 0.0000 0.0001 0.0000 -0.3090 0.0000 31.8113
#
#
#
# Elastic Compliance Matrix: (Units=1/GPa)
#
#
# Indices 1 2 3 4 5 6 
#
# 1 -0.091999 0.006160 -0.073294 0.000000 0.149882 0.000000
# 2 0.006160 0.008053 0.003937 0.000000 -0.017755 0.000000
# 3 -0.073294 0.003937 -0.034321 0.000000 0.099668 0.000000
# 4 0.000000 0.000000 0.000000 0.027338 0.000000 0.000266
# 5 0.149882 -0.017755 0.099668 0.000000 -0.177050 0.000000
# 6 0.000000 0.000000 0.000000 0.000266 0.000000 0.031438
#
#
# Mechanical properties :
#
#
# Convention : Reuss Voigt Hill
#
# Bulk Modulus (GPa) = -4.08727 36.02937 15.97105
# Shear Modulus (GPa) = -26.08239 31.77566 2.84664
#
# Velocity S-wave (km/s) = -3.63770 4.01514 1.20176
# Velocity P-wave (km/s) = 4.44044 6.30671 3.16679
#
# Compressibility (1/GPa) = -0.24466224
#
# Stress axis : x y z
#
# Youngs Moduli (GPa) = -10.86967 124.17613 -29.13663
#
# Poissons Ratio (x) = -0.76487 -2.13555
# Poissons Ratio (y) = 0.06695 0.11471
# Poissons Ratio (z) = -0.79668 -0.48889
#
# Static dielectric constant tensor:
#      x y z
#    x 1.674510 0.000000 0.009490 
#    y 0.000000 1.656480 0.000000 
#    z 0.009490 0.000000 1.685220 
# 
# From -- ./inp_files/274004.got.cif
#   From: 2010.05.17/outbox.ucp.g08.bks.cvg/sg12_138_cif.got.tgz:274004.got - 2010.06.11 11:47:21.
