data_PCOD9224184
_publ_section_title
;
Structure prediction by ZEFSAII (Michael W. Deem and Ramdas Pophale) SiO2 
 PCOD9224184
Probable space group: C 2/M
;
_chemical_formula_sum "Si O2"
_cell_formula_units_Z 32
_cell_length_a 15.000000
_cell_length_b 27.000000
_cell_length_c 15.000000
_cell_angle_alpha 90.000000
_cell_angle_beta 40.000000
_cell_angle_gamma 90.000000
_cell_volume 3904.934729
_symmetry_space_group_name_H-M "C 2/M"
_symmetry_group_IT_number 12
_symmetry_cell_setting 'monoclinic'
loop_
_space_group_symop_operation_xyz
x,y,z
-x,y,-z
-x,-y,-z
x,-y,z
1/2+x,1/2+y,z
1/2-x,1/2+y,-z
1/2-x,1/2-y,-z
1/2+x,1/2-y,z
loop_
_atom_site_type_symbol
_atom_site_label
_atom_site_fract_x
_atom_site_fract_y
_atom_site_fract_z
Si Si1 0.161932 0.760634 0.231559
Si Si2 0.056667 0.349982 0.357269
Si Si3 0.538858 0.443400 0.121232
Si Si4 0.529564 0.651947 0.219446
Si Si5 0.443719 0.271520 0.944874
Si Si6 0.221340 0.669542 0.495866
Si Si7 0.227040 0.058122 0.800593
Si Si8 0.229644 0.732862 0.654618
O O1 0.111563 0.702782 0.274602
O O2 0.072814 0.805876 0.258812
O O3 0.197109 0.772493 0.307009
O O4 0.303239 0.758711 0.065356
O O5 0.163339 0.396133 0.282044
O O6 0.000000 0.340074 0.500000
O O7 0.916597 0.362054 0.410434
O O8 0.537469 0.500000 0.154364
O O9 0.576793 0.404476 0.169930
O O10 0.389376 0.433758 0.187348
O O11 0.647111 0.439962 0.956396
O O12 0.576992 0.677923 0.091494
O O13 0.363953 0.647399 0.352583
O O14 0.567339 0.244012 0.797906
O O15 0.500000 0.282366 0.000000
O O16 0.240025 0.686347 0.582811
O O17 0.208109 0.720391 0.447405
O O18 0.277527 0.000000 0.751855
#
# Coordination Sequence:
#
# PCOD9224184 Si02
#       8
#     8   8   8   8   8   8   8   8
#     4  11  21  31  48  76 101 136 175 212 252 310
#     4  12  21  31  48  73 107 137 171 206 254 312
#     4   9  19  36  55  76  99 130 175 220 264 307
#     4  11  21  31  51  73 101 134 174 211 260 307
#     4   9  19  30  46  69 101 135 165 209 254 305
#     4  10  20  32  46  69 100 142 168 203 251 311
#     4   9  20  36  55  75 100 135 174 216 262 311
#     4   9  18  34  47  65 105 138 172 203 250 304
#
# _framework density 8.1947589999999995
#
# number of rings (size 3 to 8) (size 9 to 14) (size 15 to 20)
#    0.000    2.000    1.250    4.875    5.250    1.250 
#    0.000    0.625    0.000    0.000    0.000    2.625 
#    0.000    6.500    0.000    0.000    0.000    0.000 
#
# Total GULP energy -178196.567687 kJ/mol
# GULP energy per Si atom -5568.642740 kJ/mol
# Density = 0.817611 g / cm^3
# Si number density = 8.194759 Si / 1000 Ang^3
#
#
#
# Elastic Constant Matrix: (Units=GPa)
#
#
# Indices 1 2 3 4 5 6 
#
# 1 50.4888 38.4211 29.5021 0.0000 -6.6985 0.0000
# 2 38.4211 107.4849 35.2424 0.0000 -3.7086 0.0000
# 3 29.5021 35.2424 48.3507 0.0000 -5.1584 0.0000
# 4 0.0000 0.0000 0.0000 10.2520 0.0000 -1.8537
# 5 -6.6985 -3.7086 -5.1584 0.0000 23.5154 0.0000
# 6 0.0000 0.0000 0.0000 -1.8537 0.0000 27.5081
#
#
#
# Elastic Compliance Matrix: (Units=1/GPa)
#
#
# Indices 1 2 3 4 5 6 
#
# 1 0.035166 -0.007277 -0.015572 0.000000 0.005454 0.000000
# 2 -0.007277 0.013731 -0.005692 0.000000 -0.001156 0.000000
# 3 -0.015572 -0.005692 0.034573 0.000000 0.002251 0.000000
# 4 0.000000 0.000000 0.000000 0.098745 0.000000 0.006654
# 5 0.005454 -0.001156 0.002251 0.000000 0.044390 0.000000
# 6 0.000000 0.000000 0.000000 0.006654 0.000000 0.036801
#
#
# Mechanical properties :
#
#
# Convention : Reuss Voigt Hill
#
# Bulk Modulus (GPa) = 37.89372 45.85063 41.87218
# Shear Modulus (GPa) = 15.18447 19.13233 17.15840
#
# Velocity S-wave (km/s) = 3.04711 3.42036 3.23911
# Velocity P-wave (km/s) = 5.96244 6.60566 6.29228
#
# Compressibility (1/GPa) = 0.02638959
#
# Stress axis : x y z
#
# Youngs Moduli (GPa) = 28.43628 72.82766 28.92469
#
# Poissons Ratio (x) = 0.52993 0.45041
# Poissons Ratio (y) = 0.20692 0.16463
# Poissons Ratio (z) = 0.44280 0.41452
#
# Static dielectric constant tensor:
#      x y z
#    x 1.605920 0.000000 -0.030900 
#    y 0.000000 1.567640 0.000000 
#    z -0.030900 0.000000 1.582360 
# 
# From -- ./inp_files/218918.got.cif
#   From: 2010.05.17/outbox.ucp.g08.bks.cvg/sg12_110_cif.got.tgz:218918.got - 2010.06.11 11:47:21.
