data_PCOD9224672
_publ_section_title
;
Structure prediction by ZEFSAII (Michael W. Deem and Ramdas Pophale) SiO2 
 PCOD9224672
Probable space group: C 2/M
;
_chemical_formula_sum "Si O2"
_cell_formula_units_Z 28
_cell_length_a 21.000000
_cell_length_b 9.000000
_cell_length_c 30.000000
_cell_angle_alpha 90.000000
_cell_angle_beta 150.000000
_cell_angle_gamma 90.000000
_cell_volume 2835.000000
_symmetry_space_group_name_H-M "C 2/M"
_symmetry_group_IT_number 12
_symmetry_cell_setting 'monoclinic'
loop_
_space_group_symop_operation_xyz
x,y,z
-x,y,-z
-x,-y,-z
x,-y,z
1/2+x,1/2+y,z
1/2-x,1/2+y,-z
1/2-x,1/2-y,-z
1/2+x,1/2-y,z
loop_
_atom_site_type_symbol
_atom_site_label
_atom_site_fract_x
_atom_site_fract_y
_atom_site_fract_z
Si Si1 0.931079 0.320863 0.639501
Si Si2 0.506420 0.321137 0.590305
Si Si3 0.057363 0.176854 0.210523
Si Si4 0.147168 0.322892 0.094573
Si Si5 0.225597 0.820277 0.234040
Si Si6 0.625660 0.679389 0.827011
Si Si7 0.734330 0.177713 0.585739
O O1 0.924084 0.500000 0.631341
O O2 0.806015 0.252907 0.587180
O O3 0.961464 0.244340 0.610953
O O4 0.042605 0.268695 0.740638
O O5 0.507864 0.500000 0.591442
O O6 0.646604 0.253507 0.669048
O O7 0.402020 0.255971 0.492952
O O8 0.106861 0.231282 0.192918
O O9 0.172119 0.201620 0.315540
O O10 0.928775 0.227033 0.157753
O O11 0.043701 0.000000 0.196990
O O12 0.156129 0.500000 0.109459
O O13 0.205751 0.235401 0.171774
O O14 0.229282 0.295885 0.099599
O O15 0.000000 0.282963 0.000000
O O16 0.237139 0.000000 0.242221
O O17 0.600240 0.500000 0.806864
O O18 0.721279 0.000000 0.571239
#
# Coordination Sequence:
#
# PCOD9224672 Si02
#       7
#     8   8   8   8   8   8   8
#     4  11  20  32  52  81 113 147 191 240 286 330
#     4  12  23  35  51  77 114 152 192 237 288 337
#     4   8  18  36  58  81 110 153 195 232 277 335
#     4  10  21  38  62  90 117 146 184 231 285 344
#     4  11  22  38  59  84 113 147 191 238 287 338
#     4   9  17  35  60  82 111 152 192 227 276 341
#     4  10  20  36  55  78 110 153 198 236 278 330
#
# _framework density 9.8765429999999999
#
# number of rings (size 3 to 8) (size 9 to 14) (size 15 to 20)
#    0.000    1.857    1.429    4.714    0.000    0.857 
#    0.000   10.714    0.000    0.000    0.000    0.000 
#    0.000    0.000    0.000    0.000    0.000    0.000 
#
# Total GULP energy -156287.258588 kJ/mol
# GULP energy per Si atom -5581.687807 kJ/mol
# Density = 0.985406 g / cm^3
# Si number density = 9.876543 Si / 1000 Ang^3
#
#
#
# Elastic Constant Matrix: (Units=GPa)
#
#
# Indices 1 2 3 4 5 6 
#
# 1 120.7491 14.9088 20.8009 -0.0001 29.6476 0.0000
# 2 14.9088 91.6260 17.9266 0.0000 12.1702 0.0002
# 3 20.8009 17.9266 45.3187 0.0003 37.4949 0.0001
# 4 -0.0001 0.0000 0.0003 20.9753 0.0001 2.9999
# 5 29.6476 12.1702 37.4949 0.0001 28.7112 0.0000
# 6 0.0000 0.0002 0.0001 2.9999 0.0000 22.7867
#
#
#
# Elastic Compliance Matrix: (Units=1/GPa)
#
#
# Indices 1 2 3 4 5 6 
#
# 1 0.005634 0.000492 -0.027405 0.000000 0.029762 0.000000
# 2 0.000492 0.011458 0.003972 0.000000 -0.010551 0.000000
# 3 -0.027405 0.003972 -0.137346 0.000001 0.205979 0.000000
# 4 0.000000 0.000000 0.000001 0.048590 -0.000002 -0.006397
# 5 0.029762 -0.010551 0.205979 -0.000002 -0.260425 0.000000
# 6 0.000000 0.000000 0.000000 -0.006397 0.000000 0.044727
#
#
# Mechanical properties :
#
#
# Convention : Reuss Voigt Hill
#
# Bulk Modulus (GPa) = -6.01918 40.55181 17.26632
# Shear Modulus (GPa) = -16.84315 28.09848 5.62767
#
# Velocity S-wave (km/s) = -2.92324 3.77568 1.68973
# Velocity P-wave (km/s) = 3.80100 6.29139 3.54499
#
# Compressibility (1/GPa) = -0.16613570
#
# Stress axis : x y z
#
# Youngs Moduli (GPa) = 177.48573 87.27237 -7.28091
#
# Poissons Ratio (x) = -0.04292 -0.19953
# Poissons Ratio (y) = -0.08728 0.02892
# Poissons Ratio (z) = 4.86394 -0.34660
#
# Static dielectric constant tensor:
#      x y z
#    x 1.741810 0.000000 0.029810 
#    y 0.000000 1.652390 0.000000 
#    z 0.029810 0.000000 1.709500 
# 
# From -- ./inp_files/281671.got.cif
#   From: 2010.05.17/outbox.ucp.g08.bks.cvg/sg12_141_cif.got.tgz:281671.got - 2010.06.11 11:47:21.
