data_PCOD9224607
_publ_section_title
;
Structure prediction by ZEFSAII (Michael W. Deem and Ramdas Pophale) SiO2 
 PCOD9224607
Probable space group: C 2/M
;
_chemical_formula_sum "Si O2"
_cell_formula_units_Z 32
_cell_length_a 15.000000
_cell_length_b 9.000000
_cell_length_c 30.000000
_cell_angle_alpha 90.000000
_cell_angle_beta 50.000000
_cell_angle_gamma 90.000000
_cell_volume 3102.479995
_symmetry_space_group_name_H-M "C 2/M"
_symmetry_group_IT_number 12
_symmetry_cell_setting 'monoclinic'
loop_
_space_group_symop_operation_xyz
x,y,z
-x,y,-z
-x,-y,-z
x,-y,z
1/2+x,1/2+y,z
1/2-x,1/2+y,-z
1/2-x,1/2-y,-z
1/2+x,1/2-y,z
loop_
_atom_site_type_symbol
_atom_site_label
_atom_site_fract_x
_atom_site_fract_y
_atom_site_fract_z
Si Si1 0.304407 0.325739 0.888973
Si Si2 0.494799 0.176121 0.691253
Si Si3 0.987626 0.321095 0.139251
Si Si4 0.246524 0.675406 0.628805
Si Si5 0.586755 0.818927 0.011734
Si Si6 0.026784 0.824254 0.396129
Si Si7 0.832894 0.322437 0.510849
Si Si8 0.263920 0.674617 0.800137
O O1 0.326500 0.500000 0.889793
O O2 0.424901 0.239452 0.852230
O O3 0.214470 0.268863 0.955229
O O4 0.246562 0.313979 0.858999
O O5 0.611981 0.208172 0.681338
O O6 0.510542 0.252650 0.638210
O O7 0.378372 0.238629 0.749977
O O8 0.485833 0.000000 0.688162
O O9 0.987032 0.500000 0.139638
O O10 0.854179 0.272346 0.185193
O O11 0.040628 0.270567 0.074503
O O12 0.254509 0.500000 0.613900
O O13 0.335853 0.697894 0.640273
O O14 0.289286 0.769275 0.572848
O O15 0.588659 0.000000 0.011524
O O16 0.500000 0.774304 0.000000
O O17 0.958520 0.743883 0.457899
O O18 0.001324 0.000000 0.404846
O O19 0.832327 0.500000 0.507712
O O20 0.750000 0.250000 0.500000
O O21 0.281441 0.500000 0.784066
#
# Coordination Sequence:
#
# PCOD9224607 Si02
#       8
#     8   8   8   8   8   8   8   8
#     4  10  20  35  58  86 115 149 191 240 288 345
#     4  11  24  42  63  86 116 155 199 250 296 344
#     4  10  20  35  58  85 114 151 191 236 291 351
#     4  10  23  42  63  89 122 157 195 242 299 354
#     4   9  15  30  57  84 112 150 192 230 282 349
#     4  11  23  41  65  92 123 160 197 241 296 355
#     4  12  23  37  62  94 127 162 198 241 295 351
#     4  10  22  40  59  80 111 154 199 239 287 351
#
# _framework density 10.314329000000001
#
# number of rings (size 3 to 8) (size 9 to 14) (size 15 to 20)
#    0.000    1.625    2.500    2.625    0.000    5.000 
#    0.000    3.750    0.000    0.750    0.000    0.000 
#    0.000    0.000    0.000    0.000    0.000    0.000 
#
# Total GULP energy -178776.742748 kJ/mol
# GULP energy per Si atom -5586.773211 kJ/mol
# Density = 1.029085 g / cm^3
# Si number density = 10.314329 Si / 1000 Ang^3
#
#
#
# Elastic Constant Matrix: (Units=GPa)
#
#
# Indices 1 2 3 4 5 6 
#
# 1 97.2348 26.8874 4.5944 0.0000 -39.4837 0.0000
# 2 26.8874 43.5991 14.9134 0.0000 -19.9089 0.0001
# 3 4.5944 14.9134 50.4235 0.0000 -32.3591 0.0000
# 4 0.0000 0.0000 0.0000 26.9940 0.0000 -3.2164
# 5 -39.4837 -19.9089 -32.3591 0.0000 35.2038 0.0000
# 6 0.0000 0.0001 0.0000 -3.2164 0.0000 23.7038
#
#
#
# Elastic Compliance Matrix: (Units=1/GPa)
#
#
# Indices 1 2 3 4 5 6 
#
# 1 0.229990 0.004583 0.353298 -0.000001 0.585292 -0.000002
# 2 0.004583 0.031552 0.012193 0.000000 0.034191 0.000000
# 3 0.353298 0.012193 0.591918 -0.000001 0.947232 -0.000002
# 4 -0.000001 0.000000 -0.000001 0.037654 -0.000002 0.005109
# 5 0.585292 0.034191 0.947232 -0.000002 1.574879 -0.000004
# 6 -0.000002 0.000000 -0.000002 0.005109 -0.000004 0.042881
#
#
# Mechanical properties :
#
#
# Convention : Reuss Voigt Hill
#
# Bulk Modulus (GPa) = 0.62751 31.56087 16.09419
# Shear Modulus (GPa) = 2.17398 26.83780 14.50589
#
# Velocity S-wave (km/s) = 1.02769 3.61085 2.65465
# Velocity P-wave (km/s) = 1.30884 5.71988 4.14910
#
# Compressibility (1/GPa) = 1.59360757
#
# Stress axis : x y z
#
# Youngs Moduli (GPa) = 4.34801 31.69331 1.68942
#
# Poissons Ratio (x) = -0.14525 -0.59687
# Poissons Ratio (y) = -0.01993 -0.02060
# Poissons Ratio (z) = -1.53614 -0.38642
#
# Static dielectric constant tensor:
#      x y z
#    x 1.766040 0.000000 -0.031360 
#    y 0.000000 1.683820 0.000000 
#    z -0.031360 0.000000 1.741430 
# 
# From -- ./inp_files/375390.got.cif
#   From: 2010.05.17/outbox.ucp.g08.bks.cvg/sg12_188_cif.got.tgz:375390.got - 2010.06.11 11:47:21.
