data_PCOD9224544
_publ_section_title
;
Structure prediction by ZEFSAII (Michael W. Deem and Ramdas Pophale) SiO2 
 PCOD9224544
Probable space group: C 2/M
;
_chemical_formula_sum "Si O2"
_cell_formula_units_Z 28
_cell_length_a 21.000000
_cell_length_b 9.000000
_cell_length_c 30.000000
_cell_angle_alpha 90.000000
_cell_angle_beta 30.000000
_cell_angle_gamma 90.000000
_cell_volume 2835.000000
_symmetry_space_group_name_H-M "C 2/M"
_symmetry_group_IT_number 12
_symmetry_cell_setting 'monoclinic'
loop_
_space_group_symop_operation_xyz
x,y,z
-x,y,-z
-x,-y,-z
x,-y,z
1/2+x,1/2+y,z
1/2-x,1/2+y,-z
1/2-x,1/2-y,-z
1/2+x,1/2-y,z
loop_
_atom_site_type_symbol
_atom_site_label
_atom_site_fract_x
_atom_site_fract_y
_atom_site_fract_z
Si Si1 0.363476 0.170097 0.061163
Si Si2 0.368559 0.170138 0.951191
Si Si3 0.563224 0.171013 0.511012
Si Si4 0.827657 0.674012 0.343841
Si Si5 0.887087 0.175698 0.684963
Si Si6 0.855924 0.674257 0.221622
Si Si7 0.586625 0.822847 0.239792
O O1 0.230905 0.258087 0.147857
O O2 0.347873 0.000000 0.087613
O O3 0.500000 0.222534 0.000000
O O4 0.368090 0.164498 0.004875
O O5 0.504848 0.246272 0.860541
O O6 0.368730 0.000000 0.933490
O O7 0.250000 0.250000 0.000000
O O8 0.500000 0.174912 0.500000
O O9 0.710295 0.220199 0.427951
O O10 0.481515 0.288970 0.587797
O O11 0.547879 0.000000 0.535868
O O12 0.809109 0.500000 0.368597
O O13 0.815333 0.677366 0.297548
O O14 0.969228 0.717889 0.277013
O O15 0.748233 0.229887 0.750664
O O16 0.943136 0.262316 0.693077
O O17 0.879478 0.000000 0.698566
O O18 0.874284 0.500000 0.198154
O O19 0.595569 0.000000 0.232252
#
# Coordination Sequence:
#
# PCOD9224544 Si02
#       7
#     8   8   8   8   8   8   8
#     4  10  21  39  62  85 116 160 208 247 290 355
#     4  10  20  35  56  84 116 149 191 243 293 345
#     4  11  23  39  61  92 125 151 188 248 303 346
#     4  10  21  39  62  86 117 160 202 241 292 360
#     4  11  22  39  65  88 115 156 200 242 289 357
#     4   9  18  35  60  85 109 148 200 242 281 342
#     4  11  24  40  60  89 124 156 196 251 305 349
#
# _framework density 9.8765429999999999
#
# number of rings (size 3 to 8) (size 9 to 14) (size 15 to 20)
#    0.000    1.714    1.429    3.000    0.000    6.571 
#    0.000    3.571    0.000    0.000    0.000    0.000 
#    0.000    0.000    0.000    0.000    0.000    0.000 
#
# Total GULP energy -155918.044632 kJ/mol
# GULP energy per Si atom -5568.501594 kJ/mol
# Density = 0.985406 g / cm^3
# Si number density = 9.876543 Si / 1000 Ang^3
#
#
#
# Elastic Constant Matrix: (Units=GPa)
#
#
# Indices 1 2 3 4 5 6 
#
# 1 114.3453 21.6523 11.9309 -0.0001 -33.3597 0.0003
# 2 21.6523 34.3607 15.4713 0.0000 -15.3177 0.0009
# 3 11.9309 15.4713 55.4983 -0.0004 -24.9180 0.0001
# 4 -0.0001 0.0000 -0.0004 28.3853 0.0000 -6.9975
# 5 -33.3597 -15.3177 -24.9180 0.0000 42.6666 0.0000
# 6 0.0003 0.0009 0.0001 -6.9975 0.0000 30.6003
#
#
#
# Elastic Compliance Matrix: (Units=1/GPa)
#
#
# Indices 1 2 3 4 5 6 
#
# 1 0.012104 -0.004733 0.002987 0.000000 0.009509 0.000000
# 2 -0.004733 0.037794 -0.006896 0.000000 0.005840 -0.000001
# 3 0.002987 -0.006896 0.026072 0.000000 0.015086 0.000000
# 4 0.000000 0.000000 0.000000 0.037334 0.000000 0.008537
# 5 0.009509 0.005840 0.015086 0.000000 0.041780 0.000000
# 6 0.000000 -0.000001 0.000000 0.008537 0.000000 0.034632
#
#
# Mechanical properties :
#
#
# Convention : Reuss Voigt Hill
#
# Bulk Modulus (GPa) = 17.03998 33.59036 25.31517
# Shear Modulus (GPa) = 22.06885 30.67376 26.37131
#
# Velocity S-wave (km/s) = 3.34613 3.94491 3.65779
# Velocity P-wave (km/s) = 4.85531 6.14750 5.53922
#
# Compressibility (1/GPa) = 0.05868551
#
# Stress axis : x y z
#
# Youngs Moduli (GPa) = 82.61541 26.45900 38.35474
#
# Poissons Ratio (x) = 0.12524 -0.11456
# Poissons Ratio (y) = 0.39104 0.26450
# Poissons Ratio (z) = -0.24675 0.18247
#
# Static dielectric constant tensor:
#      x y z
#    x 1.688130 0.000000 0.044340 
#    y 0.000000 1.679440 0.000000 
#    z 0.044340 0.000000 1.845330 
# 
# From -- ./inp_files/380656.got.cif
#   From: 2010.05.17/outbox.ucp.g08.bks.cvg/sg12_191_cif.got.tgz:380656.got - 2010.06.11 11:47:21.
