data_PCOD9224529
_publ_section_title
;
Structure prediction by ZEFSAII (Michael W. Deem and Ramdas Pophale) SiO2 
 PCOD9224529
Probable space group: C 2/M
;
_chemical_formula_sum "Si O2"
_cell_formula_units_Z 32
_cell_length_a 18.000000
_cell_length_b 15.000000
_cell_length_c 24.000000
_cell_angle_alpha 90.000000
_cell_angle_beta 150.000000
_cell_angle_gamma 90.000000
_cell_volume 3240.000000
_symmetry_space_group_name_H-M "C 2/M"
_symmetry_group_IT_number 12
_symmetry_cell_setting 'monoclinic'
loop_
_space_group_symop_operation_xyz
x,y,z
-x,y,-z
-x,-y,-z
x,-y,z
1/2+x,1/2+y,z
1/2-x,1/2+y,-z
1/2-x,1/2-y,-z
1/2+x,1/2-y,z
loop_
_atom_site_type_symbol
_atom_site_label
_atom_site_fract_x
_atom_site_fract_y
_atom_site_fract_z
Si Si1 0.436132 0.603020 0.626710
Si Si2 0.286250 0.893823 0.048905
Si Si3 0.157456 0.234160 0.226057
Si Si4 0.488093 0.604494 0.195886
Si Si5 0.388346 0.102372 0.611788
Si Si6 0.868501 0.258798 0.268950
Si Si7 0.125216 0.397967 0.267414
Si Si8 0.608598 0.705608 0.025115
O O1 0.446206 0.500000 0.614782
O O2 0.493929 0.610909 0.727081
O O3 0.262548 0.627102 0.517467
O O4 0.534211 0.671633 0.655724
O O5 0.454394 0.863705 0.154110
O O6 0.203040 0.862249 0.049957
O O7 0.296288 0.000000 0.055693
O O8 0.177055 0.864586 0.928770
O O9 0.104938 0.163750 0.237975
O O10 0.287204 0.201278 0.269960
O O11 0.211692 0.325830 0.288427
O O12 0.010791 0.252172 0.092657
O O13 0.503475 0.500000 0.189886
O O14 0.520614 0.169602 0.685755
O O15 0.340821 0.104342 0.645439
O O16 0.431455 0.000000 0.626968
O O17 0.731473 0.237767 0.137993
O O18 0.136336 0.500000 0.254933
O O19 0.500000 0.660509 0.000000
#
# Coordination Sequence:
#
# PCOD9224529 Si02
#       8
#     8   8   8   8   8   8   8   8
#     4  10  22  39  59  80 107 144 188 230 265 316
#     4   9  17  30  52  80 105 141 183 222 271 320
#     4  10  22  35  53  82 117 148 173 220 277 326
#     4   9  19  35  55  80 109 141 181 224 271 323
#     4  10  21  39  61  83 105 139 187 233 272 315
#     4  11  21  36  57  81 111 147 183 220 272 328
#     4  10  20  35  56  80 108 142 187 228 265 317
#     4   9  19  32  49  80 115 145 175 215 273 329
#
# _framework density 9.8765429999999999
#
# number of rings (size 3 to 8) (size 9 to 14) (size 15 to 20)
#    0.000    2.250    1.250    1.125    1.750    2.250 
#    0.000    5.000    0.000    6.750    0.000    0.000 
#    0.000    0.000    0.000    0.000    0.000    0.000 
#
# Total GULP energy -178296.811355 kJ/mol
# GULP energy per Si atom -5571.775355 kJ/mol
# Density = 0.985406 g / cm^3
# Si number density = 9.876543 Si / 1000 Ang^3
#
#
#
# Elastic Constant Matrix: (Units=GPa)
#
#
# Indices 1 2 3 4 5 6 
#
# 1 19.8580 0.2978 -0.5560 -0.0005 4.9837 -0.0013
# 2 0.2978 25.3167 7.4442 0.0007 6.7434 0.0001
# 3 -0.5560 7.4442 46.1801 0.0020 2.4696 0.0020
# 4 -0.0005 0.0007 0.0020 12.6941 0.0012 -8.7801
# 5 4.9837 6.7434 2.4696 0.0012 11.1965 0.0011
# 6 -0.0013 0.0001 0.0020 -8.7801 0.0011 -8.1309
#
#
#
# Elastic Compliance Matrix: (Units=1/GPa)
#
#
# Indices 1 2 3 4 5 6 
#
# 1 0.057879 0.007032 0.001181 -0.000003 -0.030259 -0.000010
# 2 0.007032 0.049688 -0.006231 -0.000002 -0.031682 -0.000005
# 3 0.001181 -0.006231 0.022769 0.000000 -0.001795 0.000005
# 4 -0.000003 -0.000002 0.000000 0.045096 0.000002 -0.048696
# 5 -0.030259 -0.031682 -0.001795 0.000002 0.122260 0.000018
# 6 -0.000010 -0.000005 0.000005 -0.048696 0.000018 -0.070404
#
#
# Mechanical properties :
#
#
# Convention : Reuss Voigt Hill
#
# Bulk Modulus (GPa) = 7.44598 11.74742 9.59670
# Shear Modulus (GPa) = 18.65049 8.76318 13.70683
#
# Velocity S-wave (km/s) = 3.07609 2.10855 2.63707
# Velocity P-wave (km/s) = 4.04897 3.44790 3.76046
#
# Compressibility (1/GPa) = 0.13430073
#
# Stress axis : x y z
#
# Youngs Moduli (GPa) = 17.27737 20.12566 43.91938
#
# Poissons Ratio (x) = -0.14152 -0.05189
# Poissons Ratio (y) = -0.12149 0.27365
# Poissons Ratio (z) = -0.02041 0.12540
#
# Static dielectric constant tensor:
#      x y z
#    x 1.688430 0.000000 -0.037430 
#    y 0.000000 1.691990 0.000000 
#    z -0.037430 0.000000 1.647260 
# 
# From -- ./inp_files/183809.got.cif
#   From: 2010.05.17/outbox.ucp.g08.bks.cvg/sg12_92_cif.got.tgz:183809.got - 2010.06.11 11:47:21.
