data_PCOD9224271
_publ_section_title
;
Structure prediction by ZEFSAII (Michael W. Deem and Ramdas Pophale) SiO2 
 PCOD9224271
Probable space group: C 2/M
;
_chemical_formula_sum "Si O2"
_cell_formula_units_Z 28
_cell_length_a 9.000000
_cell_length_b 24.000000
_cell_length_c 15.000000
_cell_angle_alpha 90.000000
_cell_angle_beta 60.000000
_cell_angle_gamma 90.000000
_cell_volume 2805.922308
_symmetry_space_group_name_H-M "C 2/M"
_symmetry_group_IT_number 12
_symmetry_cell_setting 'monoclinic'
loop_
_space_group_symop_operation_xyz
x,y,z
-x,y,-z
-x,-y,-z
x,-y,z
1/2+x,1/2+y,z
1/2-x,1/2+y,-z
1/2-x,1/2-y,-z
1/2+x,1/2-y,z
loop_
_atom_site_type_symbol
_atom_site_label
_atom_site_fract_x
_atom_site_fract_y
_atom_site_fract_z
Si Si1 0.521700 0.714008 0.094174
Si Si2 0.615876 0.323200 0.322913
Si Si3 0.366295 0.500000 0.400880
Si Si4 0.851182 0.672004 0.096450
Si Si5 0.825250 0.307479 0.711386
Si Si6 0.752672 0.880789 0.425695
Si Si7 0.253715 0.500000 0.645142
Si Si8 0.884930 0.382132 0.342946
O O1 0.708727 0.700949 0.075408
O O2 0.464879 0.778736 0.107030
O O3 0.371697 0.688982 0.199459
O O4 0.500000 0.693131 0.000000
O O5 0.728029 0.351460 0.209545
O O6 0.609704 0.256635 0.305826
O O7 0.438218 0.353855 0.391219
O O8 0.736028 0.337003 0.369532
O O9 0.295525 0.443255 0.377889
O O10 0.310142 0.500000 0.523020
O O11 0.573017 0.500000 0.347953
O O12 0.000000 0.638442 0.000000
O O13 0.826472 0.334118 0.613893
O O14 0.942569 0.349426 0.733089
O O15 0.634169 0.891472 0.546071
O O16 0.151339 0.442225 0.689117
#
# Coordination Sequence:
#
# PCOD9224271 Si02
#       8
#     8   8   4   8   8   8   4   8
#     4  10  20  34  54  77 110 146 184 228 273 324
#     4  11  22  35  55  82 117 150 184 219 274 343
#     4   9  18  35  61  73 102 139 197 248 260 311
#     4  10  20  33  54  79 109 144 187 227 271 326
#     4  11  24  35  51  85 120 146 181 221 279 344
#     4  11  21  39  54  82 109 151 191 227 277 313
#     4   9  18  37  55  81  96 141 202 237 272 299
#     4  11  23  35  59  77 114 151 187 234 265 327
#
# _framework density 9.9788940000000004
#
# number of rings (size 3 to 8) (size 9 to 14) (size 15 to 20)
#    0.000    1.571    2.857    3.429    8.000    4.000 
#    0.000    2.143    0.000    0.000    0.000    6.000 
#    0.000    0.000    0.000    0.000    0.000    0.000 
#
# Total GULP energy -155925.720245 kJ/mol
# GULP energy per Si atom -5568.775723 kJ/mol
# Density = 0.995618 g / cm^3
# Si number density = 9.978894 Si / 1000 Ang^3
#
#
#
# Elastic Constant Matrix: (Units=GPa)
#
#
# Indices 1 2 3 4 5 6 
#
# 1 57.5883 13.7366 7.1012 0.0000 -25.9231 0.0000
# 2 13.7366 94.7466 9.1179 0.0000 -10.8686 0.0000
# 3 7.1012 9.1179 61.8855 0.0000 -10.3078 0.0000
# 4 0.0000 0.0000 0.0000 -0.3158 0.0000 -12.2801
# 5 -25.9231 -10.8686 -10.3078 0.0000 35.9953 0.0000
# 6 0.0000 0.0000 0.0000 -12.2801 0.0000 -4.8864
#
#
#
# Elastic Compliance Matrix: (Units=1/GPa)
#
#
# Indices 1 2 3 4 5 6 
#
# 1 0.025955 -0.001698 0.000315 0.000000 0.018270 0.000000
# 2 -0.001698 0.011118 -0.001142 0.000000 0.001807 0.000000
# 3 0.000315 -0.001142 0.017086 0.000000 0.004775 0.000000
# 4 0.000000 0.000000 0.000000 0.032738 0.000000 -0.082274
# 5 0.018270 0.001807 0.004775 0.000000 0.042852 0.000000
# 6 0.000000 0.000000 0.000000 -0.082274 0.000000 0.002116
#
#
# Mechanical properties :
#
#
# Convention : Reuss Voigt Hill
#
# Bulk Modulus (GPa) = 20.36276 30.45907 25.41092
# Shear Modulus (GPa) = 32.61928 18.44296 25.53112
#
# Velocity S-wave (km/s) = 4.04717 3.04320 3.58055
# Velocity P-wave (km/s) = 5.66256 5.25766 5.46386
#
# Compressibility (1/GPa) = 0.04910926
#
# Stress axis : x y z
#
# Youngs Moduli (GPa) = 38.52860 89.94566 58.52634
#
# Poissons Ratio (x) = 0.15269 -0.01843
# Poissons Ratio (y) = 0.06540 0.06685
# Poissons Ratio (z) = -0.01213 0.10274
#
# Static dielectric constant tensor:
#      x y z
#    x 1.792810 0.000000 0.051490 
#    y 0.000000 1.700080 0.000000 
#    z 0.051490 0.000000 1.828730 
# 
# From -- ./inp_files/198826.got.cif
#   From: 2010.05.17/outbox.ucp.g08.bks.cvg/sg12_100_cif.got.tgz:198826.got - 2010.06.11 11:47:21.
