data_PCOD9224365
_publ_section_title
;
Structure prediction by ZEFSAII (Michael W. Deem and Ramdas Pophale) SiO2 
 PCOD9224365
Probable space group: C 2/M
;
_chemical_formula_sum "Si O2"
_cell_formula_units_Z 24
_cell_length_a 30.000000
_cell_length_b 9.000000
_cell_length_c 18.000000
_cell_angle_alpha 90.000000
_cell_angle_beta 150.000000
_cell_angle_gamma 90.000000
_cell_volume 2430.000000
_symmetry_space_group_name_H-M "C 2/M"
_symmetry_group_IT_number 12
_symmetry_cell_setting 'monoclinic'
loop_
_space_group_symop_operation_xyz
x,y,z
-x,y,-z
-x,-y,-z
x,-y,z
1/2+x,1/2+y,z
1/2-x,1/2+y,-z
1/2-x,1/2-y,-z
1/2+x,1/2-y,z
loop_
_atom_site_type_symbol
_atom_site_label
_atom_site_fract_x
_atom_site_fract_y
_atom_site_fract_z
Si Si1 0.679409 0.329893 0.846678
Si Si2 0.002822 0.667796 0.631331
Si Si3 0.693847 0.831819 0.723268
Si Si4 0.928264 0.166025 0.653263
Si Si5 0.335763 0.323184 0.663968
Si Si6 0.227708 0.669262 0.293043
O O1 0.681050 0.500000 0.866521
O O2 0.579342 0.270691 0.710686
O O3 0.707086 0.291441 0.803678
O O4 0.750000 0.250000 0.000000
O O5 0.034471 0.500000 0.670435
O O6 0.908195 0.679462 0.453059
O O7 0.983061 0.714260 0.687163
O O8 0.760023 0.789551 0.753131
O O9 0.706846 0.000000 0.769162
O O10 0.916673 0.193312 0.723510
O O11 0.827047 0.165580 0.474259
O O12 0.964301 0.000000 0.692032
O O13 0.320287 0.500000 0.652631
O O14 0.250000 0.250000 0.500000
O O15 0.341784 0.232628 0.748152
O O16 0.208814 0.500000 0.242975
#
# Coordination Sequence:
#
# PCOD9224365 Si02
#       6
#     8   8   8   8   8   8
#     4  12  25  40  57  76 102 134 171 214 261 312
#     4  10  20  34  54  79 106 136 172 213 257 306
#     4  10  20  35  55  79 107 137 172 213 257 306
#     4   8  15  26  41  65  98 134 170 207 250 299
#     4   9  15  23  37  61  96 134 169 207 252 300
#     4   9  16  26  42  67  99 134 171 208 251 301
#
# _framework density 9.8765429999999999
#
# number of rings (size 3 to 8) (size 9 to 14) (size 15 to 20)
#    0.000    2.333    0.000    5.000    0.000    8.667 
#    0.000    0.000    0.000    0.000    0.000    1.167 
#    0.000    9.333    0.000    0.000    0.000    0.000 
#
# Total GULP energy -133705.050000 kJ/mol
# GULP energy per Si atom -5571.043750 kJ/mol
# Density = 0.985406 g / cm^3
# Si number density = 9.876543 Si / 1000 Ang^3
#
#
#
# Elastic Constant Matrix: (Units=GPa)
#
#
# Indices 1 2 3 4 5 6 
#
# 1 51.7254 15.2935 3.4853 0.0000 -12.0776 0.0000
# 2 15.2935 95.1658 13.6519 0.0000 -9.3980 0.0000
# 3 3.4853 13.6519 -6.2510 0.0000 -7.3526 0.0000
# 4 0.0000 0.0000 0.0000 14.3316 0.0000 0.6611
# 5 -12.0776 -9.3980 -7.3526 0.0000 -7.4231 0.0000
# 6 0.0000 0.0000 0.0000 0.6611 0.0000 30.8391
#
#
#
# Elastic Compliance Matrix: (Units=1/GPa)
#
#
# Indices 1 2 3 4 5 6 
#
# 1 0.012057 -0.009349 0.027535 0.000000 -0.035054 0.000000
# 2 -0.009349 0.004774 0.033746 0.000000 -0.024258 0.000000
# 3 0.027535 0.033746 -0.194033 0.000000 0.104666 0.000000
# 4 0.000000 0.000000 0.000000 0.069845 0.000000 -0.001497
# 5 -0.035054 -0.024258 0.104666 0.000000 -0.150641 0.000000
# 6 0.000000 0.000000 0.000000 -0.001497 0.000000 0.032458
#
#
# Mechanical properties :
#
#
# Convention : Reuss Voigt Hill
#
# Bulk Modulus (GPa) = -13.63544 22.83351 4.59904
# Shear Modulus (GPa) = -14.13029 14.76350 0.31661
#
# Velocity S-wave (km/s) = -2.67750 2.73683 0.40079
# Velocity P-wave (km/s) = 4.05914 4.64452 1.59609
#
# Compressibility (1/GPa) = -0.07333829
#
# Stress axis : x y z
#
# Youngs Moduli (GPa) = 82.94003 209.47199 -5.15377
#
# Poissons Ratio (x) = 1.95843 0.14191
# Poissons Ratio (y) = 0.77544 0.17392
# Poissons Ratio (z) = -2.28378 -7.06883
#
# Static dielectric constant tensor:
#      x y z
#    x 1.935430 0.000000 -0.353830 
#    y 0.000000 1.679800 0.000000 
#    z -0.353830 0.000000 2.218080 
# 
# From -- ./inp_files/295883.got.cif
#   From: 2010.05.17/outbox.ucp.g08.bks.cvg/sg12_148_cif.got.tgz:295883.got - 2010.06.11 11:47:21.
