data_PCOD9224726
_publ_section_title
;
Structure prediction by ZEFSAII (Michael W. Deem and Ramdas Pophale) SiO2 
 PCOD9224726
Probable space group: C 2/M
;
_chemical_formula_sum "Si O2"
_cell_formula_units_Z 32
_cell_length_a 18.000000
_cell_length_b 9.000000
_cell_length_c 30.000000
_cell_angle_alpha 90.000000
_cell_angle_beta 40.000000
_cell_angle_gamma 90.000000
_cell_volume 3123.947783
_symmetry_space_group_name_H-M "C 2/M"
_symmetry_group_IT_number 12
_symmetry_cell_setting 'monoclinic'
loop_
_space_group_symop_operation_xyz
x,y,z
-x,y,-z
-x,-y,-z
x,-y,z
1/2+x,1/2+y,z
1/2-x,1/2+y,-z
1/2-x,1/2-y,-z
1/2+x,1/2-y,z
loop_
_atom_site_type_symbol
_atom_site_label
_atom_site_fract_x
_atom_site_fract_y
_atom_site_fract_z
Si Si1 0.480756 0.180349 0.293636
Si Si2 0.386829 0.180147 0.174654
Si Si3 0.632863 0.162937 0.059574
Si Si4 0.116991 0.666760 0.963625
Si Si5 0.059670 0.333138 0.425188
Si Si6 0.206180 0.322096 0.690433
Si Si7 0.374803 0.820987 0.437486
Si Si8 0.258749 0.823287 0.836055
O O1 0.399762 0.234247 0.290837
O O2 0.422898 0.217747 0.366903
O O3 0.612470 0.231763 0.232411
O O4 0.485921 0.000000 0.288216
O O5 0.514737 0.231133 0.131975
O O6 0.304730 0.220602 0.253122
O O7 0.333553 0.251394 0.155188
O O8 0.392587 0.000000 0.167847
O O9 0.652358 0.000000 0.070874
O O10 0.750000 0.250000 0.000000
O O11 0.598904 0.148046 0.023585
O O12 0.130527 0.500000 0.937995
O O13 0.223456 0.767193 0.901153
O O14 0.000000 0.738417 0.000000
O O15 0.093566 0.500000 0.394426
O O16 0.172023 0.236418 0.381084
O O17 0.000000 0.344678 0.500000
O O18 0.967995 0.272564 0.431602
O O19 0.202631 0.500000 0.689698
O O20 0.250000 0.750000 0.500000
O O21 0.364810 0.000000 0.445672
O O22 0.253316 0.000000 0.835111
#
# Coordination Sequence:
#
# PCOD9224726 Si02
#       8
#     8   8   8   8   8   8   8   8
#     4   9  20  37  55  81 113 145 180 228 284 324
#     4  10  21  39  58  78 111 152 185 226 287 343
#     4  10  22  38  58  81 111 149 186 232 286 340
#     4  10  20  39  60  79 111 151 186 228 288 343
#     4  10  21  37  57  83 117 152 182 224 285 335
#     4  10  21  37  59  82 108 147 192 229 270 333
#     4  10  20  36  58  82 113 147 182 226 273 324
#     4  11  22  36  60  86 111 145 189 237 279 330
#
# _framework density 10.243449
#
# number of rings (size 3 to 8) (size 9 to 14) (size 15 to 20)
#    0.000    2.000    1.250    1.875    1.750    3.500 
#    0.000    2.500    0.000    0.000    0.000    0.000 
#    0.000    0.000    0.000    0.000    0.000    0.000 
#
# Total GULP energy -178278.638637 kJ/mol
# GULP energy per Si atom -5571.207457 kJ/mol
# Density = 1.022013 g / cm^3
# Si number density = 10.243449 Si / 1000 Ang^3
#
#
#
# Elastic Constant Matrix: (Units=GPa)
#
#
# Indices 1 2 3 4 5 6 
#
# 1 53.2669 7.0605 9.3337 0.0009 -7.0311 0.0007
# 2 7.0605 8.5541 20.9344 0.0017 -4.4896 0.0012
# 3 9.3337 20.9344 98.0606 -0.0004 -16.1800 -0.0003
# 4 0.0009 0.0017 -0.0004 93.0514 -0.0001 45.0349
# 5 -7.0311 -4.4896 -16.1800 -0.0001 30.7200 0.0000
# 6 0.0007 0.0012 -0.0003 45.0349 0.0000 56.0907
#
#
#
# Elastic Compliance Matrix: (Units=1/GPa)
#
#
# Indices 1 2 3 4 5 6 
#
# 1 0.022000 -0.026450 0.004102 0.000000 0.003330 0.000000
# 2 -0.026450 0.278912 -0.056181 -0.000003 0.005118 -0.000003
# 3 0.004102 -0.056181 0.022562 0.000001 0.004611 0.000001
# 4 0.000000 -0.000003 0.000001 0.017577 0.000000 -0.014112
# 5 0.003330 0.005118 0.004611 0.000000 0.036491 0.000000
# 6 0.000000 -0.000003 0.000001 -0.014112 0.000000 0.029159
#
#
# Mechanical properties :
#
#
# Convention : Reuss Voigt Hill
#
# Bulk Modulus (GPa) = 6.00901 26.05986 16.03444
# Shear Modulus (GPa) = 8.07454 44.14262 26.10858
#
# Velocity S-wave (km/s) = 1.98743 4.64688 3.57375
# Velocity P-wave (km/s) = 2.86461 6.44510 4.98724
#
# Compressibility (1/GPa) = 0.16641677
#
# Stress axis : x y z
#
# Youngs Moduli (GPa) = 45.45444 3.58536 44.32240
#
# Poissons Ratio (x) = 0.09483 -0.18181
# Poissons Ratio (y) = 1.20225 2.49008
# Poissons Ratio (z) = -0.18645 0.20143
#
# Static dielectric constant tensor:
#      x y z
#    x 1.538110 0.000000 0.877930 
#    y 0.000000 1.732130 0.000000 
#    z 0.877930 0.000000 -1.710670 
# 
# From -- ./inp_files/377963.got.cif
#   From: 2010.05.17/outbox.ucp.g08.bks.cvg/sg12_189_cif.got.tgz:377963.got - 2010.06.11 11:47:21.
