data_PCOD9224813
_publ_section_title
;
Structure prediction by ZEFSAII (Michael W. Deem and Ramdas Pophale) SiO2 
 PCOD9224813
Probable space group: C 2/M
;
_chemical_formula_sum "Si O2"
_cell_formula_units_Z 24
_cell_length_a 15.000000
_cell_length_b 18.000000
_cell_length_c 9.000000
_cell_angle_alpha 90.000000
_cell_angle_beta 90.000000
_cell_angle_gamma 90.000000
_cell_volume 2430.000000
_symmetry_space_group_name_H-M "C 2/M"
_symmetry_group_IT_number 12
_symmetry_cell_setting 'monoclinic'
loop_
_space_group_symop_operation_xyz
x,y,z
-x,y,-z
-x,-y,-z
x,-y,z
1/2+x,1/2+y,z
1/2-x,1/2+y,-z
1/2-x,1/2-y,-z
1/2+x,1/2-y,z
loop_
_atom_site_type_symbol
_atom_site_label
_atom_site_fract_x
_atom_site_fract_y
_atom_site_fract_z
Si Si1 0.972701 0.323859 0.828909
Si Si2 0.625297 0.088514 0.414223
Si Si3 0.633756 0.236287 0.634866
Si Si4 0.164805 0.088788 0.656434
Si Si5 0.200461 0.219974 0.147015
Si Si6 0.895657 0.086823 0.000741
O O1 0.942091 0.392148 0.721965
O O2 0.885596 0.271406 0.828780
O O3 0.054567 0.279472 0.752927
O O4 0.000000 0.342425 0.000000
O O5 0.620361 0.164687 0.520239
O O6 0.728690 0.089029 0.363891
O O7 0.609404 0.000000 0.464465
O O8 0.632469 0.327076 0.592713
O O9 0.729087 0.224112 0.717660
O O10 0.138986 0.093925 0.830108
O O11 0.137041 0.000000 0.611262
O O12 0.250000 0.250000 0.000000
O O13 0.162740 0.138430 0.106975
O O14 0.890733 0.000000 0.957451
O O15 0.000000 0.109340 0.000000
#
# Coordination Sequence:
#
# PCOD9224813 Si02
#       6
#     8   8   8   8   8   8
#     4  12  24  41  69 100 133 175 227 275 337 405
#     4  11  26  47  67  95 138 181 228 281 335 402
#     4  12  24  41  70  98 134 182 220 278 342 398
#     4  10  20  39  67  94 127 174 222 268 331 394
#     4  12  21  38  65  99 133 169 228 275 333 400
#     4  10  20  36  61  96 135 171 216 278 336 393
#
# _framework density 9.8765429999999999
#
# number of rings (size 3 to 8) (size 9 to 14) (size 15 to 20)
#    0.000    0.833    5.000    2.500    0.000    2.333 
#    0.000    0.000    0.000    2.000    0.000    0.000 
#    0.000    0.000    0.000    0.000    0.000    0.000 
#
# Total GULP energy -133757.504690 kJ/mol
# GULP energy per Si atom -5573.229362 kJ/mol
# Density = 0.985406 g / cm^3
# Si number density = 9.876543 Si / 1000 Ang^3
#
#
#
# Elastic Constant Matrix: (Units=GPa)
#
#
# Indices 1 2 3 4 5 6 
#
# 1 106.2778 29.2787 28.5858 0.0000 -7.8528 0.0000
# 2 29.2787 175.5214 37.9258 0.0000 11.5059 0.0000
# 3 28.5858 37.9258 77.2931 0.0000 8.7392 0.0000
# 4 0.0000 0.0000 0.0000 39.9794 0.0000 2.7425
# 5 -7.8528 11.5059 8.7392 0.0000 41.9997 0.0000
# 6 0.0000 0.0000 0.0000 2.7425 0.0000 39.7499
#
#
#
# Elastic Compliance Matrix: (Units=1/GPa)
#
#
# Indices 1 2 3 4 5 6 
#
# 1 0.011012 -0.001217 -0.003836 0.000000 0.003191 0.000000
# 2 -0.001217 0.006560 -0.002601 0.000000 -0.001483 0.000000
# 3 -0.003836 -0.002601 0.016010 0.000000 -0.003336 0.000000
# 4 0.000000 0.000000 0.000000 0.025132 0.000000 -0.001734
# 5 0.003191 -0.001483 -0.003336 0.000000 0.025507 0.000000
# 6 0.000000 0.000000 0.000000 -0.001734 0.000000 0.025277
#
#
# Mechanical properties :
#
#
# Convention : Reuss Voigt Hill
#
# Bulk Modulus (GPa) = 54.72454 61.18589 57.95522
# Shear Modulus (GPa) = 38.19808 41.89925 40.04866
#
# Velocity S-wave (km/s) = 4.40224 4.61059 4.50762
# Velocity P-wave (km/s) = 7.32148 7.70623 7.51632
#
# Compressibility (1/GPa) = 0.01827334
#
# Stress axis : x y z
#
# Youngs Moduli (GPa) = 90.80814 152.44961 62.46154
#
# Poissons Ratio (x) = 0.18556 0.23962
# Poissons Ratio (y) = 0.11053 0.16244
# Poissons Ratio (z) = 0.34836 0.39648
#
# Static dielectric constant tensor:
#      x y z
#    x 1.686190 0.000000 -0.020640 
#    y 0.000000 1.777930 0.000000 
#    z -0.020640 0.000000 1.726670 
# 
# From -- ./inp_files/61737.got.cif
#   From: 2010.05.17/outbox.ucp.g08.bks.cvg/sg12_31_cif.got.tgz:61737.got - 2010.06.11 11:47:21.
