data_PCOD9224029
_publ_section_title
;
Structure prediction by ZEFSAII (Michael W. Deem and Ramdas Pophale) SiO2 
 PCOD9224029
Probable space group: C 2/M
;
_chemical_formula_sum "Si O2"
_cell_formula_units_Z 16
_cell_length_a 30.000000
_cell_length_b 12.000000
_cell_length_c 24.000000
_cell_angle_alpha 90.000000
_cell_angle_beta 170.000000
_cell_angle_gamma 90.000000
_cell_volume 1500.320255
_symmetry_space_group_name_H-M "C 2/M"
_symmetry_group_IT_number 12
_symmetry_cell_setting 'monoclinic'
loop_
_space_group_symop_operation_xyz
x,y,z
-x,y,-z
-x,-y,-z
x,-y,z
1/2+x,1/2+y,z
1/2-x,1/2+y,-z
1/2-x,1/2-y,-z
1/2+x,1/2-y,z
loop_
_atom_site_type_symbol
_atom_site_label
_atom_site_fract_x
_atom_site_fract_y
_atom_site_fract_z
Si Si1 0.693966 0.123159 0.117786
Si Si2 0.034209 0.628734 0.689772
Si Si3 0.503095 0.786263 0.232698
Si Si4 0.265354 0.629198 0.790657
O O1 0.617435 0.247659 0.048096
O O2 0.000000 0.121567 0.500000
O O3 0.598585 0.000000 0.022238
O O4 0.627394 0.127860 0.970453
O O5 0.102265 0.500000 0.777879
O O6 0.947279 0.668915 0.643946
O O7 0.815668 0.639906 0.373732
O O8 0.286854 0.692203 0.978066
O O9 0.750000 0.750000 0.500000
O O10 0.379003 0.500000 0.938163
O O11 0.000000 0.624635 0.500000
#
# Coordination Sequence:
#
# PCOD9224029 Si02
#       4
#     8   8   8   8
#     4  10  19  35  61  90 124 167 209 257 321 383
#     4  10  21  39  63  87 121 170 216 262 320 385
#     4  11  23  39  61  93 127 164 215 271 325 381
#     4   9  16  33  60  87 115 162 216 254 306 376
#
# _framework density 10.664389999999999
#
# number of rings (size 3 to 8) (size 9 to 14) (size 15 to 20)
#    0.000    2.000    5.000    0.750    0.000    2.000 
#    0.000    1.250    0.000    4.500    0.000    0.000 
#    0.000    0.000    0.000    0.000    0.000    0.000 
#
# Total GULP energy -89093.885199 kJ/mol
# GULP energy per Si atom -5568.367825 kJ/mol
# Density = 1.064012 g / cm^3
# Si number density = 10.664390 Si / 1000 Ang^3
#
#
#
# Elastic Constant Matrix: (Units=GPa)
#
#
# Indices 1 2 3 4 5 6 
#
# 1 142.9075 51.7786 42.6306 0.0019 -16.5941 -0.0187
# 2 51.7786 226.2660 29.8165 0.0096 -2.3462 -0.0068
# 3 42.6306 29.8165 64.2292 0.0608 0.5260 -0.0155
# 4 0.0019 0.0096 0.0608 -14.3176 -0.0203 0.5210
# 5 -16.5941 -2.3462 0.5260 -0.0203 30.4868 -0.0163
# 6 -0.0187 -0.0068 -0.0155 0.5210 -0.0163 27.9398
#
#
#
# Elastic Compliance Matrix: (Units=1/GPa)
#
#
# Indices 1 2 3 4 5 6 
#
# 1 0.009921 -0.001428 -0.005966 -0.000032 0.005393 0.000007
# 2 -0.001428 0.004918 -0.001332 -0.000002 -0.000376 -0.000001
# 3 -0.005966 -0.001332 0.020178 0.000089 -0.003698 0.000003
# 4 -0.000032 -0.000002 0.000089 -0.069796 -0.000065 0.001302
# 5 0.005393 -0.000376 -0.003698 -0.000065 0.035771 0.000024
# 6 0.000007 -0.000001 0.000003 0.001302 0.000024 0.035767
#
#
# Mechanical properties :
#
#
# Convention : Reuss Voigt Hill
#
# Bulk Modulus (GPa) = 56.93400 75.76157 66.34778
# Shear Modulus (GPa) = 83.24271 29.43362 56.33817
#
# Velocity S-wave (km/s) = 6.25404 3.71886 5.14505
# Velocity P-wave (km/s) = 8.88269 7.35104 8.15291
#
# Compressibility (1/GPa) = 0.01756420
#
# Stress axis : x y z
#
# Youngs Moduli (GPa) = 100.79732 203.33307 49.56012
#
# Poissons Ratio (x) = 0.29040 0.29567
# Poissons Ratio (y) = 0.14396 0.06602
# Poissons Ratio (z) = 0.60135 0.27085
#
# Static dielectric constant tensor:
#      x y z
#    x 1.758410 0.000000 -0.025750 
#    y 0.000000 1.840690 0.000060 
#    z -0.025750 0.000060 1.864530 
# 
# From -- ./inp_files/82483.got.cif
#   From: 2010.05.17/outbox.ucp.g08.bks.cvg/sg12_42_cif.got.tgz:82483.got - 2010.06.11 11:47:21.
