data_PCOD9224359
_publ_section_title
;
Structure prediction by ZEFSAII (Michael W. Deem and Ramdas Pophale) SiO2 
 PCOD9224359
Probable space group: C 2/M
;
_chemical_formula_sum "Si O2"
_cell_formula_units_Z 32
_cell_length_a 30.000000
_cell_length_b 9.000000
_cell_length_c 24.000000
_cell_angle_alpha 90.000000
_cell_angle_beta 30.000000
_cell_angle_gamma 90.000000
_cell_volume 3240.000000
_symmetry_space_group_name_H-M "C 2/M"
_symmetry_group_IT_number 12
_symmetry_cell_setting 'monoclinic'
loop_
_space_group_symop_operation_xyz
x,y,z
-x,y,-z
-x,-y,-z
x,-y,z
1/2+x,1/2+y,z
1/2-x,1/2+y,-z
1/2-x,1/2-y,-z
1/2+x,1/2-y,z
loop_
_atom_site_type_symbol
_atom_site_label
_atom_site_fract_x
_atom_site_fract_y
_atom_site_fract_z
Si Si1 0.503242 0.832233 0.775553
Si Si2 0.276584 0.327176 0.716550
Si Si3 0.196634 0.666764 0.510803
Si Si4 0.571432 0.178173 0.255350
Si Si5 0.613095 0.179574 0.491427
Si Si6 0.231110 0.829423 0.141905
Si Si7 0.094122 0.163768 0.043576
Si Si8 0.904071 0.169099 0.091218
O O1 0.597119 0.840121 0.643249
O O2 0.438833 0.770413 0.797033
O O3 0.498401 0.724831 0.833043
O O4 0.480093 0.000000 0.817377
O O5 0.281551 0.500000 0.697560
O O6 0.355322 0.240151 0.601332
O O7 0.280450 0.311203 0.779024
O O8 0.182653 0.259467 0.798020
O O9 0.232429 0.500000 0.466223
O O10 0.250000 0.750000 0.500000
O O11 0.182262 0.731564 0.464692
O O12 0.485560 0.228671 0.383916
O O13 0.660631 0.229676 0.186946
O O14 0.566703 0.000000 0.257900
O O15 0.614812 0.000000 0.490081
O O16 0.216884 0.000000 0.142912
O O17 0.330159 0.778058 0.020454
O O18 0.113043 0.000000 0.044569
O O19 0.097311 0.158864 0.973963
O O20 0.900789 0.000000 0.117683
O O21 0.000000 0.237757 0.000000
#
# Coordination Sequence:
#
# PCOD9224359 Si02
#       8
#     8   8   8   8   8   8   8   8
#     4   9  19  36  54  74 104 136 167 210 258 299
#     4  10  21  35  52  77 106 135 169 209 255 305
#     4   9  19  35  54  77 105 137 172 210 253 301
#     4   9  19  36  56  76  99 133 175 211 248 301
#     4   9  19  36  55  75 103 138 173 210 252 299
#     4  10  21  36  53  75 105 136 166 209 260 303
#     4  10  20  34  54  78 102 133 173 210 249 304
#     4   9  19  36  55  75 102 135 171 212 254 298
#
# _framework density 9.8765429999999999
#
# number of rings (size 3 to 8) (size 9 to 14) (size 15 to 20)
#    0.000    2.625    0.000    2.625    0.000    6.250 
#    0.000    8.750    0.000    0.000    0.000    0.000 
#    0.000    0.000    0.000    0.000    0.000    0.000 
#
# Total GULP energy -178188.416729 kJ/mol
# GULP energy per Si atom -5568.388023 kJ/mol
# Density = 0.985406 g / cm^3
# Si number density = 9.876543 Si / 1000 Ang^3
#
#
#
# Elastic Constant Matrix: (Units=GPa)
#
#
# Indices 1 2 3 4 5 6 
#
# 1 9.5752 16.3326 7.2250 -0.0010 -20.5761 0.0000
# 2 16.3326 11.5467 11.3067 -0.0152 14.4108 0.0083
# 3 7.2250 11.3067 40.0193 -0.0080 18.4332 0.0040
# 4 -0.0010 -0.0152 -0.0080 19.6045 0.0040 -2.0538
# 5 -20.5761 14.4108 18.4332 0.0040 19.6202 -0.0017
# 6 0.0000 0.0083 0.0040 -2.0538 -0.0017 12.7680
#
#
#
# Elastic Compliance Matrix: (Units=1/GPa)
#
#
# Indices 1 2 3 4 5 6 
#
# 1 -0.000623 0.028575 0.003539 0.000027 -0.024966 -0.000019
# 2 0.028575 0.036136 -0.029874 0.000010 0.031492 -0.000008
# 3 0.003539 -0.029874 0.036973 -0.000005 -0.009083 0.000006
# 4 0.000027 0.000010 -0.000005 0.051883 0.000016 0.008346
# 5 -0.024966 0.031492 -0.009083 0.000016 0.010189 -0.000014
# 6 -0.000019 -0.000008 0.000006 0.008346 -0.000014 0.079663
#
#
# Mechanical properties :
#
#
# Convention : Reuss Voigt Hill
#
# Bulk Modulus (GPa) = 12.99277 14.54110 13.76693
# Shear Modulus (GPa) = 21.24061 12.15032 16.69547
#
# Velocity S-wave (km/s) = 3.28274 2.48283 2.91040
# Velocity P-wave (km/s) = 4.57825 3.94926 4.27534
#
# Compressibility (1/GPa) = 0.07696589
#
# Stress axis : x y z
#
# Youngs Moduli (GPa) = -1604.79624 27.67294 27.04668
#
# Poissons Ratio (x) = -0.79075 -0.09571
# Poissons Ratio (y) = 45.85665 0.80798
# Poissons Ratio (z) = 5.67889 0.82669
#
# Static dielectric constant tensor:
#      x y z
#    x 1.762330 0.000000 0.062430 
#    y 0.000000 1.682780 0.000000 
#    z 0.062430 0.000000 1.753030 
# 
# From -- ./inp_files/243732.got.cif
#   From: 2010.05.17/outbox.ucp.g08.bks.cvg/sg12_122_cif.got.tgz:243732.got - 2010.06.11 11:47:21.
