data_PCOD9224398
_publ_section_title
;
Structure prediction by ZEFSAII (Michael W. Deem and Ramdas Pophale) SiO2 
 PCOD9224398
Probable space group: C 2/M
;
_chemical_formula_sum "Si O2"
_cell_formula_units_Z 28
_cell_length_a 18.000000
_cell_length_b 9.000000
_cell_length_c 27.000000
_cell_angle_alpha 90.000000
_cell_angle_beta 40.000000
_cell_angle_gamma 90.000000
_cell_volume 2811.553005
_symmetry_space_group_name_H-M "C 2/M"
_symmetry_group_IT_number 12
_symmetry_cell_setting 'monoclinic'
loop_
_space_group_symop_operation_xyz
x,y,z
-x,y,-z
-x,-y,-z
x,-y,z
1/2+x,1/2+y,z
1/2-x,1/2+y,-z
1/2-x,1/2-y,-z
1/2+x,1/2-y,z
loop_
_atom_site_type_symbol
_atom_site_label
_atom_site_fract_x
_atom_site_fract_y
_atom_site_fract_z
Si Si1 0.217693 0.180360 0.068863
Si Si2 0.733690 0.332867 0.216218
Si Si3 0.366448 0.332918 0.076728
Si Si4 0.786698 0.676755 0.372917
Si Si5 0.828944 0.331232 0.660575
Si Si6 0.549930 0.331255 0.531225
Si Si7 0.973142 0.171368 0.757962
O O1 0.303013 0.265910 0.061948
O O2 0.090394 0.211429 0.157768
O O3 0.230817 0.000000 0.063122
O O4 0.250000 0.250000 0.000000
O O5 0.732540 0.500000 0.237541
O O6 0.845663 0.293350 0.128008
O O7 0.729763 0.204948 0.258274
O O8 0.626198 0.319653 0.233147
O O9 0.320099 0.500000 0.112034
O O10 0.500000 0.347538 0.000000
O O11 0.786957 0.500000 0.372727
O O12 0.737593 0.735071 0.345982
O O13 0.682344 0.720353 0.463418
O O14 0.914732 0.736666 0.314089
O O15 0.826915 0.500000 0.645682
O O16 0.960012 0.277076 0.602142
O O17 0.500000 0.335462 0.500000
O O18 0.541590 0.500000 0.554690
O O19 0.009825 0.000000 0.743122
#
# Coordination Sequence:
#
# PCOD9224398 Si02
#       7
#     8   8   8   8   8   8   8
#     4  10  21  37  57  80 107 141 178 218 264 312
#     4  10  21  38  57  77 107 143 176 215 264 314
#     4  10  21  37  57  81 109 139 173 217 265 313
#     4  10  20  34  55  80 106 139 176 216 263 314
#     4  11  21  33  54  81 107 138 178 220 261 309
#     4   8  16  32  51  74 105 137 172 216 264 310
#     4   9  20  37  55  77 106 138 173 217 265 311
#
# _framework density 9.9589090000000002
#
# number of rings (size 3 to 8) (size 9 to 14) (size 15 to 20)
#    0.000    2.286    0.000    4.714    0.000    8.857 
#    0.000    2.143    0.000    0.000    0.000    0.000 
#    0.000    0.000    0.000    0.000    0.000    0.000 
#
# Total GULP energy -155890.265562 kJ/mol
# GULP energy per Si atom -5567.509484 kJ/mol
# Density = 0.993624 g / cm^3
# Si number density = 9.958909 Si / 1000 Ang^3
#
#
#
# Elastic Constant Matrix: (Units=GPa)
#
#
# Indices 1 2 3 4 5 6 
#
# 1 -2.6669 5.8512 8.3425 0.0000 -14.3742 0.0001
# 2 5.8512 21.4673 -5.7998 0.0000 -18.8354 0.0004
# 3 8.3425 -5.7998 2.2261 0.0000 -19.7645 0.0000
# 4 0.0000 0.0000 0.0000 28.4229 0.0000 0.7423
# 5 -14.3742 -18.8354 -19.7645 0.0000 27.7763 0.0000
# 6 0.0001 0.0004 0.0000 0.7423 0.0000 25.8416
#
#
#
# Elastic Compliance Matrix: (Units=1/GPa)
#
#
# Indices 1 2 3 4 5 6 
#
# 1 -0.101804 -0.002139 0.019687 0.000000 -0.040126 0.000001
# 2 -0.002139 0.025053 -0.040299 0.000000 -0.012794 0.000000
# 3 0.019687 -0.040299 -0.022242 0.000000 -0.032965 0.000001
# 4 0.000000 0.000000 0.000000 0.035209 0.000000 -0.001011
# 5 -0.040126 -0.012794 -0.032965 0.000000 -0.016896 0.000000
# 6 0.000001 0.000000 0.000001 -0.001011 0.000000 0.038726
#
#
# Mechanical properties :
#
#
# Convention : Reuss Voigt Hill
#
# Bulk Modulus (GPa) = -6.92063 4.20160 -1.35951
# Shear Modulus (GPa) = -112.06750 17.25034 -47.40858
#
# Velocity S-wave (km/s) = -7.50913 2.94611 -4.88403
# Velocity P-wave (km/s) = 8.86933 3.69957 5.69992
#
# Compressibility (1/GPa) = -0.14449552
#
# Stress axis : x y z
#
# Youngs Moduli (GPa) = -9.82276 39.91539 -44.96047
#
# Poissons Ratio (x) = 0.08540 0.88515
# Poissons Ratio (y) = -0.02102 -1.81186
# Poissons Ratio (z) = 0.19338 1.60855
#
# Static dielectric constant tensor:
#      x y z
#    x 1.521450 0.000000 -0.118650 
#    y 0.000000 1.703300 0.000000 
#    z -0.118650 0.000000 1.698380 
# 
# From -- ./inp_files/342320.got.cif
#   From: 2010.05.17/outbox.ucp.g08.bks.cvg/sg12_172_cif.got.tgz:342320.got - 2010.06.11 11:47:21.
