data_PCOD9224216
_publ_section_title
;
Structure prediction by ZEFSAII (Michael W. Deem and Ramdas Pophale) SiO2 
 PCOD9224216
Probable space group: C 2/M
;
_chemical_formula_sum "Si O2"
_cell_formula_units_Z 32
_cell_length_a 27.000000
_cell_length_b 9.000000
_cell_length_c 21.000000
_cell_angle_alpha 90.000000
_cell_angle_beta 50.000000
_cell_angle_gamma 90.000000
_cell_volume 3909.124793
_symmetry_space_group_name_H-M "C 2/M"
_symmetry_group_IT_number 12
_symmetry_cell_setting 'monoclinic'
loop_
_space_group_symop_operation_xyz
x,y,z
-x,y,-z
-x,-y,-z
x,-y,z
1/2+x,1/2+y,z
1/2-x,1/2+y,-z
1/2-x,1/2-y,-z
1/2+x,1/2-y,z
loop_
_atom_site_type_symbol
_atom_site_label
_atom_site_fract_x
_atom_site_fract_y
_atom_site_fract_z
Si Si1 0.052591 0.333029 0.511738
Si Si2 0.250676 0.322314 0.601586
Si Si3 0.159257 0.171769 0.589161
Si Si4 0.902669 0.327611 0.835101
Si Si5 0.487446 0.670114 0.329602
Si Si6 0.793544 0.673384 0.815071
Si Si7 0.328591 0.322254 0.654044
Si Si8 0.295574 0.178314 0.016387
O O1 0.077594 0.500000 0.503745
O O2 0.017786 0.268853 0.602796
O O3 0.108837 0.229069 0.437558
O O4 0.000000 0.341506 0.500000
O O5 0.251360 0.500000 0.600985
O O6 0.184642 0.262540 0.627831
O O7 0.304881 0.273268 0.504864
O O8 0.269728 0.275671 0.656411
O O9 0.083557 0.178144 0.641694
O O10 0.178522 0.000000 0.581822
O O11 0.922855 0.500000 0.821553
O O12 0.848592 0.316493 0.824090
O O13 0.960768 0.227339 0.763480
O O14 0.867338 0.287951 0.930667
O O15 0.501374 0.500000 0.336402
O O16 0.779774 0.500000 0.816252
O O17 0.820804 0.746224 0.728536
O O18 0.730686 0.755643 0.895980
O O19 0.329944 0.500000 0.660398
O O20 0.288125 0.000000 0.022031
O O21 0.250000 0.250000 0.000000
#
# Coordination Sequence:
#
# PCOD9224216 Si02
#       8
#     8   8   8   8   8   8   8   8
#     4  11  23  35  46  64  95 133 169 200 233 279
#     4   9  18  33  50  69  93 121 158 202 244 288
#     4   9  18  33  49  69  94 120 158 203 243 286
#     4   9  19  33  48  70 100 130 163 201 237 284
#     4  11  21  33  49  71  97 127 163 201 240 287
#     4  10  20  33  49  72 101 131 167 203 239 288
#     4  11  21  34  50  71  98 127 163 202 242 289
#     4   9  17  31  50  71  97 128 163 205 247 284
#
# _framework density 8.1859760000000001
#
# number of rings (size 3 to 8) (size 9 to 14) (size 15 to 20)
#    0.000    2.125    1.250    3.375    0.000    9.000 
#    0.000    0.000    0.000    0.000    0.000    0.875 
#    0.000    7.000    0.000    0.000    0.000    0.000 
#
# Total GULP energy -178318.147941 kJ/mol
# GULP energy per Si atom -5572.442123 kJ/mol
# Density = 0.816734 g / cm^3
# Si number density = 8.185976 Si / 1000 Ang^3
#
#
#
# Elastic Constant Matrix: (Units=GPa)
#
#
# Indices 1 2 3 4 5 6 
#
# 1 12.2062 5.0951 -19.6933 0.0004 -2.2291 0.0001
# 2 5.0951 45.5902 16.2231 0.0010 -9.1622 0.0003
# 3 -19.6933 16.2231 33.6563 0.0014 -18.6600 0.0004
# 4 0.0004 0.0010 0.0014 30.6161 0.0007 -1.0337
# 5 -2.2291 -9.1622 -18.6600 0.0007 5.9828 -0.0002
# 6 0.0001 0.0003 0.0004 -1.0337 -0.0002 21.1556
#
#
#
# Elastic Compliance Matrix: (Units=1/GPa)
#
#
# Indices 1 2 3 4 5 6 
#
# 1 0.029176 -0.011657 -0.025809 0.000003 -0.087477 0.000000
# 2 -0.011657 0.031129 -0.003012 -0.000001 0.033933 0.000000
# 3 -0.025809 -0.003012 -0.011209 0.000002 -0.049188 0.000000
# 4 0.000003 -0.000001 0.000002 0.032717 0.000002 0.001599
# 5 -0.087477 0.033933 -0.049188 0.000002 0.033105 0.000001
# 6 0.000000 0.000000 0.000000 0.001599 0.000001 0.047347
#
#
# Mechanical properties :
#
#
# Convention : Reuss Voigt Hill
#
# Bulk Modulus (GPa) = -31.38740 10.52249 -10.43245
# Shear Modulus (GPa) = 21.49605 17.53942 19.51774
#
# Velocity S-wave (km/s) = 3.62744 3.27664 3.45649
# Velocity P-wave (km/s) = 1.29176 4.55590 3.08930
#
# Compressibility (1/GPa) = -0.03185992
#
# Stress axis : x y z
#
# Youngs Moduli (GPa) = 34.27448 32.12483 -89.21797
#
# Poissons Ratio (x) = 0.37447 -2.30263
# Poissons Ratio (y) = 0.39953 -0.26875
# Poissons Ratio (z) = 0.88459 0.09677
#
# Static dielectric constant tensor:
#      x y z
#    x 1.555450 0.000000 -0.009710 
#    y 0.000000 1.569090 0.000000 
#    z -0.009710 0.000000 1.552940 
# 
# From -- ./inp_files/326813.got.cif
#   From: 2010.05.17/outbox.ucp.g08.bks.cvg/sg12_164_cif.got.tgz:326813.got - 2010.06.11 11:47:21.
