data_PCOD9224308
_publ_section_title
;
Structure prediction by ZEFSAII (Michael W. Deem and Ramdas Pophale) SiO2 
 PCOD9224308
Probable space group: C 2/M
;
_chemical_formula_sum "Si O2"
_cell_formula_units_Z 24
_cell_length_a 30.000000
_cell_length_b 9.000000
_cell_length_c 18.000000
_cell_angle_alpha 90.000000
_cell_angle_beta 150.000000
_cell_angle_gamma 90.000000
_cell_volume 2430.000000
_symmetry_space_group_name_H-M "C 2/M"
_symmetry_group_IT_number 12
_symmetry_cell_setting 'monoclinic'
loop_
_space_group_symop_operation_xyz
x,y,z
-x,y,-z
-x,-y,-z
x,-y,z
1/2+x,1/2+y,z
1/2-x,1/2+y,-z
1/2-x,1/2-y,-z
1/2+x,1/2-y,z
loop_
_atom_site_type_symbol
_atom_site_label
_atom_site_fract_x
_atom_site_fract_y
_atom_site_fract_z
Si Si1 0.866425 0.673163 0.604944
Si Si2 0.071119 0.319288 0.702434
Si Si3 0.183836 0.671145 0.300840
Si Si4 0.931894 0.678466 0.140789
Si Si5 0.319822 0.323527 0.849725
Si Si6 0.371455 0.180650 0.372603
O O1 0.846487 0.500000 0.556656
O O2 0.868167 0.684364 0.696745
O O3 0.784579 0.773601 0.461344
O O4 0.962531 0.711130 0.711517
O O5 0.069956 0.500000 0.700187
O O6 0.103102 0.272330 0.829199
O O7 0.127460 0.272795 0.712274
O O8 0.967772 0.272520 0.542608
O O9 0.183648 0.500000 0.277963
O O10 0.146490 0.769562 0.181062
O O11 0.923521 0.500000 0.121708
O O12 0.879436 0.756452 0.000119
O O13 0.320170 0.500000 0.854221
O O14 0.217306 0.270293 0.713814
O O15 0.371788 0.000000 0.375818
#
# Coordination Sequence:
#
# PCOD9224308 Si02
#       6
#     8   8   8   8   8   8
#     4   9  19  36  57  79 102 130 166 210 257 303
#     4   8  14  28  52  76  96 125 168 212 253 301
#     4  10  20  35  56  79 102 130 168 212 255 302
#     4  10  20  34  52  75 104 137 171 207 252 304
#     4  11  22  34  49  73 107 141 172 208 251 298
#     4   8  15  29  50  75  99 127 167 212 254 297
#
# _framework density 9.8765429999999999
#
# number of rings (size 3 to 8) (size 9 to 14) (size 15 to 20)
#    0.000    2.667    0.000    3.000    0.000    5.333 
#    0.000    3.333    0.000    1.000    0.000    7.000 
#    0.000    0.000    0.000    0.000    0.000    0.000 
#
# Total GULP energy -133857.008339 kJ/mol
# GULP energy per Si atom -5577.375347 kJ/mol
# Density = 0.985406 g / cm^3
# Si number density = 9.876543 Si / 1000 Ang^3
#
#
#
# Elastic Constant Matrix: (Units=GPa)
#
#
# Indices 1 2 3 4 5 6 
#
# 1 68.1975 21.3673 12.4254 0.0000 -15.7560 0.0000
# 2 21.3673 10.3561 3.3189 0.0000 -7.3507 0.0000
# 3 12.4254 3.3189 4.9761 0.0000 -24.3419 0.0000
# 4 0.0000 0.0000 0.0000 24.9154 0.0000 -0.5299
# 5 -15.7560 -7.3507 -24.3419 0.0000 26.0351 0.0000
# 6 0.0000 0.0000 0.0000 -0.5299 0.0000 9.8181
#
#
#
# Elastic Compliance Matrix: (Units=1/GPa)
#
#
# Indices 1 2 3 4 5 6 
#
# 1 0.039423 -0.076205 0.010117 0.000000 0.011801 0.000000
# 2 -0.076205 0.258531 -0.041783 0.000000 -0.012191 0.000000
# 3 0.010117 -0.041783 -0.049196 0.000000 -0.051671 0.000000
# 4 0.000000 0.000000 0.000000 0.040182 0.000000 0.002169
# 5 0.011801 -0.012191 -0.051671 0.000000 -0.006201 0.000000
# 6 0.000000 0.000000 0.000000 0.002169 0.000000 0.101970
#
#
# Mechanical properties :
#
#
# Convention : Reuss Voigt Hill
#
# Bulk Modulus (GPa) = 30.28955 17.52809 23.90882
# Shear Modulus (GPa) = 8.17720 15.24826 11.71273
#
# Velocity S-wave (km/s) = 2.03683 2.78140 2.43771
# Velocity P-wave (km/s) = 4.57154 4.38267 4.47810
#
# Compressibility (1/GPa) = 0.03301469
#
# Stress axis : x y z
#
# Youngs Moduli (GPa) = 25.36607 3.86801 -20.32688
#
# Poissons Ratio (x) = 0.29476 0.20564
# Poissons Ratio (y) = 1.93303 -0.84932
# Poissons Ratio (z) = -0.25662 0.16162
#
# Static dielectric constant tensor:
#      x y z
#    x 1.715140 0.000000 -0.033290 
#    y 0.000000 1.664250 0.000000 
#    z -0.033290 0.000000 1.683120 
# 
# From -- ./inp_files/274030.got.cif
#   From: 2010.05.17/outbox.ucp.g08.bks.cvg/sg12_138_cif.got.tgz:274030.got - 2010.06.11 11:47:21.
