data_PCOD9224550
_publ_section_title
;
Structure prediction by ZEFSAII (Michael W. Deem and Ramdas Pophale) SiO2 
 PCOD9224550
Probable space group: C 2/M
;
_chemical_formula_sum "Si O2"
_cell_formula_units_Z 25
_cell_length_a 27.000000
_cell_length_b 9.000000
_cell_length_c 15.000000
_cell_angle_alpha 90.000000
_cell_angle_beta 130.000000
_cell_angle_gamma 90.000000
_cell_volume 2792.231995
_symmetry_space_group_name_H-M "C 2/M"
_symmetry_group_IT_number 12
_symmetry_cell_setting 'monoclinic'
loop_
_space_group_symop_operation_xyz
x,y,z
-x,y,-z
-x,-y,-z
x,-y,z
1/2+x,1/2+y,z
1/2-x,1/2+y,-z
1/2-x,1/2-y,-z
1/2+x,1/2-y,z
loop_
_atom_site_type_symbol
_atom_site_label
_atom_site_fract_x
_atom_site_fract_y
_atom_site_fract_z
Si Si1 0.216130 0.822612 0.045513
Si Si2 0.589692 0.164224 0.469127
Si Si3 0.500000 0.000000 0.500000
Si Si4 0.912269 0.675341 0.033993
Si Si5 0.642249 0.174492 0.227573
Si Si6 0.454984 0.324767 0.752868
Si Si7 0.767929 0.677538 0.300968
O O1 0.255692 0.789673 0.182316
O O2 0.212678 0.000000 0.031388
O O3 0.250000 0.750000 0.000000
O O4 0.145039 0.755343 0.978505
O O5 0.558337 0.275295 0.363421
O O6 0.659865 0.212394 0.584457
O O7 0.597641 0.000000 0.432793
O O8 0.543211 0.126943 0.497673
O O9 0.912100 0.500000 0.053857
O O10 0.980827 0.744399 0.137207
O O11 0.895443 0.694042 0.910122
O O12 0.605128 0.266729 0.258840
O O13 0.714114 0.234590 0.293745
O O14 0.642629 0.000000 0.249105
O O15 0.462249 0.500000 0.769946
O O16 0.757803 0.500000 0.300049
#
# Coordination Sequence:
#
# PCOD9224550 Si02
#       7
#     8   8   2   8   8   8   8
#     4  10  20  35  56  87 118 151 198 248 304 360
#     4   9  20  40  62  85 112 152 206 237 293 352
#     4   8  20  40  66  84 110 156 200 240 292 348
#     4  10  21  38  58  83 117 160 202 248 300 359
#     4  10  21  37  60  87 119 159 200 241 303 357
#     4  12  24  37  57  89 122 156 198 251 298 361
#     4   9  19  37  59  84 116 154 194 247 295 358
#
# _framework density 8.9534109999999991
#
# number of rings (size 3 to 8) (size 9 to 14) (size 15 to 20)
#    0.480    1.600    0.000    3.360    0.000    7.040 
#    0.000    0.400    0.000    0.000    0.000    0.000 
#    0.000    0.000    0.000    0.000    0.000    0.000 
#
# Total GULP energy -139232.887395 kJ/mol
# GULP energy per Si atom -5569.315496 kJ/mol
# Density = 0.893303 g / cm^3
# Si number density = 8.953411 Si / 1000 Ang^3
#
#
#
# Elastic Constant Matrix: (Units=GPa)
#
#
# Indices 1 2 3 4 5 6 
#
# 1 107.5461 40.9319 45.6074 0.0000 7.3137 0.0000
# 2 40.9319 62.3361 33.2707 0.0000 5.8777 0.0000
# 3 45.6074 33.2707 49.1363 0.0000 17.6357 0.0000
# 4 0.0000 0.0000 0.0000 22.4054 0.0000 2.1234
# 5 7.3137 5.8777 17.6357 0.0000 11.0283 0.0000
# 6 0.0000 0.0000 0.0000 2.1234 0.0000 32.9812
#
#
#
# Elastic Compliance Matrix: (Units=1/GPa)
#
#
# Indices 1 2 3 4 5 6 
#
# 1 0.020974 0.001073 -0.035199 0.000000 0.041807 0.000000
# 2 0.001073 0.031322 -0.037454 0.000000 0.042490 0.000000
# 3 -0.035199 -0.037454 0.147498 0.000000 -0.192564 0.000000
# 4 0.000000 0.000000 0.000000 0.044906 0.000000 -0.002891
# 5 0.041807 0.042490 -0.192564 0.000000 0.348241 0.000000
# 6 0.000000 0.000000 0.000000 -0.002891 0.000000 0.030506
#
#
# Mechanical properties :
#
#
# Convention : Reuss Voigt Hill
#
# Bulk Modulus (GPa) = 17.65791 50.95982 34.30886
# Shear Modulus (GPa) = 6.36548 19.89687 13.13118
#
# Velocity S-wave (km/s) = 1.88746 3.33698 2.71090
# Velocity P-wave (km/s) = 3.82523 6.58539 5.38515
#
# Compressibility (1/GPa) = 0.05663185
#
# Stress axis : x y z
#
# Youngs Moduli (GPa) = 47.67800 31.92661 6.77976
#
# Poissons Ratio (x) = -0.03425 0.23864
# Poissons Ratio (y) = -0.05115 0.25393
# Poissons Ratio (z) = 1.67824 1.19579
#
# Static dielectric constant tensor:
#      x y z
#    x 1.583870 0.000000 -0.008410 
#    y 0.000000 1.605490 0.000000 
#    z -0.008410 0.000000 1.608010 
# 
# From -- ./inp_files/244396.got.cif
#   From: 2010.05.17/outbox.ucp.g08.bks.cvg/sg12_123_cif.got.tgz:244396.got - 2010.06.11 11:47:21.
