data_PCOD9224584
_publ_section_title
;
Structure prediction by ZEFSAII (Michael W. Deem and Ramdas Pophale) SiO2 
 PCOD9224584
Probable space group: C 2/M
;
_chemical_formula_sum "Si O2"
_cell_formula_units_Z 32
_cell_length_a 15.000000
_cell_length_b 9.000000
_cell_length_c 30.000000
_cell_angle_alpha 90.000000
_cell_angle_beta 50.000000
_cell_angle_gamma 90.000000
_cell_volume 3102.479995
_symmetry_space_group_name_H-M "C 2/M"
_symmetry_group_IT_number 12
_symmetry_cell_setting 'monoclinic'
loop_
_space_group_symop_operation_xyz
x,y,z
-x,y,-z
-x,-y,-z
x,-y,z
1/2+x,1/2+y,z
1/2-x,1/2+y,-z
1/2-x,1/2-y,-z
1/2+x,1/2-y,z
loop_
_atom_site_type_symbol
_atom_site_label
_atom_site_fract_x
_atom_site_fract_y
_atom_site_fract_z
Si Si1 0.035892 0.175145 0.719502
Si Si2 0.055420 0.321152 0.934271
Si Si3 0.321682 0.321068 0.844143
Si Si4 0.873906 0.175785 0.410260
Si Si5 0.307972 0.824246 0.256435
Si Si6 0.628964 0.174603 0.457593
Si Si7 0.001718 0.822065 0.863298
Si Si8 0.596670 0.828794 0.366026
O O1 0.071344 0.188853 0.656999
O O2 0.116886 0.276817 0.724312
O O3 0.902614 0.213125 0.775307
O O4 0.054017 0.000000 0.726340
O O5 0.053415 0.500000 0.928379
O O6 0.189701 0.266860 0.888240
O O7 0.985004 0.243380 0.917469
O O8 0.000000 0.289860 0.000000
O O9 0.313131 0.500000 0.848403
O O10 0.399787 0.276111 0.861653
O O11 0.740864 0.233085 0.448394
O O12 0.965618 0.265263 0.410468
O O13 0.872270 0.000000 0.422289
O O14 0.377572 0.744668 0.194449
O O15 0.178626 0.765317 0.307295
O O16 0.306913 0.000000 0.250010
O O17 0.500000 0.243894 0.500000
O O18 0.654583 0.176033 0.396461
O O19 0.617812 0.000000 0.474535
O O20 0.007626 0.000000 0.861648
O O21 0.592241 0.000000 0.353363
#
# Coordination Sequence:
#
# PCOD9224584 Si02
#       8
#     8   8   8   8   8   8   8   8
#     4   9  17  34  57  81 113 152 188 229 288 348
#     4  10  21  37  57  83 114 152 197 240 283 341
#     4   8  17  34  55  78 111 150 184 224 286 343
#     4  10  20  35  57  86 116 153 194 234 289 347
#     4  11  21  35  58  86 117 150 188 235 293 349
#     4   9  19  38  61  81 112 158 199 237 288 346
#     4  10  21  38  58  82 112 150 191 235 291 346
#     4  11  22  37  57  86 118 151 193 238 287 343
#
# _framework density 10.314329000000001
#
# number of rings (size 3 to 8) (size 9 to 14) (size 15 to 20)
#    0.000    2.250    1.250    2.625    1.750    1.750 
#    0.000    3.125    0.000    2.625    0.000    0.000 
#    0.000    0.000    0.000    0.000    0.000    0.000 
#
# Total GULP energy -178656.399763 kJ/mol
# GULP energy per Si atom -5583.012493 kJ/mol
# Density = 1.029085 g / cm^3
# Si number density = 10.314329 Si / 1000 Ang^3
#
#
#
# Elastic Constant Matrix: (Units=GPa)
#
#
# Indices 1 2 3 4 5 6 
#
# 1 87.7676 11.7930 13.2401 -0.0001 -13.5444 -0.0001
# 2 11.7930 47.6152 10.7557 -0.0001 1.5344 -0.0002
# 3 13.2401 10.7557 52.5774 0.0000 -5.3356 -0.0001
# 4 -0.0001 -0.0001 0.0000 16.2689 0.0000 -3.4177
# 5 -13.5444 1.5344 -5.3356 0.0000 36.4504 0.0000
# 6 -0.0001 -0.0002 -0.0001 -3.4177 0.0000 23.1648
#
#
#
# Elastic Compliance Matrix: (Units=1/GPa)
#
#
# Indices 1 2 3 4 5 6 
#
# 1 0.012806 -0.002825 -0.002184 0.000000 0.004558 0.000000
# 2 -0.002825 0.022736 -0.004206 0.000000 -0.002622 0.000000
# 3 -0.002184 -0.004206 0.020673 0.000000 0.002391 0.000000
# 4 0.000000 0.000000 0.000000 0.063433 0.000000 0.009359
# 5 0.004558 -0.002622 0.002391 0.000000 0.029589 0.000000
# 6 0.000000 0.000000 0.000000 0.009359 0.000000 0.044550
#
#
# Mechanical properties :
#
#
# Convention : Reuss Voigt Hill
#
# Bulk Modulus (GPa) = 26.46614 28.83756 27.65185
# Shear Modulus (GPa) = 22.24083 25.32157 23.78120
#
# Velocity S-wave (km/s) = 3.28708 3.50736 3.39901
# Velocity P-wave (km/s) = 5.22151 5.51469 5.37010
#
# Compressibility (1/GPa) = 0.03778413
#
# Stress axis : x y z
#
# Youngs Moduli (GPa) = 78.08700 43.98319 48.37292
#
# Poissons Ratio (x) = 0.12426 0.10567
# Poissons Ratio (y) = 0.22061 0.20345
# Poissons Ratio (z) = 0.17057 0.18498
#
# Static dielectric constant tensor:
#      x y z
#    x 1.764030 0.000000 -0.002460 
#    y 0.000000 1.689680 0.000000 
#    z -0.002460 0.000000 1.779040 
# 
# From -- ./inp_files/375418.got.cif
#   From: 2010.05.17/outbox.ucp.g08.bks.cvg/sg12_188_cif.got.tgz:375418.got - 2010.06.11 11:47:21.
