data_PCOD9224285
_publ_section_title
;
Structure prediction by ZEFSAII (Michael W. Deem and Ramdas Pophale) SiO2 
 PCOD9224285
Probable space group: C 2/M
;
_chemical_formula_sum "Si O2"
_cell_formula_units_Z 28
_cell_length_a 18.000000
_cell_length_b 9.000000
_cell_length_c 24.000000
_cell_angle_alpha 90.000000
_cell_angle_beta 130.000000
_cell_angle_gamma 90.000000
_cell_volume 2978.380795
_symmetry_space_group_name_H-M "C 2/M"
_symmetry_group_IT_number 12
_symmetry_cell_setting 'monoclinic'
loop_
_space_group_symop_operation_xyz
x,y,z
-x,y,-z
-x,-y,-z
x,-y,z
1/2+x,1/2+y,z
1/2-x,1/2+y,-z
1/2-x,1/2-y,-z
1/2+x,1/2-y,z
loop_
_atom_site_type_symbol
_atom_site_label
_atom_site_fract_x
_atom_site_fract_y
_atom_site_fract_z
Si Si1 0.427465 0.820925 0.339700
Si Si2 0.001317 0.668818 0.059472
Si Si3 0.589017 0.827190 0.498292
Si Si4 0.891593 0.178263 0.203245
Si Si5 0.271612 0.835721 0.955299
Si Si6 0.941098 0.680427 0.791363
Si Si7 0.776688 0.822482 0.353374
O O1 0.533847 0.778243 0.415541
O O2 0.410726 0.759270 0.270459
O O3 0.344277 0.753696 0.339273
O O4 0.422684 0.000000 0.339479
O O5 0.042983 0.500000 0.071512
O O6 0.051357 0.725376 0.139673
O O7 0.886602 0.655610 0.011283
O O8 0.000000 0.753386 0.000000
O O9 0.500000 0.819699 0.500000
O O10 0.678087 0.735254 0.566492
O O11 0.617502 0.000000 0.507436
O O12 0.785878 0.220457 0.126627
O O13 0.973310 0.236401 0.199874
O O14 0.896991 0.000000 0.213969
O O15 0.230261 0.000000 0.942317
O O16 0.250000 0.750000 0.000000
O O17 0.956560 0.500000 0.796781
O O18 0.835934 0.711973 0.713782
O O19 0.787658 0.000000 0.355573
#
# Coordination Sequence:
#
# PCOD9224285 Si02
#       7
#     8   8   8   8   8   8   8
#     4  10  21  37  58  82 110 147 186 223 273 335
#     4   9  18  33  56  79 104 142 181 219 265 320
#     4   8  16  33  55  79 108 144 183 221 270 332
#     4  11  23  36  55  83 113 143 186 237 274 317
#     4  10  20  35  57  80 106 142 183 223 268 325
#     4  10  21  37  56  79 112 151 185 219 273 338
#     4  10  20  33  56  87 114 142 182 230 275 324
#
# _framework density 9.4010809999999996
#
# number of rings (size 3 to 8) (size 9 to 14) (size 15 to 20)
#    0.000    2.286    1.429    2.143    2.000    4.857 
#    0.000    0.714    0.000    0.857    0.000    0.000 
#    0.000    0.000    0.000    0.000    0.000    0.000 
#
# Total GULP energy -155901.207052 kJ/mol
# GULP energy per Si atom -5567.900252 kJ/mol
# Density = 0.937968 g / cm^3
# Si number density = 9.401081 Si / 1000 Ang^3
#
#
#
# Elastic Constant Matrix: (Units=GPa)
#
#
# Indices 1 2 3 4 5 6 
#
# 1 -2.1164 5.8627 -5.2685 0.0000 3.8178 0.0000
# 2 5.8627 37.7538 33.4540 0.0000 3.8209 0.0000
# 3 -5.2685 33.4540 154.2419 0.0000 5.1360 0.0000
# 4 0.0000 0.0000 0.0000 27.6527 0.0000 -1.9621
# 5 3.8178 3.8209 5.1360 0.0000 30.8276 0.0000
# 6 0.0000 0.0000 0.0000 -1.9621 0.0000 21.3224
#
#
#
# Elastic Compliance Matrix: (Units=1/GPa)
#
#
# Indices 1 2 3 4 5 6 
#
# 1 -0.233689 0.051379 -0.019989 0.000000 0.025903 0.000000
# 2 0.051379 0.021752 -0.002676 0.000000 -0.008613 0.000000
# 3 -0.019989 -0.002676 0.006323 0.000000 0.001754 0.000000
# 4 0.000000 0.000000 0.000000 0.036401 0.000000 0.003350
# 5 0.025903 -0.008613 0.001754 0.000000 0.030006 0.000000
# 6 0.000000 0.000000 0.000000 0.003350 0.000000 0.047207
#
#
# Mechanical properties :
#
#
# Convention : Reuss Voigt Hill
#
# Bulk Modulus (GPa) = -6.74832 28.66397 10.95783
# Shear Modulus (GPa) = -25.14762 26.34927 0.60083
#
# Velocity S-wave (km/s) = -3.66113 3.74758 0.56590
# Velocity P-wave (km/s) = 4.63344 5.83129 2.50352
#
# Compressibility (1/GPa) = -0.14818512
#
# Stress axis : x y z
#
# Youngs Moduli (GPa) = -4.27919 45.97323 158.16320
#
# Poissons Ratio (x) = -2.36208 3.16146
# Poissons Ratio (y) = 0.21986 0.42325
# Poissons Ratio (z) = -0.08553 0.12303
#
# Static dielectric constant tensor:
#      x y z
#    x 1.622420 0.000000 0.001570 
#    y 0.000000 1.659560 0.000000 
#    z 0.001570 0.000000 1.721170 
# 
# From -- ./inp_files/342612.got.cif
#   From: 2010.05.17/outbox.ucp.g08.bks.cvg/sg12_172_cif.got.tgz:342612.got - 2010.06.11 11:47:21.
