data_PCOD9224668
_publ_section_title
;
Structure prediction by ZEFSAII (Michael W. Deem and Ramdas Pophale) SiO2 
 PCOD9224668
Probable space group: C 2/M
;
_chemical_formula_sum "Si O2"
_cell_formula_units_Z 32
_cell_length_a 12.000000
_cell_length_b 30.000000
_cell_length_c 15.000000
_cell_angle_alpha 90.000000
_cell_angle_beta 40.000000
_cell_angle_gamma 90.000000
_cell_volume 3471.053092
_symmetry_space_group_name_H-M "C 2/M"
_symmetry_group_IT_number 12
_symmetry_cell_setting 'monoclinic'
loop_
_space_group_symop_operation_xyz
x,y,z
-x,y,-z
-x,-y,-z
x,-y,z
1/2+x,1/2+y,z
1/2-x,1/2+y,-z
1/2-x,1/2-y,-z
1/2+x,1/2-y,z
loop_
_atom_site_type_symbol
_atom_site_label
_atom_site_fract_x
_atom_site_fract_y
_atom_site_fract_z
Si Si1 0.051286 0.584403 0.200895
Si Si2 0.001818 0.764631 0.103541
Si Si3 0.638542 0.187925 0.135755
Si Si4 0.048129 0.947309 0.722833
Si Si5 0.825649 0.947362 0.553607
Si Si6 0.861738 0.691729 0.657587
Si Si7 0.665963 0.051185 0.949543
Si Si8 0.651183 0.084675 0.340646
O O1 0.844423 0.580090 0.318820
O O2 0.108932 0.635235 0.147498
O O3 0.128304 0.553384 0.077253
O O4 0.111839 0.570859 0.263171
O O5 0.025237 0.719132 0.142472
O O6 0.827959 0.788574 0.241384
O O7 0.165599 0.798038 0.010694
O O8 0.000000 0.754145 0.000000
O O9 0.599198 0.201298 0.262519
O O10 0.145636 0.942092 0.569396
O O11 0.163986 0.928635 0.731698
O O12 0.027367 0.000000 0.752686
O O13 0.856097 0.927873 0.824035
O O14 0.000000 0.934997 0.500000
O O15 0.794258 0.000000 0.591758
O O16 0.855867 0.638240 0.654639
O O17 0.000000 0.707962 0.500000
O O18 0.679052 0.000000 0.908276
O O19 0.500000 0.071405 0.000000
O O20 0.500000 0.067735 0.500000
#
# Coordination Sequence:
#
# PCOD9224668 Si02
#       8
#     8   8   8   8   8   8   8   8
#     4  11  21  35  58  84 110 145 188 235 281 326
#     4   9  18  37  58  78 110 144 180 219 274 339
#     4   9  20  35  55  83 108 142 182 224 271 341
#     4  10  21  35  55  81 111 149 188 228 279 331
#     4  10  20  36  58  79 107 154 198 229 276 337
#     4   9  19  34  58  81 106 145 179 219 277 331
#     4  10  22  39  55  77 112 149 189 236 281 328
#     4  10  20  36  54  83 116 142 182 230 278 335
#
# _framework density 9.2191039999999997
#
# number of rings (size 3 to 8) (size 9 to 14) (size 15 to 20)
#    0.000    2.250    1.250    1.125    1.750    4.750 
#    0.000    1.875    2.750    0.000    0.000    0.000 
#    0.000    0.000    0.000    0.000    0.000    0.000 
#
# Total GULP energy -178360.512999 kJ/mol
# GULP energy per Si atom -5573.766031 kJ/mol
# Density = 0.919812 g / cm^3
# Si number density = 9.219104 Si / 1000 Ang^3
#
#
#
# Elastic Constant Matrix: (Units=GPa)
#
#
# Indices 1 2 3 4 5 6 
#
# 1 40.1916 0.2127 1.3123 0.0000 -7.1305 0.0000
# 2 0.2127 13.0981 3.8475 0.0000 1.9932 0.0000
# 3 1.3123 3.8475 72.4940 0.0000 -6.8633 0.0000
# 4 0.0000 0.0000 0.0000 14.2219 0.0000 4.8352
# 5 -7.1305 1.9932 -6.8633 0.0000 22.1279 0.0000
# 6 0.0000 0.0000 0.0000 4.8352 0.0000 17.1126
#
#
#
# Elastic Compliance Matrix: (Units=1/GPa)
#
#
# Indices 1 2 3 4 5 6 
#
# 1 0.026443 -0.001909 0.000459 0.000000 0.008835 0.000000
# 2 -0.001909 0.079282 -0.005056 0.000000 -0.009325 0.000000
# 3 0.000459 -0.005056 0.014538 0.000000 0.005113 0.000000
# 4 0.000000 0.000000 0.000000 0.077786 0.000000 -0.021979
# 5 0.008835 -0.009325 0.005113 0.000000 0.050465 0.000000
# 6 0.000000 0.000000 0.000000 -0.021979 0.000000 0.064646
#
#
# Mechanical properties :
#
#
# Convention : Reuss Voigt Hill
#
# Bulk Modulus (GPa) = 9.32380 15.16984 12.24682
# Shear Modulus (GPa) = 13.81506 18.71989 16.26747
#
# Velocity S-wave (km/s) = 2.74024 3.18980 2.97352
# Velocity P-wave (km/s) = 3.88325 4.67030 4.29484
#
# Compressibility (1/GPa) = 0.10725243
#
# Stress axis : x y z
#
# Youngs Moduli (GPa) = 37.81656 12.61318 68.78376
#
# Poissons Ratio (x) = 0.02408 -0.03158
# Poissons Ratio (y) = 0.07219 0.34777
# Poissons Ratio (z) = -0.01736 0.06377
#
# Static dielectric constant tensor:
#      x y z
#    x 1.651550 0.000000 -0.012530 
#    y 0.000000 1.605980 0.000000 
#    z -0.012530 0.000000 1.681570 
# 
# From -- ./inp_files/209825.got.cif
#   From: 2010.05.17/outbox.ucp.g08.bks.cvg/sg12_105_cif.got.tgz:209825.got - 2010.06.11 11:47:21.
