data_PCOD9224107
_publ_section_title
;
Structure prediction by ZEFSAII (Michael W. Deem and Ramdas Pophale) SiO2 
 PCOD9224107
Probable space group: C 2/M
;
_chemical_formula_sum "Si O2"
_cell_formula_units_Z 32
_cell_length_a 30.000000
_cell_length_b 9.000000
_cell_length_c 18.000000
_cell_angle_alpha 90.000000
_cell_angle_beta 140.000000
_cell_angle_gamma 90.000000
_cell_volume 3123.947783
_symmetry_space_group_name_H-M "C 2/M"
_symmetry_group_IT_number 12
_symmetry_cell_setting 'monoclinic'
loop_
_space_group_symop_operation_xyz
x,y,z
-x,y,-z
-x,-y,-z
x,-y,z
1/2+x,1/2+y,z
1/2-x,1/2+y,-z
1/2-x,1/2-y,-z
1/2+x,1/2-y,z
loop_
_atom_site_type_symbol
_atom_site_label
_atom_site_fract_x
_atom_site_fract_y
_atom_site_fract_z
Si Si1 0.039416 0.823688 0.976113
Si Si2 0.919906 0.828290 0.312082
Si Si3 0.573720 0.828848 0.245210
Si Si4 0.341108 0.171680 0.501312
Si Si5 0.778317 0.676513 0.110290
Si Si6 0.928493 0.830970 0.500955
Si Si7 0.801878 0.175413 0.677337
Si Si8 0.808848 0.177075 0.859447
O O1 0.987942 0.784687 0.845131
O O2 0.048568 0.000000 0.999779
O O3 0.113407 0.759734 0.047260
O O4 0.000000 0.766269 0.000000
O O5 0.858153 0.721638 0.213855
O O6 0.923559 0.831099 0.406183
O O7 0.994911 0.775664 0.380455
O O8 0.908303 0.000000 0.273085
O O9 0.600358 0.817887 0.362513
O O10 0.635181 0.773720 0.269862
O O11 0.555310 0.000000 0.205331
O O12 0.367954 0.241904 0.460958
O O13 0.270840 0.232332 0.447227
O O14 0.325977 0.000000 0.468164
O O15 0.770466 0.500000 0.096773
O O16 0.739390 0.734100 0.135615
O O17 0.750000 0.750000 0.000000
O O18 0.923721 0.000000 0.520891
O O19 0.786428 0.191362 0.745482
O O20 0.817644 0.000000 0.682310
O O21 0.813943 0.000000 0.879966
#
# Coordination Sequence:
#
# PCOD9224107 Si02
#       8
#     8   8   8   8   8   8   8   8
#     4  10  19  37  62  81 102 142 193 234 273 334
#     4   9  19  38  60  84 114 147 188 237 285 337
#     4  11  23  36  51  81 118 148 179 229 287 333
#     4  10  22  36  53  81 118 150 185 230 278 336
#     4  11  23  39  59  85 118 153 190 236 287 341
#     4   9  19  36  60  85 112 148 189 234 283 338
#     4  10  19  37  60  79 105 146 191 232 273 331
#     4   9  19  36  60  85 105 137 190 238 277 327
#
# _framework density 10.243449
#
# number of rings (size 3 to 8) (size 9 to 14) (size 15 to 20)
#    0.000    2.125    1.250    2.625    0.000    4.750 
#    0.000    7.500    0.000    0.000    0.000    0.000 
#    0.000    0.000    0.000    0.000    0.000    0.000 
#
# Total GULP energy -178197.117689 kJ/mol
# GULP energy per Si atom -5568.659928 kJ/mol
# Density = 1.022013 g / cm^3
# Si number density = 10.243449 Si / 1000 Ang^3
#
#
#
# Elastic Constant Matrix: (Units=GPa)
#
#
# Indices 1 2 3 4 5 6 
#
# 1 10.0050 -5.0046 -5.6094 0.0000 12.5484 0.0000
# 2 -5.0046 -11.2056 3.7042 0.0000 2.3106 0.0000
# 3 -5.6094 3.7042 26.3199 0.0000 21.2697 0.0000
# 4 0.0000 0.0000 0.0000 -10.5105 0.0000 -12.8992
# 5 12.5484 2.3106 21.2697 0.0000 22.7706 0.0000
# 6 0.0000 0.0000 0.0000 -12.8992 0.0000 7.3050
#
#
#
# Elastic Compliance Matrix: (Units=1/GPa)
#
#
# Indices 1 2 3 4 5 6 
#
# 1 -0.023214 0.004178 -0.063354 0.000000 0.071546 0.000000
# 2 0.004178 -0.085423 0.031689 0.000000 -0.023234 0.000000
# 3 -0.063354 0.031689 -0.022774 0.000000 0.052970 0.000000
# 4 0.000000 0.000000 0.000000 -0.030041 0.000000 -0.053047
# 5 0.071546 -0.023234 0.052970 0.000000 -0.042633 0.000000
# 6 0.000000 0.000000 0.000000 -0.053047 0.000000 0.043223
#
#
# Mechanical properties :
#
#
# Convention : Reuss Voigt Hill
#
# Bulk Modulus (GPa) = -5.36525 1.25552 -2.05486
# Shear Modulus (GPa) = -29.75910 6.04830 -11.85540
#
# Velocity S-wave (km/s) = -3.81542 1.72008 -2.40819
# Velocity P-wave (km/s) = 4.69409 2.13520 2.95596
#
# Compressibility (1/GPa) = -0.18638473
#
# Stress axis : x y z
#
# Youngs Moduli (GPa) = -43.07741 -11.70650 -43.90899
#
# Poissons Ratio (x) = 0.04891 -2.78179
# Poissons Ratio (y) = 0.17998 1.39142
# Poissons Ratio (z) = -2.72911 0.37096
#
# Static dielectric constant tensor:
#      x y z
#    x 1.704830 0.000000 0.004040 
#    y 0.000000 1.714120 0.000000 
#    z 0.004040 0.000000 1.950370 
# 
# From -- ./inp_files/295785.got.cif
#   From: 2010.05.17/outbox.ucp.g08.bks.cvg/sg12_148_cif.got.tgz:295785.got - 2010.06.11 11:47:21.
