data_PCOD9224589
_publ_section_title
;
Structure prediction by ZEFSAII (Michael W. Deem and Ramdas Pophale) SiO2 
 PCOD9224589
Probable space group: C 2/M
;
_chemical_formula_sum "Si O2"
_cell_formula_units_Z 28
_cell_length_a 18.000000
_cell_length_b 15.000000
_cell_length_c 12.000000
_cell_angle_alpha 90.000000
_cell_angle_beta 120.000000
_cell_angle_gamma 90.000000
_cell_volume 2805.922308
_symmetry_space_group_name_H-M "C 2/M"
_symmetry_group_IT_number 12
_symmetry_cell_setting 'monoclinic'
loop_
_space_group_symop_operation_xyz
x,y,z
-x,y,-z
-x,-y,-z
x,-y,z
1/2+x,1/2+y,z
1/2-x,1/2+y,-z
1/2-x,1/2-y,-z
1/2+x,1/2-y,z
loop_
_atom_site_type_symbol
_atom_site_label
_atom_site_fract_x
_atom_site_fract_y
_atom_site_fract_z
Si Si1 0.084263 0.697085 0.634774
Si Si2 0.578526 0.896004 0.865823
Si Si3 0.690893 0.099968 0.158909
Si Si4 0.122173 0.898943 0.379007
Si Si5 0.586624 0.789818 0.247150
Si Si6 0.675435 0.895055 0.514545
Si Si7 0.390928 0.399800 0.364574
O O1 0.093378 0.640957 0.753580
O O2 0.161358 0.666510 0.612216
O O3 0.077018 0.803166 0.653753
O O4 0.000000 0.672029 0.500000
O O5 0.504430 0.831044 0.855708
O O6 0.551312 0.000000 0.842678
O O7 0.659890 0.891228 0.008689
O O8 0.651409 0.180799 0.199189
O O9 0.791862 0.099722 0.253959
O O10 0.659895 0.000000 0.174118
O O11 0.086430 0.813639 0.284300
O O12 0.225482 0.892364 0.447306
O O13 0.101461 0.893087 0.495274
O O14 0.098219 0.000000 0.323044
O O15 0.618556 0.848250 0.376995
O O16 0.652538 0.000000 0.514492
O O17 0.424047 0.500000 0.357227
#
# Coordination Sequence:
#
# PCOD9224589 Si02
#       7
#     8   8   8   8   8   8   8
#     4  12  23  36  54  81 117 149 180 223 279 337
#     4  11  24  38  54  81 116 149 182 223 277 338
#     4  10  21  37  59  84 109 143 187 232 275 323
#     4  10  20  35  57  87 114 141 183 233 278 319
#     4  12  19  34  59  84 113 142 180 228 278 327
#     4  11  20  31  54  85 113 142 174 223 280 330
#     4  10  20  37  58  80 109 146 190 233 270 319
#
# _framework density 9.9788940000000004
#
# number of rings (size 3 to 8) (size 9 to 14) (size 15 to 20)
#    0.000    1.143    4.286    3.429    0.000    2.571 
#    0.000    0.714    0.000    2.571    0.000    0.000 
#    0.000    0.000    0.000    0.000    0.000    0.000 
#
# Total GULP energy -156353.336365 kJ/mol
# GULP energy per Si atom -5584.047727 kJ/mol
# Density = 0.995618 g / cm^3
# Si number density = 9.978894 Si / 1000 Ang^3
#
#
#
# Elastic Constant Matrix: (Units=GPa)
#
#
# Indices 1 2 3 4 5 6 
#
# 1 36.1360 6.5764 17.5864 0.0000 2.4682 0.0000
# 2 6.5764 155.8378 50.2380 0.0000 5.1916 0.0000
# 3 17.5864 50.2380 99.3257 0.0000 2.3171 0.0000
# 4 0.0000 0.0000 0.0000 29.2917 0.0000 0.0723
# 5 2.4682 5.1916 2.3171 0.0000 13.5822 0.0000
# 6 0.0000 0.0000 0.0000 0.0723 0.0000 22.2136
#
#
#
# Elastic Compliance Matrix: (Units=1/GPa)
#
#
# Indices 1 2 3 4 5 6 
#
# 1 0.030635 0.000695 -0.005662 0.000000 -0.004867 0.000000
# 2 0.000695 0.007754 -0.003989 0.000000 -0.002409 0.000000
# 3 -0.005662 -0.003989 0.013080 0.000000 0.000322 0.000000
# 4 0.000000 0.000000 0.000000 0.034140 0.000000 -0.000111
# 5 -0.004867 -0.002409 0.000322 0.000000 0.075376 0.000000
# 6 0.000000 0.000000 0.000000 -0.000111 0.000000 0.045018
#
#
# Mechanical properties :
#
#
# Convention : Reuss Voigt Hill
#
# Bulk Modulus (GPa) = 29.80012 48.90015 39.35013
# Shear Modulus (GPa) = 21.26760 27.47742 24.37251
#
# Velocity S-wave (km/s) = 3.26794 3.71452 3.49836
# Velocity P-wave (km/s) = 5.40400 6.55377 6.00646
#
# Compressibility (1/GPa) = 0.03355692
#
# Stress axis : x y z
#
# Youngs Moduli (GPa) = 32.64272 128.97109 76.45134
#
# Poissons Ratio (x) = -0.08958 0.43286
# Poissons Ratio (y) = -0.02267 0.30493
# Poissons Ratio (z) = 0.18482 0.51440
#
# Static dielectric constant tensor:
#      x y z
#    x 1.793180 0.000000 -0.004910 
#    y 0.000000 1.705660 0.000000 
#    z -0.004910 0.000000 1.669270 
# 
# From -- ./inp_files/156727.got.cif
#   From: 2010.05.17/outbox.ucp.g08.bks.cvg/sg12_79_cif.got.tgz:156727.got - 2010.06.11 11:47:21.
