data_PCOD9224890
_publ_section_title
;
Structure prediction by ZEFSAII (Michael W. Deem and Ramdas Pophale) SiO2 
 PCOD9224890
Probable space group: C 2/M
;
_chemical_formula_sum "Si O2"
_cell_formula_units_Z 32
_cell_length_a 30.000000
_cell_length_b 9.000000
_cell_length_c 15.000000
_cell_angle_alpha 90.000000
_cell_angle_beta 120.000000
_cell_angle_gamma 90.000000
_cell_volume 3507.402885
_symmetry_space_group_name_H-M "C 2/M"
_symmetry_group_IT_number 12
_symmetry_cell_setting 'monoclinic'
loop_
_space_group_symop_operation_xyz
x,y,z
-x,y,-z
-x,-y,-z
x,-y,z
1/2+x,1/2+y,z
1/2-x,1/2+y,-z
1/2-x,1/2-y,-z
1/2+x,1/2-y,z
loop_
_atom_site_type_symbol
_atom_site_label
_atom_site_fract_x
_atom_site_fract_y
_atom_site_fract_z
Si Si1 0.698245 0.820205 0.402470
Si Si2 0.621723 0.178038 0.797008
Si Si3 0.391165 0.327475 0.029821
Si Si4 0.579865 0.820444 0.328665
Si Si5 0.506908 0.819547 0.610665
Si Si6 0.489594 0.673551 0.890454
Si Si7 0.229339 0.178533 0.885972
Si Si8 0.316432 0.822096 0.822654
O O1 0.750000 0.750000 0.500000
O O2 0.641283 0.778198 0.387551
O O3 0.695165 0.783700 0.292636
O O4 0.702491 0.000000 0.414178
O O5 0.625377 0.226025 0.904035
O O6 0.564549 0.223616 0.703425
O O7 0.672588 0.255730 0.807043
O O8 0.625698 0.000000 0.791650
O O9 0.375532 0.500000 0.026283
O O10 0.453061 0.322830 0.092578
O O11 0.365063 0.264530 0.913862
O O12 0.541408 0.774108 0.372956
O O13 0.551160 0.758018 0.211861
O O14 0.579053 0.000000 0.325556
O O15 0.500000 0.772952 0.500000
O O16 0.506454 0.000000 0.611582
O O17 0.473456 0.500000 0.882594
O O18 0.500000 0.734689 0.000000
O O19 0.269175 0.208543 0.844277
O O20 0.226264 0.000000 0.894287
O O21 0.250000 0.250000 0.000000
O O22 0.326313 0.000000 0.835051
#
# Coordination Sequence:
#
# PCOD9224890 Si02
#       8
#     8   8   8   8   8   8   8   8
#     4  10  23  42  63  87 115 152 197 246 293 343
#     4  11  21  35  57  83 115 154 193 239 294 344
#     4  11  21  33  55  84 117 153 191 236 289 351
#     4  10  20  37  61  86 112 148 194 238 283 341
#     4   9  19  36  58  85 116 150 191 239 288 339
#     4  10  21  35  53  83 120 154 188 233 290 345
#     4  11  22  36  56  82 117 157 197 243 294 352
#     4  10  22  39  58  83 117 154 195 243 296 346
#
# _framework density 9.1235599999999994
#
# number of rings (size 3 to 8) (size 9 to 14) (size 15 to 20)
#    0.000    1.750    2.500    1.875    0.000    3.250 
#    0.000    1.250    0.000    3.375    0.000    0.000 
#    0.000    0.000    0.000    0.000    0.000    0.000 
#
# Total GULP energy -178492.557347 kJ/mol
# GULP energy per Si atom -5577.892417 kJ/mol
# Density = 0.910279 g / cm^3
# Si number density = 9.123560 Si / 1000 Ang^3
#
#
#
# Elastic Constant Matrix: (Units=GPa)
#
#
# Indices 1 2 3 4 5 6 
#
# 1 126.0578 28.4472 60.3888 0.0000 16.5029 0.0000
# 2 28.4472 48.0012 29.1941 0.0000 8.9929 0.0000
# 3 60.3888 29.1941 144.8990 0.0000 14.9051 0.0000
# 4 0.0000 0.0000 0.0000 31.8086 0.0000 6.9528
# 5 16.5029 8.9929 14.9051 0.0000 39.8895 0.0000
# 6 0.0000 0.0000 0.0000 6.9528 0.0000 27.9887
#
#
#
# Elastic Compliance Matrix: (Units=1/GPa)
#
#
# Indices 1 2 3 4 5 6 
#
# 1 0.010764 -0.003835 -0.003478 0.000000 -0.002289 0.000000
# 2 -0.003835 0.025648 -0.003263 0.000000 -0.002976 0.000000
# 3 -0.003478 -0.003263 0.009136 0.000000 -0.001239 0.000000
# 4 0.000000 0.000000 0.000000 0.033243 0.000000 -0.008258
# 5 -0.002289 -0.002976 -0.001239 0.000000 0.027150 0.000000
# 6 0.000000 0.000000 0.000000 -0.008258 0.000000 0.037780
#
#
# Mechanical properties :
#
#
# Convention : Reuss Voigt Hill
#
# Bulk Modulus (GPa) = 40.99104 61.66869 51.32986
# Shear Modulus (GPa) = 28.90087 33.33255 31.11671
#
# Velocity S-wave (km/s) = 3.98409 4.27866 4.13400
# Velocity P-wave (km/s) = 6.60887 7.63407 7.13989
#
# Compressibility (1/GPa) = 0.02439558
#
# Stress axis : x y z
#
# Youngs Moduli (GPa) = 92.90109 38.98974 109.46019
#
# Poissons Ratio (x) = 0.14953 0.38070
# Poissons Ratio (y) = 0.35628 0.35717
# Poissons Ratio (z) = 0.32311 0.12722
#
# Static dielectric constant tensor:
#      x y z
#    x 1.683900 0.000000 -0.014820 
#    y 0.000000 1.618740 0.000000 
#    z -0.014820 0.000000 1.613710 
# 
# From -- ./inp_files/249146.got.cif
#   From: 2010.05.17/outbox.ucp.g08.bks.cvg/sg12_125_cif.got.tgz:249146.got - 2010.06.11 11:47:21.
