data_PCOD9224344
_publ_section_title
;
Structure prediction by ZEFSAII (Michael W. Deem and Ramdas Pophale) SiO2 
 PCOD9224344
Probable space group: C 2/M
;
_chemical_formula_sum "Si O2"
_cell_formula_units_Z 28
_cell_length_a 18.000000
_cell_length_b 9.000000
_cell_length_c 27.000000
_cell_angle_alpha 90.000000
_cell_angle_beta 140.000000
_cell_angle_gamma 90.000000
_cell_volume 2811.553005
_symmetry_space_group_name_H-M "C 2/M"
_symmetry_group_IT_number 12
_symmetry_cell_setting 'monoclinic'
loop_
_space_group_symop_operation_xyz
x,y,z
-x,y,-z
-x,-y,-z
x,-y,z
1/2+x,1/2+y,z
1/2-x,1/2+y,-z
1/2-x,1/2-y,-z
1/2+x,1/2-y,z
loop_
_atom_site_type_symbol
_atom_site_label
_atom_site_fract_x
_atom_site_fract_y
_atom_site_fract_z
Si Si1 0.564613 0.330567 0.607049
Si Si2 0.494701 0.321217 0.230835
Si Si3 0.329935 0.161578 0.504817
Si Si4 0.254227 0.334232 0.646550
Si Si5 0.374764 0.671152 0.923747
Si Si6 0.798858 0.671435 0.072406
Si Si7 0.673535 0.671898 0.769894
O O1 0.535975 0.500000 0.582011
O O2 0.448831 0.239971 0.553818
O O3 0.648110 0.262501 0.609456
O O4 0.634614 0.320707 0.693979
O O5 0.506671 0.500000 0.239234
O O6 0.621023 0.263240 0.282188
O O7 0.406712 0.267244 0.145004
O O8 0.432690 0.270841 0.250145
O O9 0.250000 0.250000 0.500000
O O10 0.258194 0.148726 0.418093
O O11 0.355139 0.000000 0.538613
O O12 0.246188 0.500000 0.665386
O O13 0.393183 0.500000 0.918153
O O14 0.297170 0.675113 0.933498
O O15 0.293372 0.747469 0.841904
O O16 0.500000 0.737740 0.000000
O O17 0.830146 0.500000 0.079995
O O18 0.750000 0.750000 0.000000
O O19 0.689785 0.500000 0.792672
#
# Coordination Sequence:
#
# PCOD9224344 Si02
#       7
#     8   8   8   8   8   8   8
#     4  11  23  38  57  85 118 148 184 230 276 325
#     4   9  18  36  58  76 102 142 183 224 272 325
#     4  11  23  40  62  86 113 148 189 229 274 330
#     4  10  22  39  58  82 113 148 185 227 278 333
#     4   9  19  35  54  77 105 138 179 225 270 321
#     4  10  20  34  53  78 107 139 178 223 270 324
#     4   9  19  36  56  78 106 142 183 225 271 325
#
# _framework density 9.9589090000000002
#
# number of rings (size 3 to 8) (size 9 to 14) (size 15 to 20)
#    0.000    2.143    0.000    2.571    0.000    8.857 
#    0.000    7.143    0.000    0.000    0.000    0.000 
#    0.000    0.000    0.000    0.000    0.000    0.000 
#
# Total GULP energy -156061.098144 kJ/mol
# GULP energy per Si atom -5573.610648 kJ/mol
# Density = 0.993624 g / cm^3
# Si number density = 9.958909 Si / 1000 Ang^3
#
#
#
# Elastic Constant Matrix: (Units=GPa)
#
#
# Indices 1 2 3 4 5 6 
#
# 1 67.1356 38.2140 40.5125 0.0000 19.6711 0.0000
# 2 38.2140 26.8747 25.0636 0.0000 4.7802 0.0000
# 3 40.5125 25.0636 52.5332 0.0000 21.0052 0.0000
# 4 0.0000 0.0000 0.0000 26.3188 0.0000 5.3908
# 5 19.6711 4.7802 21.0052 0.0000 30.7276 0.0000
# 6 0.0000 0.0000 0.0000 5.3908 0.0000 25.9551
#
#
#
# Elastic Compliance Matrix: (Units=1/GPa)
#
#
# Indices 1 2 3 4 5 6 
#
# 1 0.142944 -0.205757 0.016131 0.000000 -0.070528 0.000000
# 2 -0.205757 0.369234 -0.064936 0.000000 0.118670 0.000000
# 3 0.016131 -0.064936 0.051834 0.000000 -0.035658 0.000000
# 4 0.000000 0.000000 0.000000 0.039684 0.000000 -0.008242
# 5 -0.070528 0.118670 -0.035658 0.000000 0.083609 0.000000
# 6 0.000000 0.000000 0.000000 -0.008242 0.000000 0.040240
#
#
# Mechanical properties :
#
#
# Convention : Reuss Voigt Hill
#
# Bulk Modulus (GPa) = 18.21823 39.34708 28.78266
# Shear Modulus (GPa) = 3.98417 19.45053 11.71735
#
# Velocity S-wave (km/s) = 1.41586 3.12835 2.42809
# Velocity P-wave (km/s) = 3.44085 5.73118 4.72683
#
# Compressibility (1/GPa) = 0.05489007
#
# Stress axis : x y z
#
# Youngs Moduli (GPa) = 6.99574 2.70831 19.29220
#
# Poissons Ratio (x) = 0.55725 -0.31120
# Poissons Ratio (y) = 1.43942 1.25275
# Poissons Ratio (z) = -0.11285 0.17587
#
# Static dielectric constant tensor:
#      x y z
#    x 1.685020 0.000000 -0.013730 
#    y 0.000000 1.735880 0.000000 
#    z -0.013730 0.000000 1.681290 
# 
# From -- ./inp_files/363155.got.cif
#   From: 2010.05.17/outbox.ucp.g08.bks.cvg/sg12_182_cif.got.tgz:363155.got - 2010.06.11 11:47:21.
