data_PCOD9224240
_publ_section_title
;
Structure prediction by ZEFSAII (Michael W. Deem and Ramdas Pophale) SiO2 
 PCOD9224240
Probable space group: C 2/M
;
_chemical_formula_sum "Si O2"
_cell_formula_units_Z 20
_cell_length_a 27.000000
_cell_length_b 9.000000
_cell_length_c 27.000000
_cell_angle_alpha 90.000000
_cell_angle_beta 160.000000
_cell_angle_gamma 90.000000
_cell_volume 2243.994160
_symmetry_space_group_name_H-M "C 2/M"
_symmetry_group_IT_number 12
_symmetry_cell_setting 'monoclinic'
loop_
_space_group_symop_operation_xyz
x,y,z
-x,y,-z
-x,-y,-z
x,-y,z
1/2+x,1/2+y,z
1/2-x,1/2+y,-z
1/2-x,1/2-y,-z
1/2+x,1/2-y,z
loop_
_atom_site_type_symbol
_atom_site_label
_atom_site_fract_x
_atom_site_fract_y
_atom_site_fract_z
Si Si1 0.784616 0.323740 0.254400
Si Si2 0.486991 0.323916 0.363016
Si Si3 0.721652 0.321649 0.919102
Si Si4 0.760655 0.676307 0.683753
Si Si5 0.569751 0.323005 0.966903
O O1 0.796051 0.500000 0.274583
O O2 0.798890 0.236931 0.319426
O O3 0.900072 0.270524 0.322098
O O4 0.636372 0.294557 0.084343
O O5 0.454275 0.500000 0.339564
O O6 0.429150 0.288131 0.253109
O O7 0.651985 0.301835 0.535290
O O8 0.731957 0.500000 0.933859
O O9 0.750000 0.250000 0.000000
O O10 0.838672 0.260329 0.989490
O O11 0.786303 0.500000 0.712696
O O12 0.907759 0.764527 0.813190
O O13 0.579202 0.500000 0.967612
#
# Coordination Sequence:
#
# PCOD9224240 Si02
#       5
#     8   8   8   8   8
#     4  10  20  33  51  76 107 143 179 212 250 300
#     4   9  20  36  53  76 106 138 173 213 256 306
#     4  10  20  38  61  80 100 130 170 215 263 312
#     4  11  21  33  51  77 109 142 174 210 255 304
#     4  10  21  36  53  77 107 138 175 215 255 302
#
# _framework density 8.9126790000000007
#
# number of rings (size 3 to 8) (size 9 to 14) (size 15 to 20)
#    0.000    2.000    0.000    3.600    0.000    9.600 
#    0.000    1.000    0.000    0.000    0.000    0.000 
#    0.000    0.000    0.000    0.000    0.000    0.000 
#
# Total GULP energy -111522.917728 kJ/mol
# GULP energy per Si atom -5576.145886 kJ/mol
# Density = 0.889239 g / cm^3
# Si number density = 8.912679 Si / 1000 Ang^3
#
#
#
# Elastic Constant Matrix: (Units=GPa)
#
#
# Indices 1 2 3 4 5 6 
#
# 1 64.7409 20.3030 21.4809 0.0001 -32.1559 0.0001
# 2 20.3030 62.9060 39.0974 0.0001 -16.8415 0.0000
# 3 21.4809 39.0974 100.0712 0.0004 -26.3064 0.0002
# 4 0.0001 0.0001 0.0004 27.0839 -0.0001 -3.0387
# 5 -32.1559 -16.8415 -26.3064 -0.0001 32.3476 0.0000
# 6 0.0001 0.0000 0.0002 -3.0387 0.0000 36.5456
#
#
#
# Elastic Compliance Matrix: (Units=1/GPa)
#
#
# Indices 1 2 3 4 5 6 
#
# 1 0.031310 -0.003455 0.002974 0.000000 0.031744 0.000000
# 2 -0.003455 0.022150 -0.007356 0.000000 0.002116 0.000000
# 3 0.002974 -0.007356 0.015262 0.000000 0.011537 0.000000
# 4 0.000000 0.000000 0.000000 0.037270 0.000000 0.003099
# 5 0.031744 0.002116 0.011537 0.000000 0.072954 0.000000
# 6 0.000000 0.000000 0.000000 0.003099 0.000000 0.027621
#
#
# Mechanical properties :
#
#
# Convention : Reuss Voigt Hill
#
# Bulk Modulus (GPa) = 18.85136 43.27564 31.06350
# Shear Modulus (GPa) = 20.83999 28.98455 24.91227
#
# Velocity S-wave (km/s) = 3.42295 4.03678 3.74247
# Velocity P-wave (km/s) = 5.12061 6.78658 6.01159
#
# Compressibility (1/GPa) = 0.05304658
#
# Stress axis : x y z
#
# Youngs Moduli (GPa) = 31.93903 45.14620 65.52404
#
# Poissons Ratio (x) = 0.15597 -0.19485
# Poissons Ratio (y) = 0.11034 0.48201
# Poissons Ratio (z) = -0.09498 0.33211
#
# Static dielectric constant tensor:
#      x y z
#    x 1.573620 0.000000 0.007130 
#    y 0.000000 1.595790 0.000000 
#    z 0.007130 0.000000 1.673620 
# 
# From -- ./inp_files/92723.got.cif
#   From: 2010.05.17/outbox.ucp.g08.bks.cvg/sg12_47_cif.got.tgz:92723.got - 2010.06.11 11:47:21.
