data_PCOD9224508
_publ_section_title
;
Structure prediction by ZEFSAII (Michael W. Deem and Ramdas Pophale) SiO2 
 PCOD9224508
Probable space group: C 2/M
;
_chemical_formula_sum "Si O2"
_cell_formula_units_Z 28
_cell_length_a 30.000000
_cell_length_b 9.000000
_cell_length_c 15.000000
_cell_angle_alpha 90.000000
_cell_angle_beta 130.000000
_cell_angle_gamma 90.000000
_cell_volume 3102.479995
_symmetry_space_group_name_H-M "C 2/M"
_symmetry_group_IT_number 12
_symmetry_cell_setting 'monoclinic'
loop_
_space_group_symop_operation_xyz
x,y,z
-x,y,-z
-x,-y,-z
x,-y,z
1/2+x,1/2+y,z
1/2-x,1/2+y,-z
1/2-x,1/2-y,-z
1/2+x,1/2-y,z
loop_
_atom_site_type_symbol
_atom_site_label
_atom_site_fract_x
_atom_site_fract_y
_atom_site_fract_z
Si Si1 0.070969 0.173785 0.509515
Si Si2 0.859794 0.328176 0.541320
Si Si3 0.438716 0.321956 0.790264
Si Si4 0.255106 0.821994 0.605175
Si Si5 0.125466 0.678092 0.137336
Si Si6 0.432290 0.670767 0.300255
Si Si7 0.928963 0.180517 0.099149
O O1 0.092741 0.298943 0.471872
O O2 0.089353 0.223534 0.632040
O O3 0.001881 0.167418 0.404389
O O4 0.090360 0.000000 0.518123
O O5 0.848873 0.500000 0.548460
O O6 0.888355 0.245422 0.662440
O O7 0.803179 0.246933 0.429396
O O8 0.433329 0.500000 0.785557
O O9 0.425140 0.251302 0.868014
O O10 0.503576 0.285731 0.839549
O O11 0.250000 0.750000 0.500000
O O12 0.312854 0.784502 0.735658
O O13 0.252024 0.000000 0.594115
O O14 0.120383 0.500000 0.130129
O O15 0.115065 0.745469 0.026666
O O16 0.412781 0.500000 0.269693
O O17 0.418838 0.736825 0.186952
O O18 0.924163 0.000000 0.089411
#
# Coordination Sequence:
#
# PCOD9224508 Si02
#       7
#     8   8   8   8   8   8   8
#     4   9  16  32  56  80 108 142 179 221 267 319
#     4  12  23  34  53  82 114 143 177 224 276 322
#     4  11  21  35  56  79 108 147 185 219 261 318
#     4  11  23  39  58  78 104 141 185 227 271 319
#     4  11  24  38  53  78 110 143 180 224 273 322
#     4   8  15  30  55  82 107 140 182 220 260 320
#     4  10  20  35  55  81 110 146 185 216 259 324
#
# _framework density 9.0250380000000003
#
# number of rings (size 3 to 8) (size 9 to 14) (size 15 to 20)
#    0.000    1.714    2.857    3.857    0.000    4.571 
#    0.000    2.143    0.000    0.857    0.000    0.000 
#    0.000    0.000    0.000    0.000    0.000    0.000 
#
# Total GULP energy -155943.576575 kJ/mol
# GULP energy per Si atom -5569.413449 kJ/mol
# Density = 0.900450 g / cm^3
# Si number density = 9.025038 Si / 1000 Ang^3
#
#
#
# Elastic Constant Matrix: (Units=GPa)
#
#
# Indices 1 2 3 4 5 6 
#
# 1 1.2303 1.9771 11.8753 0.0000 -10.6273 0.0000
# 2 1.9771 49.1340 29.6841 0.0000 3.4242 0.0000
# 3 11.8753 29.6841 123.4735 0.0000 -19.3994 0.0000
# 4 0.0000 0.0000 0.0000 28.7927 0.0000 3.4977
# 5 -10.6273 3.4242 -19.3994 0.0000 34.8216 0.0000
# 6 0.0000 0.0000 0.0000 3.4977 0.0000 6.1667
#
#
#
# Elastic Compliance Matrix: (Units=1/GPa)
#
#
# Indices 1 2 3 4 5 6 
#
# 1 -0.421310 0.014266 0.018267 0.000000 -0.119806 0.000000
# 2 0.014266 0.024555 -0.007639 0.000000 -0.002317 0.000000
# 3 0.018267 -0.007639 0.010052 0.000000 0.011927 0.000000
# 4 0.000000 0.000000 0.000000 0.037301 0.000000 -0.021157
# 5 -0.119806 -0.002317 0.011927 0.000000 -0.000974 0.000000
# 6 0.000000 0.000000 0.000000 -0.021157 0.000000 0.174162
#
#
# Mechanical properties :
#
#
# Convention : Reuss Voigt Hill
#
# Bulk Modulus (GPa) = -2.96812 28.99010 13.01099
# Shear Modulus (GPa) = -14.77952 22.64296 3.93172
#
# Velocity S-wave (km/s) = -2.86458 3.54567 1.47748
# Velocity P-wave (km/s) = 3.54811 5.73220 3.18348
#
# Compressibility (1/GPa) = -0.33691331
#
# Stress axis : x y z
#
# Youngs Moduli (GPa) = -2.37355 40.72464 99.47873
#
# Poissons Ratio (x) = -0.58100 -1.81721
# Poissons Ratio (y) = 0.03386 0.75995
# Poissons Ratio (z) = 0.04336 0.31111
#
# Static dielectric constant tensor:
#      x y z
#    x 1.783600 0.000000 -0.026530 
#    y 0.000000 1.609410 0.000000 
#    z -0.026530 0.000000 1.633580 
# 
# From -- ./inp_files/237479.got.cif
#   From: 2010.05.17/outbox.ucp.g08.bks.cvg/sg12_119_cif.got.tgz:237479.got - 2010.06.11 11:47:21.
