data_PCOD9224229
_publ_section_title
;
Structure prediction by ZEFSAII (Michael W. Deem and Ramdas Pophale) SiO2 
 PCOD9224229
Probable space group: C 2/M
;
_chemical_formula_sum "Si O2"
_cell_formula_units_Z 28
_cell_length_a 30.000000
_cell_length_b 9.000000
_cell_length_c 12.000000
_cell_angle_alpha 90.000000
_cell_angle_beta 60.000000
_cell_angle_gamma 90.000000
_cell_volume 2805.922308
_symmetry_space_group_name_H-M "C 2/M"
_symmetry_group_IT_number 12
_symmetry_cell_setting 'monoclinic'
loop_
_space_group_symop_operation_xyz
x,y,z
-x,y,-z
-x,-y,-z
x,-y,z
1/2+x,1/2+y,z
1/2-x,1/2+y,-z
1/2-x,1/2-y,-z
1/2+x,1/2-y,z
loop_
_atom_site_type_symbol
_atom_site_label
_atom_site_fract_x
_atom_site_fract_y
_atom_site_fract_z
Si Si1 0.909814 0.324662 0.183376
Si Si2 0.027448 0.176875 0.696972
Si Si3 0.193141 0.677971 0.574146
Si Si4 0.809113 0.669134 0.041765
Si Si5 0.371244 0.678806 0.548436
Si Si6 0.707519 0.831918 0.201550
Si Si7 0.425617 0.176999 0.908038
O O1 0.916023 0.500000 0.204029
O O2 0.941187 0.227783 0.232320
O O3 0.848128 0.293238 0.273049
O O4 0.932841 0.302740 0.031843
O O5 0.068282 0.217348 0.547033
O O6 0.971133 0.250186 0.779229
O O7 0.021115 0.000000 0.702347
O O8 0.198870 0.500000 0.558985
O O9 0.250000 0.750000 0.500000
O O10 0.161507 0.745402 0.509719
O O11 0.811578 0.500000 0.084143
O O12 0.762548 0.755998 0.159215
O O13 0.795118 0.659869 0.928687
O O14 0.866887 0.733248 0.967910
O O15 0.367087 0.500000 0.547818
O O16 0.341469 0.740038 0.693356
O O17 0.705480 0.000000 0.248847
O O18 0.425486 0.000000 0.884650
#
# Coordination Sequence:
#
# PCOD9224229 Si02
#       7
#     8   8   8   8   8   8   8
#     4   9  19  34  52  75 106 145 182 213 259 322
#     4  10  21  36  53  78 108 141 181 226 269 312
#     4  10  20  33  50  78 111 142 180 223 265 320
#     4   9  20  37  57  82 112 142 175 219 273 330
#     4  10  21  37  56  75 104 147 183 219 275 326
#     4  10  20  36  58  84 109 138 179 225 273 325
#     4  10  20  35  56  79 106 144 181 216 264 323
#
# _framework density 9.9788940000000004
#
# number of rings (size 3 to 8) (size 9 to 14) (size 15 to 20)
#    0.000    2.286    0.000    2.143    2.000    5.714 
#    0.000    0.714    0.000    4.286    0.000    0.000 
#    0.000    0.000    0.000    0.000    0.000    0.000 
#
# Total GULP energy -156146.101727 kJ/mol
# GULP energy per Si atom -5576.646490 kJ/mol
# Density = 0.995618 g / cm^3
# Si number density = 9.978894 Si / 1000 Ang^3
#
#
#
# Elastic Constant Matrix: (Units=GPa)
#
#
# Indices 1 2 3 4 5 6 
#
# 1 52.4309 17.6498 8.6567 0.0000 -35.4909 0.0000
# 2 17.6498 75.1572 39.6205 0.0000 -26.9470 0.0000
# 3 8.6567 39.6205 91.5395 0.0000 -42.1297 0.0000
# 4 0.0000 0.0000 0.0000 30.0463 0.0000 -13.2936
# 5 -35.4909 -26.9470 -42.1297 0.0000 41.7005 0.0000
# 6 0.0000 0.0000 0.0000 -13.2936 0.0000 28.7083
#
#
#
# Elastic Compliance Matrix: (Units=1/GPa)
#
#
# Indices 1 2 3 4 5 6 
#
# 1 0.141390 -0.004142 0.079571 0.000000 0.198048 0.000000
# 2 -0.004142 0.018434 -0.006966 0.000000 0.001349 0.000000
# 3 0.079571 -0.006966 0.066372 0.000000 0.130275 0.000000
# 4 0.000000 0.000000 0.000000 0.041857 0.000000 0.019382
# 5 0.198048 0.001349 0.130275 0.000000 0.325025 0.000000
# 6 0.000000 0.000000 0.000000 0.019382 0.000000 0.043808
#
#
# Mechanical properties :
#
#
# Convention : Reuss Voigt Hill
#
# Bulk Modulus (GPa) = 2.75391 38.99797 20.87594
# Shear Modulus (GPa) = 8.05150 30.30440 19.17795
#
# Velocity S-wave (km/s) = 2.01073 3.90092 3.10324
# Velocity P-wave (km/s) = 2.60261 6.31445 4.82938
#
# Compressibility (1/GPa) = 0.36312013
#
# Stress axis : x y z
#
# Youngs Moduli (GPa) = 7.07264 54.24699 15.06669
#
# Poissons Ratio (x) = 0.22470 -1.19887
# Poissons Ratio (y) = 0.02930 0.10496
# Poissons Ratio (z) = -0.56277 0.37790
#
# Static dielectric constant tensor:
#      x y z
#    x 1.727470 0.000000 0.008610 
#    y 0.000000 1.685840 0.000000 
#    z 0.008610 0.000000 1.748380 
# 
# From -- ./inp_files/187215.got.cif
#   From: 2010.05.17/outbox.ucp.g08.bks.cvg/sg12_94_cif.got.tgz:187215.got - 2010.06.11 11:47:21.
