data_PCOD9224671
_publ_section_title
;
Structure prediction by ZEFSAII (Michael W. Deem and Ramdas Pophale) SiO2 
 PCOD9224671
Probable space group: C 2/M
;
_chemical_formula_sum "Si O2"
_cell_formula_units_Z 24
_cell_length_a 15.000000
_cell_length_b 21.000000
_cell_length_c 9.000000
_cell_angle_alpha 90.000000
_cell_angle_beta 70.000000
_cell_angle_gamma 90.000000
_cell_volume 2664.028580
_symmetry_space_group_name_H-M "C 2/M"
_symmetry_group_IT_number 12
_symmetry_cell_setting 'monoclinic'
loop_
_space_group_symop_operation_xyz
x,y,z
-x,y,-z
-x,-y,-z
x,-y,z
1/2+x,1/2+y,z
1/2-x,1/2+y,-z
1/2-x,1/2-y,-z
1/2+x,1/2-y,z
loop_
_atom_site_type_symbol
_atom_site_label
_atom_site_fract_x
_atom_site_fract_y
_atom_site_fract_z
Si Si1 0.781467 0.927976 0.466428
Si Si2 0.323462 0.197391 0.395597
Si Si3 0.007323 0.226329 0.332533
Si Si4 0.649614 0.430752 0.235728
Si Si5 0.719628 0.294536 0.150589
Si Si6 0.035689 0.896552 0.812653
O O1 0.706274 0.870627 0.518839
O O2 0.834466 0.923115 0.596839
O O3 0.858866 0.917120 0.292844
O O4 0.743296 0.000000 0.476996
O O5 0.250000 0.250000 0.500000
O O6 0.431439 0.216871 0.368541
O O7 0.298053 0.200257 0.235024
O O8 0.974591 0.177787 0.223524
O O9 0.000000 0.195138 0.500000
O O10 0.119379 0.236821 0.256964
O O11 0.689710 0.500000 0.170127
O O12 0.694011 0.368538 0.131672
O O13 0.539836 0.429392 0.253713
O O14 0.750000 0.250000 0.000000
O O15 0.000000 0.908783 0.000000
#
# Coordination Sequence:
#
# PCOD9224671 Si02
#       6
#     8   8   8   8   8   8
#     4  10  20  36  55  77 108 150 191 228 273 338
#     4  11  20  35  60  81 107 146 194 228 275 332
#     4  11  21  37  57  81 113 151 189 231 278 336
#     4   9  19  35  53  74 109 150 183 220 276 351
#     4  10  22  35  56  87 115 142 185 235 288 336
#     4  11  21  30  50  83 116 144 177 226 292 350
#
# _framework density 9.0089120000000005
#
# number of rings (size 3 to 8) (size 9 to 14) (size 15 to 20)
#    0.000    1.667    3.333    3.000    4.667    2.667 
#    0.000    0.000    0.000    1.500    0.000    4.667 
#    0.000    0.000    0.000    0.000    0.000    0.167 
#
# Total GULP energy -133748.561278 kJ/mol
# GULP energy per Si atom -5572.856720 kJ/mol
# Density = 0.898841 g / cm^3
# Si number density = 9.008912 Si / 1000 Ang^3
#
#
#
# Elastic Constant Matrix: (Units=GPa)
#
#
# Indices 1 2 3 4 5 6 
#
# 1 61.2593 28.3005 9.8546 0.0000 -4.8575 0.0000
# 2 28.3005 123.1640 44.6752 0.0000 -7.1719 0.0000
# 3 9.8546 44.6752 80.0610 0.0000 -16.4816 0.0000
# 4 0.0000 0.0000 0.0000 14.9236 0.0000 3.0387
# 5 -4.8575 -7.1719 -16.4816 0.0000 15.2517 0.0000
# 6 0.0000 0.0000 0.0000 3.0387 0.0000 20.3983
#
#
#
# Elastic Compliance Matrix: (Units=1/GPa)
#
#
# Indices 1 2 3 4 5 6 
#
# 1 0.018576 -0.004419 0.001247 0.000000 0.005186 0.000000
# 2 -0.004419 0.011267 -0.006356 0.000000 -0.002978 0.000000
# 3 0.001247 -0.006356 0.019742 0.000000 0.018742 0.000000
# 4 0.000000 0.000000 0.000000 0.069104 0.000000 -0.010294
# 5 0.005186 -0.002978 0.018742 0.000000 0.086072 0.000000
# 6 0.000000 0.000000 0.000000 -0.010294 0.000000 0.050557
#
#
# Mechanical properties :
#
#
# Convention : Reuss Voigt Hill
#
# Bulk Modulus (GPa) = 32.75590 47.79386 40.27488
# Shear Modulus (GPa) = 17.57158 22.22498 19.89828
#
# Velocity S-wave (km/s) = 3.12626 3.51593 3.32681
# Velocity P-wave (km/s) = 5.59022 6.56246 6.09575
#
# Compressibility (1/GPa) = 0.03052885
#
# Stress axis : x y z
#
# Youngs Moduli (GPa) = 53.83282 88.75687 50.65276
#
# Poissons Ratio (x) = 0.39218 -0.06315
# Poissons Ratio (y) = 0.23787 0.32196
# Poissons Ratio (z) = -0.06712 0.56416
#
# Static dielectric constant tensor:
#      x y z
#    x 1.617420 0.000000 0.008880 
#    y 0.000000 1.676100 0.000000 
#    z 0.008880 0.000000 1.673960 
# 
# From -- ./inp_files/63321.got.cif
#   From: 2010.05.17/outbox.ucp.g08.bks.cvg/sg12_32_cif.got.tgz:63321.got - 2010.06.11 11:47:21.
