data_PCOD9224691
_publ_section_title
;
Structure prediction by ZEFSAII (Michael W. Deem and Ramdas Pophale) SiO2 
 PCOD9224691
Probable space group: C 2/M
;
_chemical_formula_sum "Si O2"
_cell_formula_units_Z 24
_cell_length_a 30.000000
_cell_length_b 9.000000
_cell_length_c 9.000000
_cell_angle_alpha 90.000000
_cell_angle_beta 90.000000
_cell_angle_gamma 90.000000
_cell_volume 2430.000000
_symmetry_space_group_name_H-M "C 2/M"
_symmetry_group_IT_number 12
_symmetry_cell_setting 'monoclinic'
loop_
_space_group_symop_operation_xyz
x,y,z
-x,y,-z
-x,-y,-z
x,-y,z
1/2+x,1/2+y,z
1/2-x,1/2+y,-z
1/2-x,1/2-y,-z
1/2+x,1/2-y,z
loop_
_atom_site_type_symbol
_atom_site_label
_atom_site_fract_x
_atom_site_fract_y
_atom_site_fract_z
Si Si1 0.260530 0.676227 0.660004
Si Si2 0.483138 0.823015 0.337972
Si Si3 0.413678 0.327575 0.152802
Si Si4 0.936646 0.180056 0.820905
Si Si5 0.143448 0.820670 0.386783
Si Si6 0.177277 0.827899 0.711407
O O1 0.257848 0.500000 0.646363
O O2 0.250000 0.750000 0.500000
O O3 0.311043 0.714632 0.701493
O O4 0.220540 0.737599 0.757091
O O5 0.500000 0.774263 0.500000
O O6 0.435671 0.764048 0.285593
O O7 0.516809 0.749116 0.223211
O O8 0.484590 0.000000 0.332360
O O9 0.427581 0.500000 0.171386
O O10 0.360875 0.322062 0.167745
O O11 0.426269 0.276147 0.989172
O O12 0.899665 0.233518 0.701322
O O13 0.938129 0.000000 0.815759
O O14 0.154669 0.773645 0.555741
O O15 0.138737 0.000000 0.394281
O O16 0.189995 0.000000 0.685811
#
# Coordination Sequence:
#
# PCOD9224691 Si02
#       6
#     8   8   8   8   8   8
#     4   9  16  28  48  74 102 134 173 215 259 301
#     4  11  24  39  55  78 106 135 170 214 263 312
#     4  10  21  36  56  80 105 137 175 213 257 312
#     4  10  20  36  57  79 104 137 176 214 256 309
#     4   8  15  29  50  73  99 133 171 211 252 297
#     4   9  17  31  50  74 103 135 173 215 257 300
#
# _framework density 9.8765429999999999
#
# number of rings (size 3 to 8) (size 9 to 14) (size 15 to 20)
#    0.000    2.500    0.000    3.500    0.000    6.000 
#    0.000    6.667    0.000    0.000    0.000    0.000 
#    0.000    0.000    0.000    0.000    0.000    0.000 
#
# Total GULP energy -133698.986842 kJ/mol
# GULP energy per Si atom -5570.791118 kJ/mol
# Density = 0.985406 g / cm^3
# Si number density = 9.876543 Si / 1000 Ang^3
#
#
#
# Elastic Constant Matrix: (Units=GPa)
#
#
# Indices 1 2 3 4 5 6 
#
# 1 80.1493 16.0001 -5.3862 0.0000 -16.0119 0.0000
# 2 16.0001 14.1143 4.6828 0.0000 -10.1378 0.0000
# 3 -5.3862 4.6828 28.7956 0.0000 -26.8658 0.0000
# 4 0.0000 0.0000 0.0000 10.3629 0.0000 -2.0993
# 5 -16.0119 -10.1378 -26.8658 0.0000 16.3818 0.0000
# 6 0.0000 0.0000 0.0000 -2.0993 0.0000 21.3638
#
#
#
# Elastic Compliance Matrix: (Units=1/GPa)
#
#
# Indices 1 2 3 4 5 6 
#
# 1 0.013383 -0.024026 -0.008947 0.000000 -0.016461 0.000000
# 2 -0.024026 0.101323 -0.029467 0.000000 -0.009106 0.000000
# 3 -0.008947 -0.029467 -0.023908 0.000000 -0.066190 0.000000
# 4 0.000000 0.000000 0.000000 0.098458 0.000000 0.009675
# 5 -0.016461 -0.009106 -0.066190 0.000000 -0.069231 0.000000
# 6 0.000000 0.000000 0.000000 0.009675 0.000000 0.047759
#
#
# Mechanical properties :
#
#
# Convention : Reuss Voigt Hill
#
# Bulk Modulus (GPa) = -29.33955 17.07250 -6.13352
# Shear Modulus (GPa) = 17.77437 16.80586 17.29011
#
# Velocity S-wave (km/s) = 3.00297 2.92001 2.96178
# Velocity P-wave (km/s) = 1.69164 4.47552 2.92990
#
# Compressibility (1/GPa) = -0.03408368
#
# Stress axis : x y z
#
# Youngs Moduli (GPa) = 74.72030 9.86943 -41.82666
#
# Poissons Ratio (x) = 0.23713 -0.37424
# Poissons Ratio (y) = 1.79526 -1.23251
# Poissons Ratio (z) = 0.66855 0.29082
#
# Static dielectric constant tensor:
#      x y z
#    x 1.760990 0.000000 -0.057780 
#    y 0.000000 1.678830 0.000000 
#    z -0.057780 0.000000 1.700390 
# 
# From -- ./inp_files/108724.got.cif
#   From: 2010.05.17/outbox.ucp.g08.bks.cvg/sg12_55_cif.got.tgz:108724.got - 2010.06.11 11:47:21.
