data_PCOD9224303
_publ_section_title
;
Structure prediction by ZEFSAII (Michael W. Deem and Ramdas Pophale) SiO2 
 PCOD9224303
Probable space group: C 2/M
;
_chemical_formula_sum "Si O2"
_cell_formula_units_Z 24
_cell_length_a 24.000000
_cell_length_b 9.000000
_cell_length_c 12.000000
_cell_angle_alpha 90.000000
_cell_angle_beta 80.000000
_cell_angle_gamma 90.000000
_cell_volume 2552.621696
_symmetry_space_group_name_H-M "C 2/M"
_symmetry_group_IT_number 12
_symmetry_cell_setting 'monoclinic'
loop_
_space_group_symop_operation_xyz
x,y,z
-x,y,-z
-x,-y,-z
x,-y,z
1/2+x,1/2+y,z
1/2-x,1/2+y,-z
1/2-x,1/2-y,-z
1/2+x,1/2-y,z
loop_
_atom_site_type_symbol
_atom_site_label
_atom_site_fract_x
_atom_site_fract_y
_atom_site_fract_z
Si Si1 0.845082 0.823129 0.456424
Si Si2 0.407604 0.680311 0.049651
Si Si3 0.967297 0.326484 0.395798
Si Si4 0.279251 0.678438 0.094693
Si Si5 0.264384 0.822880 0.652912
Si Si6 0.010765 0.178907 0.171047
O O1 0.905722 0.749723 0.416728
O O2 0.796406 0.786139 0.382360
O O3 0.815224 0.764938 0.578727
O O4 0.852171 0.000000 0.453919
O O5 0.406802 0.500000 0.053914
O O6 0.343889 0.732352 0.086866
O O7 0.453228 0.725102 0.126490
O O8 0.435762 0.722774 0.922477
O O9 0.959509 0.500000 0.375224
O O10 0.000000 0.309438 0.500000
O O11 0.007269 0.252420 0.290604
O O12 0.281610 0.500000 0.082158
O O13 0.242717 0.711529 0.216002
O O14 0.250000 0.750000 0.000000
O O15 0.272986 0.000000 0.633485
O O16 0.010463 0.000000 0.179110
#
# Coordination Sequence:
#
# PCOD9224303 Si02
#       6
#     8   8   8   8   8   8
#     4  10  20  36  60  83 102 134 182 225 261 313
#     4   8  16  33  57  81 104 131 168 219 268 305
#     4  11  24  38  51  74 112 148 174 213 271 320
#     4  10  20  34  51  75 109 144 174 207 254 310
#     4   9  19  36  57  81 110 140 171 218 274 314
#     4   9  17  34  60  82  99 129 176 222 263 311
#
# _framework density 9.4020980000000005
#
# number of rings (size 3 to 8) (size 9 to 14) (size 15 to 20)
#    0.000    2.500    0.000    3.000    0.000    6.667 
#    0.000    8.333    0.000    0.000    0.000    0.000 
#    0.000    0.000    0.000    0.000    0.000    0.000 
#
# Total GULP energy -133860.269291 kJ/mol
# GULP energy per Si atom -5577.511220 kJ/mol
# Density = 0.938070 g / cm^3
# Si number density = 9.402098 Si / 1000 Ang^3
#
#
#
# Elastic Constant Matrix: (Units=GPa)
#
#
# Indices 1 2 3 4 5 6 
#
# 1 -24.1284 -9.1192 -11.2330 0.0000 -4.8173 0.0000
# 2 -9.1192 11.3674 40.7443 0.0000 1.7989 0.0000
# 3 -11.2330 40.7443 74.4288 0.0000 -6.7848 0.0000
# 4 0.0000 0.0000 0.0000 12.8527 0.0000 16.8636
# 5 -4.8173 1.7989 -6.7848 0.0000 4.7577 0.0000
# 6 0.0000 0.0000 0.0000 16.8636 0.0000 4.9465
#
#
#
# Elastic Compliance Matrix: (Units=1/GPa)
#
#
# Indices 1 2 3 4 5 6 
#
# 1 -0.030487 -0.008022 -0.003157 0.000000 -0.032338 0.000000
# 2 -0.008022 -0.056816 0.035758 0.000000 0.064353 0.000000
# 3 -0.003157 0.035758 -0.009356 0.000000 -0.030059 0.000000
# 4 0.000000 0.000000 0.000000 -0.022402 0.000000 0.076373
# 5 -0.032338 0.064353 -0.030059 0.000000 0.110244 0.000000
# 6 0.000000 0.000000 0.000000 0.076373 0.000000 -0.058208
#
#
# Mechanical properties :
#
#
# Convention : Reuss Voigt Hill
#
# Bulk Modulus (GPa) = -21.05195 11.38355 -4.83420
# Shear Modulus (GPa) = -37.87485 7.26309 -15.30588
#
# Velocity S-wave (km/s) = -4.49282 1.96745 -2.85609
# Velocity P-wave (km/s) = 6.17524 3.35083 3.66780
#
# Compressibility (1/GPa) = -0.04750154
#
# Stress axis : x y z
#
# Youngs Moduli (GPa) = -32.80134 -17.60082 -106.88616
#
# Poissons Ratio (x) = -0.14120 -0.33748
# Poissons Ratio (y) = -0.26314 3.82201
# Poissons Ratio (z) = -0.10357 0.62937
#
# Static dielectric constant tensor:
#      x y z
#    x 1.628300 0.000000 0.005160 
#    y 0.000000 1.634670 0.000000 
#    z 0.005160 0.000000 1.665330 
# 
# From -- ./inp_files/172091.got.cif
#   From: 2010.05.17/outbox.ucp.g08.bks.cvg/sg12_87_cif.got.tgz:172091.got - 2010.06.11 11:47:21.
