data_PCOD9224725
_publ_section_title
;
Structure prediction by ZEFSAII (Michael W. Deem and Ramdas Pophale) SiO2 
 PCOD9224725
Probable space group: C 2/M
;
_chemical_formula_sum "Si O2"
_cell_formula_units_Z 32
_cell_length_a 30.000000
_cell_length_b 9.000000
_cell_length_c 18.000000
_cell_angle_alpha 90.000000
_cell_angle_beta 40.000000
_cell_angle_gamma 90.000000
_cell_volume 3123.947783
_symmetry_space_group_name_H-M "C 2/M"
_symmetry_group_IT_number 12
_symmetry_cell_setting 'monoclinic'
loop_
_space_group_symop_operation_xyz
x,y,z
-x,y,-z
-x,-y,-z
x,-y,z
1/2+x,1/2+y,z
1/2-x,1/2+y,-z
1/2-x,1/2-y,-z
1/2+x,1/2-y,z
loop_
_atom_site_type_symbol
_atom_site_label
_atom_site_fract_x
_atom_site_fract_y
_atom_site_fract_z
Si Si1 0.441598 0.829821 0.512508
Si Si2 0.794016 0.675072 0.507762
Si Si3 0.044542 0.669241 0.678684
Si Si4 0.323872 0.320037 0.891530
Si Si5 0.929701 0.180847 0.052651
Si Si6 0.578263 0.674377 0.102982
Si Si7 0.220628 0.178057 0.747175
Si Si8 0.814912 0.174351 0.736433
O O1 0.500000 0.803575 0.500000
O O2 0.465761 0.819811 0.396887
O O3 0.379022 0.717716 0.603267
O O4 0.415583 0.000000 0.555974
O O5 0.778162 0.500000 0.526399
O O6 0.750000 0.750000 0.500000
O O7 0.876210 0.690425 0.399254
O O8 0.771178 0.730330 0.617854
O O9 0.023805 0.500000 0.726471
O O10 0.999521 0.794947 0.773559
O O11 0.322317 0.500000 0.896562
O O12 0.374577 0.263711 0.891174
O O13 0.339850 0.277536 0.786484
O O14 0.250000 0.250000 0.000000
O O15 0.917367 0.237023 0.984968
O O16 0.935529 0.000000 0.042813
O O17 0.856335 0.216192 0.183029
O O18 0.000000 0.237021 0.000000
O O19 0.594024 0.500000 0.077520
O O20 0.247052 0.245261 0.790875
O O21 0.224011 0.000000 0.751458
O O22 0.801746 0.000000 0.754336
#
# Coordination Sequence:
#
# PCOD9224725 Si02
#       8
#     8   8   8   8   8   8   8   8
#     4  10  20  36  58  82 111 151 195 231 275 340
#     4  10  22  38  59  86 115 149 192 239 287 343
#     4  10  21  38  56  83 119 150 189 233 278 343
#     4  10  22  38  56  84 116 151 195 239 285 343
#     4   9  19  35  59  87 109 139 189 241 284 333
#     4  10  21  37  58  85 115 148 190 236 286 341
#     4  10  20  39  63  84 114 152 193 240 285 340
#     4  11  22  35  55  84 118 148 185 238 289 340
#
# _framework density 10.243449
#
# number of rings (size 3 to 8) (size 9 to 14) (size 15 to 20)
#    0.000    2.000    1.250    1.875    1.750    4.250 
#    0.000    0.625    0.000    0.750    0.000    0.000 
#    0.000    0.000    0.000    0.000    0.000    0.000 
#
# Total GULP energy -178346.516807 kJ/mol
# GULP energy per Si atom -5573.328650 kJ/mol
# Density = 1.022013 g / cm^3
# Si number density = 10.243449 Si / 1000 Ang^3
#
#
#
# Elastic Constant Matrix: (Units=GPa)
#
#
# Indices 1 2 3 4 5 6 
#
# 1 118.6772 21.7152 18.6868 0.0023 -7.8566 -0.0002
# 2 21.7152 -16.3673 6.5646 0.0345 -3.3229 -0.0077
# 3 18.6868 6.5646 32.9332 0.0100 0.0061 -0.0033
# 4 0.0023 0.0345 0.0100 11.0126 -0.0018 -5.7594
# 5 -7.8566 -3.3229 0.0061 -0.0018 17.1670 0.0003
# 6 -0.0002 -0.0077 -0.0033 -5.7594 0.0003 27.5173
#
#
#
# Elastic Compliance Matrix: (Units=1/GPa)
#
#
# Indices 1 2 3 4 5 6 
#
# 1 0.008384 0.007536 -0.006260 -0.000020 0.005298 -0.000003
# 2 0.007536 -0.047812 0.005255 0.000152 -0.005807 0.000019
# 3 -0.006260 0.005255 0.032870 -0.000048 -0.001860 -0.000005
# 4 -0.000020 0.000152 -0.000048 0.101966 0.000031 0.021342
# 5 0.005298 -0.005807 -0.001860 0.000031 0.059553 0.000004
# 6 -0.000003 0.000019 -0.000005 0.021342 0.000004 0.040808
#
#
# Mechanical properties :
#
#
# Convention : Reuss Voigt Hill
#
# Bulk Modulus (GPa) = 153.74589 25.46404 89.60496
# Shear Modulus (GPa) = 27.04548 17.02447 22.03497
#
# Velocity S-wave (km/s) = 3.63731 2.88582 3.28314
# Velocity P-wave (km/s) = 9.63581 4.85390 7.62920
#
# Compressibility (1/GPa) = 0.00650424
#
# Stress axis : x y z
#
# Youngs Moduli (GPa) = 119.27937 -20.91546 30.42327
#
# Poissons Ratio (x) = 0.15763 0.19046
# Poissons Ratio (y) = -0.89895 -0.15988
# Poissons Ratio (z) = 0.74672 0.10991
#
# Static dielectric constant tensor:
#      x y z
#    x 3.571940 -0.000250 -0.904320 
#    y -0.000250 1.697540 0.000130 
#    z -0.904320 0.000130 2.267940 
# 
# From -- ./inp_files/295604.got.cif
#   From: 2010.05.17/outbox.ucp.g08.bks.cvg/sg12_148_cif.got.tgz:295604.got - 2010.06.11 11:47:21.
