data_PCOD9224452
_publ_section_title
;
Structure prediction by ZEFSAII (Michael W. Deem and Ramdas Pophale) SiO2 
 PCOD9224452
Probable space group: C 2/M
;
_chemical_formula_sum "Si O2"
_cell_formula_units_Z 22
_cell_length_a 24.000000
_cell_length_b 18.000000
_cell_length_c 15.000000
_cell_angle_alpha 90.000000
_cell_angle_beta 160.000000
_cell_angle_gamma 90.000000
_cell_volume 2216.290529
_symmetry_space_group_name_H-M "C 2/M"
_symmetry_group_IT_number 12
_symmetry_cell_setting 'monoclinic'
loop_
_space_group_symop_operation_xyz
x,y,z
-x,y,-z
-x,-y,-z
x,-y,z
1/2+x,1/2+y,z
1/2-x,1/2+y,-z
1/2-x,1/2-y,-z
1/2+x,1/2-y,z
loop_
_atom_site_type_symbol
_atom_site_label
_atom_site_fract_x
_atom_site_fract_y
_atom_site_fract_z
Si Si1 0.000000 0.354382 0.500000
Si Si2 0.367561 0.180983 0.487046
Si Si3 0.193870 0.914046 0.931103
Si Si4 0.956194 0.086622 0.040093
Si Si5 0.361906 0.089347 0.993276
Si Si6 0.867159 0.851228 0.516528
O O1 0.956381 0.309210 0.524158
O O2 0.846242 0.400820 0.228284
O O3 0.207435 0.136311 0.212794
O O4 0.332289 0.263170 0.471589
O O5 0.477621 0.134692 0.726042
O O6 0.244961 0.901452 0.904639
O O7 0.040915 0.864694 0.729544
O O8 0.143709 0.000000 0.863015
O O9 0.923355 0.000000 0.014184
O O10 0.000000 0.087131 0.000000
O O11 0.087699 0.115771 0.314286
O O12 0.271176 0.115728 0.763248
O O13 0.397075 0.000000 0.038134
#
# Coordination Sequence:
#
# PCOD9224452 Si02
#       6
#     4   8   8   8   8   8
#     4  10  21  34  62  92 133 166 206 250 305 374
#     4  11  24  40  63  95 131 166 204 254 317 373
#     4  10  20  34  57  89 128 171 209 247 303 373
#     4  11  25  47  71  90 117 166 223 264 302 368
#     4  10  22  37  58  90 130 167 204 251 309 374
#     4  12  23  38  63  93 128 164 203 263 313 370
#
# _framework density 9.9264960000000002
#
# number of rings (size 3 to 8) (size 9 to 14) (size 15 to 20)
#    0.000    1.273    1.818    4.091    2.545    5.091 
#    0.000    0.909    0.000    3.273    0.000    0.000 
#    0.000    0.000    0.000    0.000    0.000    0.000 
#
# Total GULP energy -122499.231342 kJ/mol
# GULP energy per Si atom -5568.146879 kJ/mol
# Density = 0.990390 g / cm^3
# Si number density = 9.926496 Si / 1000 Ang^3
#
#
#
# Elastic Constant Matrix: (Units=GPa)
#
#
# Indices 1 2 3 4 5 6 
#
# 1 84.4115 26.9471 24.3161 0.0000 -41.1438 0.0000
# 2 26.9471 137.7706 44.2723 0.0000 -24.0529 0.0000
# 3 24.3161 44.2723 124.2103 0.0000 -56.5745 0.0000
# 4 0.0000 0.0000 0.0000 29.0538 0.0000 -15.5303
# 5 -41.1438 -24.0529 -56.5745 0.0000 50.3652 0.0000
# 6 0.0000 0.0000 0.0000 -15.5303 0.0000 25.6023
#
#
#
# Elastic Compliance Matrix: (Units=1/GPa)
#
#
# Indices 1 2 3 4 5 6 
#
# 1 0.024162 -0.002693 0.009489 0.000000 0.029111 0.000000
# 2 -0.002693 0.008539 -0.003401 0.000000 -0.001942 0.000000
# 3 0.009489 -0.003401 0.020878 0.000000 0.029580 0.000000
# 4 0.000000 0.000000 0.000000 0.050934 0.000000 0.030897
# 5 0.029111 -0.001942 0.029580 0.000000 0.075936 0.000000
# 6 0.000000 0.000000 0.000000 0.030897 0.000000 0.057801
#
#
# Mechanical properties :
#
#
# Convention : Reuss Voigt Hill
#
# Bulk Modulus (GPa) = 16.56445 59.71814 38.14130
# Shear Modulus (GPa) = 19.87418 37.72805 28.80111
#
# Velocity S-wave (km/s) = 3.16740 4.36405 3.81296
# Velocity P-wave (km/s) = 4.66242 7.45243 6.21599
#
# Compressibility (1/GPa) = 0.06037025
#
# Stress axis : x y z
#
# Youngs Moduli (GPa) = 41.38668 117.11005 47.89674
#
# Poissons Ratio (x) = 0.31536 -0.45450
# Poissons Ratio (y) = 0.11145 0.16290
# Poissons Ratio (z) = -0.39273 0.39829
#
# Static dielectric constant tensor:
#      x y z
#    x 1.766690 0.000000 0.044870 
#    y 0.000000 1.710950 0.000000 
#    z 0.044870 0.000000 1.717050 
# 
# From -- ./inp_files/241554.got.cif
#   From: 2010.05.17/outbox.ucp.g08.bks.cvg/sg12_121_cif.got.tgz:241554.got - 2010.06.11 11:47:21.
