data_PCOD9224656
_publ_section_title
;
Structure prediction by ZEFSAII (Michael W. Deem and Ramdas Pophale) SiO2 
 PCOD9224656
Probable space group: C 2/M
;
_chemical_formula_sum "Si O2"
_cell_formula_units_Z 24
_cell_length_a 12.000000
_cell_length_b 18.000000
_cell_length_c 12.000000
_cell_angle_alpha 90.000000
_cell_angle_beta 110.000000
_cell_angle_gamma 90.000000
_cell_volume 2435.683273
_symmetry_space_group_name_H-M "C 2/M"
_symmetry_group_IT_number 12
_symmetry_cell_setting 'monoclinic'
loop_
_space_group_symop_operation_xyz
x,y,z
-x,y,-z
-x,-y,-z
x,-y,z
1/2+x,1/2+y,z
1/2-x,1/2+y,-z
1/2-x,1/2-y,-z
1/2+x,1/2-y,z
loop_
_atom_site_type_symbol
_atom_site_label
_atom_site_fract_x
_atom_site_fract_y
_atom_site_fract_z
Si Si1 0.226448 0.410196 0.050491
Si Si2 0.244126 0.410295 0.812075
Si Si3 0.003450 0.912719 0.831585
Si Si4 0.464482 0.826643 0.358208
Si Si5 0.929534 0.154444 0.362161
Si Si6 0.838109 0.591312 0.729210
O O1 0.232743 0.500000 0.057325
O O2 0.363697 0.382411 0.100324
O O3 0.150735 0.390469 0.133682
O O4 0.187780 0.390558 0.913228
O O5 0.243076 0.500000 0.800559
O O6 0.381824 0.385586 0.846556
O O7 0.157380 0.372209 0.695852
O O8 0.998995 0.897866 0.698849
O O9 0.008699 0.000000 0.860630
O O10 0.500000 0.829110 0.500000
O O11 0.436742 0.739918 0.320600
O O12 0.566227 0.865815 0.315532
O O13 0.796647 0.122010 0.335845
O O14 0.000000 0.154366 0.500000
O O15 0.844624 0.500000 0.717417
#
# Coordination Sequence:
#
# PCOD9224656 Si02
#       6
#     8   8   8   8   8   8
#     4   8  16  35  61  89 116 149 194 244 298 346
#     4  10  20  35  61  89 117 156 196 238 295 360
#     4   9  18  34  60  92 117 143 195 255 292 341
#     4  11  26  40  57  84 126 162 195 240 300 353
#     4  10  23  39  61  83 117 163 202 239 296 354
#     4  10  22  41  64  88 120 155 197 252 293 347
#
# _framework density 9.8534980000000001
#
# number of rings (size 3 to 8) (size 9 to 14) (size 15 to 20)
#    0.000    2.333    0.000    2.500    4.667    6.667 
#    0.000    5.833    7.333    0.000    0.000    0.000 
#    0.000    0.000    0.000    0.000    0.000    0.000 
#
# Total GULP energy -133654.679732 kJ/mol
# GULP energy per Si atom -5568.944989 kJ/mol
# Density = 0.983107 g / cm^3
# Si number density = 9.853498 Si / 1000 Ang^3
#
#
#
# Elastic Constant Matrix: (Units=GPa)
#
#
# Indices 1 2 3 4 5 6 
#
# 1 92.1841 18.3701 2.9424 0.0000 -26.3520 0.0000
# 2 18.3701 40.6717 3.9811 0.0000 0.6954 0.0000
# 3 2.9424 3.9811 57.3782 0.0000 -8.4983 0.0000
# 4 0.0000 0.0000 0.0000 -72.4935 0.0000 -29.8178
# 5 -26.3520 0.6954 -8.4983 0.0000 21.9022 0.0000
# 6 0.0000 0.0000 0.0000 -29.8178 0.0000 19.4126
#
#
#
# Elastic Compliance Matrix: (Units=1/GPa)
#
#
# Indices 1 2 3 4 5 6 
#
# 1 0.020083 -0.009853 0.003479 0.000000 0.025826 0.000000
# 2 -0.009853 0.029638 -0.003656 0.000000 -0.014214 0.000000
# 3 0.003479 -0.003656 0.019247 0.000000 0.011770 0.000000
# 4 0.000000 0.000000 0.000000 -0.008454 0.000000 -0.012985
# 5 0.025826 -0.014214 0.011770 0.000000 0.081748 0.000000
# 6 0.000000 0.000000 0.000000 -0.012985 0.000000 0.031569
#
#
# Mechanical properties :
#
#
# Convention : Reuss Voigt Hill
#
# Bulk Modulus (GPa) = 20.44704 26.75792 23.60248
# Shear Modulus (GPa) = 23.78751 4.76027 14.27389
#
# Velocity S-wave (km/s) = 3.47804 1.55588 2.69421
# Velocity P-wave (km/s) = 5.15045 4.10305 4.65629
#
# Compressibility (1/GPa) = 0.04890683
#
# Stress axis : x y z
#
# Youngs Moduli (GPa) = 49.79377 33.74014 51.95693
#
# Poissons Ratio (x) = 0.33244 -0.18075
# Poissons Ratio (y) = 0.49061 0.18998
# Poissons Ratio (z) = -0.17322 0.12337
#
# Static dielectric constant tensor:
#      x y z
#    x 1.676580 0.000000 0.002240 
#    y 0.000000 1.690110 0.000000 
#    z 0.002240 0.000000 1.780800 
# 
# From -- ./inp_files/131020.got.cif
#   From: 2010.05.17/outbox.ucp.g08.bks.cvg/sg12_66_cif.got.tgz:131020.got - 2010.06.11 11:47:21.
