data_PCOD9224942
_publ_section_title
;
Structure prediction by ZEFSAII (Michael W. Deem and Ramdas Pophale) SiO2 
 PCOD9224942
Probable space group: C 2/M
;
_chemical_formula_sum "Si O2"
_cell_formula_units_Z 28
_cell_length_a 21.000000
_cell_length_b 18.000000
_cell_length_c 21.000000
_cell_angle_alpha 90.000000
_cell_angle_beta 20.000000
_cell_angle_gamma 90.000000
_cell_volume 2714.955898
_symmetry_space_group_name_H-M "C 2/M"
_symmetry_group_IT_number 12
_symmetry_cell_setting 'monoclinic'
loop_
_space_group_symop_operation_xyz
x,y,z
-x,y,-z
-x,-y,-z
x,-y,z
1/2+x,1/2+y,z
1/2-x,1/2+y,-z
1/2-x,1/2-y,-z
1/2+x,1/2-y,z
loop_
_atom_site_type_symbol
_atom_site_label
_atom_site_fract_x
_atom_site_fract_y
_atom_site_fract_z
Si Si1 0.722692 0.361800 0.282371
Si Si2 0.463742 0.584832 0.809741
Si Si3 0.222519 0.648365 0.154650
Si Si4 0.552820 0.914255 0.052747
Si Si5 0.273721 0.187245 0.712558
Si Si6 0.315510 0.084790 0.558406
Si Si7 0.768753 0.200754 0.919194
O O1 0.500000 0.370158 0.500000
O O2 0.774509 0.274304 0.241645
O O3 0.846694 0.404320 0.217987
O O4 0.801489 0.392241 0.140918
O O5 0.410425 0.500000 0.845888
O O6 0.677957 0.586756 0.628178
O O7 0.425515 0.640398 0.787794
O O8 0.345727 0.612604 0.982769
O O9 0.297764 0.647493 0.156149
O O10 0.195864 0.736744 0.166647
O O11 0.021859 0.609425 0.345307
O O12 0.580762 0.000000 0.045336
O O13 0.593717 0.851572 0.067171
O O14 0.500000 0.184493 0.500000
O O15 0.229813 0.141214 0.690719
O O16 0.319339 0.000000 0.579891
O O17 0.750000 0.250000 0.000000
#
# Coordination Sequence:
#
# PCOD9224942 Si02
#       7
#     8   8   8   8   8   8   8
#     4  10  21  38  63  93 124 154 195 235 300 370
#     4  10  22  38  58  82 116 155 196 247 292 340
#     4  10  20  38  59  83 114 156 194 239 299 353
#     4  11  23  39  63  90 123 157 192 248 302 345
#     4   9  19  34  58  88 118 154 188 238 294 356
#     4  10  22  37  58  90 120 150 195 245 299 354
#     4  10  22  40  60  86 112 159 205 244 284 346
#
# _framework density 10.313243
#
# number of rings (size 3 to 8) (size 9 to 14) (size 15 to 20)
#    0.000    2.000    1.429    1.714    4.000    5.429 
#    0.000    4.286    0.000    5.143    0.000    0.000 
#    0.000    0.000    0.000    0.000    0.000    0.000 
#
# Total GULP energy -156263.312309 kJ/mol
# GULP energy per Si atom -5580.832582 kJ/mol
# Density = 1.028977 g / cm^3
# Si number density = 10.313243 Si / 1000 Ang^3
#
#
#
# Elastic Constant Matrix: (Units=GPa)
#
#
# Indices 1 2 3 4 5 6 
#
# 1 61.5705 23.4764 7.4034 -0.0081 -22.7318 -0.0055
# 2 23.4764 128.7578 9.0582 -0.0172 -20.1160 -0.0121
# 3 7.4034 9.0582 71.4885 -0.0218 -19.6456 -0.0217
# 4 -0.0081 -0.0172 -0.0218 31.2559 0.0135 -4.3605
# 5 -22.7318 -20.1160 -19.6456 0.0135 19.4819 0.0025
# 6 -0.0055 -0.0121 -0.0217 -4.3605 0.0025 34.4662
#
#
#
# Elastic Compliance Matrix: (Units=1/GPa)
#
#
# Indices 1 2 3 4 5 6 
#
# 1 0.033027 0.001053 0.010147 -0.000004 0.049856 0.000008
# 2 0.001053 0.009508 0.002382 0.000002 0.013449 0.000004
# 3 0.010147 0.002382 0.022915 0.000006 0.037407 0.000015
# 4 -0.000004 0.000002 0.000006 0.032569 -0.000020 0.004120
# 5 0.049856 0.013449 0.037407 -0.000020 0.161111 0.000022
# 6 0.000008 0.000004 0.000015 0.004120 0.000022 0.029535
#
#
# Mechanical properties :
#
#
# Convention : Reuss Voigt Hill
#
# Bulk Modulus (GPa) = 10.79736 37.96588 24.38162
# Shear Modulus (GPa) = 17.10152 31.83273 24.46713
#
# Velocity S-wave (km/s) = 2.88254 3.93274 3.44786
# Velocity P-wave (km/s) = 4.04040 6.25046 5.26275
#
# Compressibility (1/GPa) = 0.09261524
#
# Stress axis : x y z
#
# Youngs Moduli (GPa) = 30.27859 105.17497 43.63870
#
# Poissons Ratio (x) = -0.11080 -0.44281
# Poissons Ratio (y) = -0.03190 -0.10395
# Poissons Ratio (z) = -0.30724 -0.25052
#
# Static dielectric constant tensor:
#      x y z
#    x 1.800040 -0.000010 -0.016660 
#    y -0.000010 1.737970 0.000020 
#    z -0.016660 0.000020 1.700060 
# 
# From -- ./inp_files/322661.got.cif
#   From: 2010.05.17/outbox.ucp.g08.bks.cvg/sg12_162_cif.got.tgz:322661.got - 2010.06.11 11:47:21.
