data_PCOD9224781
_publ_section_title
;
Structure prediction by ZEFSAII (Michael W. Deem and Ramdas Pophale) SiO2 
 PCOD9224781
Probable space group: C 2/M
;
_chemical_formula_sum "Si O2"
_cell_formula_units_Z 32
_cell_length_a 18.000000
_cell_length_b 9.000000
_cell_length_c 30.000000
_cell_angle_alpha 90.000000
_cell_angle_beta 40.000000
_cell_angle_gamma 90.000000
_cell_volume 3123.947783
_symmetry_space_group_name_H-M "C 2/M"
_symmetry_group_IT_number 12
_symmetry_cell_setting 'monoclinic'
loop_
_space_group_symop_operation_xyz
x,y,z
-x,y,-z
-x,-y,-z
x,-y,z
1/2+x,1/2+y,z
1/2-x,1/2+y,-z
1/2-x,1/2-y,-z
1/2+x,1/2-y,z
loop_
_atom_site_type_symbol
_atom_site_label
_atom_site_fract_x
_atom_site_fract_y
_atom_site_fract_z
Si Si1 0.177839 0.168705 0.309105
Si Si2 0.770329 0.670862 0.418810
Si Si3 0.920571 0.171324 0.416783
Si Si4 0.678082 0.671735 0.688074
Si Si5 0.561272 0.172589 0.196497
Si Si6 0.531559 0.325650 0.935951
Si Si7 0.235172 0.168042 0.179700
Si Si8 0.372136 0.826546 0.937066
O O1 0.258421 0.286496 0.295701
O O2 0.188086 0.169675 0.251328
O O3 0.045101 0.201820 0.379742
O O4 0.207208 0.000000 0.310796
O O5 0.778098 0.500000 0.400996
O O6 0.884811 0.724286 0.392433
O O7 0.671703 0.683391 0.501438
O O8 0.745928 0.779178 0.389055
O O9 0.920317 0.000000 0.400597
O O10 0.646021 0.500000 0.700860
O O11 0.568514 0.778619 0.735141
O O12 0.640628 0.282195 0.188049
O O13 0.586781 0.191397 0.132482
O O14 0.581730 0.000000 0.198747
O O15 0.506774 0.500000 0.944533
O O16 0.664158 0.287486 0.868877
O O17 0.461441 0.243046 0.930264
O O18 0.500000 0.273580 0.000000
O O19 0.277436 0.000000 0.151087
O O20 0.361041 0.000000 0.951310
O O21 0.250000 0.750000 0.000000
#
# Coordination Sequence:
#
# PCOD9224781 Si02
#       8
#     8   8   8   8   8   8   8   8
#     4  10  22  40  59  83 117 152 190 238 292 349
#     4  10  20  36  60  87 117 154 194 240 293 347
#     4   9  19  37  61  87 116 153 196 240 289 350
#     4  12  25  39  58  85 117 154 197 243 292 348
#     4  11  24  42  63  88 119 154 195 242 292 348
#     4  11  24  41  61  87 121 160 201 245 291 342
#     4  11  23  39  63  92 120 153 193 241 296 352
#     4  11  24  41  63  91 122 157 197 243 295 351
#
# _framework density 10.243449
#
# number of rings (size 3 to 8) (size 9 to 14) (size 15 to 20)
#    0.000    1.375    0.000    5.250    0.000   12.500 
#    0.000    2.500    0.000    0.000    0.000    0.000 
#    0.000    0.000    0.000    0.000    0.000    0.000 
#
# Total GULP energy -178780.307424 kJ/mol
# GULP energy per Si atom -5586.884607 kJ/mol
# Density = 1.022013 g / cm^3
# Si number density = 10.243449 Si / 1000 Ang^3
#
#
#
# Elastic Constant Matrix: (Units=GPa)
#
#
# Indices 1 2 3 4 5 6 
#
# 1 65.5038 26.3641 13.9919 0.0000 6.4544 -0.0002
# 2 26.3641 25.9688 20.0764 -0.0001 27.0213 0.0002
# 3 13.9919 20.0764 35.2861 0.0000 -8.0275 0.0001
# 4 0.0000 -0.0001 0.0000 21.6897 0.0000 3.8951
# 5 6.4544 27.0213 -8.0275 0.0000 15.3913 0.0001
# 6 -0.0002 0.0002 0.0001 3.8951 0.0001 47.0319
#
#
#
# Elastic Compliance Matrix: (Units=1/GPa)
#
#
# Indices 1 2 3 4 5 6 
#
# 1 0.018732 -0.001282 -0.009047 0.000000 -0.010323 0.000000
# 2 -0.001282 -0.016857 0.019237 0.000000 0.040167 0.000000
# 3 -0.009047 0.019237 0.016068 0.000000 -0.021600 0.000000
# 4 0.000000 0.000000 0.000000 0.046801 0.000000 -0.003876
# 5 -0.010323 0.040167 -0.021600 0.000000 -0.012482 0.000000
# 6 0.000000 0.000000 0.000000 -0.003876 0.000000 0.021583
#
#
# Mechanical properties :
#
#
# Convention : Reuss Voigt Hill
#
# Bulk Modulus (GPa) = 27.96453 27.51372 27.73913
# Shear Modulus (GPa) = 73.58725 21.24431 47.41578
#
# Velocity S-wave (km/s) = 5.99976 3.22370 4.81609
# Velocity P-wave (km/s) = 7.85339 5.22641 6.67050
#
# Compressibility (1/GPa) = 0.03575958
#
# Stress axis : x y z
#
# Youngs Moduli (GPa) = 53.38492 -59.32105 62.23636
#
# Poissons Ratio (x) = -0.07606 0.56303
# Poissons Ratio (y) = 0.06845 -1.19727
# Poissons Ratio (z) = 0.48295 1.14118
#
# Static dielectric constant tensor:
#      x y z
#    x 1.983690 0.000000 0.107610 
#    y 0.000000 1.667630 0.000000 
#    z 0.107610 0.000000 1.827990 
# 
# From -- ./inp_files/378076.got.cif
#   From: 2010.05.17/outbox.ucp.g08.bks.cvg/sg12_190_cif.got.tgz:378076.got - 2010.06.11 11:47:21.
