data_PCOD9224642
_publ_section_title
;
Structure prediction by ZEFSAII (Michael W. Deem and Ramdas Pophale) SiO2 
 PCOD9224642
Probable space group: C 2/M
;
_chemical_formula_sum "Si O2"
_cell_formula_units_Z 20
_cell_length_a 21.000000
_cell_length_b 9.000000
_cell_length_c 30.000000
_cell_angle_alpha 90.000000
_cell_angle_beta 20.000000
_cell_angle_gamma 90.000000
_cell_volume 1939.254213
_symmetry_space_group_name_H-M "C 2/M"
_symmetry_group_IT_number 12
_symmetry_cell_setting 'monoclinic'
loop_
_space_group_symop_operation_xyz
x,y,z
-x,y,-z
-x,-y,-z
x,-y,z
1/2+x,1/2+y,z
1/2-x,1/2+y,-z
1/2-x,1/2-y,-z
1/2+x,1/2-y,z
loop_
_atom_site_type_symbol
_atom_site_label
_atom_site_fract_x
_atom_site_fract_y
_atom_site_fract_z
Si Si1 0.594992 0.824378 0.484928
Si Si2 0.535262 0.336600 0.805722
Si Si3 0.292205 0.325650 0.120975
Si Si4 0.064946 0.822599 0.599238
Si Si5 0.844386 0.336801 0.999295
O O1 0.500000 0.785804 0.500000
O O2 0.813418 0.804855 0.331163
O O3 0.547079 0.730361 0.559715
O O4 0.558020 0.000000 0.517747
O O5 0.582262 0.500000 0.793999
O O6 0.335532 0.346836 0.913892
O O7 0.518240 0.215116 0.855262
O O8 0.265122 0.500000 0.147985
O O9 0.298168 0.289162 0.064953
O O10 0.122215 0.234676 0.253613
O O11 0.500000 0.282726 0.000000
O O12 0.250000 0.750000 0.500000
O O13 0.080166 0.000000 0.592539
O O14 0.873938 0.500000 0.000173
#
# Coordination Sequence:
#
# PCOD9224642 Si02
#       5
#     8   8   8   8   8
#     4  10  22  40  64  93 129 171 215 264 322 386
#     4   9  19  36  58  86 121 163 205 250 309 377
#     4  11  25  43  65  92 128 171 215 265 325 388
#     4  12  26  45  70  98 133 175 224 276 329 395
#     4  10  20  35  59  89 122 160 206 258 311 375
#
# _framework density 10.313243
#
# number of rings (size 3 to 8) (size 9 to 14) (size 15 to 20)
#    0.000    1.600    0.000    4.200    2.800    5.200 
#    0.000    0.000    0.000    0.000    0.000    0.000 
#    0.000    0.000    0.000    0.000    0.000    0.000 
#
# Total GULP energy -111638.120469 kJ/mol
# GULP energy per Si atom -5581.906023 kJ/mol
# Density = 1.028977 g / cm^3
# Si number density = 10.313243 Si / 1000 Ang^3
#
#
#
# Elastic Constant Matrix: (Units=GPa)
#
#
# Indices 1 2 3 4 5 6 
#
# 1 67.2436 41.7564 21.7402 0.0227 5.1770 0.0039
# 2 41.7564 89.6315 50.7628 -0.0069 -3.4581 -0.0003
# 3 21.7402 50.7628 75.1766 0.0334 2.4472 0.0049
# 4 0.0227 -0.0069 0.0334 33.0836 0.0273 6.3465
# 5 5.1770 -3.4581 2.4472 0.0273 22.1123 0.0163
# 6 0.0039 -0.0003 0.0049 6.3465 0.0163 28.7694
#
#
#
# Elastic Compliance Matrix: (Units=1/GPa)
#
#
# Indices 1 2 3 4 5 6 
#
# 1 0.021998 -0.011417 0.001579 -0.000014 -0.007110 0.000004
# 2 -0.011417 0.024386 -0.013425 0.000021 0.007972 -0.000005
# 3 0.001579 -0.013425 0.022070 -0.000023 -0.004912 0.000004
# 4 -0.000014 0.000021 -0.000023 0.031562 -0.000025 -0.006963
# 5 -0.007110 0.007972 -0.004912 -0.000025 0.048679 -0.000020
# 6 0.000004 -0.000005 0.000004 -0.006963 -0.000020 0.036295
#
#
# Mechanical properties :
#
#
# Convention : Reuss Voigt Hill
#
# Bulk Modulus (GPa) = 45.60057 51.17448 48.38752
# Shear Modulus (GPa) = 20.93593 24.64590 22.79091
#
# Velocity S-wave (km/s) = 3.18937 3.46043 3.32766
# Velocity P-wave (km/s) = 5.97650 6.38984 6.18662
#
# Compressibility (1/GPa) = 0.02192955
#
# Stress axis : x y z
#
# Youngs Moduli (GPa) = 45.45954 41.00708 45.30997
#
# Poissons Ratio (x) = 0.46816 -0.07155
# Poissons Ratio (y) = 0.51899 0.60827
# Poissons Ratio (z) = -0.07178 0.55050
#
# Static dielectric constant tensor:
#      x y z
#    x 1.727530 -0.000030 0.016410 
#    y -0.000030 1.741960 0.000000 
#    z 0.016410 0.000000 1.718750 
# 
# From -- ./inp_files/380523.got.cif
#   From: 2010.05.17/outbox.ucp.g08.bks.cvg/sg12_191_cif.got.tgz:380523.got - 2010.06.11 11:47:21.
