data_PCOD9224352
_publ_section_title
;
Structure prediction by ZEFSAII (Michael W. Deem and Ramdas Pophale) SiO2 
 PCOD9224352
Probable space group: C 2/M
;
_chemical_formula_sum "Si O2"
_cell_formula_units_Z 28
_cell_length_a 27.000000
_cell_length_b 9.000000
_cell_length_c 18.000000
_cell_angle_alpha 90.000000
_cell_angle_beta 40.000000
_cell_angle_gamma 90.000000
_cell_volume 2811.553005
_symmetry_space_group_name_H-M "C 2/M"
_symmetry_group_IT_number 12
_symmetry_cell_setting 'monoclinic'
loop_
_space_group_symop_operation_xyz
x,y,z
-x,y,-z
-x,-y,-z
x,-y,z
1/2+x,1/2+y,z
1/2-x,1/2+y,-z
1/2-x,1/2-y,-z
1/2+x,1/2-y,z
loop_
_atom_site_type_symbol
_atom_site_label
_atom_site_fract_x
_atom_site_fract_y
_atom_site_fract_z
Si Si1 0.088202 0.178689 0.867147
Si Si2 0.329022 0.176042 0.375632
Si Si3 0.309772 0.830597 0.126138
Si Si4 0.970570 0.162870 0.615727
Si Si5 0.899918 0.331551 0.872399
Si Si6 0.320700 0.172283 0.818250
Si Si7 0.946937 0.169793 0.336911
O O1 0.124800 0.252442 0.749284
O O2 0.150629 0.229913 0.856923
O O3 0.086836 0.000000 0.858984
O O4 0.000000 0.219726 0.000000
O O5 0.250000 0.250000 0.500000
O O6 0.389252 0.210740 0.371578
O O7 0.316973 0.000000 0.376452
O O8 0.234275 0.766289 0.172057
O O9 0.296582 0.000000 0.168196
O O10 0.370453 0.835480 0.989277
O O11 0.908229 0.290738 0.694762
O O12 0.000000 0.157572 0.500000
O O13 0.042901 0.180676 0.586749
O O14 0.935207 0.000000 0.676188
O O15 0.926216 0.500000 0.822386
O O16 0.830637 0.294326 0.895047
O O17 0.967549 0.212900 0.788374
O O18 0.299794 0.000000 0.834545
O O19 0.926543 0.000000 0.339495
#
# Coordination Sequence:
#
# PCOD9224352 Si02
#       7
#     8   8   8   8   8   8   8
#     4  11  25  45  68  95 126 161 208 265 322 380
#     4  12  26  45  68  93 126 166 212 264 317 376
#     4  11  22  36  57  85 119 158 198 244 303 367
#     4   9  19  36  57  81 112 150 191 235 287 353
#     4   9  19  35  56  84 118 158 201 245 299 365
#     4  10  20  34  53  81 117 153 194 243 294 353
#     4  10  20  36  60  87 116 154 200 250 305 364
#
# _framework density 9.9589090000000002
#
# number of rings (size 3 to 8) (size 9 to 14) (size 15 to 20)
#    0.000    1.714    0.000    4.286    0.000    7.143 
#    0.000    4.286    0.000    0.000    0.000    0.000 
#    0.000    0.000    0.000    0.000    0.000    0.000 
#
# Total GULP energy -155944.305187 kJ/mol
# GULP energy per Si atom -5569.439471 kJ/mol
# Density = 0.993624 g / cm^3
# Si number density = 9.958909 Si / 1000 Ang^3
#
#
#
# Elastic Constant Matrix: (Units=GPa)
#
#
# Indices 1 2 3 4 5 6 
#
# 1 94.1631 24.7410 29.6627 -0.0037 3.2581 0.0001
# 2 24.7410 78.9800 34.8310 -0.0022 -0.7826 0.0016
# 3 29.6627 34.8310 77.4857 -0.0026 11.3873 0.0009
# 4 -0.0037 -0.0022 -0.0026 29.4759 0.0000 -3.3399
# 5 3.2581 -0.7826 11.3873 0.0000 26.8329 0.0009
# 6 0.0001 0.0016 0.0009 -3.3399 0.0009 36.6530
#
#
#
# Elastic Compliance Matrix: (Units=1/GPa)
#
#
# Indices 1 2 3 4 5 6 
#
# 1 0.012383 -0.002229 -0.003741 0.000001 0.000019 0.000000
# 2 -0.002229 0.016546 -0.007140 0.000000 0.003783 -0.000001
# 3 -0.003741 -0.007140 0.018676 0.000001 -0.007680 0.000000
# 4 0.000001 0.000000 0.000001 0.034280 0.000000 0.003124
# 5 0.000019 0.003783 -0.007680 0.000000 0.040635 -0.000001
# 6 0.000000 -0.000001 0.000000 0.003124 -0.000001 0.027568
#
#
# Mechanical properties :
#
#
# Convention : Reuss Voigt Hill
#
# Bulk Modulus (GPa) = 46.76376 47.67760 47.22068
# Shear Modulus (GPa) = 27.25716 29.35197 28.30457
#
# Velocity S-wave (km/s) = 3.70331 3.84298 3.77379
# Velocity P-wave (km/s) = 6.46648 6.60912 6.53819
#
# Compressibility (1/GPa) = 0.02138408
#
# Stress axis : x y z
#
# Youngs Moduli (GPa) = 80.75278 60.43687 53.54397
#
# Poissons Ratio (x) = 0.13471 0.20033
# Poissons Ratio (y) = 0.18000 0.38233
# Poissons Ratio (z) = 0.30213 0.43155
#
# Static dielectric constant tensor:
#      x y z
#    x 1.729650 0.000000 0.023260 
#    y 0.000000 1.740100 0.000000 
#    z 0.023260 0.000000 1.738440 
# 
# From -- ./inp_files/292416.got.cif
#   From: 2010.05.17/outbox.ucp.g08.bks.cvg/sg12_147_cif.got.tgz:292416.got - 2010.06.11 11:47:21.
