data_PCOD9224760
_publ_section_title
;
Structure prediction by ZEFSAII (Michael W. Deem and Ramdas Pophale) SiO2 
 PCOD9224760
Probable space group: C 2/M
;
_chemical_formula_sum "Si O2"
_cell_formula_units_Z 32
_cell_length_a 30.000000
_cell_length_b 9.000000
_cell_length_c 15.000000
_cell_angle_alpha 90.000000
_cell_angle_beta 50.000000
_cell_angle_gamma 90.000000
_cell_volume 3102.479995
_symmetry_space_group_name_H-M "C 2/M"
_symmetry_group_IT_number 12
_symmetry_cell_setting 'monoclinic'
loop_
_space_group_symop_operation_xyz
x,y,z
-x,y,-z
-x,-y,-z
x,-y,z
1/2+x,1/2+y,z
1/2-x,1/2+y,-z
1/2-x,1/2-y,-z
1/2+x,1/2-y,z
loop_
_atom_site_type_symbol
_atom_site_label
_atom_site_fract_x
_atom_site_fract_y
_atom_site_fract_z
Si Si1 0.054344 0.176683 0.491523
Si Si2 0.445086 0.819272 0.012793
Si Si3 0.265008 0.676223 0.140773
Si Si4 0.644843 0.820300 0.726554
Si Si5 0.883275 0.320822 0.919837
Si Si6 0.232338 0.178930 0.369796
Si Si7 0.362839 0.825818 0.748639
Si Si8 0.390314 0.178226 0.418824
O O1 0.110857 0.225404 0.362513
O O2 0.061553 0.253605 0.577948
O O3 0.000000 0.224562 0.500000
O O4 0.052102 0.000000 0.505497
O O5 0.387990 0.773252 0.141855
O O6 0.448545 0.000000 0.008495
O O7 0.500000 0.766167 0.000000
O O8 0.433643 0.776628 0.925091
O O9 0.270976 0.500000 0.152621
O O10 0.251224 0.769076 0.247360
O O11 0.206793 0.692788 0.155630
O O12 0.323621 0.739832 0.023320
O O13 0.712223 0.774971 0.640554
O O14 0.607822 0.777460 0.687516
O O15 0.645680 0.000000 0.726428
O O16 0.874868 0.500000 0.938398
O O17 0.893290 0.289659 0.803138
O O18 0.172939 0.261406 0.470234
O O19 0.224703 0.000000 0.383783
O O20 0.373348 0.000000 0.713262
O O21 0.392019 0.000000 0.423455
#
# Coordination Sequence:
#
# PCOD9224760 Si02
#       8
#     8   8   8   8   8   8   8   8
#     4  11  25  43  61  82 112 155 201 242 289 344
#     4   9  17  32  55  82 111 144 188 235 276 330
#     4  11  21  34  55  86 120 152 189 235 286 342
#     4   9  19  34  55  86 118 150 187 233 288 340
#     4  10  20  36  59  86 116 152 191 232 287 350
#     4  11  20  35  59  85 117 153 189 232 287 349
#     4  10  22  38  59  88 116 147 191 241 291 343
#     4  11  22  37  59  87 118 149 189 239 290 345
#
# _framework density 10.314329000000001
#
# number of rings (size 3 to 8) (size 9 to 14) (size 15 to 20)
#    0.000    1.750    2.500    2.250    0.000    3.000 
#    0.000    4.375    0.000    0.375    0.000    0.000 
#    0.000    0.000    0.000    0.000    0.000    0.000 
#
# Total GULP energy -178659.819629 kJ/mol
# GULP energy per Si atom -5583.119363 kJ/mol
# Density = 1.029085 g / cm^3
# Si number density = 10.314329 Si / 1000 Ang^3
#
#
#
# Elastic Constant Matrix: (Units=GPa)
#
#
# Indices 1 2 3 4 5 6 
#
# 1 147.8647 19.9124 4.0279 0.0000 23.4315 0.0000
# 2 19.9124 30.3065 -3.6560 0.0000 10.3314 0.0000
# 3 4.0279 -3.6560 15.9043 0.0000 15.1024 0.0000
# 4 0.0000 0.0000 0.0000 12.4166 0.0000 0.9438
# 5 23.4315 10.3314 15.1024 0.0000 35.4470 0.0000
# 6 0.0000 0.0000 0.0000 0.9438 0.0000 22.6670
#
#
#
# Elastic Compliance Matrix: (Units=1/GPa)
#
#
# Indices 1 2 3 4 5 6 
#
# 1 0.007969 -0.003125 0.002352 0.000000 -0.005359 0.000000
# 2 -0.003125 0.050151 0.040707 0.000000 -0.029895 0.000000
# 3 0.002352 0.040707 0.141713 0.000000 -0.073797 0.000000
# 4 0.000000 0.000000 0.000000 0.080793 0.000000 -0.003364
# 5 -0.005359 -0.029895 -0.073797 0.000000 0.071908 0.000000
# 6 0.000000 0.000000 0.000000 -0.003364 0.000000 0.044257
#
#
# Mechanical properties :
#
#
# Convention : Reuss Voigt Hill
#
# Bulk Modulus (GPa) = 3.57524 26.07157 14.82340
# Shear Modulus (GPa) = 12.19045 25.69222 18.94133
#
# Velocity S-wave (km/s) = 2.43358 3.53294 3.03348
# Velocity P-wave (km/s) = 3.10376 5.41370 4.41257
#
# Compressibility (1/GPa) = 0.27970121
#
# Stress axis : x y z
#
# Youngs Moduli (GPa) = 125.48713 19.93969 7.05650
#
# Poissons Ratio (x) = 0.06232 -0.01660
# Poissons Ratio (y) = 0.39218 -0.28725
# Poissons Ratio (z) = -0.29516 -0.81169
#
# Static dielectric constant tensor:
#      x y z
#    x 1.790060 0.000000 0.014060 
#    y 0.000000 1.690010 0.000000 
#    z 0.014060 0.000000 1.735520 
# 
# From -- ./inp_files/249739.got.cif
#   From: 2010.05.17/outbox.ucp.g08.bks.cvg/sg12_125_cif.got.tgz:249739.got - 2010.06.11 11:47:21.
