data_PCOD9224219
_publ_section_title
;
Structure prediction by ZEFSAII (Michael W. Deem and Ramdas Pophale) SiO2 
 PCOD9224219
Probable space group: C 2/M
;
_chemical_formula_sum "Si O2"
_cell_formula_units_Z 28
_cell_length_a 27.000000
_cell_length_b 9.000000
_cell_length_c 15.000000
_cell_angle_alpha 90.000000
_cell_angle_beta 60.000000
_cell_angle_gamma 90.000000
_cell_volume 3156.662597
_symmetry_space_group_name_H-M "C 2/M"
_symmetry_group_IT_number 12
_symmetry_cell_setting 'monoclinic'
loop_
_space_group_symop_operation_xyz
x,y,z
-x,y,-z
-x,-y,-z
x,-y,z
1/2+x,1/2+y,z
1/2-x,1/2+y,-z
1/2-x,1/2-y,-z
1/2+x,1/2-y,z
loop_
_atom_site_type_symbol
_atom_site_label
_atom_site_fract_x
_atom_site_fract_y
_atom_site_fract_z
Si Si1 0.061894 0.325275 0.035483
Si Si2 0.763698 0.826081 0.207792
Si Si3 0.463070 0.181026 0.255108
Si Si4 0.372748 0.180288 0.199295
Si Si5 0.162163 0.831021 0.033502
Si Si6 0.847651 0.173813 0.750151
Si Si7 0.526966 0.820305 0.379037
O O1 0.051340 0.500000 0.034250
O O2 0.115893 0.291553 0.049107
O O3 0.008657 0.265259 0.139523
O O4 0.082577 0.271894 0.919715
O O5 0.812002 0.750351 0.226629
O O6 0.701697 0.750149 0.264200
O O7 0.759258 0.000000 0.233351
O O8 0.787903 0.815060 0.084143
O O9 0.401351 0.221502 0.268503
O O10 0.486076 0.226417 0.332220
O O11 0.464229 0.000000 0.254890
O O12 0.368013 0.000000 0.199198
O O13 0.173491 0.816803 0.127739
O O14 0.138980 0.000000 0.040819
O O15 0.909920 0.249832 0.687401
O O16 0.852822 0.000000 0.723223
O O17 0.500000 0.782848 0.500000
O O18 0.532462 0.000000 0.369810
#
# Coordination Sequence:
#
# PCOD9224219 Si02
#       7
#     8   8   8   8   8   8   8
#     4   9  15  25  45  71 100 135 173 205 242 297
#     4  10  20  33  49  73 107 141 173 207 249 303
#     4   9  16  29  50  74 101 133 169 210 254 300
#     4   9  17  29  47  73 104 137 172 206 243 298
#     4   9  18  30  45  71 105 138 171 207 249 300
#     4  11  21  34  53  75 102 136 174 214 258 303
#     4  10  21  37  57  80 103 131 170 215 263 308
#
# _framework density 8.8701279999999993
#
# number of rings (size 3 to 8) (size 9 to 14) (size 15 to 20)
#    0.000    2.429    1.429    1.714    0.000    3.143 
#    0.000    1.429    0.000    4.286    0.000    0.000 
#    0.000    0.000    0.000    0.000    0.000    0.000 
#
# Total GULP energy -155918.011983 kJ/mol
# GULP energy per Si atom -5568.500428 kJ/mol
# Density = 0.884994 g / cm^3
# Si number density = 8.870128 Si / 1000 Ang^3
#
#
#
# Elastic Constant Matrix: (Units=GPa)
#
#
# Indices 1 2 3 4 5 6 
#
# 1 157.7234 51.9885 66.2935 0.0000 17.1661 0.0000
# 2 51.9885 39.5983 24.9640 0.0000 1.5359 0.0000
# 3 66.2935 24.9640 39.7718 0.0000 8.2098 0.0000
# 4 0.0000 0.0000 0.0000 14.3862 0.0000 -4.1998
# 5 17.1661 1.5359 8.2098 0.0000 17.2493 0.0000
# 6 0.0000 0.0000 0.0000 -4.1998 0.0000 22.8023
#
#
#
# Elastic Compliance Matrix: (Units=1/GPa)
#
#
# Indices 1 2 3 4 5 6 
#
# 1 0.024377 -0.011812 -0.031525 0.000000 -0.008203 0.000000
# 2 -0.011812 0.049036 -0.013991 0.000000 0.014047 0.000000
# 3 -0.031525 -0.013991 0.088427 0.000000 -0.009468 0.000000
# 4 0.000000 0.000000 0.000000 0.073461 0.000000 0.013530
# 5 -0.008203 0.014047 -0.009468 0.000000 0.069392 0.000000
# 6 0.000000 0.000000 0.000000 0.013530 0.000000 0.046347
#
#
# Mechanical properties :
#
#
# Convention : Reuss Voigt Hill
#
# Bulk Modulus (GPa) = 21.19296 58.17617 39.68456
# Shear Modulus (GPa) = 10.38583 17.14404 13.76493
#
# Velocity S-wave (km/s) = 2.42221 3.11206 2.78855
# Velocity P-wave (km/s) = 4.44915 6.76592 5.72594
#
# Compressibility (1/GPa) = 0.04718548
#
# Stress axis : x y z
#
# Youngs Moduli (GPa) = 41.02232 20.39309 11.30870
#
# Poissons Ratio (x) = 0.24088 0.35651
# Poissons Ratio (y) = 0.48454 0.15821
# Poissons Ratio (z) = 1.29325 0.28531
#
# Static dielectric constant tensor:
#      x y z
#    x 1.631950 0.000000 0.009150 
#    y 0.000000 1.604990 0.000000 
#    z 0.009150 0.000000 1.600140 
# 
# From -- ./inp_files/243607.got.cif
#   From: 2010.05.17/outbox.ucp.g08.bks.cvg/sg12_122_cif.got.tgz:243607.got - 2010.06.11 11:47:21.
