data_PCOD9224658
_publ_section_title
;
Structure prediction by ZEFSAII (Michael W. Deem and Ramdas Pophale) SiO2 
 PCOD9224658
Probable space group: C 2/M
;
_chemical_formula_sum "Si O2"
_cell_formula_units_Z 28
_cell_length_a 21.000000
_cell_length_b 9.000000
_cell_length_c 30.000000
_cell_angle_alpha 90.000000
_cell_angle_beta 30.000000
_cell_angle_gamma 90.000000
_cell_volume 2835.000000
_symmetry_space_group_name_H-M "C 2/M"
_symmetry_group_IT_number 12
_symmetry_cell_setting 'monoclinic'
loop_
_space_group_symop_operation_xyz
x,y,z
-x,y,-z
-x,-y,-z
x,-y,z
1/2+x,1/2+y,z
1/2-x,1/2+y,-z
1/2-x,1/2-y,-z
1/2+x,1/2-y,z
loop_
_atom_site_type_symbol
_atom_site_label
_atom_site_fract_x
_atom_site_fract_y
_atom_site_fract_z
Si Si1 0.164332 0.825686 0.738733
Si Si2 0.367875 0.319873 0.055793
Si Si3 0.178847 0.823777 0.584996
Si Si4 0.914970 0.327339 0.632471
Si Si5 0.914523 0.679183 0.736495
Si Si6 0.622439 0.320487 0.055335
Si Si7 0.850871 0.178730 0.554274
O O1 0.260372 0.824176 0.722655
O O2 0.254425 0.722659 0.653217
O O3 0.017734 0.781241 0.838305
O O4 0.161613 0.000000 0.724618
O O5 0.367696 0.500000 0.059348
O O6 0.227776 0.273910 0.160527
O O7 0.500000 0.269448 0.000000
O O8 0.376755 0.281681 0.997869
O O9 0.250000 0.750000 0.500000
O O10 0.278177 0.777769 0.562152
O O11 0.039358 0.756913 0.681817
O O12 0.167580 0.000000 0.585740
O O13 0.950679 0.500000 0.602119
O O14 0.937811 0.288167 0.669975
O O15 0.001250 0.229441 0.546126
O O16 0.922755 0.500000 0.737613
O O17 0.631609 0.500000 0.053286
O O18 0.750000 0.250000 0.000000
O O19 0.848244 0.000000 0.550636
#
# Coordination Sequence:
#
# PCOD9224658 Si02
#       7
#     8   8   8   8   8   8   8
#     4  10  22  40  61  86 119 163 206 246 300 365
#     4   9  18  36  64  95 123 156 207 259 302 361
#     4  12  24  40  60  86 121 160 200 246 299 361
#     4  10  20  37  61  88 122 160 199 244 299 364
#     4  10  20  35  61  93 122 157 200 247 300 358
#     4  10  22  40  62  90 124 162 206 258 314 367
#     4  12  25  39  59  87 120 159 203 251 302 358
#
# _framework density 9.8765429999999999
#
# number of rings (size 3 to 8) (size 9 to 14) (size 15 to 20)
#    0.000    1.571    1.429    3.857    2.000    6.286 
#    0.000    0.000    0.000    3.429    0.000    0.000 
#    0.000    0.000    0.000    0.000    0.000    0.000 
#
# Total GULP energy -155896.320376 kJ/mol
# GULP energy per Si atom -5567.725728 kJ/mol
# Density = 0.985406 g / cm^3
# Si number density = 9.876543 Si / 1000 Ang^3
#
#
#
# Elastic Constant Matrix: (Units=GPa)
#
#
# Indices 1 2 3 4 5 6 
#
# 1 63.1443 8.6122 51.3297 -0.0009 -16.8891 0.0030
# 2 8.6122 65.1143 49.4200 -0.0018 -5.7650 0.0009
# 3 51.3297 49.4200 207.7949 -0.0002 -31.8042 0.0004
# 4 -0.0009 -0.0018 -0.0002 34.0791 0.0001 -7.5107
# 5 -16.8891 -5.7650 -31.8042 0.0001 39.7706 -0.0007
# 6 0.0030 0.0009 0.0004 -7.5107 -0.0007 20.2780
#
#
#
# Elastic Compliance Matrix: (Units=1/GPa)
#
#
# Indices 1 2 3 4 5 6 
#
# 1 0.020858 0.001226 -0.004627 0.000000 0.005335 -0.000003
# 2 0.001226 0.018845 -0.004885 0.000001 -0.000654 -0.000001
# 3 -0.004627 -0.004885 0.007644 0.000000 0.003439 0.000001
# 4 0.000000 0.000001 0.000000 0.031952 0.000000 0.011834
# 5 0.005335 -0.000654 0.003439 0.000000 0.030065 0.000000
# 6 -0.000003 -0.000001 0.000001 0.011834 0.000000 0.053698
#
#
# Mechanical properties :
#
#
# Convention : Reuss Voigt Hill
#
# Bulk Modulus (GPa) = 32.49531 61.64193 47.06862
# Shear Modulus (GPa) = 26.33068 33.93831 30.13449
#
# Velocity S-wave (km/s) = 3.65498 4.14953 3.91008
# Velocity P-wave (km/s) = 5.85647 7.36424 6.65321
#
# Compressibility (1/GPa) = 0.03077367
#
# Stress axis : x y z
#
# Youngs Moduli (GPa) = 47.94323 53.06436 130.82731
#
# Poissons Ratio (x) = -0.06504 0.60538
# Poissons Ratio (y) = -0.05876 0.63907
# Poissons Ratio (z) = 0.22185 0.25921
#
# Static dielectric constant tensor:
#      x y z
#    x 1.741330 0.000010 -0.030790 
#    y 0.000010 1.674430 0.000010 
#    z -0.030790 0.000010 1.635580 
# 
# From -- ./inp_files/329526.got.cif
#   From: 2010.05.17/outbox.ucp.g08.bks.cvg/sg12_165_cif.got.tgz:329526.got - 2010.06.11 11:47:21.
