data_PCOD9224755
_publ_section_title
;
Structure prediction by ZEFSAII (Michael W. Deem and Ramdas Pophale) SiO2 
 PCOD9224755
Probable space group: C 2/M
;
_chemical_formula_sum "Si O2"
_cell_formula_units_Z 28
_cell_length_a 21.000000
_cell_length_b 9.000000
_cell_length_c 18.000000
_cell_angle_alpha 90.000000
_cell_angle_beta 120.000000
_cell_angle_gamma 90.000000
_cell_volume 2946.218424
_symmetry_space_group_name_H-M "C 2/M"
_symmetry_group_IT_number 12
_symmetry_cell_setting 'monoclinic'
loop_
_space_group_symop_operation_xyz
x,y,z
-x,y,-z
-x,-y,-z
x,-y,z
1/2+x,1/2+y,z
1/2-x,1/2+y,-z
1/2-x,1/2-y,-z
1/2+x,1/2-y,z
loop_
_atom_site_type_symbol
_atom_site_label
_atom_site_fract_x
_atom_site_fract_y
_atom_site_fract_z
Si Si1 0.429827 0.176958 0.406507
Si Si2 0.651645 0.826283 0.374512
Si Si3 0.070382 0.320916 0.173490
Si Si4 0.141722 0.821165 0.779724
Si Si5 0.172433 0.827707 0.539537
Si Si6 0.315124 0.179601 0.892760
Si Si7 0.090735 0.178805 0.919290
O O1 0.500000 0.224251 0.500000
O O2 0.410323 0.248949 0.314560
O O3 0.360923 0.223793 0.417025
O O4 0.436300 0.000000 0.400288
O O5 0.604507 0.783670 0.274608
O O6 0.738962 0.817155 0.408338
O O7 0.641783 0.726894 0.441970
O O8 0.635523 0.000000 0.382643
O O9 0.060152 0.500000 0.165323
O O10 0.130813 0.284083 0.145200
O O11 0.991471 0.243601 0.115491
O O12 0.229261 0.778412 0.827301
O O13 0.114172 0.786415 0.847548
O O14 0.138547 0.000000 0.767790
O O15 0.152895 0.000000 0.541349
O O16 0.315799 0.000000 0.902346
O O17 0.351587 0.252913 0.987446
O O18 0.090028 0.000000 0.926817
#
# Coordination Sequence:
#
# PCOD9224755 Si02
#       7
#     8   8   8   8   8   8   8
#     4  11  25  41  59  86 120 157 200 247 296 356
#     4   9  19  36  58  85 117 155 198 244 294 354
#     4  10  21  37  60  86 118 159 201 243 294 357
#     4  10  23  43  65  89 119 157 204 251 300 362
#     4  10  20  36  59  85 116 154 198 247 298 351
#     4  10  21  41  66  89 117 159 206 246 294 359
#     4  11  24  39  59  92 127 156 195 250 306 356
#
# _framework density 9.5037079999999996
#
# number of rings (size 3 to 8) (size 9 to 14) (size 15 to 20)
#    0.000    1.857    0.000    3.000    2.000    8.571 
#    0.000    1.429    0.000    0.000    0.000    0.000 
#    0.000    0.000    0.000    0.000    0.000    0.000 
#
# Total GULP energy -156375.815509 kJ/mol
# GULP energy per Si atom -5584.850554 kJ/mol
# Density = 0.948208 g / cm^3
# Si number density = 9.503708 Si / 1000 Ang^3
#
#
#
# Elastic Constant Matrix: (Units=GPa)
#
#
# Indices 1 2 3 4 5 6 
#
# 1 79.5569 20.8459 30.1082 0.0000 1.3006 0.0000
# 2 20.8459 41.9843 40.2244 0.0000 4.1006 0.0000
# 3 30.1082 40.2244 158.5151 0.0000 5.9532 0.0000
# 4 0.0000 0.0000 0.0000 41.2384 0.0000 -2.3279
# 5 1.3006 4.1006 5.9532 0.0000 33.6218 0.0000
# 6 0.0000 0.0000 0.0000 -2.3279 0.0000 26.4118
#
#
#
# Elastic Compliance Matrix: (Units=1/GPa)
#
#
# Indices 1 2 3 4 5 6 
#
# 1 0.014636 -0.006115 -0.001243 0.000000 0.000400 0.000000
# 2 -0.006115 0.034224 -0.007425 0.000000 -0.002623 0.000000
# 3 -0.001243 -0.007425 0.008449 0.000000 -0.000542 0.000000
# 4 0.000000 0.000000 0.000000 0.024371 0.000000 0.002148
# 5 0.000400 -0.002623 -0.000542 0.000000 0.030143 0.000000
# 6 0.000000 0.000000 0.000000 0.002148 0.000000 0.038051
#
#
# Mechanical properties :
#
#
# Convention : Reuss Voigt Hill
#
# Bulk Modulus (GPa) = 36.04438 51.37925 43.71182
# Shear Modulus (GPa) = 26.49887 32.84625 29.67256
#
# Velocity S-wave (km/s) = 3.73786 4.16152 3.95537
# Velocity P-wave (km/s) = 6.13460 7.08385 6.62624
#
# Compressibility (1/GPa) = 0.02774357
#
# Stress axis : x y z
#
# Youngs Moduli (GPa) = 68.32548 29.21912 118.35534
#
# Poissons Ratio (x) = 0.17867 0.14714
# Poissons Ratio (y) = 0.41780 0.87875
# Poissons Ratio (z) = 0.08494 0.21694
#
# Static dielectric constant tensor:
#      x y z
#    x 1.671920 0.000000 -0.008090 
#    y 0.000000 1.644320 0.000000 
#    z -0.008090 0.000000 1.646640 
# 
# From -- ./inp_files/281739.got.cif
#   From: 2010.05.17/outbox.ucp.g08.bks.cvg/sg12_141_cif.got.tgz:281739.got - 2010.06.11 11:47:21.
