data_PCOD9224636
_publ_section_title
;
Structure prediction by ZEFSAII (Michael W. Deem and Ramdas Pophale) SiO2 
 PCOD9224636
Probable space group: C 2/M
;
_chemical_formula_sum "Si O2"
_cell_formula_units_Z 32
_cell_length_a 12.000000
_cell_length_b 18.000000
_cell_length_c 15.000000
_cell_angle_alpha 90.000000
_cell_angle_beta 90.000000
_cell_angle_gamma 90.000000
_cell_volume 3240.000000
_symmetry_space_group_name_H-M "C 2/M"
_symmetry_group_IT_number 12
_symmetry_cell_setting 'monoclinic'
loop_
_space_group_symop_operation_xyz
x,y,z
-x,y,-z
-x,-y,-z
x,-y,z
1/2+x,1/2+y,z
1/2-x,1/2+y,-z
1/2-x,1/2-y,-z
1/2+x,1/2-y,z
loop_
_atom_site_type_symbol
_atom_site_label
_atom_site_fract_x
_atom_site_fract_y
_atom_site_fract_z
Si Si1 0.249441 0.139593 0.425677
Si Si2 0.619124 0.178762 0.257247
Si Si3 0.481674 0.914876 0.399543
Si Si4 0.958944 0.158978 0.687193
Si Si5 0.387715 0.176694 0.947795
Si Si6 0.481024 0.415994 0.134234
Si Si7 0.308408 0.311738 0.386860
Si Si8 0.658514 0.650648 0.015719
O O1 0.349312 0.090368 0.389778
O O2 0.137516 0.124291 0.372284
O O3 0.279838 0.226092 0.407477
O O4 0.233023 0.137060 0.531963
O O5 0.541169 0.133392 0.324831
O O6 0.586004 0.265386 0.267102
O O7 0.608023 0.155094 0.155488
O O8 0.743110 0.169389 0.296363
O O9 0.500000 0.884311 0.500000
O O10 0.520826 0.000000 0.397048
O O11 0.002777 0.105912 0.764374
O O12 0.061000 0.180996 0.624645
O O13 0.362280 0.265365 0.951684
O O14 0.500000 0.162959 0.000000
O O15 0.287433 0.138283 0.000064
O O16 0.441766 0.500000 0.123385
O O17 0.598551 0.404277 0.083789
O O18 0.400630 0.360868 0.079928
#
# Coordination Sequence:
#
# PCOD9224636 Si02
#       8
#     8   8   8   8   8   8   8   8
#     4  10  21  35  59  88 122 160 202 258 304 364
#     4  11  21  37  62  92 125 161 211 257 304 371
#     4  11  23  42  64  87 124 170 211 249 303 381
#     4  11  21  35  59  94 123 155 206 261 309 356
#     4  11  21  36  62  95 128 151 207 272 307 352
#     4  11  22  41  63  88 124 168 209 247 310 387
#     4  10  20  35  59  88 122 158 203 255 310 359
#     4  10  20  38  61  88 121 164 206 249 312 368
#
# _framework density 9.8765429999999999
#
# number of rings (size 3 to 8) (size 9 to 14) (size 15 to 20)
#    0.000    1.375    5.000    1.875    0.000    2.500 
#    0.000    3.750    0.000    4.125    0.000    0.000 
#    0.000    0.000    0.000    0.000    0.000    0.000 
#
# Total GULP energy -178623.821244 kJ/mol
# GULP energy per Si atom -5581.994414 kJ/mol
# Density = 0.985406 g / cm^3
# Si number density = 9.876543 Si / 1000 Ang^3
#
#
#
# Elastic Constant Matrix: (Units=GPa)
#
#
# Indices 1 2 3 4 5 6 
#
# 1 103.9298 -13.0738 26.8956 0.0000 -1.8849 0.0000
# 2 -13.0738 15.6097 4.9904 0.0000 2.3099 0.0000
# 3 26.8956 4.9904 90.1017 0.0000 15.7417 0.0000
# 4 0.0000 0.0000 0.0000 6.1385 0.0000 6.0016
# 5 -1.8849 2.3099 15.7417 0.0000 7.0155 0.0000
# 6 0.0000 0.0000 0.0000 6.0016 0.0000 4.8796
#
#
#
# Elastic Compliance Matrix: (Units=1/GPa)
#
#
# Indices 1 2 3 4 5 6 
#
# 1 0.013249 0.011014 -0.007489 0.000000 0.016738 0.000000
# 2 0.011014 0.076503 -0.005989 0.000000 -0.008792 0.000000
# 3 -0.007489 -0.005989 0.022489 0.000000 -0.050502 0.000000
# 4 0.000000 0.000000 0.000000 -0.804407 0.000000 0.989374
# 5 0.016738 -0.008792 -0.050502 0.000000 0.263253 0.000000
# 6 0.000000 0.000000 0.000000 0.989374 0.000000 -1.011937
#
#
# Mechanical properties :
#
#
# Convention : Reuss Voigt Hill
#
# Bulk Modulus (GPa) = 9.31852 27.47396 18.39624
# Shear Modulus (GPa) = -3.57105 16.32865 6.37880
#
# Velocity S-wave (km/s) = -1.34602 2.87825 1.79897
# Velocity P-wave (km/s) = 1.52054 4.99846 3.69437
#
# Compressibility (1/GPa) = 0.10731316
#
# Stress axis : x y z
#
# Youngs Moduli (GPa) = 75.47709 13.07137 44.46593
#
# Poissons Ratio (x) = -0.14397 0.33301
# Poissons Ratio (y) = -0.83131 0.26630
# Poissons Ratio (z) = 0.56526 0.07828
#
# Static dielectric constant tensor:
#      x y z
#    x 1.719260 0.000000 0.008970 
#    y 0.000000 1.683110 0.000000 
#    z 0.008970 0.000000 1.681530 
# 
# From -- ./inp_files/206712.got.cif
#   From: 2010.05.17/outbox.ucp.g08.bks.cvg/sg12_104_cif.got.tgz:206712.got - 2010.06.11 11:47:21.
