data_PCOD9224856
_publ_section_title
;
Structure prediction by ZEFSAII (Michael W. Deem and Ramdas Pophale) SiO2 
 PCOD9224856
Probable space group: C 2/M
;
_chemical_formula_sum "Si O2"
_cell_formula_units_Z 20
_cell_length_a 24.000000
_cell_length_b 9.000000
_cell_length_c 18.000000
_cell_angle_alpha 90.000000
_cell_angle_beta 150.000000
_cell_angle_gamma 90.000000
_cell_volume 1944.000000
_symmetry_space_group_name_H-M "C 2/M"
_symmetry_group_IT_number 12
_symmetry_cell_setting 'monoclinic'
loop_
_space_group_symop_operation_xyz
x,y,z
-x,y,-z
-x,-y,-z
x,-y,z
1/2+x,1/2+y,z
1/2-x,1/2+y,-z
1/2-x,1/2-y,-z
1/2+x,1/2-y,z
loop_
_atom_site_type_symbol
_atom_site_label
_atom_site_fract_x
_atom_site_fract_y
_atom_site_fract_z
Si Si1 0.915934 0.328215 0.629276
Si Si2 0.650572 0.177639 0.837348
Si Si3 0.272419 0.823950 0.674713
Si Si4 0.500599 0.827568 0.894455
Si Si5 0.246404 0.822720 0.810300
O O1 0.901189 0.500000 0.590604
O O2 0.805913 0.243997 0.477756
O O3 0.944083 0.323494 0.748436
O O4 0.028707 0.269549 0.721594
O O5 0.671339 0.228457 0.777871
O O6 0.654747 0.000000 0.852342
O O7 0.750000 0.250000 0.000000
O O8 0.399610 0.764230 0.826738
O O9 0.216703 0.803335 0.690250
O O10 0.282889 0.000000 0.673690
O O11 0.518918 0.000000 0.937871
O O12 0.625277 0.768491 0.032513
O O13 0.241458 0.000000 0.823056
#
# Coordination Sequence:
#
# PCOD9224856 Si02
#       5
#     8   8   8   8   8
#     4  10  21  37  57  80 113 149 182 229 283 332
#     4  11  22  38  60  84 109 145 188 231 278 331
#     4  10  21  35  57  86 114 147 187 230 274 326
#     4   9  17  35  59  82 110 149 190 226 273 329
#     4  10  20  37  59  84 114 147 186 231 276 326
#
# _framework density 10.288066000000001
#
# number of rings (size 3 to 8) (size 9 to 14) (size 15 to 20)
#    0.000    2.000    2.000    1.800    0.000    5.600 
#    0.000    5.000    0.000    2.400    0.000    0.000 
#    0.000    0.000    0.000    0.000    0.000    0.000 
#
# Total GULP energy -111548.436585 kJ/mol
# GULP energy per Si atom -5577.421829 kJ/mol
# Density = 1.026465 g / cm^3
# Si number density = 10.288066 Si / 1000 Ang^3
#
#
#
# Elastic Constant Matrix: (Units=GPa)
#
#
# Indices 1 2 3 4 5 6 
#
# 1 93.1082 7.7140 -0.5911 0.0000 10.8619 0.0000
# 2 7.7140 9.6038 6.6484 0.0000 -2.0926 0.0000
# 3 -0.5911 6.6484 46.0663 0.0000 -2.8124 0.0000
# 4 0.0000 0.0000 0.0000 27.5364 0.0000 2.4115
# 5 10.8619 -2.0926 -2.8124 0.0000 22.1277 0.0000
# 6 0.0000 0.0000 0.0000 2.4115 0.0000 19.0072
#
#
#
# Elastic Compliance Matrix: (Units=1/GPa)
#
#
# Indices 1 2 3 4 5 6 
#
# 1 0.012656 -0.012829 0.001573 0.000000 -0.007226 0.000000
# 2 -0.012829 0.130448 -0.017993 0.000000 0.016347 0.000000
# 3 0.001573 -0.017993 0.024363 0.000000 0.000623 0.000000
# 4 0.000000 0.000000 0.000000 0.036724 0.000000 -0.004659
# 5 -0.007226 0.016347 0.000623 0.000000 0.050364 0.000000
# 6 0.000000 0.000000 0.000000 -0.004659 0.000000 0.053203
#
#
# Mechanical properties :
#
#
# Convention : Reuss Voigt Hill
#
# Bulk Modulus (GPa) = 9.17696 19.59119 14.38407
# Shear Modulus (GPa) = 12.41992 22.73473 17.57733
#
# Velocity S-wave (km/s) = 2.45951 3.32762 2.92594
# Velocity P-wave (km/s) = 3.54052 4.93012 4.29193
#
# Compressibility (1/GPa) = 0.10896856
#
# Stress axis : x y z
#
# Youngs Moduli (GPa) = 79.01398 7.66588 41.04607
#
# Poissons Ratio (x) = 0.09834 -0.06455
# Poissons Ratio (y) = 1.01365 0.73855
# Poissons Ratio (z) = -0.12427 0.13793
#
# Static dielectric constant tensor:
#      x y z
#    x 1.833510 0.000000 -0.008340 
#    y 0.000000 1.696560 0.000000 
#    z -0.008340 0.000000 1.711830 
# 
# From -- ./inp_files/151695.got.cif
#   From: 2010.05.17/outbox.ucp.g08.bks.cvg/sg12_76_cif.got.tgz:151695.got - 2010.06.11 11:47:21.
