data_PCOD9224810
_publ_section_title
;
Structure prediction by ZEFSAII (Michael W. Deem and Ramdas Pophale) SiO2 
 PCOD9224810
Probable space group: C 2/M
;
_chemical_formula_sum "Si O2"
_cell_formula_units_Z 20
_cell_length_a 24.000000
_cell_length_b 18.000000
_cell_length_c 9.000000
_cell_angle_alpha 90.000000
_cell_angle_beta 150.000000
_cell_angle_gamma 90.000000
_cell_volume 1944.000000
_symmetry_space_group_name_H-M "C 2/M"
_symmetry_group_IT_number 12
_symmetry_cell_setting 'monoclinic'
loop_
_space_group_symop_operation_xyz
x,y,z
-x,y,-z
-x,-y,-z
x,-y,z
1/2+x,1/2+y,z
1/2-x,1/2+y,-z
1/2-x,1/2-y,-z
1/2+x,1/2-y,z
loop_
_atom_site_type_symbol
_atom_site_label
_atom_site_fract_x
_atom_site_fract_y
_atom_site_fract_z
Si Si1 0.899506 0.696118 0.874615
Si Si2 0.415975 0.087256 0.179450
Si Si3 0.200777 0.839291 0.190557
Si Si4 0.005072 0.085422 0.179887
Si Si5 0.689938 0.410439 0.842515
O O1 0.860590 0.762979 0.895569
O O2 0.808488 0.666603 0.544953
O O3 0.928385 0.630521 0.055020
O O4 0.000000 0.719424 0.000000
O O5 0.500000 0.115311 0.500000
O O6 0.438651 0.000000 0.207867
O O7 0.293845 0.094776 0.969753
O O8 0.211713 0.858761 0.039210
O O9 0.120397 0.905559 0.056098
O O10 0.084359 0.114965 0.496490
O O11 0.041487 0.000000 0.249177
O O12 0.000000 0.116514 0.000000
O O13 0.677388 0.500000 0.852921
#
# Coordination Sequence:
#
# PCOD9224810 Si02
#       5
#     8   8   8   8   8
#     4  11  25  42  60  86 119 158 205 248 295 353
#     4  10  22  40  61  87 119 156 201 248 294 351
#     4  11  23  39  60  86 122 158 197 247 295 351
#     4  10  20  36  61  92 124 157 195 243 299 358
#     4  10  21  38  63  95 124 154 196 243 298 361
#
# _framework density 10.288066000000001
#
# number of rings (size 3 to 8) (size 9 to 14) (size 15 to 20)
#    0.000    1.600    0.000    4.200    0.000    9.200 
#    0.000    0.000    0.000    0.000    0.000    0.000 
#    0.000    0.000    0.000    0.000    0.000    0.000 
#
# Total GULP energy -111464.695506 kJ/mol
# GULP energy per Si atom -5573.234775 kJ/mol
# Density = 1.026465 g / cm^3
# Si number density = 10.288066 Si / 1000 Ang^3
#
#
#
# Elastic Constant Matrix: (Units=GPa)
#
#
# Indices 1 2 3 4 5 6 
#
# 1 79.3212 37.2759 29.4096 0.0000 -32.7076 0.0000
# 2 37.2759 68.3604 44.2238 0.0000 -23.7728 0.0000
# 3 29.4096 44.2238 136.5556 0.0000 -27.1433 0.0000
# 4 0.0000 0.0000 0.0000 23.4501 0.0000 -3.4470
# 5 -32.7076 -23.7728 -27.1433 0.0000 44.5062 0.0000
# 6 0.0000 0.0000 0.0000 -3.4470 0.0000 -1.1117
#
#
#
# Elastic Compliance Matrix: (Units=1/GPa)
#
#
# Indices 1 2 3 4 5 6 
#
# 1 0.020736 -0.007497 0.000222 0.000000 0.011370 0.000000
# 2 -0.007497 0.023415 -0.005209 0.000000 0.003821 0.000000
# 3 0.000222 -0.005209 0.009606 0.000000 0.003239 0.000000
# 4 0.000000 0.000000 0.000000 0.029293 0.000000 -0.090826
# 5 0.011370 0.003821 0.003239 0.000000 0.034841 0.000000
# 6 0.000000 0.000000 0.000000 -0.090826 0.000000 -0.617900
#
#
# Mechanical properties :
#
#
# Convention : Reuss Voigt Hill
#
# Bulk Modulus (GPa) = 34.73493 56.22843 45.48168
# Shear Modulus (GPa) = -10.74239 24.92412 7.09087
#
# Velocity S-wave (km/s) = -2.28739 3.48417 1.85840
# Velocity P-wave (km/s) = 3.15304 6.60093 5.17271
#
# Compressibility (1/GPa) = 0.02878946
#
# Stress axis : x y z
#
# Youngs Moduli (GPa) = 48.22557 42.70854 104.10160
#
# Poissons Ratio (x) = 0.32017 -0.02311
# Poissons Ratio (y) = 0.36153 0.54225
# Poissons Ratio (z) = -0.01070 0.22246
#
# Static dielectric constant tensor:
#      x y z
#    x 1.753180 0.000000 0.023810 
#    y 0.000000 1.758820 0.000000 
#    z 0.023810 0.000000 1.783940 
# 
# From -- ./inp_files/46963.got.cif
#   From: 2010.05.17/outbox.ucp.g08.bks.cvg/sg12_24_cif.got.tgz:46963.got - 2010.06.11 11:47:21.
