data_PCOD9224263
_publ_section_title
;
Structure prediction by ZEFSAII (Michael W. Deem and Ramdas Pophale) SiO2 
 PCOD9224263
Probable space group: C 2/M
;
_chemical_formula_sum "Si O2"
_cell_formula_units_Z 24
_cell_length_a 21.000000
_cell_length_b 18.000000
_cell_length_c 9.000000
_cell_angle_alpha 90.000000
_cell_angle_beta 120.000000
_cell_angle_gamma 90.000000
_cell_volume 2946.218424
_symmetry_space_group_name_H-M "C 2/M"
_symmetry_group_IT_number 12
_symmetry_cell_setting 'monoclinic'
loop_
_space_group_symop_operation_xyz
x,y,z
-x,y,-z
-x,-y,-z
x,-y,z
1/2+x,1/2+y,z
1/2-x,1/2+y,-z
1/2-x,1/2-y,-z
1/2+x,1/2-y,z
loop_
_atom_site_type_symbol
_atom_site_label
_atom_site_fract_x
_atom_site_fract_y
_atom_site_fract_z
Si Si1 0.899991 0.082456 0.214911
Si Si2 0.248716 0.583969 0.214110
Si Si3 0.814752 0.190468 0.537329
Si Si4 0.080536 0.238171 0.600772
Si Si5 0.913128 0.167087 0.937001
Si Si6 0.673096 0.212953 0.965367
O O1 0.816147 0.081422 0.175052
O O2 0.928937 0.156029 0.333516
O O3 0.931083 0.000000 0.284990
O O4 0.907725 0.099825 0.049314
O O5 0.225066 0.500000 0.216261
O O6 0.278667 0.625066 0.396403
O O7 0.189658 0.637385 0.069480
O O8 0.750000 0.250000 0.500000
O O9 0.875504 0.227530 0.499973
O O10 0.861175 0.160182 0.731670
O O11 0.000000 0.270226 0.500000
O O12 0.127895 0.290233 0.762069
O O13 0.874533 0.234627 0.981730
O O14 0.000000 0.178452 0.000000
O O15 0.750000 0.250000 0.000000
#
# Coordination Sequence:
#
# PCOD9224263 Si02
#       6
#     8   8   8   8   8   8
#     4   9  19  34  51  73 110 148 176 204 256 323
#     4  10  20  35  57  81 103 138 184 224 261 309
#     4  11  19  32  54  80 107 136 176 224 260 307
#     4  10  20  33  53  80 104 138 183 216 257 316
#     4  11  21  32  52  82 111 139 177 216 267 314
#     4  11  17  37  58  75 102 143 185 219 252 315
#
# _framework density 8.1460360000000005
#
# number of rings (size 3 to 8) (size 9 to 14) (size 15 to 20)
#    0.000    1.667    6.667    2.000    0.000    1.333 
#    0.000    3.333    0.000    1.000    0.000    0.000 
#    0.000    0.000    0.000    0.000    0.000    0.000 
#
# Total GULP energy -133606.805858 kJ/mol
# GULP energy per Si atom -5566.950244 kJ/mol
# Density = 0.812749 g / cm^3
# Si number density = 8.146036 Si / 1000 Ang^3
#
#
#
# Elastic Constant Matrix: (Units=GPa)
#
#
# Indices 1 2 3 4 5 6 
#
# 1 91.9250 37.6615 52.8673 0.0000 -1.5150 0.0000
# 2 37.6615 73.6239 11.6817 0.0000 3.3753 0.0000
# 3 52.8673 11.6817 69.3765 0.0000 0.4602 0.0000
# 4 0.0000 0.0000 0.0000 7.5086 0.0000 3.7529
# 5 -1.5150 3.3753 0.4602 0.0000 33.0653 0.0000
# 6 0.0000 0.0000 0.0000 3.7529 0.0000 13.7547
#
#
#
# Elastic Compliance Matrix: (Units=1/GPa)
#
#
# Indices 1 2 3 4 5 6 
#
# 1 0.025134 -0.010200 -0.017452 0.000000 0.002436 0.000000
# 2 -0.010200 0.018159 0.004731 0.000000 -0.002387 0.000000
# 3 -0.017452 0.004731 0.026927 0.000000 -0.001657 0.000000
# 4 0.000000 0.000000 0.000000 0.154210 0.000000 -0.042075
# 5 0.002436 -0.002387 -0.001657 0.000000 0.030621 0.000000
# 6 0.000000 0.000000 0.000000 -0.042075 0.000000 0.084182
#
#
# Mechanical properties :
#
#
# Convention : Reuss Voigt Hill
#
# Bulk Modulus (GPa) = 41.01905 48.81627 44.91766
# Shear Modulus (GPa) = 12.71610 19.71340 16.21475
#
# Velocity S-wave (km/s) = 2.79679 3.48228 3.15819
# Velocity P-wave (km/s) = 5.97171 6.79681 6.39758
#
# Compressibility (1/GPa) = 0.02437892
#
# Stress axis : x y z
#
# Youngs Moduli (GPa) = 39.78642 55.06941 37.13681
#
# Poissons Ratio (x) = 0.56169 0.64811
# Poissons Ratio (y) = 0.40581 -0.17569
# Poissons Ratio (z) = 0.69435 -0.26052
#
# Static dielectric constant tensor:
#      x y z
#    x 1.565640 0.000000 -0.015550 
#    y 0.000000 1.548840 0.000000 
#    z -0.015550 0.000000 1.590300 
# 
# From -- ./inp_files/87135.got.cif
#   From: 2010.05.17/outbox.ucp.g08.bks.cvg/sg12_44_cif.got.tgz:87135.got - 2010.06.11 11:47:21.
