data_PCOD9224272
_publ_section_title
;
Structure prediction by ZEFSAII (Michael W. Deem and Ramdas Pophale) SiO2 
 PCOD9224272
Probable space group: C 2/M
;
_chemical_formula_sum "Si O2"
_cell_formula_units_Z 32
_cell_length_a 21.000000
_cell_length_b 18.000000
_cell_length_c 9.000000
_cell_angle_alpha 90.000000
_cell_angle_beta 90.000000
_cell_angle_gamma 90.000000
_cell_volume 3402.000000
_symmetry_space_group_name_H-M "C 2/M"
_symmetry_group_IT_number 12
_symmetry_cell_setting 'monoclinic'
loop_
_space_group_symop_operation_xyz
x,y,z
-x,y,-z
-x,-y,-z
x,-y,z
1/2+x,1/2+y,z
1/2-x,1/2+y,-z
1/2-x,1/2-y,-z
1/2+x,1/2-y,z
loop_
_atom_site_type_symbol
_atom_site_label
_atom_site_fract_x
_atom_site_fract_y
_atom_site_fract_z
Si Si1 0.980901 0.919358 0.674995
Si Si2 0.124294 0.088421 0.736067
Si Si3 0.336585 0.263293 0.113399
Si Si4 0.990704 0.586546 0.825402
Si Si5 0.193780 0.727559 0.210863
Si Si6 0.141516 0.586324 0.351173
Si Si7 0.384155 0.316716 0.557098
Si Si8 0.412175 0.177665 0.370906
O O1 0.929111 0.855944 0.677816
O O2 0.000000 0.921863 0.500000
O O3 0.047530 0.908188 0.755669
O O4 0.954134 0.000000 0.715633
O O5 0.150582 0.149220 0.851927
O O6 0.136666 0.124252 0.570747
O O7 0.141925 0.000000 0.743712
O O8 0.263823 0.251394 0.160483
O O9 0.374260 0.211672 0.230058
O O10 0.346664 0.240616 0.941191
O O11 0.012095 0.500000 0.816678
O O12 0.029691 0.636036 0.707843
O O13 0.919098 0.588868 0.761130
O O14 0.000000 0.608606 0.000000
O O15 0.190193 0.643407 0.273250
O O16 0.171023 0.777828 0.348902
O O17 0.161189 0.500000 0.365237
O O18 0.121684 0.620770 0.512423
O O19 0.422295 0.251314 0.471672
#
# Coordination Sequence:
#
# PCOD9224272 Si02
#       8
#     8   8   8   8   8   8   8   8
#     4   8  14  28  50  77 107 133 159 198 252 309
#     4   9  18  33  55  81 107 138 174 213 263 319
#     4  10  22  39  55  73 105 145 182 223 271 322
#     4  10  20  34  53  79 112 144 173 212 267 328
#     4  10  22  39  55  74 104 143 184 225 270 320
#     4  10  21  36  57  83 108 138 179 226 273 321
#     4   9  18  31  54  80 106 138 175 217 261 311
#     4  10  20  33  54  80 108 139 177 222 268 316
#
# _framework density 9.4062319999999993
#
# number of rings (size 3 to 8) (size 9 to 14) (size 15 to 20)
#    0.000    2.500    0.000    2.625    0.000   15.000 
#    0.000    3.750    0.000    6.750    0.000    0.000 
#    0.000    0.500    0.000    0.000    0.000    0.000 
#
# Total GULP energy -178233.298078 kJ/mol
# GULP energy per Si atom -5569.790565 kJ/mol
# Density = 0.938482 g / cm^3
# Si number density = 9.406232 Si / 1000 Ang^3
#
#
#
# Elastic Constant Matrix: (Units=GPa)
#
#
# Indices 1 2 3 4 5 6 
#
# 1 15.3504 5.3834 -15.8280 0.0000 -4.8619 0.0000
# 2 5.3834 106.5706 17.6375 0.0000 -8.6762 0.0000
# 3 -15.8280 17.6375 49.5599 0.0000 -5.9061 0.0000
# 4 0.0000 0.0000 0.0000 24.5700 0.0000 4.6166
# 5 -4.8619 -8.6762 -5.9061 0.0000 24.6120 0.0000
# 6 0.0000 0.0000 0.0000 4.6166 0.0000 14.0110
#
#
#
# Elastic Compliance Matrix: (Units=1/GPa)
#
#
# Indices 1 2 3 4 5 6 
#
# 1 0.132650 -0.012338 0.050813 0.000000 0.034048 0.000000
# 2 -0.012338 0.011301 -0.008007 0.000000 -0.000375 0.000000
# 3 0.050813 -0.008007 0.041296 0.000000 0.017125 0.000000
# 4 0.000000 0.000000 0.000000 0.043386 0.000000 -0.014296
# 5 0.034048 -0.000375 0.017125 0.000000 0.051334 0.000000
# 6 0.000000 0.000000 0.000000 -0.014296 0.000000 0.076083
#
#
# Mechanical properties :
#
#
# Convention : Reuss Voigt Hill
#
# Bulk Modulus (GPa) = 4.06203 20.65186 12.35695
# Shear Modulus (GPa) = 13.25640 23.59113 18.42377
#
# Velocity S-wave (km/s) = 2.65742 3.54505 3.13283
# Velocity P-wave (km/s) = 3.40291 5.26860 4.43497
#
# Compressibility (1/GPa) = 0.24618235
#
# Stress axis : x y z
#
# Youngs Moduli (GPa) = 7.53864 88.48454 24.21531
#
# Poissons Ratio (x) = 1.09176 -1.23045
# Poissons Ratio (y) = 0.09302 0.19390
# Poissons Ratio (z) = -0.38306 0.70851
#
# Static dielectric constant tensor:
#      x y z
#    x 1.699710 0.000000 0.032570 
#    y 0.000000 1.676940 0.000000 
#    z 0.032570 0.000000 1.645900 
# 
# From -- ./inp_files/87985.got.cif
#   From: 2010.05.17/outbox.ucp.g08.bks.cvg/sg12_44_cif.got.tgz:87985.got - 2010.06.11 11:47:21.
