data_PCOD9224511
_publ_section_title
;
Structure prediction by ZEFSAII (Michael W. Deem and Ramdas Pophale) SiO2 
 PCOD9224511
Probable space group: C 2/M
;
_chemical_formula_sum "Si O2"
_cell_formula_units_Z 32
_cell_length_a 15.000000
_cell_length_b 30.000000
_cell_length_c 21.000000
_cell_angle_alpha 90.000000
_cell_angle_beta 160.000000
_cell_angle_gamma 90.000000
_cell_volume 3232.090354
_symmetry_space_group_name_H-M "C 2/M"
_symmetry_group_IT_number 12
_symmetry_cell_setting 'monoclinic'
loop_
_space_group_symop_operation_xyz
x,y,z
-x,y,-z
-x,-y,-z
x,-y,z
1/2+x,1/2+y,z
1/2-x,1/2+y,-z
1/2-x,1/2-y,-z
1/2+x,1/2-y,z
loop_
_atom_site_type_symbol
_atom_site_label
_atom_site_fract_x
_atom_site_fract_y
_atom_site_fract_z
Si Si1 0.780419 0.145725 0.718051
Si Si2 0.025942 0.448506 0.257411
Si Si3 0.043250 0.112590 0.290652
Si Si4 0.390205 0.550376 0.290556
Si Si5 0.127075 0.309913 0.015188
Si Si6 0.157414 0.207545 0.038726
Si Si7 0.588424 0.124869 0.727014
Si Si8 0.287084 0.117695 0.723866
O O1 0.500000 0.839837 0.500000
O O2 0.882742 0.110905 0.734157
O O3 0.749664 0.127374 0.769319
O O4 0.979401 0.186248 0.863639
O O5 0.944232 0.500000 0.190639
O O6 0.320854 0.451508 0.483854
O O7 0.052508 0.415320 0.215080
O O8 0.864421 0.419769 0.200581
O O9 0.295417 0.122437 0.503422
O O10 0.916353 0.068837 0.236426
O O11 0.863522 0.155658 0.176251
O O12 0.284623 0.500000 0.223954
O O13 0.244187 0.588534 0.232716
O O14 0.215131 0.258998 0.060042
O O15 0.000000 0.309204 0.000000
O O16 0.925054 0.335195 0.831874
O O17 0.366504 0.168990 0.198959
O O18 0.000000 0.210842 0.000000
O O19 0.000000 0.124264 0.500000
#
# Coordination Sequence:
#
# PCOD9224511 Si02
#       8
#     8   8   8   8   8   8   8   8
#     4   9  19  37  58  80 108 146 186 230 283 327
#     4   9  18  33  58  86 108 142 192 234 274 331
#     4  10  20  35  56  82 114 147 186 233 276 332
#     4   9  17  34  57  81 113 152 186 223 278 334
#     4  11  22  37  54  81 118 150 184 231 282 332
#     4   9  20  37  58  79 108 150 190 231 278 335
#     4   9  19  38  59  80 109 149 189 233 281 327
#     4  10  20  35  55  81 116 154 188 227 272 332
#
# _framework density 9.9007129999999997
#
# number of rings (size 3 to 8) (size 9 to 14) (size 15 to 20)
#    0.000    2.500    1.250    0.375    1.750    3.000 
#    0.000    2.500    0.000    7.125    0.000    0.000 
#    0.000    0.000    0.000    0.000    0.000    0.000 
#
# Total GULP energy -178366.711246 kJ/mol
# GULP energy per Si atom -5573.959726 kJ/mol
# Density = 0.987818 g / cm^3
# Si number density = 9.900713 Si / 1000 Ang^3
#
#
#
# Elastic Constant Matrix: (Units=GPa)
#
#
# Indices 1 2 3 4 5 6 
#
# 1 89.5034 33.8456 14.3042 -0.0021 -19.0224 0.0031
# 2 33.8456 116.1349 15.0187 0.0067 -14.8860 0.0028
# 3 14.3042 15.0187 45.0955 0.0000 -9.5864 0.0060
# 4 -0.0021 0.0067 0.0000 23.9604 -0.0045 -2.6342
# 5 -19.0224 -14.8860 -9.5864 -0.0045 20.5314 0.0024
# 6 0.0031 0.0028 0.0060 -2.6342 0.0024 20.7093
#
#
#
# Elastic Compliance Matrix: (Units=1/GPa)
#
#
# Indices 1 2 3 4 5 6 
#
# 1 0.014775 -0.002703 -0.001435 0.000004 0.011059 -0.000002
# 2 -0.002703 0.010134 -0.001652 -0.000002 0.004072 -0.000001
# 3 -0.001435 -0.001652 0.025139 0.000001 0.009210 -0.000008
# 4 0.000004 -0.000002 0.000001 0.042327 0.000011 0.005384
# 5 0.011059 0.004072 0.009210 0.000011 0.066204 -0.000011
# 6 -0.000002 -0.000001 -0.000008 0.005384 -0.000011 0.048972
#
#
# Mechanical properties :
#
#
# Convention : Reuss Voigt Hill
#
# Bulk Modulus (GPa) = 25.99659 41.89675 33.94667
# Shear Modulus (GPa) = 21.55603 25.54460 23.55031
#
# Velocity S-wave (km/s) = 3.30299 3.59561 3.45240
# Velocity P-wave (km/s) = 5.26341 6.20018 5.75090
#
# Compressibility (1/GPa) = 0.03846658
#
# Stress axis : x y z
#
# Youngs Moduli (GPa) = 67.68400 98.67852 39.77962
#
# Poissons Ratio (x) = 0.26669 0.05710
# Poissons Ratio (y) = 0.18293 0.06572
# Poissons Ratio (z) = 0.09716 0.16303
#
# Static dielectric constant tensor:
#      x y z
#    x 1.758540 0.000000 0.039020 
#    y 0.000000 1.670860 -0.000010 
#    z 0.039020 -0.000010 1.741420 
# 
# From -- ./inp_files/312962.got.cif
#   From: 2010.05.17/outbox.ucp.g08.bks.cvg/sg12_157_cif.got.tgz:312962.got - 2010.06.11 11:47:21.
