data_PCOD9224985
_publ_section_title
;
Structure prediction by ZEFSAII (Michael W. Deem and Ramdas Pophale) SiO2 
 PCOD9224985
Probable space group: C 2/M
;
_chemical_formula_sum "Si O2"
_cell_formula_units_Z 28
_cell_length_a 27.000000
_cell_length_b 18.000000
_cell_length_c 9.000000
_cell_angle_alpha 90.000000
_cell_angle_beta 40.000000
_cell_angle_gamma 90.000000
_cell_volume 2811.553005
_symmetry_space_group_name_H-M "C 2/M"
_symmetry_group_IT_number 12
_symmetry_cell_setting 'monoclinic'
loop_
_space_group_symop_operation_xyz
x,y,z
-x,y,-z
-x,-y,-z
x,-y,z
1/2+x,1/2+y,z
1/2-x,1/2+y,-z
1/2-x,1/2-y,-z
1/2+x,1/2-y,z
loop_
_atom_site_type_symbol
_atom_site_label
_atom_site_fract_x
_atom_site_fract_y
_atom_site_fract_z
Si Si1 0.875906 0.917970 0.196071
Si Si2 0.043858 0.847628 0.252623
Si Si3 0.783702 0.585004 0.584011
Si Si4 0.419614 0.815756 0.770914
Si Si5 0.427728 0.912722 0.053633
Si Si6 0.931793 0.780712 0.268385
Si Si7 0.691946 0.802206 0.227909
O O1 0.785666 0.914968 0.372658
O O2 0.898360 0.848278 0.246368
O O3 0.897709 0.000000 0.204583
O O4 0.911855 0.906486 0.949344
O O5 0.979041 0.816305 0.292920
O O6 0.000000 0.874591 0.500000
O O7 0.093350 0.772773 0.171668
O O8 0.797686 0.500000 0.600496
O O9 0.857174 0.610495 0.320755
O O10 0.767612 0.636405 0.762207
O O11 0.500000 0.820630 0.500000
O O12 0.357806 0.840076 0.789673
O O13 0.426668 0.861587 0.908201
O O14 0.418676 0.000000 0.030247
O O15 0.500000 0.910340 0.000000
O O16 0.865365 0.737280 0.516548
O O17 0.000000 0.746929 0.000000
O O18 0.750000 0.750000 0.000000
#
# Coordination Sequence:
#
# PCOD9224985 Si02
#       7
#     8   8   8   8   8   8   8
#     4  10  23  42  62  89 123 165 212 258 312 376
#     4  10  20  38  62  91 126 159 203 255 321 367
#     4  10  24  43  62  88 128 168 208 256 310 371
#     4  11  22  38  62  90 126 162 201 260 317 368
#     4  10  23  40  62  90 121 166 215 254 304 368
#     4  10  23  40  66  93 126 164 207 263 310 374
#     4  12  25  40  64  99 126 164 214 256 317 376
#
# _framework density 9.9589090000000002
#
# number of rings (size 3 to 8) (size 9 to 14) (size 15 to 20)
#    0.000    1.571    2.857    1.714    6.000    4.286 
#    0.000    0.714    0.000    0.000    0.000    0.000 
#    0.000    0.000    0.000    0.000    0.000    0.000 
#
# Total GULP energy -156003.546194 kJ/mol
# GULP energy per Si atom -5571.555221 kJ/mol
# Density = 0.993624 g / cm^3
# Si number density = 9.958909 Si / 1000 Ang^3
#
#
#
# Elastic Constant Matrix: (Units=GPa)
#
#
# Indices 1 2 3 4 5 6 
#
# 1 78.6848 23.2993 18.7793 0.0000 17.2302 0.0000
# 2 23.2993 73.6609 41.9305 0.0000 14.7268 0.0000
# 3 18.7793 41.9305 115.6441 0.0000 19.4498 0.0000
# 4 0.0000 0.0000 0.0000 2.5307 0.0000 -9.3300
# 5 17.2302 14.7268 19.4498 0.0000 34.3096 0.0000
# 6 0.0000 0.0000 0.0000 -9.3300 0.0000 11.8593
#
#
#
# Elastic Compliance Matrix: (Units=1/GPa)
#
#
# Indices 1 2 3 4 5 6 
#
# 1 0.015091 -0.003472 -0.000186 0.000000 -0.005984 0.000000
# 2 -0.003472 0.018479 -0.005633 0.000000 -0.002995 0.000000
# 3 -0.000186 -0.005633 0.011383 0.000000 -0.003942 0.000000
# 4 0.000000 0.000000 0.000000 -0.207922 0.000000 -0.163577
# 5 -0.005984 -0.002995 -0.003942 0.000000 0.035672 0.000000
# 6 0.000000 0.000000 0.000000 -0.163577 0.000000 -0.044369
#
#
# Mechanical properties :
#
#
# Convention : Reuss Voigt Hill
#
# Bulk Modulus (GPa) = 37.91704 48.44536 43.18120
# Shear Modulus (GPa) = -34.65123 22.00529 -6.32297
#
# Velocity S-wave (km/s) = -4.17551 3.32747 -1.78365
# Velocity P-wave (km/s) = 2.04167 6.25605 4.18149
#
# Compressibility (1/GPa) = 0.02637337
#
# Stress axis : x y z
#
# Youngs Moduli (GPa) = 66.26263 54.11570 87.85334
#
# Poissons Ratio (x) = 0.18787 0.01631
# Poissons Ratio (y) = 0.23004 0.49485
# Poissons Ratio (z) = 0.01230 0.30481
#
# Static dielectric constant tensor:
#      x y z
#    x 1.767830 0.000000 -0.045470 
#    y 0.000000 1.790950 0.000000 
#    z -0.045470 0.000000 1.729030 
# 
# From -- ./inp_files/105924.got.cif
#   From: 2010.05.17/outbox.ucp.g08.bks.cvg/sg12_53_cif.got.tgz:105924.got - 2010.06.11 11:47:21.
