data_PCOD9224662
_publ_section_title
;
Structure prediction by ZEFSAII (Michael W. Deem and Ramdas Pophale) SiO2 
 PCOD9224662
Probable space group: C 2/M
;
_chemical_formula_sum "Si O2"
_cell_formula_units_Z 24
_cell_length_a 9.000000
_cell_length_b 18.000000
_cell_length_c 15.000000
_cell_angle_alpha 90.000000
_cell_angle_beta 90.000000
_cell_angle_gamma 90.000000
_cell_volume 2430.000000
_symmetry_space_group_name_H-M "C 2/M"
_symmetry_group_IT_number 12
_symmetry_cell_setting 'monoclinic'
loop_
_space_group_symop_operation_xyz
x,y,z
-x,y,-z
-x,-y,-z
x,-y,z
1/2+x,1/2+y,z
1/2-x,1/2+y,-z
1/2-x,1/2-y,-z
1/2+x,1/2-y,z
loop_
_atom_site_type_symbol
_atom_site_label
_atom_site_fract_x
_atom_site_fract_y
_atom_site_fract_z
Si Si1 0.706705 0.660435 0.589180
Si Si2 0.745210 0.088699 0.219501
Si Si3 0.351638 0.321238 0.605056
Si Si4 0.014307 0.086128 0.098716
Si Si5 0.726945 0.329087 0.189748
Si Si6 0.460902 0.806703 0.893084
O O1 0.761139 0.615390 0.677023
O O2 0.711144 0.635880 0.483706
O O3 0.530279 0.673486 0.603804
O O4 0.799320 0.736478 0.592545
O O5 0.902637 0.113281 0.175673
O O6 0.631509 0.124453 0.148345
O O7 0.732281 0.000000 0.220286
O O8 0.296874 0.340248 0.704852
O O9 0.177648 0.097604 0.136850
O O10 0.976958 0.000000 0.089383
O O11 0.000000 0.120354 0.000000
O O12 0.628031 0.265809 0.140683
O O13 0.890640 0.306870 0.164536
O O14 0.500000 0.808919 0.000000
#
# Coordination Sequence:
#
# PCOD9224662 Si02
#       6
#     8   8   8   8   8   8
#     4  10  20  38  59  92 115 153 198 239 306 356
#     4  11  23  41  60  84 124 164 202 249 302 356
#     4  10  20  35  63  89 117 148 194 247 296 359
#     4  10  21  38  60  84 118 161 199 239 295 359
#     4  12  21  38  61  88 120 151 198 254 298 354
#     4  12  25  38  60  90 121 159 203 252 301 356
#
# _framework density 9.8765429999999999
#
# number of rings (size 3 to 8) (size 9 to 14) (size 15 to 20)
#    0.000    1.167    3.333    4.000    0.000    1.000 
#    0.000    2.500    0.000    1.000    0.000    0.000 
#    0.000    0.000    0.000    0.000    0.000    0.000 
#
# Total GULP energy -133666.073049 kJ/mol
# GULP energy per Si atom -5569.419710 kJ/mol
# Density = 0.985406 g / cm^3
# Si number density = 9.876543 Si / 1000 Ang^3
#
#
#
# Elastic Constant Matrix: (Units=GPa)
#
#
# Indices 1 2 3 4 5 6 
#
# 1 48.9424 8.2601 -0.9113 0.0000 1.3854 0.0000
# 2 8.2601 49.4293 44.6029 0.0000 2.7261 0.0000
# 3 -0.9113 44.6029 171.1017 0.0000 14.0953 0.0000
# 4 0.0000 0.0000 0.0000 29.4100 0.0000 3.7648
# 5 1.3854 2.7261 14.0953 0.0000 30.8650 0.0000
# 6 0.0000 0.0000 0.0000 3.7648 0.0000 15.0808
#
#
#
# Elastic Compliance Matrix: (Units=1/GPa)
#
#
# Indices 1 2 3 4 5 6 
#
# 1 0.021307 -0.004820 0.001469 0.000000 -0.001201 0.000000
# 2 -0.004820 0.027565 -0.007303 0.000000 0.001117 0.000000
# 3 0.001469 -0.007303 0.008010 0.000000 -0.003079 0.000000
# 4 0.000000 0.000000 0.000000 0.035124 0.000000 -0.008769
# 5 -0.001201 0.001117 -0.003079 0.000000 0.033760 0.000000
# 6 0.000000 0.000000 0.000000 -0.008769 0.000000 0.068498
#
#
# Mechanical properties :
#
#
# Convention : Reuss Voigt Hill
#
# Bulk Modulus (GPa) = 28.11101 41.48631 34.79866
# Shear Modulus (GPa) = 21.98467 29.57262 25.77864
#
# Velocity S-wave (km/s) = 3.33975 3.87345 3.61646
# Velocity P-wave (km/s) = 5.39759 6.40725 5.92397
#
# Compressibility (1/GPa) = 0.03557325
#
# Stress axis : x y z
#
# Youngs Moduli (GPa) = 46.93300 36.27789 124.84755
#
# Poissons Ratio (x) = 0.17485 -0.18339
# Poissons Ratio (y) = 0.22621 0.91181
# Poissons Ratio (z) = -0.06894 0.26495
#
# Static dielectric constant tensor:
#      x y z
#    x 1.729280 0.000000 0.008070 
#    y 0.000000 1.758490 0.000000 
#    z 0.008070 0.000000 1.744360 
# 
# From -- ./inp_files/195962.got.cif
#   From: 2010.05.17/outbox.ucp.g08.bks.cvg/sg12_98_cif.got.tgz:195962.got - 2010.06.11 11:47:21.
