data_PCOD9224555
_publ_section_title
;
Structure prediction by ZEFSAII (Michael W. Deem and Ramdas Pophale) SiO2 
 PCOD9224555
Probable space group: C 2/M
;
_chemical_formula_sum "Si O2"
_cell_formula_units_Z 28
_cell_length_a 21.000000
_cell_length_b 9.000000
_cell_length_c 30.000000
_cell_angle_alpha 90.000000
_cell_angle_beta 150.000000
_cell_angle_gamma 90.000000
_cell_volume 2835.000000
_symmetry_space_group_name_H-M "C 2/M"
_symmetry_group_IT_number 12
_symmetry_cell_setting 'monoclinic'
loop_
_space_group_symop_operation_xyz
x,y,z
-x,y,-z
-x,-y,-z
x,-y,z
1/2+x,1/2+y,z
1/2-x,1/2+y,-z
1/2-x,1/2-y,-z
1/2+x,1/2-y,z
loop_
_atom_site_type_symbol
_atom_site_label
_atom_site_fract_x
_atom_site_fract_y
_atom_site_fract_z
Si Si1 0.649016 0.328988 0.600774
Si Si2 0.264707 0.823337 0.436054
Si Si3 0.936420 0.324368 0.622936
Si Si4 0.936058 0.177768 0.111724
Si Si5 0.292846 0.677751 0.761614
Si Si6 0.234268 0.324245 0.822011
Si Si7 0.750758 0.322997 0.927227
O O1 0.500000 0.320925 0.500000
O O2 0.688619 0.500000 0.627266
O O3 0.718407 0.250440 0.601513
O O4 0.678860 0.251172 0.665605
O O5 0.140360 0.767051 0.386708
O O6 0.380253 0.784270 0.540264
O O7 0.261492 0.000000 0.428656
O O8 0.909037 0.500000 0.612553
O O9 0.086137 0.302870 0.719350
O O10 0.881843 0.216192 0.127685
O O11 0.082159 0.211964 0.191314
O O12 0.918671 0.000000 0.095534
O O13 0.854855 0.259496 0.024563
O O14 0.273744 0.500000 0.751216
O O15 0.307853 0.726327 0.822034
O O16 0.257469 0.500000 0.842544
O O17 0.262210 0.244105 0.885187
O O18 0.760256 0.500000 0.930419
#
# Coordination Sequence:
#
# PCOD9224555 Si02
#       7
#     8   8   8   8   8   8   8
#     4  11  24  39  56  82 118 156 195 240 293 345
#     4  10  20  35  57  81 109 150 197 244 289 341
#     4   9  19  35  54  81 114 148 191 239 292 346
#     4   9  20  40  62  86 115 149 193 240 289 349
#     4  10  22  40  62  87 116 153 201 245 287 346
#     4  10  21  37  58  84 116 154 191 238 293 347
#     4  10  21  37  60  88 118 151 191 239 292 351
#
# _framework density 9.8765429999999999
#
# number of rings (size 3 to 8) (size 9 to 14) (size 15 to 20)
#    0.000    2.143    0.000    2.143    2.000    5.714 
#    0.000    2.857    0.000    0.000    0.000    0.000 
#    0.000    0.000    0.000    0.000    0.000    0.000 
#
# Total GULP energy -156341.324325 kJ/mol
# GULP energy per Si atom -5583.618726 kJ/mol
# Density = 0.985406 g / cm^3
# Si number density = 9.876543 Si / 1000 Ang^3
#
#
#
# Elastic Constant Matrix: (Units=GPa)
#
#
# Indices 1 2 3 4 5 6 
#
# 1 93.2752 30.5439 16.3382 -0.0002 -23.9133 0.0000
# 2 30.5439 10.0214 23.7613 0.0001 2.3964 0.0001
# 3 16.3382 23.7613 25.3197 0.0003 -14.1890 -0.0001
# 4 -0.0002 0.0001 0.0003 25.6207 0.0001 -7.1468
# 5 -23.9133 2.3964 -14.1890 0.0001 26.5073 0.0000
# 6 0.0000 0.0001 -0.0001 -7.1468 0.0000 20.9858
#
#
#
# Elastic Compliance Matrix: (Units=1/GPa)
#
#
# Indices 1 2 3 4 5 6 
#
# 1 0.009900 0.010723 -0.017127 0.000000 -0.001206 0.000000
# 2 0.010723 -0.027477 0.036683 0.000000 0.031794 0.000000
# 3 -0.017127 0.036683 0.008006 0.000000 -0.014482 0.000000
# 4 0.000000 0.000000 0.000000 0.043128 0.000000 0.014687
# 5 -0.001206 0.031794 -0.014482 0.000000 0.026011 0.000000
# 6 0.000000 0.000000 0.000000 0.014687 0.000000 0.052653
#
#
# Mechanical properties :
#
#
# Convention : Reuss Voigt Hill
#
# Bulk Modulus (GPa) = 19.61277 29.98923 24.80100
# Shear Modulus (GPa) = 72.82267 18.48761 45.65514
#
# Velocity S-wave (km/s) = 6.07836 3.06262 4.81281
# Velocity P-wave (km/s) = 7.69497 5.26510 6.59294
#
# Compressibility (1/GPa) = 0.05098718
#
# Stress axis : x y z
#
# Youngs Moduli (GPa) = 101.00504 -36.39440 124.90922
#
# Poissons Ratio (x) = 0.39026 2.13938
# Poissons Ratio (y) = -1.08309 -4.58206
# Poissons Ratio (z) = 1.72996 1.33506
#
# Static dielectric constant tensor:
#      x y z
#    x 1.697690 0.000000 0.028200 
#    y 0.000000 1.663260 0.000000 
#    z 0.028200 0.000000 1.696390 
# 
# From -- ./inp_files/380728.got.cif
#   From: 2010.05.17/outbox.ucp.g08.bks.cvg/sg12_191_cif.got.tgz:380728.got - 2010.06.11 11:47:21.
