data_PCOD9224093
_publ_section_title
;
Structure prediction by ZEFSAII (Michael W. Deem and Ramdas Pophale) SiO2 
 PCOD9224093
Probable space group: C 2/M
;
_chemical_formula_sum "Si O2"
_cell_formula_units_Z 24
_cell_length_a 12.000000
_cell_length_b 15.000000
_cell_length_c 15.000000
_cell_angle_alpha 90.000000
_cell_angle_beta 120.000000
_cell_angle_gamma 90.000000
_cell_volume 2338.268590
_symmetry_space_group_name_H-M "C 2/M"
_symmetry_group_IT_number 12
_symmetry_cell_setting 'monoclinic'
loop_
_space_group_symop_operation_xyz
x,y,z
-x,y,-z
-x,-y,-z
x,-y,z
1/2+x,1/2+y,z
1/2-x,1/2+y,-z
1/2-x,1/2-y,-z
1/2+x,1/2-y,z
loop_
_atom_site_type_symbol
_atom_site_label
_atom_site_fract_x
_atom_site_fract_y
_atom_site_fract_z
Si Si1 0.821603 0.897116 0.784951
Si Si2 0.356787 0.890980 0.453656
Si Si3 0.418254 0.299099 0.131641
Si Si4 0.694524 0.105726 0.927081
Si Si5 0.186176 0.107136 0.538438
Si Si6 0.920715 0.107998 0.323168
O O1 0.734697 0.870190 0.665934
O O2 0.741166 0.897452 0.843422
O O3 0.942573 0.833007 0.843493
O O4 0.866085 0.000000 0.786340
O O5 0.500000 0.856862 0.500000
O O6 0.301557 0.857755 0.525122
O O7 0.360456 0.000000 0.458210
O O8 0.401639 0.192260 0.109677
O O9 0.407502 0.332402 0.230187
O O10 0.311235 0.356717 0.034907
O O11 0.660644 0.000000 0.936315
O O12 0.174255 0.137920 0.635030
O O13 0.059076 0.119411 0.426928
O O14 0.198381 0.000000 0.551428
O O15 0.907001 0.000000 0.299224
#
# Coordination Sequence:
#
# PCOD9224093 Si02
#       6
#     8   8   8   8   8   8
#     4  10  19  36  63  91 123 164 207 256 314 379
#     4   9  16  28  52  86 123 164 206 249 309 378
#     4  11  20  35  64  91 121 162 211 259 304 380
#     4  10  23  39  59  92 128 162 205 262 321 371
#     4   8  14  25  45  83 128 161 194 247 313 374
#     4   9  15  26  51  87 125 160 199 251 312 376
#
# _framework density 10.264004999999999
#
# number of rings (size 3 to 8) (size 9 to 14) (size 15 to 20)
#    0.000    2.500    1.667    3.000    0.000    1.333 
#    0.000    1.667    3.667   14.000    0.000    0.000 
#    0.000    0.667    0.000    0.000    0.000    0.000 
#
# Total GULP energy -133893.229572 kJ/mol
# GULP energy per Si atom -5578.884565 kJ/mol
# Density = 1.024064 g / cm^3
# Si number density = 10.264005 Si / 1000 Ang^3
#
#
#
# Elastic Constant Matrix: (Units=GPa)
#
#
# Indices 1 2 3 4 5 6 
#
# 1 53.3322 6.5874 -29.6076 0.0000 5.2897 0.0000
# 2 6.5874 116.7218 -5.8464 0.0000 18.6732 0.0000
# 3 -29.6076 -5.8464 -12.4780 0.0000 -1.7786 0.0000
# 4 0.0000 0.0000 0.0000 23.2373 0.0000 4.4689
# 5 5.2897 18.6732 -1.7786 0.0000 30.2506 0.0000
# 6 0.0000 0.0000 0.0000 4.4689 0.0000 19.4445
#
#
#
# Elastic Compliance Matrix: (Units=1/GPa)
#
#
# Indices 1 2 3 4 5 6 
#
# 1 0.008425 -0.001132 -0.019190 0.000000 -0.001903 0.000000
# 2 -0.001132 0.009499 -0.000948 0.000000 -0.005721 0.000000
# 3 -0.019190 -0.000948 -0.034436 0.000000 0.001916 0.000000
# 4 0.000000 0.000000 0.000000 0.045024 0.000000 -0.010348
# 5 -0.001903 -0.005721 0.001916 0.000000 0.037034 0.000000
# 6 0.000000 0.000000 0.000000 -0.010348 0.000000 0.053807
#
#
# Mechanical properties :
#
#
# Convention : Reuss Voigt Hill
#
# Bulk Modulus (GPa) = -16.93396 11.09364 -2.92016
# Shear Modulus (GPa) = 35.15892 27.01600 31.08746
#
# Velocity S-wave (km/s) = 4.14300 3.63168 3.89574
# Velocity P-wave (km/s) = 3.82346 4.79598 4.33706
#
# Compressibility (1/GPa) = -0.05905295
#
# Stress axis : x y z
#
# Youngs Moduli (GPa) = 118.68776 105.27324 -29.03955
#
# Poissons Ratio (x) = 0.11920 -0.55727
# Poissons Ratio (y) = 0.13439 -0.02754
# Poissons Ratio (z) = 2.27764 0.09984
#
# Static dielectric constant tensor:
#      x y z
#    x 1.826390 0.000000 -0.018390 
#    y 0.000000 1.758690 0.000000 
#    z -0.018390 0.000000 1.688220 
# 
# From -- ./inp_files/205140.got.cif
#   From: 2010.05.17/outbox.ucp.g08.bks.cvg/sg12_103_cif.got.tgz:205140.got - 2010.06.11 11:47:21.
