data_PCOD9224714
_publ_section_title
;
Structure prediction by ZEFSAII (Michael W. Deem and Ramdas Pophale) SiO2 
 PCOD9224714
Probable space group: C 2/M
;
_chemical_formula_sum "Si O2"
_cell_formula_units_Z 32
_cell_length_a 30.000000
_cell_length_b 9.000000
_cell_length_c 12.000000
_cell_angle_alpha 90.000000
_cell_angle_beta 90.000000
_cell_angle_gamma 90.000000
_cell_volume 3240.000000
_symmetry_space_group_name_H-M "C 2/M"
_symmetry_group_IT_number 12
_symmetry_cell_setting 'monoclinic'
loop_
_space_group_symop_operation_xyz
x,y,z
-x,y,-z
-x,-y,-z
x,-y,z
1/2+x,1/2+y,z
1/2-x,1/2+y,-z
1/2-x,1/2-y,-z
1/2+x,1/2-y,z
loop_
_atom_site_type_symbol
_atom_site_label
_atom_site_fract_x
_atom_site_fract_y
_atom_site_fract_z
Si Si1 0.794705 0.672526 0.040612
Si Si2 0.387027 0.678333 0.018670
Si Si3 0.831111 0.677547 0.683996
Si Si4 0.998485 0.181146 0.371544
Si Si5 0.259537 0.826137 0.283285
Si Si6 0.094558 0.180572 0.730564
Si Si7 0.418943 0.679287 0.784821
Si Si8 0.673401 0.321606 0.558824
O O1 0.794926 0.500000 0.008988
O O2 0.790993 0.683302 0.174957
O O3 0.750000 0.750000 0.000000
O O4 0.838767 0.751650 0.996786
O O5 0.382092 0.500000 0.022638
O O6 0.420776 0.710862 0.917407
O O7 0.400302 0.731093 0.142072
O O8 0.827798 0.500000 0.687401
O O9 0.788162 0.753524 0.740524
O O10 0.875652 0.736916 0.740915
O O11 0.832064 0.738560 0.557553
O O12 0.952242 0.231298 0.318549
O O13 0.000000 0.230479 0.500000
O O14 0.039391 0.223936 0.291858
O O15 0.998565 0.000000 0.373464
O O16 0.281734 0.733480 0.382122
O O17 0.254296 0.000000 0.312224
O O18 0.133913 0.219460 0.645132
O O19 0.094253 0.000000 0.733779
O O20 0.413249 0.500000 0.772629
O O21 0.673231 0.500000 0.542816
#
# Coordination Sequence:
#
# PCOD9224714 Si02
#       8
#     8   8   8   8   8   8   8   8
#     4  11  23  37  57  82 114 156 200 245 291 347
#     4  10  20  36  57  85 119 152 196 246 293 349
#     4  12  25  39  57  82 116 155 197 244 295 353
#     4   9  17  32  57  89 121 153 195 243 294 351
#     4  11  23  39  57  83 116 151 196 243 293 351
#     4   9  18  33  58  89 119 154 193 241 297 352
#     4  10  21  37  59  86 117 153 195 246 296 345
#     4  11  21  37  61  86 117 154 194 240 293 352
#
# _framework density 9.8765429999999999
#
# number of rings (size 3 to 8) (size 9 to 14) (size 15 to 20)
#    0.000    1.625    1.250    4.125    0.000    7.500 
#    0.000    2.500    0.000    4.875    0.000    1.750 
#    0.000    0.000    0.000    0.000    0.000    0.000 
#
# Total GULP energy -178748.833123 kJ/mol
# GULP energy per Si atom -5585.901035 kJ/mol
# Density = 0.985406 g / cm^3
# Si number density = 9.876543 Si / 1000 Ang^3
#
#
#
# Elastic Constant Matrix: (Units=GPa)
#
#
# Indices 1 2 3 4 5 6 
#
# 1 116.3190 19.1467 44.4968 0.0000 -12.9361 0.0000
# 2 19.1467 36.5091 20.0748 0.0000 -9.0085 0.0000
# 3 44.4968 20.0748 100.7160 0.0000 -14.1345 0.0000
# 4 0.0000 0.0000 0.0000 22.2448 0.0000 1.7064
# 5 -12.9361 -9.0085 -14.1345 0.0000 35.9631 0.0000
# 6 0.0000 0.0000 0.0000 1.7064 0.0000 19.2223
#
#
#
# Elastic Compliance Matrix: (Units=1/GPa)
#
#
# Indices 1 2 3 4 5 6 
#
# 1 0.010784 -0.003113 -0.003926 0.000000 0.001556 0.000000
# 2 -0.003113 0.032766 -0.004404 0.000000 0.005357 0.000000
# 3 -0.003926 -0.004404 0.012900 0.000000 0.002555 0.000000
# 4 0.000000 0.000000 0.000000 0.045263 0.000000 -0.004018
# 5 0.001556 0.005357 0.002555 0.000000 0.030712 0.000000
# 6 0.000000 0.000000 0.000000 -0.004018 0.000000 0.052380
#
#
# Mechanical properties :
#
#
# Convention : Reuss Voigt Hill
#
# Bulk Modulus (GPa) = 29.79276 46.77562 38.28419
# Shear Modulus (GPa) = 22.84377 26.80775 24.82576
#
# Velocity S-wave (km/s) = 3.40437 3.68794 3.54899
# Velocity P-wave (km/s) = 5.52887 6.47040 6.01807
#
# Compressibility (1/GPa) = 0.03356520
#
# Stress axis : x y z
#
# Youngs Moduli (GPa) = 92.72749 30.51909 77.52204
#
# Poissons Ratio (x) = 0.09501 0.30432
# Poissons Ratio (y) = 0.28867 0.34139
# Poissons Ratio (z) = 0.36401 0.13440
#
# Static dielectric constant tensor:
#      x y z
#    x 1.676810 0.000000 0.002040 
#    y 0.000000 1.653330 0.000000 
#    z 0.002040 0.000000 1.732850 
# 
# From -- ./inp_files/187617.got.cif
#   From: 2010.05.17/outbox.ucp.g08.bks.cvg/sg12_94_cif.got.tgz:187617.got - 2010.06.11 11:47:21.
