data_PCOD9224738
_publ_section_title
;
Structure prediction by ZEFSAII (Michael W. Deem and Ramdas Pophale) SiO2 
 PCOD9224738
Probable space group: C 2/M
;
_chemical_formula_sum "Si O2"
_cell_formula_units_Z 32
_cell_length_a 30.000000
_cell_length_b 9.000000
_cell_length_c 18.000000
_cell_angle_alpha 90.000000
_cell_angle_beta 40.000000
_cell_angle_gamma 90.000000
_cell_volume 3123.947783
_symmetry_space_group_name_H-M "C 2/M"
_symmetry_group_IT_number 12
_symmetry_cell_setting 'monoclinic'
loop_
_space_group_symop_operation_xyz
x,y,z
-x,y,-z
-x,-y,-z
x,-y,z
1/2+x,1/2+y,z
1/2-x,1/2+y,-z
1/2-x,1/2-y,-z
1/2+x,1/2-y,z
loop_
_atom_site_type_symbol
_atom_site_label
_atom_site_fract_x
_atom_site_fract_y
_atom_site_fract_z
Si Si1 0.796421 0.177624 0.005293
Si Si2 0.918422 0.328898 0.403470
Si Si3 0.823708 0.679319 0.390377
Si Si4 0.823329 0.322960 0.219129
Si Si5 0.714556 0.323354 0.241442
Si Si6 0.574110 0.180545 0.439824
Si Si7 0.546204 0.324074 0.012545
Si Si8 0.437091 0.169443 0.857075
O O1 0.767835 0.245414 0.118165
O O2 0.791329 0.000000 0.009718
O O3 0.750000 0.250000 0.000000
O O4 0.875897 0.230881 0.902670
O O5 0.893784 0.500000 0.442573
O O6 0.875944 0.265647 0.387847
O O7 0.915914 0.262652 0.488432
O O8 0.998751 0.333495 0.280113
O O9 0.821407 0.500000 0.396499
O O10 0.750000 0.750000 0.500000
O O11 0.837605 0.714869 0.286601
O O12 0.837874 0.500000 0.190041
O O13 0.746294 0.298099 0.284051
O O14 0.875783 0.221473 0.106819
O O15 0.712262 0.500000 0.232656
O O16 0.640967 0.250709 0.316388
O O17 0.500000 0.222431 0.500000
O O18 0.577536 0.000000 0.433465
O O19 0.538698 0.500000 0.034564
O O20 0.532315 0.233719 0.105113
O O21 0.500000 0.281881 0.000000
O O22 0.411999 0.000000 0.901165
#
# Coordination Sequence:
#
# PCOD9224738 Si02
#       8
#     8   8   8   8   8   8   8   8
#     4  12  26  44  67  96 128 166 209 260 317 379
#     4   9  20  38  60  88 123 163 210 256 311 377
#     4  10  20  36  58  86 118 159 207 256 309 369
#     4  10  21  37  59  85 117 158 203 251 311 377
#     4  11  23  41  64  94 126 160 207 261 313 375
#     4  10  22  40  63  90 120 164 211 258 318 378
#     4  11  23  37  56  87 124 163 209 257 310 371
#     4  11  22  40  65  92 126 168 212 261 315 380
#
# _framework density 10.243449
#
# number of rings (size 3 to 8) (size 9 to 14) (size 15 to 20)
#    0.000    1.500    1.250    3.750    1.750    3.250 
#    0.000    2.500    0.000    0.000    0.000    0.000 
#    0.000    0.000    0.000    0.000    0.000    0.000 
#
# Total GULP energy -178570.798608 kJ/mol
# GULP energy per Si atom -5580.337456 kJ/mol
# Density = 1.022013 g / cm^3
# Si number density = 10.243449 Si / 1000 Ang^3
#
#
#
# Elastic Constant Matrix: (Units=GPa)
#
#
# Indices 1 2 3 4 5 6 
#
# 1 137.3279 26.5777 16.5527 0.0025 -16.5348 0.0004
# 2 26.5777 33.6228 1.5407 0.0141 -4.1204 -0.0067
# 3 16.5527 1.5407 41.9175 0.0074 -9.6585 -0.0037
# 4 0.0025 0.0141 0.0074 21.8068 -0.0027 -4.9256
# 5 -16.5348 -4.1204 -9.6585 -0.0027 34.2952 0.0002
# 6 0.0004 -0.0067 -0.0037 -4.9256 0.0002 25.3076
#
#
#
# Elastic Compliance Matrix: (Units=1/GPa)
#
#
# Indices 1 2 3 4 5 6 
#
# 1 0.009288 -0.006863 -0.002752 0.000004 0.002879 -0.000002
# 2 -0.006863 0.035261 0.001741 -0.000021 0.001418 0.000005
# 3 -0.002752 0.001741 0.026330 -0.000008 0.006298 0.000003
# 4 0.000004 -0.000021 -0.000008 0.047966 0.000001 0.009336
# 5 0.002879 0.001418 0.006298 0.000001 0.032490 0.000001
# 6 -0.000002 0.000005 0.000003 0.009336 0.000001 0.041331
#
#
# Mechanical properties :
#
#
# Convention : Reuss Voigt Hill
#
# Bulk Modulus (GPa) = 18.13892 33.57895 25.85894
# Shear Modulus (GPa) = 22.04651 27.49507 24.77079
#
# Velocity S-wave (km/s) = 3.28400 3.66742 3.48099
# Velocity P-wave (km/s) = 4.82210 5.86168 5.36712
#
# Compressibility (1/GPa) = 0.05513006
#
# Stress axis : x y z
#
# Youngs Moduli (GPa) = 107.66029 28.35997 37.97903
#
# Poissons Ratio (x) = 0.19464 0.10453
# Poissons Ratio (y) = 0.73891 -0.06612
# Poissons Ratio (z) = 0.29632 -0.04937
#
# Static dielectric constant tensor:
#      x y z
#    x 1.743530 0.000000 0.049400 
#    y 0.000000 1.660220 0.000000 
#    z 0.049400 0.000000 1.810100 
# 
# From -- ./inp_files/295562.got.cif
#   From: 2010.05.17/outbox.ucp.g08.bks.cvg/sg12_148_cif.got.tgz:295562.got - 2010.06.11 11:47:21.
