data_PCOD9224520
_publ_section_title
;
Structure prediction by ZEFSAII (Michael W. Deem and Ramdas Pophale) SiO2 
 PCOD9224520
Probable space group: C 2/M
;
_chemical_formula_sum "Si O2"
_cell_formula_units_Z 28
_cell_length_a 18.000000
_cell_length_b 9.000000
_cell_length_c 21.000000
_cell_angle_alpha 90.000000
_cell_angle_beta 120.000000
_cell_angle_gamma 90.000000
_cell_volume 2946.218424
_symmetry_space_group_name_H-M "C 2/M"
_symmetry_group_IT_number 12
_symmetry_cell_setting 'monoclinic'
loop_
_space_group_symop_operation_xyz
x,y,z
-x,y,-z
-x,-y,-z
x,-y,z
1/2+x,1/2+y,z
1/2-x,1/2+y,-z
1/2-x,1/2-y,-z
1/2+x,1/2-y,z
loop_
_atom_site_type_symbol
_atom_site_label
_atom_site_fract_x
_atom_site_fract_y
_atom_site_fract_z
Si Si1 0.614672 0.175720 0.942004
Si Si2 0.937069 0.321285 0.530810
Si Si3 0.229941 0.321722 0.237607
Si Si4 0.731249 0.821470 0.616652
Si Si5 0.757012 0.822567 0.102835
Si Si6 0.573714 0.322354 0.339273
Si Si7 0.545769 0.321992 0.185467
O O1 0.678158 0.229989 0.913003
O O2 0.528030 0.265012 0.892577
O O3 0.598769 0.000000 0.930086
O O4 0.663913 0.202533 0.029956
O O5 0.941709 0.500000 0.538491
O O6 0.841945 0.280168 0.465120
O O7 0.955672 0.252822 0.607913
O O8 0.000000 0.276557 0.500000
O O9 0.228012 0.500000 0.241971
O O10 0.281170 0.254459 0.319733
O O11 0.260616 0.284968 0.179081
O O12 0.134894 0.254693 0.205143
O O13 0.825960 0.784028 0.630905
O O14 0.728399 0.000000 0.624500
O O15 0.775401 0.000000 0.103933
O O16 0.567511 0.500000 0.344296
O O17 0.527445 0.283466 0.252390
O O18 0.554998 0.500000 0.186672
#
# Coordination Sequence:
#
# PCOD9224520 Si02
#       7
#     8   8   8   8   8   8   8
#     4  10  20  35  56  79 105 142 183 218 260 317
#     4  10  21  35  52  77 107 135 167 212 260 307
#     4  10  20  35  56  80 105 137 179 221 263 314
#     4   9  19  36  54  75 105 137 171 213 262 311
#     4   9  20  37  54  77 110 142 176 222 267 308
#     4   9  19  35  54  74  99 135 173 211 256 307
#     4  10  21  37  55  79 111 139 171 220 270 313
#
# _framework density 9.5037079999999996
#
# number of rings (size 3 to 8) (size 9 to 14) (size 15 to 20)
#    0.000    2.429    0.000    2.571    0.000    7.143 
#    0.000    5.714    0.000    0.000    0.000    0.000 
#    0.000    0.000    0.000    0.000    0.000    0.000 
#
# Total GULP energy -156255.631795 kJ/mol
# GULP energy per Si atom -5580.558278 kJ/mol
# Density = 0.948208 g / cm^3
# Si number density = 9.503708 Si / 1000 Ang^3
#
#
#
# Elastic Constant Matrix: (Units=GPa)
#
#
# Indices 1 2 3 4 5 6 
#
# 1 12.6135 1.2764 -12.2893 0.0000 -14.5234 0.0000
# 2 1.2764 27.1707 6.9809 0.0000 -7.6647 0.0000
# 3 -12.2893 6.9809 31.8826 0.0000 -17.8274 0.0000
# 4 0.0000 0.0000 0.0000 36.1761 0.0000 -5.0803
# 5 -14.5234 -7.6647 -17.8274 0.0000 38.2242 0.0000
# 6 0.0000 0.0000 0.0000 -5.0803 0.0000 24.2951
#
#
#
# Elastic Compliance Matrix: (Units=1/GPa)
#
#
# Indices 1 2 3 4 5 6 
#
# 1 -0.119425 0.005316 -0.097365 0.000000 -0.089720 0.000000
# 2 0.005316 0.039538 -0.001414 0.000000 0.009289 0.000000
# 3 -0.097365 -0.001414 -0.036118 0.000000 -0.054123 0.000000
# 4 0.000000 0.000000 0.000000 0.028479 0.000000 0.005955
# 5 -0.089720 0.009289 -0.054123 0.000000 -0.031308 0.000000
# 6 0.000000 0.000000 0.000000 0.005955 0.000000 0.042406
#
#
# Mechanical properties :
#
#
# Convention : Reuss Voigt Hill
#
# Bulk Modulus (GPa) = -3.30109 7.06697 1.88294
# Shear Modulus (GPa) = 525.23373 24.78567 275.00970
#
# Velocity S-wave (km/s) = 16.64124 3.61501 12.04158
# Velocity P-wave (km/s) = 19.17031 4.59897 13.94007
#
# Compressibility (1/GPa) = -0.30292993
#
# Stress axis : x y z
#
# Youngs Moduli (GPa) = -8.37344 25.29205 -27.68683
#
# Poissons Ratio (x) = -0.13446 -2.69572
# Poissons Ratio (y) = 0.04452 -0.03915
# Poissons Ratio (z) = -0.81528 0.03576
#
# Static dielectric constant tensor:
#      x y z
#    x 1.668570 0.000000 0.021570 
#    y 0.000000 1.633040 0.000000 
#    z 0.021570 0.000000 1.660190 
# 
# From -- ./inp_files/280960.got.cif
#   From: 2010.05.17/outbox.ucp.g08.bks.cvg/sg12_141_cif.got.tgz:280960.got - 2010.06.11 11:47:21.
