data_PCOD9224406
_publ_section_title
;
Structure prediction by ZEFSAII (Michael W. Deem and Ramdas Pophale) SiO2 
 PCOD9224406
Probable space group: C 2/M
;
_chemical_formula_sum "Si O2"
_cell_formula_units_Z 32
_cell_length_a 30.000000
_cell_length_b 18.000000
_cell_length_c 9.000000
_cell_angle_alpha 90.000000
_cell_angle_beta 40.000000
_cell_angle_gamma 90.000000
_cell_volume 3123.947783
_symmetry_space_group_name_H-M "C 2/M"
_symmetry_group_IT_number 12
_symmetry_cell_setting 'monoclinic'
loop_
_space_group_symop_operation_xyz
x,y,z
-x,y,-z
-x,-y,-z
x,-y,z
1/2+x,1/2+y,z
1/2-x,1/2+y,-z
1/2-x,1/2-y,-z
1/2+x,1/2-y,z
loop_
_atom_site_type_symbol
_atom_site_label
_atom_site_fract_x
_atom_site_fract_y
_atom_site_fract_z
Si Si1 0.426889 0.322559 0.214091
Si Si2 0.704921 0.582712 0.474982
Si Si3 0.749258 0.370499 0.049599
Si Si4 0.818795 0.228896 0.990648
Si Si5 0.588447 0.224054 0.017359
Si Si6 0.154325 0.413320 0.739312
Si Si7 0.379555 0.915856 0.520619
Si Si8 0.559696 0.231774 0.534752
O O1 0.363179 0.371044 0.331111
O O2 0.428340 0.251422 0.104165
O O3 0.418613 0.293343 0.400534
O O4 0.500000 0.362030 0.000000
O O5 0.693263 0.500000 0.559161
O O6 0.722135 0.581653 0.254746
O O7 0.770340 0.612104 0.398646
O O8 0.701589 0.348455 0.031228
O O9 0.761066 0.290783 0.103097
O O10 0.817509 0.403695 0.797775
O O11 0.884581 0.260939 0.734781
O O12 0.844587 0.232925 0.091895
O O13 0.603380 0.137378 0.965481
O O14 0.520885 0.243624 0.284053
O O15 0.145946 0.500000 0.796244
O O16 0.146247 0.404713 0.583055
O O17 0.433117 0.850716 0.417154
O O18 0.405997 0.000000 0.465031
#
# Coordination Sequence:
#
# PCOD9224406 Si02
#       8
#     8   8   8   8   8   8   8   8
#     4  10  22  38  58  85 109 140 187 230 273 335
#     4  11  22  39  60  82 111 145 182 229 285 334
#     4  10  20  35  57  81 106 141 186 229 274 332
#     4  10  20  34  55  83 108 141 186 230 276 320
#     4  11  21  35  57  82 115 149 182 234 275 321
#     4  10  22  36  54  84 116 148 186 227 276 330
#     4  10  21  36  54  80 115 150 188 229 270 326
#     4  10  20  37  55  80 111 148 191 225 271 327
#
# _framework density 10.243449
#
# number of rings (size 3 to 8) (size 9 to 14) (size 15 to 20)
#    0.000    1.750    3.750    0.750    1.750    1.250 
#    0.000    1.250    0.000    2.250    0.000    1.750 
#    0.000    0.000    0.000    0.000    0.000    0.000 
#
# Total GULP energy -178175.645782 kJ/mol
# GULP energy per Si atom -5567.988931 kJ/mol
# Density = 1.022013 g / cm^3
# Si number density = 10.243449 Si / 1000 Ang^3
#
#
#
# Elastic Constant Matrix: (Units=GPa)
#
#
# Indices 1 2 3 4 5 6 
#
# 1 57.6222 7.2002 0.8410 0.0000 -10.3170 0.0000
# 2 7.2002 14.8027 3.3896 0.0000 -14.3517 0.0000
# 3 0.8410 3.3896 20.5935 0.0000 -6.7169 0.0000
# 4 0.0000 0.0000 0.0000 24.8588 0.0000 -11.0998
# 5 -10.3170 -14.3517 -6.7169 0.0000 23.3770 0.0000
# 6 0.0000 0.0000 0.0000 -11.0998 0.0000 13.9568
#
#
#
# Elastic Compliance Matrix: (Units=1/GPa)
#
#
# Indices 1 2 3 4 5 6 
#
# 1 0.018966 -0.002490 0.002060 0.000000 0.007434 0.000000
# 2 -0.002490 0.168027 0.006325 0.000000 0.103875 0.000000
# 3 0.002060 0.006325 0.054064 0.000000 0.020326 0.000000
# 4 0.000000 0.000000 0.000000 0.062378 0.000000 0.049609
# 5 0.007434 0.103875 0.020326 0.000000 0.115669 0.000000
# 6 0.000000 0.000000 0.000000 0.049609 0.000000 0.111103
#
#
# Mechanical properties :
#
#
# Convention : Reuss Voigt Hill
#
# Bulk Modulus (GPa) = 3.95495 12.87556 8.41526
# Shear Modulus (GPa) = 8.29600 17.87769 13.08684
#
# Velocity S-wave (km/s) = 2.01450 2.95725 2.53017
# Velocity P-wave (km/s) = 2.71028 4.23779 3.55700
#
# Compressibility (1/GPa) = 0.25284787
#
# Stress axis : x y z
#
# Youngs Moduli (GPa) = 52.72465 5.95141 18.49676
#
# Poissons Ratio (x) = 0.01482 -0.03810
# Poissons Ratio (y) = 0.13129 -0.11700
# Poissons Ratio (z) = -0.10861 -0.03764
#
# Static dielectric constant tensor:
#      x y z
#    x 1.788800 0.000000 0.008380 
#    y 0.000000 1.708420 0.000000 
#    z 0.008380 0.000000 1.752330 
# 
# From -- ./inp_files/99069.got.cif
#   From: 2010.05.17/outbox.ucp.g08.bks.cvg/sg12_50_cif.got.tgz:99069.got - 2010.06.11 11:47:21.
