data_PCOD9224013
_publ_section_title
;
Structure prediction by ZEFSAII (Michael W. Deem and Ramdas Pophale) SiO2 
 PCOD9224013
Probable space group: C 2/M
;
_chemical_formula_sum "Si O2"
_cell_formula_units_Z 32
_cell_length_a 30.000000
_cell_length_b 9.000000
_cell_length_c 24.000000
_cell_angle_alpha 90.000000
_cell_angle_beta 150.000000
_cell_angle_gamma 90.000000
_cell_volume 3240.000000
_symmetry_space_group_name_H-M "C 2/M"
_symmetry_group_IT_number 12
_symmetry_cell_setting 'monoclinic'
loop_
_space_group_symop_operation_xyz
x,y,z
-x,y,-z
-x,-y,-z
x,-y,z
1/2+x,1/2+y,z
1/2-x,1/2+y,-z
1/2-x,1/2-y,-z
1/2+x,1/2-y,z
loop_
_atom_site_type_symbol
_atom_site_label
_atom_site_fract_x
_atom_site_fract_y
_atom_site_fract_z
Si Si1 0.191674 0.180101 0.389382
Si Si2 0.043202 0.673521 0.988026
Si Si3 0.975421 0.823537 0.537151
Si Si4 0.301477 0.169821 0.401057
Si Si5 0.491534 0.321803 0.164480
Si Si6 0.147255 0.671681 0.749728
Si Si7 0.198237 0.177140 0.994943
Si Si8 0.216897 0.834606 0.193373
O O1 0.250000 0.250000 0.500000
O O2 0.242433 0.229489 0.387981
O O3 0.089391 0.227154 0.289485
O O4 0.191804 0.000000 0.389216
O O5 0.025146 0.500000 0.959437
O O6 0.010271 0.770023 0.901200
O O7 0.147926 0.707982 0.104039
O O8 0.000000 0.718303 0.000000
O O9 0.888597 0.755199 0.472996
O O10 0.000000 0.773245 0.500000
O O11 0.063244 0.776219 0.666844
O O12 0.964525 0.000000 0.523446
O O13 0.232931 0.164238 0.275783
O O14 0.329536 0.000000 0.444249
O O15 0.487565 0.500000 0.162789
O O16 0.401723 0.267221 0.098706
O O17 0.120340 0.500000 0.729445
O O18 0.187697 0.686879 0.731836
O O19 0.234380 0.702255 0.880890
O O20 0.192300 0.000000 0.979397
O O21 0.250000 0.250000 0.000000
O O22 0.184574 0.000000 0.139906
#
# Coordination Sequence:
#
# PCOD9224013 Si02
#       8
#     8   8   8   8   8   8   8   8
#     4  10  23  42  65  90 118 154 201 253 300 351
#     4  11  23  35  53  88 127 158 191 240 302 358
#     4  11  23  36  55  87 124 162 199 244 303 360
#     4  10  21  38  61  89 118 157 205 247 295 357
#     4  10  21  42  66  87 115 155 205 248 288 354
#     4  10  20  37  60  85 115 156 200 243 292 351
#     4  10  22  40  62  90 120 154 199 245 293 350
#     4  10  19  35  60  85 115 155 196 242 293 349
#
# _framework density 9.8765429999999999
#
# number of rings (size 3 to 8) (size 9 to 14) (size 15 to 20)
#    0.000    1.750    2.500    1.500    0.000    6.500 
#    0.000    2.500    0.000    0.000    0.000    0.000 
#    0.000    0.000    0.000    0.000    0.000    0.000 
#
# Total GULP energy -178347.231876 kJ/mol
# GULP energy per Si atom -5573.350996 kJ/mol
# Density = 0.985406 g / cm^3
# Si number density = 9.876543 Si / 1000 Ang^3
#
#
#
# Elastic Constant Matrix: (Units=GPa)
#
#
# Indices 1 2 3 4 5 6 
#
# 1 91.5847 16.6250 46.4677 0.0000 7.0932 0.0000
# 2 16.6250 -3.1347 22.7455 0.0000 11.2888 0.0000
# 3 46.4677 22.7455 103.1537 0.0000 21.5676 0.0000
# 4 0.0000 0.0000 0.0000 21.3059 0.0000 1.1982
# 5 7.0932 11.2888 21.5676 0.0000 27.6944 0.0000
# 6 0.0000 0.0000 0.0000 1.1982 0.0000 30.7762
#
#
#
# Elastic Compliance Matrix: (Units=1/GPa)
#
#
# Indices 1 2 3 4 5 6 
#
# 1 0.013258 0.009445 -0.007812 0.000000 -0.001162 0.000000
# 2 0.009445 -0.093361 0.010608 0.000000 0.027376 0.000000
# 3 -0.007812 0.010608 0.013570 0.000000 -0.012891 0.000000
# 4 0.000000 0.000000 0.000000 0.047038 0.000000 -0.001831
# 5 -0.001162 0.027376 -0.012891 0.000000 0.035286 0.000000
# 6 0.000000 0.000000 0.000000 -0.001831 0.000000 0.032564
#
#
# Mechanical properties :
#
#
# Convention : Reuss Voigt Hill
#
# Bulk Modulus (GPa) = -23.78012 40.36444 8.29216
# Shear Modulus (GPa) = 507.29467 23.00633 265.15050
#
# Velocity S-wave (km/s) = 16.04293 3.41647 11.59844
# Velocity P-wave (km/s) = 18.19622 6.00349 13.54888
#
# Compressibility (1/GPa) = -0.04205194
#
# Stress axis : x y z
#
# Youngs Moduli (GPa) = 75.42657 -10.71113 73.69433
#
# Poissons Ratio (x) = 0.10117 0.57570
# Poissons Ratio (y) = -0.71241 -0.78172
# Poissons Ratio (z) = 0.58923 0.11362
#
# Static dielectric constant tensor:
#      x y z
#    x 1.368010 0.000000 0.234430 
#    y 0.000000 1.695330 0.000000 
#    z 0.234430 0.000000 1.557390 
# 
# From -- ./inp_files/353586.got.cif
#   From: 2010.05.17/outbox.ucp.g08.bks.cvg/sg12_177_cif.got.tgz:353586.got - 2010.06.11 11:47:21.
