data_PCOD9224786
_publ_section_title
;
Structure prediction by ZEFSAII (Michael W. Deem and Ramdas Pophale) SiO2 
 PCOD9224786
Probable space group: C 2/M
;
_chemical_formula_sum "Si O2"
_cell_formula_units_Z 32
_cell_length_a 15.000000
_cell_length_b 9.000000
_cell_length_c 30.000000
_cell_angle_alpha 90.000000
_cell_angle_beta 130.000000
_cell_angle_gamma 90.000000
_cell_volume 3102.479995
_symmetry_space_group_name_H-M "C 2/M"
_symmetry_group_IT_number 12
_symmetry_cell_setting 'monoclinic'
loop_
_space_group_symop_operation_xyz
x,y,z
-x,y,-z
-x,-y,-z
x,-y,z
1/2+x,1/2+y,z
1/2-x,1/2+y,-z
1/2-x,1/2-y,-z
1/2+x,1/2-y,z
loop_
_atom_site_type_symbol
_atom_site_label
_atom_site_fract_x
_atom_site_fract_y
_atom_site_fract_z
Si Si1 0.003024 0.329282 0.364770
Si Si2 0.818370 0.169518 0.133168
Si Si3 0.771195 0.828069 0.459277
Si Si4 0.830341 0.676761 0.718821
Si Si5 0.085175 0.822909 0.066092
Si Si6 0.130052 0.677064 0.594513
Si Si7 0.538935 0.328541 0.734749
Si Si8 0.936781 0.821954 0.837956
O O1 0.962764 0.500000 0.346313
O O2 0.982359 0.291471 0.410322
O O3 0.940903 0.223778 0.309159
O O4 0.139545 0.324021 0.397472
O O5 0.714608 0.281853 0.092566
O O6 0.854175 0.177733 0.196819
O O7 0.933424 0.197910 0.140755
O O8 0.780951 0.000000 0.112029
O O9 0.750000 0.750000 0.500000
O O10 0.852626 0.752655 0.448013
O O11 0.804960 0.000000 0.476656
O O12 0.810828 0.500000 0.712485
O O13 0.729500 0.762550 0.659837
O O14 0.853021 0.737843 0.776074
O O15 0.945255 0.720198 0.727517
O O16 0.067961 0.771202 0.112004
O O17 0.069480 0.000000 0.063134
O O18 0.000000 0.764008 0.000000
O O19 0.138070 0.500000 0.590316
O O20 0.496288 0.500000 0.721381
O O21 0.911502 0.000000 0.827769
#
# Coordination Sequence:
#
# PCOD9224786 Si02
#       8
#     8   8   8   8   8   8   8   8
#     4  10  23  40  61  90 124 160 202 246 299 358
#     4   9  20  37  56  83 116 153 194 241 295 354
#     4  11  24  44  66  90 122 164 207 255 300 355
#     4  11  21  35  58  89 123 156 198 247 298 361
#     4  10  22  39  59  84 115 154 201 247 295 357
#     4  11  23  40  62  91 123 161 201 248 304 355
#     4  10  20  36  60  88 123 159 196 243 303 361
#     4   9  20  39  58  81 116 157 194 240 301 360
#
# _framework density 10.314329000000001
#
# number of rings (size 3 to 8) (size 9 to 14) (size 15 to 20)
#    0.000    1.875    1.250    3.000    1.750    5.750 
#    0.000    2.500    0.000    0.000    0.000    0.000 
#    0.000    0.000    0.000    0.000    0.000    0.000 
#
# Total GULP energy -178660.563734 kJ/mol
# GULP energy per Si atom -5583.142617 kJ/mol
# Density = 1.029085 g / cm^3
# Si number density = 10.314329 Si / 1000 Ang^3
#
#
#
# Elastic Constant Matrix: (Units=GPa)
#
#
# Indices 1 2 3 4 5 6 
#
# 1 78.5015 22.6338 19.3468 0.0000 -19.1334 0.0000
# 2 22.6338 59.9396 18.3249 0.0000 -11.8969 0.0000
# 3 19.3468 18.3249 72.9720 0.0000 -21.1217 0.0000
# 4 0.0000 0.0000 0.0000 26.3532 0.0000 -5.7181
# 5 -19.1334 -11.8969 -21.1217 0.0000 30.2246 0.0000
# 6 0.0000 0.0000 0.0000 -5.7181 0.0000 26.5435
#
#
#
# Elastic Compliance Matrix: (Units=1/GPa)
#
#
# Indices 1 2 3 4 5 6 
#
# 1 0.016109 -0.004235 -0.000925 0.000000 0.007884 0.000000
# 2 -0.004235 0.019793 -0.002969 0.000000 0.003035 0.000000
# 3 -0.000925 -0.002969 0.017784 0.000000 0.010674 0.000000
# 4 0.000000 0.000000 0.000000 0.039807 0.000000 0.008575
# 5 0.007884 0.003035 0.010674 0.000000 0.046730 0.000000
# 6 0.000000 0.000000 0.000000 0.008575 0.000000 0.039521
#
#
# Mechanical properties :
#
#
# Convention : Reuss Voigt Hill
#
# Bulk Modulus (GPa) = 26.71871 36.89155 31.80513
# Shear Modulus (GPa) = 23.98311 26.69810 25.34060
#
# Velocity S-wave (km/s) = 3.41341 3.60143 3.50868
# Velocity P-wave (km/s) = 5.33999 5.93433 5.64499
#
# Compressibility (1/GPa) = 0.03742696
#
# Stress axis : x y z
#
# Youngs Moduli (GPa) = 62.07540 50.52330 56.22935
#
# Poissons Ratio (x) = 0.21398 0.05203
# Poissons Ratio (y) = 0.26291 0.16695
# Poissons Ratio (z) = 0.05744 0.15001
#
# Static dielectric constant tensor:
#      x y z
#    x 1.763210 0.000000 0.015970 
#    y 0.000000 1.709660 0.000000 
#    z 0.015970 0.000000 1.756550 
# 
# From -- ./inp_files/375625.got.cif
#   From: 2010.05.17/outbox.ucp.g08.bks.cvg/sg12_188_cif.got.tgz:375625.got - 2010.06.11 11:47:21.
