data_PCOD9224337
_publ_section_title
;
Structure prediction by ZEFSAII (Michael W. Deem and Ramdas Pophale) SiO2 
 PCOD9224337
Probable space group: C 2/M
;
_chemical_formula_sum "Si O2"
_cell_formula_units_Z 20
_cell_length_a 18.000000
_cell_length_b 9.000000
_cell_length_c 27.000000
_cell_angle_alpha 90.000000
_cell_angle_beta 30.000000
_cell_angle_gamma 90.000000
_cell_volume 2187.000000
_symmetry_space_group_name_H-M "C 2/M"
_symmetry_group_IT_number 12
_symmetry_cell_setting 'monoclinic'
loop_
_space_group_symop_operation_xyz
x,y,z
-x,y,-z
-x,-y,-z
x,-y,z
1/2+x,1/2+y,z
1/2-x,1/2+y,-z
1/2-x,1/2-y,-z
1/2+x,1/2-y,z
loop_
_atom_site_type_symbol
_atom_site_label
_atom_site_fract_x
_atom_site_fract_y
_atom_site_fract_z
Si Si1 0.093816 0.821138 0.190076
Si Si2 0.177927 0.821109 0.590518
Si Si3 0.430365 0.176804 0.985946
Si Si4 0.098997 0.177542 0.796995
Si Si5 0.323126 0.327816 0.601613
O O1 0.990614 0.773594 0.296121
O O2 0.008451 0.789980 0.188045
O O3 0.103569 0.000000 0.188963
O O4 0.261258 0.765367 0.088168
O O5 0.250000 0.750000 0.500000
O O6 0.269852 0.767648 0.585367
O O7 0.180788 0.000000 0.584542
O O8 0.524459 0.259229 0.889483
O O9 0.427757 0.000000 0.975235
O O10 0.500000 0.192717 0.000000
O O11 0.250738 0.257981 0.692763
O O12 0.118635 0.000000 0.788838
O O13 0.500000 0.325025 0.500000
O O14 0.274290 0.500000 0.624694
#
# Coordination Sequence:
#
# PCOD9224337 Si02
#       5
#     8   8   8   8   8
#     4   8  17  34  53  74 102 138 178 216 255 306
#     4  10  20  35  55  80 111 145 182 223 267 316
#     4  10  20  34  53  77 105 138 175 216 263 313
#     4  10  20  35  55  77 104 138 175 218 265 317
#     4  10  21  37  57  80 106 139 180 224 270 322
#
# _framework density 9.1449470000000002
#
# number of rings (size 3 to 8) (size 9 to 14) (size 15 to 20)
#    0.000    2.400    0.000    3.600    0.000    3.600 
#    0.000    9.000    0.000    0.000    0.000    0.000 
#    0.000    0.000    0.000    0.000    0.000    0.000 
#
# Total GULP energy -111509.905786 kJ/mol
# GULP energy per Si atom -5575.495289 kJ/mol
# Density = 0.912413 g / cm^3
# Si number density = 9.144947 Si / 1000 Ang^3
#
#
#
# Elastic Constant Matrix: (Units=GPa)
#
#
# Indices 1 2 3 4 5 6 
#
# 1 30.2852 29.0784 52.3425 -0.0001 18.0626 0.0002
# 2 29.0784 81.1750 64.7237 -0.0002 12.5089 0.0002
# 3 52.3425 64.7237 186.6925 -0.0005 29.3885 0.0001
# 4 -0.0001 -0.0002 -0.0005 33.9174 0.0001 9.9157
# 5 18.0626 12.5089 29.3885 0.0001 37.7548 -0.0001
# 6 0.0002 0.0002 0.0001 9.9157 -0.0001 24.6428
#
#
#
# Elastic Compliance Matrix: (Units=1/GPa)
#
#
# Indices 1 2 3 4 5 6 
#
# 1 0.091694 -0.016036 -0.016045 0.000000 -0.026065 -0.000001
# 2 -0.016036 0.019877 -0.002924 0.000000 0.003363 0.000000
# 3 -0.016045 -0.002924 0.010836 0.000000 0.000211 0.000000
# 4 0.000000 0.000000 0.000000 0.033414 0.000000 -0.013445
# 5 -0.026065 0.003363 0.000211 0.000000 0.037679 0.000000
# 6 -0.000001 0.000000 0.000000 -0.013445 0.000000 0.045990
#
#
# Mechanical properties :
#
#
# Convention : Reuss Voigt Hill
#
# Bulk Modulus (GPa) = 19.08591 65.60465 42.34528
# Shear Modulus (GPa) = 15.29207 29.39688 22.34447
#
# Velocity S-wave (km/s) = 2.89467 4.01343 3.49905
# Velocity P-wave (km/s) = 4.65081 7.57787 6.28705
#
# Compressibility (1/GPa) = 0.05239467
#
# Stress axis : x y z
#
# Youngs Moduli (GPa) = 10.90580 50.30907 92.28780
#
# Poissons Ratio (x) = 0.80678 1.48079
# Poissons Ratio (y) = 0.17489 0.26988
# Poissons Ratio (z) = 0.17499 0.14712
#
# Static dielectric constant tensor:
#      x y z
#    x 1.615500 0.000000 -0.034910 
#    y 0.000000 1.622900 0.000000 
#    z -0.034910 0.000000 1.651190 
# 
# From -- ./inp_files/151735.got.cif
#   From: 2010.05.17/outbox.ucp.g08.bks.cvg/sg12_76_cif.got.tgz:151735.got - 2010.06.11 11:47:21.
