data_PCOD9224986
_publ_section_title
;
Structure prediction by ZEFSAII (Michael W. Deem and Ramdas Pophale) SiO2 
 PCOD9224986
Probable space group: C 2/M
;
_chemical_formula_sum "Si O2"
_cell_formula_units_Z 20
_cell_length_a 18.000000
_cell_length_b 15.000000
_cell_length_c 21.000000
_cell_angle_alpha 90.000000
_cell_angle_beta 160.000000
_cell_angle_gamma 90.000000
_cell_volume 1939.254213
_symmetry_space_group_name_H-M "C 2/M"
_symmetry_group_IT_number 12
_symmetry_cell_setting 'monoclinic'
loop_
_space_group_symop_operation_xyz
x,y,z
-x,y,-z
-x,-y,-z
x,-y,z
1/2+x,1/2+y,z
1/2-x,1/2+y,-z
1/2-x,1/2-y,-z
1/2+x,1/2-y,z
loop_
_atom_site_type_symbol
_atom_site_label
_atom_site_fract_x
_atom_site_fract_y
_atom_site_fract_z
Si Si1 0.603287 0.277714 0.441988
Si Si2 0.641298 0.394331 0.951525
Si Si3 0.115547 0.597441 0.524378
Si Si4 0.819458 0.305597 0.964932
Si Si5 0.757035 0.106577 0.332306
O O1 0.750000 0.250000 0.500000
O O2 0.549627 0.185529 0.434140
O O3 0.735961 0.344793 0.593552
O O4 0.378119 0.323373 0.241728
O O5 0.707706 0.500000 0.018887
O O6 0.378147 0.398546 0.738203
O O7 0.682270 0.302903 0.026088
O O8 0.747852 0.360901 0.970854
O O9 0.057719 0.500000 0.449342
O O10 0.000000 0.600757 0.500000
O O11 0.056066 0.342888 0.136404
O O12 0.000000 0.121603 0.500000
O O13 0.720490 0.000000 0.305387
#
# Coordination Sequence:
#
# PCOD9224986 Si02
#       5
#     8   8   8   8   8
#     4  12  23  40  67  99 128 167 218 269 325 384
#     4  10  20  38  62  92 133 172 210 262 323 388
#     4  10  21  40  65  92 132 174 206 256 326 389
#     4  11  22  39  66  96 129 170 221 267 324 393
#     4  11  26  47  66  91 132 176 219 273 332 386
#
# _framework density 10.313243
#
# number of rings (size 3 to 8) (size 9 to 14) (size 15 to 20)
#    0.000    1.200    4.000    2.400    0.000    4.000 
#    0.000    2.000    0.000    3.600    0.000    0.000 
#    0.000    0.000    0.000    0.000    0.000    0.000 
#
# Total GULP energy -111558.516853 kJ/mol
# GULP energy per Si atom -5577.925843 kJ/mol
# Density = 1.028977 g / cm^3
# Si number density = 10.313243 Si / 1000 Ang^3
#
#
#
# Elastic Constant Matrix: (Units=GPa)
#
#
# Indices 1 2 3 4 5 6 
#
# 1 61.2596 23.5807 17.0934 0.5082 20.1716 -1.0267
# 2 23.5807 141.7305 19.1714 -0.7859 -2.0250 1.5390
# 3 17.0934 19.1714 119.6638 -2.2424 10.5570 4.4211
# 4 0.5082 -0.7859 -2.2424 268.7812 -0.4092 -449.9743
# 5 20.1716 -2.0250 10.5570 -0.4092 30.9265 0.8083
# 6 -1.0267 1.5390 4.4211 -449.9743 0.8083 935.7925
#
#
#
# Elastic Compliance Matrix: (Units=1/GPa)
#
#
# Indices 1 2 3 4 5 6 
#
# 1 0.023083 -0.003868 -0.001370 -0.000019 -0.014843 0.000042
# 2 -0.003868 0.007884 -0.001009 0.000007 0.003384 -0.000012
# 3 -0.001370 -0.001009 0.008911 0.000018 -0.002213 -0.000031
# 4 -0.000019 0.000007 0.000018 0.019080 0.000019 0.009174
# 5 -0.014843 0.003384 -0.002213 0.000019 0.042994 -0.000039
# 6 0.000042 -0.000012 -0.000031 0.009174 -0.000039 0.005480
#
#
# Mechanical properties :
#
#
# Convention : Reuss Voigt Hill
#
# Bulk Modulus (GPa) = 36.51591 49.14942 42.83267
# Shear Modulus (GPa) = 38.74341 264.62058 151.68200
#
# Velocity S-wave (km/s) = 4.33868 11.33888 8.58470
# Velocity P-wave (km/s) = 6.54528 13.97522 10.91209
#
# Compressibility (1/GPa) = 0.02738532
#
# Stress axis : x y z
#
# Youngs Moduli (GPa) = 43.32103 126.83746 112.22356
#
# Poissons Ratio (x) = 0.49059 0.15376
# Poissons Ratio (y) = 0.16756 0.11318
# Poissons Ratio (z) = 0.05935 0.12792
#
# Static dielectric constant tensor:
#      x y z
#    x 1.760790 -0.000010 -0.028090 
#    y -0.000010 1.733240 -0.000020 
#    z -0.028090 -0.000020 1.762110 
# 
# From -- ./inp_files/316619.got.cif
#   From: 2010.05.17/outbox.ucp.g08.bks.cvg/sg12_159_cif.got.tgz:316619.got - 2010.06.11 11:47:21.
