data_PCOD9224950
_publ_section_title
;
Structure prediction by ZEFSAII (Michael W. Deem and Ramdas Pophale) SiO2 
 PCOD9224950
Probable space group: C 2/M
;
_chemical_formula_sum "Si O2"
_cell_formula_units_Z 32
_cell_length_a 15.000000
_cell_length_b 9.000000
_cell_length_c 30.000000
_cell_angle_alpha 90.000000
_cell_angle_beta 130.000000
_cell_angle_gamma 90.000000
_cell_volume 3102.479995
_symmetry_space_group_name_H-M "C 2/M"
_symmetry_group_IT_number 12
_symmetry_cell_setting 'monoclinic'
loop_
_space_group_symop_operation_xyz
x,y,z
-x,y,-z
-x,-y,-z
x,-y,z
1/2+x,1/2+y,z
1/2-x,1/2+y,-z
1/2-x,1/2-y,-z
1/2+x,1/2-y,z
loop_
_atom_site_type_symbol
_atom_site_label
_atom_site_fract_x
_atom_site_fract_y
_atom_site_fract_z
Si Si1 0.872717 0.824150 0.588592
Si Si2 0.607865 0.822188 0.502035
Si Si3 0.394963 0.832868 0.865923
Si Si4 0.220831 0.172044 0.096458
Si Si5 0.856952 0.671146 0.011337
Si Si6 0.595587 0.823170 0.699577
Si Si7 0.182494 0.671317 0.261244
Si Si8 0.059821 0.318263 0.786734
O O1 0.739834 0.797345 0.562102
O O2 0.890396 0.768798 0.543402
O O3 0.969123 0.734755 0.646184
O O4 0.894030 0.000000 0.598013
O O5 0.500000 0.783756 0.500000
O O6 0.598048 0.000000 0.489352
O O7 0.333326 0.701884 0.872785
O O8 0.367757 0.827134 0.805276
O O9 0.358140 0.000000 0.869755
O O10 0.529543 0.817929 0.921983
O O11 0.139187 0.256152 0.035866
O O12 0.353708 0.227988 0.145643
O O13 0.224518 0.000000 0.085489
O O14 0.830638 0.500000 0.996667
O O15 0.750000 0.750000 0.000000
O O16 0.696627 0.757295 0.701087
O O17 0.612615 0.774127 0.756248
O O18 0.599703 0.000000 0.698790
O O19 0.204002 0.500000 0.280990
O O20 0.073160 0.733634 0.253424
O O21 0.056620 0.500000 0.787604
#
# Coordination Sequence:
#
# PCOD9224950 Si02
#       8
#     8   8   8   8   8   8   8   8
#     4  10  21  37  59  89 123 160 200 239 287 343
#     4   9  19  38  63  91 125 160 196 241 288 331
#     4  10  21  37  57  80 111 146 186 238 296 357
#     4  11  21  37  59  82 111 146 189 236 293 358
#     4  11  23  38  55  80 111 144 186 236 296 358
#     4  11  22  39  59  84 119 156 198 247 293 337
#     4  10  20  38  61  82 109 150 196 240 295 354
#     4   9  20  38  59  82 113 153 193 239 295 353
#
# _framework density 10.314329000000001
#
# number of rings (size 3 to 8) (size 9 to 14) (size 15 to 20)
#    0.000    1.875    1.250    2.625    0.000    6.250 
#    0.000    6.250    0.000    0.000    0.000    0.000 
#    0.000    0.000    0.000    0.000    0.000    0.000 
#
# Total GULP energy -178485.189207 kJ/mol
# GULP energy per Si atom -5577.662163 kJ/mol
# Density = 1.029085 g / cm^3
# Si number density = 10.314329 Si / 1000 Ang^3
#
#
#
# Elastic Constant Matrix: (Units=GPa)
#
#
# Indices 1 2 3 4 5 6 
#
# 1 96.0593 23.9364 0.7486 0.0000 22.1659 0.0000
# 2 23.9364 37.1272 21.1153 0.0000 17.6090 0.0000
# 3 0.7486 21.1153 44.7890 0.0000 17.0813 0.0000
# 4 0.0000 0.0000 0.0000 23.1875 0.0000 -0.6908
# 5 22.1659 17.6090 17.0813 0.0000 21.9173 0.0000
# 6 0.0000 0.0000 0.0000 -0.6908 0.0000 20.9944
#
#
#
# Elastic Compliance Matrix: (Units=1/GPa)
#
#
# Indices 1 2 3 4 5 6 
#
# 1 0.016598 -0.007820 0.010551 0.000000 -0.018726 0.000000
# 2 -0.007820 0.050756 -0.016025 0.000000 -0.020382 0.000000
# 3 0.010551 -0.016025 0.041072 0.000000 -0.029806 0.000000
# 4 0.000000 0.000000 0.000000 0.043169 0.000000 0.001420
# 5 -0.018726 -0.020382 -0.029806 0.000000 0.104169 0.000000
# 6 0.000000 0.000000 0.000000 0.001420 0.000000 0.047678
#
#
# Mechanical properties :
#
#
# Convention : Reuss Voigt Hill
#
# Bulk Modulus (GPa) = 12.21911 29.95293 21.08602
# Shear Modulus (GPa) = 13.99343 22.03150 18.01247
#
# Velocity S-wave (km/s) = 2.60734 3.27158 2.95816
# Velocity P-wave (km/s) = 3.87305 5.36866 4.68098
#
# Compressibility (1/GPa) = 0.08183899
#
# Stress axis : x y z
#
# Youngs Moduli (GPa) = 60.24947 19.70192 24.34726
#
# Poissons Ratio (x) = 0.15406 -0.25688
# Poissons Ratio (y) = 0.47113 0.39016
# Poissons Ratio (z) = -0.63568 0.31572
#
# Static dielectric constant tensor:
#      x y z
#    x 1.824920 0.000000 -0.051580 
#    y 0.000000 1.699810 0.000000 
#    z -0.051580 0.000000 1.822900 
# 
# From -- ./inp_files/375585.got.cif
#   From: 2010.05.17/outbox.ucp.g08.bks.cvg/sg12_188_cif.got.tgz:375585.got - 2010.06.11 11:47:21.
