data_PCOD9224916
_publ_section_title
;
Structure prediction by ZEFSAII (Michael W. Deem and Ramdas Pophale) SiO2 
 PCOD9224916
Probable space group: C 2/M
;
_chemical_formula_sum "Si O2"
_cell_formula_units_Z 28
_cell_length_a 18.000000
_cell_length_b 9.000000
_cell_length_c 18.000000
_cell_angle_alpha 90.000000
_cell_angle_beta 70.000000
_cell_angle_gamma 90.000000
_cell_volume 2740.143682
_symmetry_space_group_name_H-M "C 2/M"
_symmetry_group_IT_number 12
_symmetry_cell_setting 'monoclinic'
loop_
_space_group_symop_operation_xyz
x,y,z
-x,y,-z
-x,-y,-z
x,-y,z
1/2+x,1/2+y,z
1/2-x,1/2+y,-z
1/2-x,1/2-y,-z
1/2+x,1/2-y,z
loop_
_atom_site_type_symbol
_atom_site_label
_atom_site_fract_x
_atom_site_fract_y
_atom_site_fract_z
Si Si1 0.868657 0.680471 0.170947
Si Si2 0.942812 0.671647 0.420208
Si Si3 0.180537 0.322668 0.975923
Si Si4 0.200922 0.330305 0.645441
Si Si5 0.083142 0.825019 0.287980
Si Si6 0.849901 0.325831 0.597737
Si Si7 0.952490 0.677630 0.857333
O O1 0.869563 0.500000 0.166519
O O2 0.826075 0.717734 0.262787
O O3 0.959419 0.728437 0.151378
O O4 0.831472 0.731574 0.105116
O O5 0.973266 0.500000 0.412880
O O6 0.870685 0.668208 0.387382
O O7 0.913840 0.713899 0.512523
O O8 0.004388 0.780250 0.360271
O O9 0.194387 0.500000 0.967583
O O10 0.102661 0.297650 0.052481
O O11 0.250000 0.250000 0.000000
O O12 0.231400 0.500000 0.639990
O O13 0.266539 0.220527 0.593161
O O14 0.145289 0.756075 0.324682
O O15 0.078618 0.753792 0.207562
O O16 0.093805 0.000000 0.277309
O O17 0.854245 0.500000 0.608192
O O18 0.955152 0.500000 0.841777
#
# Coordination Sequence:
#
# PCOD9224916 Si02
#       7
#     8   8   8   8   8   8   8
#     4   9  18  37  64  89 117 154 199 242 288 350
#     4  10  21  41  64  87 118 159 201 246 304 362
#     4  10  22  38  62  94 123 155 193 240 295 356
#     4  10  20  37  62  90 122 158 196 246 300 355
#     4  12  25  39  60  89 121 158 204 255 300 352
#     4  11  24  39  59  87 123 161 201 249 300 361
#     4  10  20  40  65  87 117 160 204 242 291 358
#
# _framework density 10.218442
#
# number of rings (size 3 to 8) (size 9 to 14) (size 15 to 20)
#    0.000    1.714    1.429    3.000    2.000    5.714 
#    0.000    0.714    0.000    1.714    0.000    0.000 
#    0.000    0.000    0.000    0.000    0.000    0.000 
#
# Total GULP energy -156289.169206 kJ/mol
# GULP energy per Si atom -5581.756043 kJ/mol
# Density = 1.019518 g / cm^3
# Si number density = 10.218442 Si / 1000 Ang^3
#
#
#
# Elastic Constant Matrix: (Units=GPa)
#
#
# Indices 1 2 3 4 5 6 
#
# 1 92.4222 26.2709 23.6530 0.0000 2.8342 0.0000
# 2 26.2709 27.9345 22.7791 0.0000 0.7062 0.0000
# 3 23.6530 22.7791 79.3943 0.0000 27.3313 0.0000
# 4 0.0000 0.0000 0.0000 16.4840 0.0000 0.3198
# 5 2.8342 0.7062 27.3313 0.0000 35.7570 0.0000
# 6 0.0000 0.0000 0.0000 0.3198 0.0000 24.9377
#
#
#
# Elastic Compliance Matrix: (Units=1/GPa)
#
#
# Indices 1 2 3 4 5 6 
#
# 1 0.014798 -0.013719 -0.000220 0.000000 -0.000734 0.000000
# 2 -0.013719 0.064089 -0.019324 0.000000 0.014592 0.000000
# 3 -0.000220 -0.019324 0.024519 0.000000 -0.018343 0.000000
# 4 0.000000 0.000000 0.000000 0.060680 0.000000 -0.000778
# 5 -0.000734 0.014592 -0.018343 0.000000 0.041757 0.000000
# 6 0.000000 0.000000 0.000000 -0.000778 0.000000 0.040110
#
#
# Mechanical properties :
#
#
# Convention : Reuss Voigt Hill
#
# Bulk Modulus (GPa) = 27.11433 38.35078 32.73255
# Shear Modulus (GPa) = 15.39538 23.90561 19.65050
#
# Velocity S-wave (km/s) = 2.74763 3.42384 3.10420
# Velocity P-wave (km/s) = 4.83344 5.86826 5.37581
#
# Compressibility (1/GPa) = 0.03688087
#
# Stress axis : x y z
#
# Youngs Moduli (GPa) = 67.57514 15.60337 40.78395
#
# Poissons Ratio (x) = 0.21407 0.00897
# Poissons Ratio (y) = 0.92708 0.78810
# Poissons Ratio (z) = 0.01486 0.30152
#
# Static dielectric constant tensor:
#      x y z
#    x 1.815470 0.000000 -0.030640 
#    y 0.000000 1.695890 0.000000 
#    z -0.030640 0.000000 1.697950 
# 
# From -- ./inp_files/275059.got.cif
#   From: 2010.05.17/outbox.ucp.g08.bks.cvg/sg12_138_cif.got.tgz:275059.got - 2010.06.11 11:47:21.
