data_PCOD9224660
_publ_section_title
;
Structure prediction by ZEFSAII (Michael W. Deem and Ramdas Pophale) SiO2 
 PCOD9224660
Probable space group: C 2/M
;
_chemical_formula_sum "Si O2"
_cell_formula_units_Z 32
_cell_length_a 18.000000
_cell_length_b 15.000000
_cell_length_c 18.000000
_cell_angle_alpha 90.000000
_cell_angle_beta 40.000000
_cell_angle_gamma 90.000000
_cell_volume 3123.947783
_symmetry_space_group_name_H-M "C 2/M"
_symmetry_group_IT_number 12
_symmetry_cell_setting 'monoclinic'
loop_
_space_group_symop_operation_xyz
x,y,z
-x,y,-z
-x,-y,-z
x,-y,z
1/2+x,1/2+y,z
1/2-x,1/2+y,-z
1/2-x,1/2-y,-z
1/2+x,1/2-y,z
loop_
_atom_site_type_symbol
_atom_site_label
_atom_site_fract_x
_atom_site_fract_y
_atom_site_fract_z
Si Si1 0.753954 0.894847 0.455509
Si Si2 0.359315 0.744060 0.794704
Si Si3 0.063123 0.729152 0.521929
Si Si4 0.300694 0.404310 0.039686
Si Si5 0.555535 0.840012 0.873251
Si Si6 0.689918 0.904443 0.961458
Si Si7 0.480382 0.324287 0.195602
Si Si8 0.221057 0.102156 0.385095
O O1 0.656974 0.833463 0.490948
O O2 0.879340 0.867044 0.324051
O O3 0.746616 0.883512 0.551285
O O4 0.736581 0.000000 0.454129
O O5 0.459414 0.747726 0.657615
O O6 0.276033 0.829748 0.861863
O O7 0.265410 0.665443 0.857756
O O8 0.429942 0.726282 0.817369
O O9 0.128479 0.818961 0.444104
O O10 0.000000 0.684944 0.500000
O O11 0.287307 0.500000 0.086938
O O12 0.248167 0.407680 0.997102
O O13 0.435019 0.384960 0.919415
O O14 0.572632 0.743411 0.823502
O O15 0.671435 0.888772 0.755249
O O16 0.500000 0.836711 0.000000
O O17 0.442977 0.882975 0.921535
O O18 0.696256 0.000000 0.918617
O O19 0.177085 0.000000 0.413786
#
# Coordination Sequence:
#
# PCOD9224660 Si02
#       8
#     8   8   8   8   8   8   8   8
#     4  11  24  45  75  99 126 174 232 288 331 388
#     4  11  21  39  65  91 124 171 210 263 322 388
#     4  12  27  43  66  94 137 178 217 273 341 405
#     4  10  20  35  62  95 122 156 204 263 320 374
#     4  12  24  39  65  93 131 176 214 263 332 397
#     4  10  21  36  57  90 124 156 199 251 313 378
#     4  11  19  41  69  93 127 165 223 274 322 384
#     4  11  25  45  70 101 132 177 230 277 331 398
#
# _framework density 10.243449
#
# number of rings (size 3 to 8) (size 9 to 14) (size 15 to 20)
#    0.000    1.000    5.000    2.625    1.750    3.000 
#    0.000    0.000    0.000    0.750    0.000    0.000 
#    0.000    0.000    0.000    0.000    0.000    0.000 
#
# Total GULP energy -178447.057234 kJ/mol
# GULP energy per Si atom -5576.470539 kJ/mol
# Density = 1.022013 g / cm^3
# Si number density = 10.243449 Si / 1000 Ang^3
#
#
#
# Elastic Constant Matrix: (Units=GPa)
#
#
# Indices 1 2 3 4 5 6 
#
# 1 35.2122 19.1458 12.5105 0.0000 -3.3906 0.0000
# 2 19.1458 125.5007 62.9013 0.0000 -7.6177 0.0000
# 3 12.5105 62.9013 163.5142 0.0000 -19.5516 0.0000
# 4 0.0000 0.0000 0.0000 20.6389 0.0000 6.3087
# 5 -3.3906 -7.6177 -19.5516 0.0000 28.6823 0.0000
# 6 0.0000 0.0000 0.0000 6.3087 0.0000 -8.7112
#
#
#
# Elastic Compliance Matrix: (Units=1/GPa)
#
#
# Indices 1 2 3 4 5 6 
#
# 1 0.031160 -0.004407 -0.000423 0.000000 0.002225 0.000000
# 2 -0.004407 0.010495 -0.003733 0.000000 -0.000278 0.000000
# 3 -0.000423 -0.003733 0.008122 0.000000 0.004495 0.000000
# 4 0.000000 0.000000 0.000000 0.039670 0.000000 0.028730
# 5 0.002225 -0.000278 0.004495 0.000000 0.038118 0.000000
# 6 0.000000 0.000000 0.000000 0.028730 0.000000 -0.093988
#
#
# Mechanical properties :
#
#
# Convention : Reuss Voigt Hill
#
# Bulk Modulus (GPa) = 30.62746 57.03803 43.83275
# Shear Modulus (GPa) = 81.18960 23.43329 52.31145
#
# Velocity S-wave (km/s) = 6.30207 3.38571 5.05861
# Velocity P-wave (km/s) = 8.24239 6.57158 7.45395
#
# Compressibility (1/GPa) = 0.03265044
#
# Stress axis : x y z
#
# Youngs Moduli (GPa) = 32.09277 95.28765 123.12870
#
# Poissons Ratio (x) = 0.41989 0.05206
# Poissons Ratio (y) = 0.14142 0.45967
# Poissons Ratio (z) = 0.01357 0.35573
#
# Static dielectric constant tensor:
#      x y z
#    x 1.780350 0.000000 0.018170 
#    y 0.000000 1.803150 0.000000 
#    z 0.018170 0.000000 1.696410 
# 
# From -- ./inp_files/278132.got.cif
#   From: 2010.05.17/outbox.ucp.g08.bks.cvg/sg12_140_cif.got.tgz:278132.got - 2010.06.11 11:47:21.
