data_PCOD9224117
_publ_section_title
;
Structure prediction by ZEFSAII (Michael W. Deem and Ramdas Pophale) SiO2 
 PCOD9224117
Probable space group: C 2/M
;
_chemical_formula_sum "Si O2"
_cell_formula_units_Z 32
_cell_length_a 24.000000
_cell_length_b 9.000000
_cell_length_c 30.000000
_cell_angle_alpha 90.000000
_cell_angle_beta 150.000000
_cell_angle_gamma 90.000000
_cell_volume 3240.000000
_symmetry_space_group_name_H-M "C 2/M"
_symmetry_group_IT_number 12
_symmetry_cell_setting 'monoclinic'
loop_
_space_group_symop_operation_xyz
x,y,z
-x,y,-z
-x,-y,-z
x,-y,z
1/2+x,1/2+y,z
1/2-x,1/2+y,-z
1/2-x,1/2-y,-z
1/2+x,1/2-y,z
loop_
_atom_site_type_symbol
_atom_site_label
_atom_site_fract_x
_atom_site_fract_y
_atom_site_fract_z
Si Si1 0.243735 0.330186 0.794940
Si Si2 0.729921 0.178464 0.377596
Si Si3 0.516411 0.322268 0.786707
Si Si4 0.348019 0.180555 0.539068
Si Si5 0.440338 0.828204 0.092669
Si Si6 0.793584 0.667578 0.739840
Si Si7 0.907286 0.323112 0.971020
Si Si8 0.431404 0.324798 0.277208
O O1 0.278457 0.500000 0.825600
O O2 0.265615 0.279291 0.759919
O O3 0.300094 0.217456 0.868945
O O4 0.120677 0.297488 0.725546
O O5 0.603682 0.239200 0.298254
O O6 0.814863 0.273305 0.465859
O O7 0.755686 0.198000 0.342881
O O8 0.732491 0.000000 0.388697
O O9 0.498694 0.500000 0.778287
O O10 0.576647 0.261899 0.873360
O O11 0.581260 0.296747 0.784945
O O12 0.250000 0.250000 0.500000
O O13 0.443133 0.287028 0.624145
O O14 0.361198 0.000000 0.553104
O O15 0.573549 0.831328 0.176260
O O16 0.402680 0.000000 0.072426
O O17 0.399044 0.766674 0.016085
O O18 0.763071 0.500000 0.733220
O O19 0.925629 0.500000 0.988090
O O20 0.000000 0.264979 0.000000
O O21 0.405551 0.500000 0.267688
#
# Coordination Sequence:
#
# PCOD9224117 Si02
#       8
#     8   8   8   8   8   8   8   8
#     4  12  25  38  57  87 120 154 192 244 297 344
#     4  10  20  35  59  87 117 152 192 239 286 340
#     4  10  20  34  56  85 116 149 189 240 293 344
#     4  12  23  37  60  90 121 152 193 243 289 339
#     4   9  18  33  58  86 113 149 191 237 288 342
#     4   9  18  36  58  83 115 155 194 231 285 350
#     4  10  19  37  61  84 114 154 198 238 283 349
#     4  11  24  42  61  82 115 160 199 236 290 353
#
# _framework density 9.8765429999999999
#
# number of rings (size 3 to 8) (size 9 to 14) (size 15 to 20)
#    0.000    1.625    2.500    4.125    0.000    4.750 
#    0.000    1.250    0.000    3.750    0.000    0.000 
#    0.000    0.000    0.000    0.000    0.000    0.000 
#
# Total GULP energy -178176.076253 kJ/mol
# GULP energy per Si atom -5568.002383 kJ/mol
# Density = 0.985406 g / cm^3
# Si number density = 9.876543 Si / 1000 Ang^3
#
#
#
# Elastic Constant Matrix: (Units=GPa)
#
#
# Indices 1 2 3 4 5 6 
#
# 1 29.4316 28.3089 0.4521 -0.0001 -32.9449 -0.0001
# 2 28.3089 75.8482 -5.1365 -0.0003 -24.4167 0.0001
# 3 0.4521 -5.1365 14.3774 -0.0002 -22.5566 -0.0002
# 4 -0.0001 -0.0003 -0.0002 32.6604 -0.0001 -16.1506
# 5 -32.9449 -24.4167 -22.5566 -0.0001 33.3968 0.0000
# 6 -0.0001 0.0001 -0.0002 -16.1506 0.0000 37.7896
#
#
#
# Elastic Compliance Matrix: (Units=1/GPa)
#
#
# Indices 1 2 3 4 5 6 
#
# 1 0.023548 -0.021618 -0.053374 -0.000001 -0.028626 0.000000
# 2 -0.021618 0.021504 0.007207 0.000000 -0.000736 0.000000
# 3 -0.053374 0.007207 0.008907 0.000000 -0.041367 0.000000
# 4 -0.000001 0.000000 0.000000 0.038823 -0.000001 0.016592
# 5 -0.028626 -0.000736 -0.041367 -0.000001 -0.026773 -0.000001
# 6 0.000000 0.000000 0.000000 0.016592 -0.000001 0.033554
#
#
# Mechanical properties :
#
#
# Convention : Reuss Voigt Hill
#
# Bulk Modulus (GPa) = -12.25319 18.54510 3.14595
# Shear Modulus (GPa) = 24.04666 27.17154 25.60910
#
# Velocity S-wave (km/s) = 3.49286 3.71288 3.60455
# Velocity P-wave (km/s) = 3.17019 5.27157 4.34969
#
# Compressibility (1/GPa) = -0.08161137
#
# Stress axis : x y z
#
# Youngs Moduli (GPa) = 42.46628 46.50292 112.27291
#
# Poissons Ratio (x) = 1.00532 5.99248
# Poissons Ratio (y) = 0.91805 -0.80920
# Poissons Ratio (z) = 2.26661 -0.33517
#
# Static dielectric constant tensor:
#      x y z
#    x 1.548260 0.000000 -0.144860 
#    y 0.000000 1.656600 0.000000 
#    z -0.144860 0.000000 1.667140 
# 
# From -- ./inp_files/382497.got.cif
#   From: 2010.05.17/outbox.ucp.g08.bks.cvg/sg12_192_cif.got.tgz:382497.got - 2010.06.11 11:47:21.
