data_PCOD9224320
_publ_section_title
;
Structure prediction by ZEFSAII (Michael W. Deem and Ramdas Pophale) SiO2 
 PCOD9224320
Probable space group: C 2/M
;
_chemical_formula_sum "Si O2"
_cell_formula_units_Z 32
_cell_length_a 30.000000
_cell_length_b 9.000000
_cell_length_c 12.000000
_cell_angle_alpha 90.000000
_cell_angle_beta 90.000000
_cell_angle_gamma 90.000000
_cell_volume 3240.000000
_symmetry_space_group_name_H-M "C 2/M"
_symmetry_group_IT_number 12
_symmetry_cell_setting 'monoclinic'
loop_
_space_group_symop_operation_xyz
x,y,z
-x,y,-z
-x,-y,-z
x,-y,z
1/2+x,1/2+y,z
1/2-x,1/2+y,-z
1/2-x,1/2-y,-z
1/2+x,1/2-y,z
loop_
_atom_site_type_symbol
_atom_site_label
_atom_site_fract_x
_atom_site_fract_y
_atom_site_fract_z
Si Si1 0.448111 0.678652 0.508450
Si Si2 0.766178 0.673797 0.336340
Si Si3 0.316153 0.830565 0.558834
Si Si4 0.388522 0.676239 0.697368
Si Si5 0.171665 0.677324 0.855735
Si Si6 0.960518 0.174334 0.080358
Si Si7 0.868431 0.173491 0.942353
Si Si8 0.583530 0.177945 0.717566
O O1 0.500000 0.710552 0.500000
O O2 0.441428 0.500000 0.500669
O O3 0.431810 0.729512 0.630711
O O4 0.423239 0.753828 0.404421
O O5 0.750700 0.500000 0.338116
O O6 0.729510 0.787474 0.379172
O O7 0.805783 0.680572 0.427780
O O8 0.784419 0.711520 0.214942
O O9 0.350782 0.714966 0.607924
O O10 0.329865 0.000000 0.582453
O O11 0.393277 0.500000 0.713905
O O12 0.375423 0.737354 0.818380
O O13 0.168796 0.500000 0.866116
O O14 0.129857 0.723960 0.777595
O O15 0.166485 0.747694 0.976661
O O16 0.953366 0.262522 0.194779
O O17 0.968560 0.000000 0.106973
O O18 0.915546 0.183730 0.006981
O O19 0.000000 0.227275 0.000000
O O20 0.856237 0.000000 0.933621
O O21 0.582575 0.000000 0.710165
#
# Coordination Sequence:
#
# PCOD9224320 Si02
#       8
#     8   8   8   8   8   8   8   8
#     4  10  22  37  56  78 103 139 183 225 264 316
#     4   9  18  34  56  81 110 139 173 218 264 312
#     4  10  20  34  55  84 111 140 175 214 264 320
#     4  10  21  37  55  76 108 144 177 219 269 318
#     4   9  18  34  55  78 106 141 175 215 266 316
#     4   9  18  32  55  78 100 135 180 227 268 311
#     4   9  19  34  52  77 104 137 180 223 267 314
#     4  10  20  34  52  77 110 138 170 217 270 324
#
# _framework density 9.8765429999999999
#
# number of rings (size 3 to 8) (size 9 to 14) (size 15 to 20)
#    0.000    2.500    0.000    1.500    1.750    4.000 
#    0.000    0.625    0.000    0.000    0.000    0.000 
#    0.000    0.000    0.000    0.000    0.000    0.000 
#
# Total GULP energy -178416.280640 kJ/mol
# GULP energy per Si atom -5575.508770 kJ/mol
# Density = 0.985406 g / cm^3
# Si number density = 9.876543 Si / 1000 Ang^3
#
#
#
# Elastic Constant Matrix: (Units=GPa)
#
#
# Indices 1 2 3 4 5 6 
#
# 1 19.3756 -2.7535 13.8367 0.0000 -19.6901 0.0000
# 2 -2.7535 -2.9469 11.1517 0.0000 -8.0589 0.0000
# 3 13.8367 11.1517 98.0078 0.0000 -38.6820 0.0000
# 4 0.0000 0.0000 0.0000 30.3706 0.0000 1.4988
# 5 -19.6901 -8.0589 -38.6820 0.0000 27.6880 0.0000
# 6 0.0000 0.0000 0.0000 1.4988 0.0000 14.9043
#
#
#
# Elastic Compliance Matrix: (Units=1/GPa)
#
#
# Indices 1 2 3 4 5 6 
#
# 1 0.067432 -0.108520 0.020704 0.000000 0.045293 0.000000
# 2 -0.108520 -0.014293 -0.033780 0.000000 -0.128526 0.000000
# 3 0.020704 -0.033780 0.029100 0.000000 0.045547 0.000000
# 4 0.000000 0.000000 0.000000 0.033091 0.000000 -0.003328
# 5 0.045293 -0.128526 0.045547 0.000000 0.094549 0.000000
# 6 0.000000 0.000000 0.000000 -0.003328 0.000000 0.067429
#
#
# Mechanical properties :
#
#
# Convention : Reuss Voigt Hill
#
# Bulk Modulus (GPa) = -6.21301 17.65628 5.72164
# Shear Modulus (GPa) = 10.71008 20.73935 15.72472
#
# Velocity S-wave (km/s) = 2.33104 3.24378 2.82452
# Velocity P-wave (km/s) = 2.02308 4.79451 3.67969
#
# Compressibility (1/GPa) = -0.16095259
#
# Stress axis : x y z
#
# Youngs Moduli (GPa) = 14.82969 -69.96234 34.36388
#
# Poissons Ratio (x) = -7.59234 -0.71147
# Poissons Ratio (y) = 1.60932 1.16080
# Poissons Ratio (z) = -0.30704 -2.36331
#
# Static dielectric constant tensor:
#      x y z
#    x 1.760290 0.000000 -0.028510 
#    y 0.000000 1.665810 0.000000 
#    z -0.028510 0.000000 1.690420 
# 
# From -- ./inp_files/187398.got.cif
#   From: 2010.05.17/outbox.ucp.g08.bks.cvg/sg12_94_cif.got.tgz:187398.got - 2010.06.11 11:47:21.
