data_PCOD9224723
_publ_section_title
;
Structure prediction by ZEFSAII (Michael W. Deem and Ramdas Pophale) SiO2 
 PCOD9224723
Probable space group: C 2/M
;
_chemical_formula_sum "Si O2"
_cell_formula_units_Z 32
_cell_length_a 30.000000
_cell_length_b 9.000000
_cell_length_c 24.000000
_cell_angle_alpha 90.000000
_cell_angle_beta 150.000000
_cell_angle_gamma 90.000000
_cell_volume 3240.000000
_symmetry_space_group_name_H-M "C 2/M"
_symmetry_group_IT_number 12
_symmetry_cell_setting 'monoclinic'
loop_
_space_group_symop_operation_xyz
x,y,z
-x,y,-z
-x,-y,-z
x,-y,z
1/2+x,1/2+y,z
1/2-x,1/2+y,-z
1/2-x,1/2-y,-z
1/2+x,1/2-y,z
loop_
_atom_site_type_symbol
_atom_site_label
_atom_site_fract_x
_atom_site_fract_y
_atom_site_fract_z
Si Si1 0.074006 0.320427 0.035440
Si Si2 0.271728 0.320397 0.729370
Si Si3 0.056656 0.679096 0.774053
Si Si4 0.378866 0.322945 0.606204
Si Si5 0.807471 0.676975 0.176779
Si Si6 0.699387 0.678956 0.365298
Si Si7 0.615530 0.821233 0.960439
Si Si8 0.400271 0.178002 0.396325
O O1 0.077702 0.500000 0.040966
O O2 0.166010 0.252821 0.157006
O O3 0.061528 0.273956 0.957489
O O4 0.000000 0.271400 0.000000
O O5 0.275412 0.500000 0.738448
O O6 0.309252 0.279976 0.708884
O O7 0.169826 0.272064 0.632106
O O8 0.050432 0.500000 0.766402
O O9 0.127522 0.721588 0.803573
O O10 0.084417 0.730222 0.866033
O O11 0.959803 0.747988 0.661569
O O12 0.382828 0.500000 0.605716
O O13 0.375033 0.284374 0.668597
O O14 0.287851 0.260072 0.482484
O O15 0.789626 0.500000 0.152058
O O16 0.854899 0.700199 0.287267
O O17 0.715949 0.765193 0.076087
O O18 0.711823 0.500000 0.380927
O O19 0.613450 0.000000 0.957043
O O20 0.500000 0.241018 0.500000
O O21 0.409109 0.000000 0.414913
#
# Coordination Sequence:
#
# PCOD9224723 Si02
#       8
#     8   8   8   8   8   8   8   8
#     4  10  22  38  56  80 114 153 188 225 280 342
#     4  10  20  36  60  86 111 143 186 235 278 322
#     4  10  22  36  56  82 108 144 188 228 275 331
#     4  10  21  37  55  82 113 144 183 228 274 324
#     4  10  20  36  58  82 107 141 186 231 276 327
#     4   9  20  37  57  80 111 147 183 224 276 329
#     4  10  21  38  56  78 111 147 183 228 281 333
#     4   9  18  32  54  83 111 140 178 225 277 329
#
# _framework density 9.8765429999999999
#
# number of rings (size 3 to 8) (size 9 to 14) (size 15 to 20)
#    0.000    2.250    1.250    0.750    3.500    2.250 
#    0.000    0.000    0.000    0.750    0.000    0.000 
#    0.000    0.000    0.000    0.000    0.000    0.000 
#
# Total GULP energy -178472.589119 kJ/mol
# GULP energy per Si atom -5577.268410 kJ/mol
# Density = 0.985406 g / cm^3
# Si number density = 9.876543 Si / 1000 Ang^3
#
#
#
# Elastic Constant Matrix: (Units=GPa)
#
#
# Indices 1 2 3 4 5 6 
#
# 1 113.1496 6.2778 -10.6744 0.0000 5.6277 0.0000
# 2 6.2778 -16.4787 -6.2178 0.0000 -4.9227 0.0000
# 3 -10.6744 -6.2178 1.4101 0.0000 18.4121 0.0000
# 4 0.0000 0.0000 0.0000 23.5052 0.0000 1.3313
# 5 5.6277 -4.9227 18.4121 0.0000 27.1158 0.0000
# 6 0.0000 0.0000 0.0000 1.3313 0.0000 10.1909
#
#
#
# Elastic Compliance Matrix: (Units=1/GPa)
#
#
# Indices 1 2 3 4 5 6 
#
# 1 0.007232 0.004809 -0.010698 0.000000 0.006636 0.000000
# 2 0.004809 -0.056945 0.008476 0.000000 -0.017091 0.000000
# 3 -0.010698 0.008476 -0.078372 0.000000 0.056975 0.000000
# 4 0.000000 0.000000 0.000000 0.042861 0.000000 -0.005599
# 5 0.006636 -0.017091 0.056975 0.000000 -0.006288 0.000000
# 6 0.000000 0.000000 0.000000 -0.005599 0.000000 0.098858
#
#
# Mechanical properties :
#
#
# Convention : Reuss Voigt Hill
#
# Bulk Modulus (GPa) = -8.13605 8.53914 0.20154
# Shear Modulus (GPa) = -128.86911 19.40876 -54.73017
#
# Velocity S-wave (km/s) = -8.08589 3.13800 -5.26947
# Velocity P-wave (km/s) = 9.55528 4.17872 6.07625
#
# Compressibility (1/GPa) = -0.12290971
#
# Stress axis : x y z
#
# Youngs Moduli (GPa) = 138.27832 -17.56082 -12.75970
#
# Poissons Ratio (x) = 0.08445 -0.13650
# Poissons Ratio (y) = -0.66500 0.10815
# Poissons Ratio (z) = 1.47924 0.14885
#
# Static dielectric constant tensor:
#      x y z
#    x 1.725660 0.000000 -0.007390 
#    y 0.000000 1.649360 0.000000 
#    z -0.007390 0.000000 1.694680 
# 
# From -- ./inp_files/353468.got.cif
#   From: 2010.05.17/outbox.ucp.g08.bks.cvg/sg12_177_cif.got.tgz:353468.got - 2010.06.11 11:47:21.
