data_PCOD9224995
_publ_section_title
;
Structure prediction by ZEFSAII (Michael W. Deem and Ramdas Pophale) SiO2 
 PCOD9224995
Probable space group: C 2/M
;
_chemical_formula_sum "Si O2"
_cell_formula_units_Z 32
_cell_length_a 24.000000
_cell_length_b 18.000000
_cell_length_c 21.000000
_cell_angle_alpha 90.000000
_cell_angle_beta 20.000000
_cell_angle_gamma 90.000000
_cell_volume 3102.806740
_symmetry_space_group_name_H-M "C 2/M"
_symmetry_group_IT_number 12
_symmetry_cell_setting 'monoclinic'
loop_
_space_group_symop_operation_xyz
x,y,z
-x,y,-z
-x,-y,-z
x,-y,z
1/2+x,1/2+y,z
1/2-x,1/2+y,-z
1/2-x,1/2-y,-z
1/2+x,1/2-y,z
loop_
_atom_site_type_symbol
_atom_site_label
_atom_site_fract_x
_atom_site_fract_y
_atom_site_fract_z
Si Si1 0.598814 0.088499 0.013224
Si Si2 0.381298 0.190605 0.687455
Si Si3 0.116401 0.911027 0.194445
Si Si4 0.169227 0.263260 0.456506
Si Si5 0.241757 0.133243 0.450081
Si Si6 0.669121 0.201773 0.836774
Si Si7 0.687877 0.083557 0.484129
Si Si8 0.199137 0.414884 0.123955
O O1 0.420371 0.114864 0.229043
O O2 0.594551 0.000000 0.016169
O O3 0.750725 0.112349 0.895222
O O4 0.634899 0.123140 0.905430
O O5 0.500000 0.172062 0.500000
O O6 0.483025 0.226151 0.636353
O O7 0.257690 0.249419 0.793557
O O8 0.297440 0.121665 0.810731
O O9 0.923494 0.896319 0.406925
O O10 0.133881 0.000000 0.173995
O O11 0.183448 0.879895 0.055146
O O12 0.211966 0.221320 0.474848
O O13 0.231896 0.208841 0.333995
O O14 0.236735 0.347329 0.386687
O O15 0.246850 0.100492 0.515544
O O16 0.500000 0.238088 0.000000
O O17 0.488957 0.086234 0.699125
O O18 0.733150 0.000000 0.415526
O O19 0.246316 0.500000 0.080319
#
# Coordination Sequence:
#
# PCOD9224995 Si02
#       8
#     8   8   8   8   8   8   8   8
#     4  11  23  41  63  91 126 165 206 252 311 372
#     4   9  20  38  61  84 119 164 208 260 310 361
#     4  10  21  37  59  91 131 165 199 248 311 376
#     4  10  22  40  60  88 123 160 210 253 307 370
#     4  12  21  38  64  95 128 166 203 254 310 370
#     4  11  22  41  59  82 117 162 204 260 304 360
#     4  10  20  38  63  91 125 162 203 255 310 369
#     4   9  18  36  60  89 124 162 206 257 310 368
#
# _framework density 10.313243
#
# number of rings (size 3 to 8) (size 9 to 14) (size 15 to 20)
#    0.000    1.750    2.500    2.250    0.000    1.500 
#    2.250    3.750    0.000    5.625    0.000    0.000 
#    0.000    0.000    0.000    0.000    0.000    0.000 
#
# Total GULP energy -178160.787981 kJ/mol
# GULP energy per Si atom -5567.524624 kJ/mol
# Density = 1.028977 g / cm^3
# Si number density = 10.313243 Si / 1000 Ang^3
#
#
#
# Elastic Constant Matrix: (Units=GPa)
#
#
# Indices 1 2 3 4 5 6 
#
# 1 78.3617 76.0621 9.6036 -0.1668 -25.5317 0.0081
# 2 76.0621 68.1492 40.0214 -0.0377 6.6174 0.0035
# 3 9.6036 40.0214 40.7921 -0.1965 -20.3007 0.0056
# 4 -0.1668 -0.0377 -0.1965 -41.9171 -0.0136 -3.7034
# 5 -25.5317 6.6174 -20.3007 -0.0136 10.1062 0.0020
# 6 0.0081 0.0035 0.0056 -3.7034 0.0020 49.7050
#
#
#
# Elastic Compliance Matrix: (Units=1/GPa)
#
#
# Indices 1 2 3 4 5 6 
#
# 1 0.005049 0.003951 -0.013517 0.000045 -0.016983 0.000004
# 2 0.003951 0.003087 0.008185 -0.000064 0.024403 -0.000008
# 3 -0.013517 0.008185 0.013725 -0.000014 -0.011938 0.000000
# 4 0.000045 -0.000064 -0.000014 -0.023701 0.000096 -0.001766
# 5 -0.016983 0.024403 -0.011938 0.000096 0.016086 0.000009
# 6 0.000004 -0.000008 0.000000 -0.001766 0.000009 0.019987
#
#
# Mechanical properties :
#
#
# Convention : Reuss Voigt Hill
#
# Bulk Modulus (GPa) = 52.35325 48.74191 50.54758
# Shear Modulus (GPa) = 115.30961 7.68652 61.49807
#
# Velocity S-wave (km/s) = 7.48499 1.93252 5.46624
# Velocity P-wave (km/s) = 10.00683 5.35365 8.02491
#
# Compressibility (1/GPa) = 0.01910101
#
# Stress axis : x y z
#
# Youngs Moduli (GPa) = 198.04548 323.93857 72.85984
#
# Poissons Ratio (x) = -1.27999 0.98483
# Poissons Ratio (y) = -0.78254 -0.59638
# Poissons Ratio (z) = 2.67694 -2.65154
#
# Static dielectric constant tensor:
#      x y z
#    x 1.785990 -0.000010 0.027150 
#    y -0.000010 1.775100 0.000010 
#    z 0.027150 0.000010 1.678740 
# 
# From -- ./inp_files/326096.got.cif
#   From: 2010.05.17/outbox.ucp.g08.bks.cvg/sg12_164_cif.got.tgz:326096.got - 2010.06.11 11:47:21.
