data_PCOD9224459
_publ_section_title
;
Structure prediction by ZEFSAII (Michael W. Deem and Ramdas Pophale) SiO2 
 PCOD9224459
Probable space group: C 2/M
;
_chemical_formula_sum "Si O2"
_cell_formula_units_Z 32
_cell_length_a 24.000000
_cell_length_b 15.000000
_cell_length_c 18.000000
_cell_angle_alpha 90.000000
_cell_angle_beta 150.000000
_cell_angle_gamma 90.000000
_cell_volume 3240.000000
_symmetry_space_group_name_H-M "C 2/M"
_symmetry_group_IT_number 12
_symmetry_cell_setting 'monoclinic'
loop_
_space_group_symop_operation_xyz
x,y,z
-x,y,-z
-x,-y,-z
x,-y,z
1/2+x,1/2+y,z
1/2-x,1/2+y,-z
1/2-x,1/2-y,-z
1/2+x,1/2-y,z
loop_
_atom_site_type_symbol
_atom_site_label
_atom_site_fract_x
_atom_site_fract_y
_atom_site_fract_z
Si Si1 0.398176 0.402248 0.824669
Si Si2 0.109527 0.101582 0.352447
Si Si3 0.558299 0.897080 0.760232
Si Si4 0.628749 0.098845 0.332180
Si Si5 0.496389 0.291883 0.639526
Si Si6 0.882385 0.706937 0.821110
Si Si7 0.278593 0.394667 0.114252
Si Si8 0.318427 0.393527 0.335119
O O1 0.340511 0.500000 0.762252
O O2 0.439466 0.392894 0.787145
O O3 0.337956 0.308904 0.772692
O O4 0.500000 0.405229 0.000000
O O5 0.242758 0.108656 0.497044
O O6 0.071897 0.177407 0.365907
O O7 0.086260 0.000000 0.354329
O O8 0.452596 0.900349 0.692560
O O9 0.527018 0.813360 0.670922
O O10 0.573824 0.000000 0.748979
O O11 0.666630 0.874874 0.937467
O O12 0.596586 0.175893 0.238355
O O13 0.616581 0.000000 0.282324
O O14 0.614346 0.340443 0.787715
O O15 0.424110 0.336323 0.488524
O O16 0.788157 0.640129 0.741701
O O17 0.000000 0.701597 0.000000
O O18 0.297620 0.500000 0.126515
O O19 0.281042 0.378564 0.206344
O O20 0.340155 0.500000 0.369829
#
# Coordination Sequence:
#
# PCOD9224459 Si02
#       8
#     8   8   8   8   8   8   8   8
#     4   9  20  37  53  76 116 158 196 235 280 343
#     4  10  20  34  58  88 117 149 190 240 291 344
#     4  10  23  40  59  86 118 159 200 241 293 352
#     4  10  20  35  55  84 120 150 184 233 291 352
#     4  12  22  37  64  90 120 154 198 249 295 350
#     4  11  21  33  55  84 116 156 193 232 288 353
#     4  10  22  42  64  87 119 154 197 249 304 356
#     4  11  23  38  59  91 123 152 192 245 304 359
#
# _framework density 9.8765429999999999
#
# number of rings (size 3 to 8) (size 9 to 14) (size 15 to 20)
#    0.000    1.625    1.250    3.750    1.750    5.000 
#    0.000    0.000    0.000    2.250    0.000    0.000 
#    0.000    0.000    0.000    0.000    0.000    0.000 
#
# Total GULP energy -178451.148426 kJ/mol
# GULP energy per Si atom -5576.598388 kJ/mol
# Density = 0.985406 g / cm^3
# Si number density = 9.876543 Si / 1000 Ang^3
#
#
#
# Elastic Constant Matrix: (Units=GPa)
#
#
# Indices 1 2 3 4 5 6 
#
# 1 22.7101 1.2572 13.9609 0.0000 8.6646 0.0000
# 2 1.2572 107.5322 50.6268 0.0000 -3.7377 0.0000
# 3 13.9609 50.6268 57.6326 0.0000 -8.0656 0.0000
# 4 0.0000 0.0000 0.0000 28.6060 0.0000 -3.0968
# 5 8.6646 -3.7377 -8.0656 0.0000 31.5344 0.0000
# 6 0.0000 0.0000 0.0000 -3.0968 0.0000 19.7282
#
#
#
# Elastic Compliance Matrix: (Units=1/GPa)
#
#
# Indices 1 2 3 4 5 6 
#
# 1 0.075442 0.014652 -0.035059 0.000000 -0.027959 0.000000
# 2 0.014652 0.018797 -0.021067 0.000000 -0.007186 0.000000
# 3 -0.035059 -0.021067 0.047032 0.000000 0.019166 0.000000
# 4 0.000000 0.000000 0.000000 0.035562 0.000000 0.005582
# 5 -0.027959 -0.007186 0.019166 0.000000 0.043444 0.000000
# 6 0.000000 0.000000 0.000000 0.005582 0.000000 0.051565
#
#
# Mechanical properties :
#
#
# Convention : Reuss Voigt Hill
#
# Bulk Modulus (GPa) = 17.14576 35.50719 26.32648
# Shear Modulus (GPa) = 13.36072 24.10904 18.73488
#
# Velocity S-wave (km/s) = 2.60356 3.49738 3.08304
# Velocity P-wave (km/s) = 4.21153 5.85862 5.10198
#
# Compressibility (1/GPa) = 0.05832344
#
# Stress axis : x y z
#
# Youngs Moduli (GPa) = 13.25521 53.20023 21.26199
#
# Poissons Ratio (x) = -0.77949 0.74542
# Poissons Ratio (y) = -0.19422 0.44793
# Poissons Ratio (z) = 0.46471 1.12077
#
# Static dielectric constant tensor:
#      x y z
#    x 1.723130 0.000000 -0.014540 
#    y 0.000000 1.759520 0.000000 
#    z -0.014540 0.000000 1.686950 
# 
# From -- ./inp_files/290122.got.cif
#   From: 2010.05.17/outbox.ucp.g08.bks.cvg/sg12_146_cif.got.tgz:290122.got - 2010.06.11 11:47:21.
