data_PCOD9224148
_publ_section_title
;
Structure prediction by ZEFSAII (Michael W. Deem and Ramdas Pophale) SiO2 
 PCOD9224148
Probable space group: C 2/M
;
_chemical_formula_sum "Si O2"
_cell_formula_units_Z 24
_cell_length_a 30.000000
_cell_length_b 9.000000
_cell_length_c 18.000000
_cell_angle_alpha 90.000000
_cell_angle_beta 150.000000
_cell_angle_gamma 90.000000
_cell_volume 2430.000000
_symmetry_space_group_name_H-M "C 2/M"
_symmetry_group_IT_number 12
_symmetry_cell_setting 'monoclinic'
loop_
_space_group_symop_operation_xyz
x,y,z
-x,y,-z
-x,-y,-z
x,-y,z
1/2+x,1/2+y,z
1/2-x,1/2+y,-z
1/2-x,1/2-y,-z
1/2+x,1/2-y,z
loop_
_atom_site_type_symbol
_atom_site_label
_atom_site_fract_x
_atom_site_fract_y
_atom_site_fract_z
Si Si1 0.665836 0.677278 0.565615
Si Si2 0.154642 0.674068 0.862588
Si Si3 0.519017 0.680101 0.783196
Si Si4 0.219071 0.165105 0.382831
Si Si5 0.106160 0.832216 0.647284
Si Si6 0.991439 0.169069 0.908518
O O1 0.677980 0.500000 0.578100
O O2 0.578722 0.716276 0.390659
O O3 0.749649 0.755786 0.647804
O O4 0.642107 0.709645 0.617381
O O5 0.158108 0.500000 0.881802
O O6 0.090970 0.750257 0.831739
O O7 0.124647 0.710484 0.735805
O O8 0.250000 0.750000 0.000000
O O9 0.526824 0.500000 0.793150
O O10 0.525362 0.729430 0.878609
O O11 0.250000 0.250000 0.500000
O O12 0.114434 0.154452 0.246303
O O13 0.257762 0.000000 0.436793
O O14 0.000000 0.847100 0.500000
O O15 0.142087 0.000000 0.716609
O O16 0.030613 0.000000 0.971687
O O17 0.000000 0.250449 0.000000
#
# Coordination Sequence:
#
# PCOD9224148 Si02
#       6
#     8   8   8   8   8   8
#     4  10  20  36  61  91 121 157 198 244 304 366
#     4  12  26  42  62  90 124 159 205 252 305 364
#     4  10  19  38  63  86 118 160 201 242 307 368
#     4  11  21  35  57  86 119 155 202 250 299 354
#     4  10  20  39  64  88 120 159 200 246 306 367
#     4   9  19  36  59  86 117 155 198 243 294 354
#
# _framework density 9.8765429999999999
#
# number of rings (size 3 to 8) (size 9 to 14) (size 15 to 20)
#    0.000    1.667    3.333    2.000    0.000    3.000 
#    0.000    1.667    0.000    3.500    0.000    0.000 
#    0.000    0.000    0.000    0.000    0.000    0.000 
#
# Total GULP energy -133711.827820 kJ/mol
# GULP energy per Si atom -5571.326159 kJ/mol
# Density = 0.985406 g / cm^3
# Si number density = 9.876543 Si / 1000 Ang^3
#
#
#
# Elastic Constant Matrix: (Units=GPa)
#
#
# Indices 1 2 3 4 5 6 
#
# 1 168.0354 37.1835 2.5667 0.0000 -23.7659 0.0000
# 2 37.1835 43.6072 16.7637 0.0000 -4.0361 0.0000
# 3 2.5667 16.7637 28.3301 0.0000 -13.1985 0.0000
# 4 0.0000 0.0000 0.0000 36.2281 0.0000 -24.2870
# 5 -23.7659 -4.0361 -13.1985 0.0000 29.8875 0.0000
# 6 0.0000 0.0000 0.0000 -24.2870 0.0000 54.2963
#
#
#
# Elastic Compliance Matrix: (Units=1/GPa)
#
#
# Indices 1 2 3 4 5 6 
#
# 1 0.010022 -0.011890 0.011448 0.000000 0.011419 0.000000
# 2 -0.011890 0.044328 -0.033703 0.000000 -0.018352 0.000000
# 3 0.011448 -0.033703 0.070914 0.000000 0.035868 0.000000
# 4 0.000000 0.000000 0.000000 0.039425 0.000000 0.017635
# 5 0.011419 -0.018352 0.035868 0.000000 0.055900 0.000000
# 6 0.000000 0.000000 0.000000 0.017635 0.000000 0.026306
#
#
# Mechanical properties :
#
#
# Convention : Reuss Voigt Hill
#
# Bulk Modulus (GPa) = 17.55172 39.22230 28.38701
# Shear Modulus (GPa) = 14.96214 36.31296 25.63755
#
# Velocity S-wave (km/s) = 2.75518 4.29224 3.60655
# Velocity P-wave (km/s) = 4.36191 6.66812 5.63427
#
# Compressibility (1/GPa) = 0.05697447
#
# Stress axis : x y z
#
# Youngs Moduli (GPa) = 99.77693 22.55918 14.10161
#
# Poissons Ratio (x) = 0.26822 -0.16143
# Poissons Ratio (y) = 1.18633 0.47526
# Poissons Ratio (z) = -1.14220 0.76030
#
# Static dielectric constant tensor:
#      x y z
#    x 1.606200 0.000000 0.080540 
#    y 0.000000 1.723320 0.000000 
#    z 0.080540 0.000000 1.517240 
# 
# From -- ./inp_files/274585.got.cif
#   From: 2010.05.17/outbox.ucp.g08.bks.cvg/sg12_138_cif.got.tgz:274585.got - 2010.06.11 11:47:21.
