data_PCOD9224653
_publ_section_title
;
Structure prediction by ZEFSAII (Michael W. Deem and Ramdas Pophale) SiO2 
 PCOD9224653
Probable space group: C 2/M
;
_chemical_formula_sum "Si O2"
_cell_formula_units_Z 32
_cell_length_a 30.000000
_cell_length_b 9.000000
_cell_length_c 24.000000
_cell_angle_alpha 90.000000
_cell_angle_beta 150.000000
_cell_angle_gamma 90.000000
_cell_volume 3240.000000
_symmetry_space_group_name_H-M "C 2/M"
_symmetry_group_IT_number 12
_symmetry_cell_setting 'monoclinic'
loop_
_space_group_symop_operation_xyz
x,y,z
-x,y,-z
-x,-y,-z
x,-y,z
1/2+x,1/2+y,z
1/2-x,1/2+y,-z
1/2-x,1/2-y,-z
1/2+x,1/2-y,z
loop_
_atom_site_type_symbol
_atom_site_label
_atom_site_fract_x
_atom_site_fract_y
_atom_site_fract_z
Si Si1 0.386934 0.322396 0.035686
Si Si2 0.428370 0.322557 0.305071
Si Si3 0.213933 0.319423 0.268978
Si Si4 0.848412 0.819369 0.609973
Si Si5 0.618911 0.320808 0.479564
Si Si6 0.236073 0.821874 0.802041
Si Si7 0.557943 0.179474 0.180350
Si Si8 0.348264 0.821433 0.108176
O O1 0.392154 0.500000 0.045786
O O2 0.461910 0.255328 0.076298
O O3 0.397826 0.247525 0.108126
O O4 0.293874 0.267393 0.909487
O O5 0.422440 0.500000 0.285763
O O6 0.532141 0.283164 0.421532
O O7 0.366802 0.298070 0.292267
O O8 0.391340 0.232456 0.212320
O O9 0.217167 0.500000 0.272283
O O10 0.290979 0.264197 0.394391
O O11 0.236225 0.274484 0.230084
O O12 0.119246 0.280501 0.193679
O O13 0.750000 0.750000 0.500000
O O14 0.891551 0.779839 0.596620
O O15 0.895640 0.744420 0.713787
O O16 0.847170 0.000000 0.614209
O O17 0.626405 0.500000 0.487297
O O18 0.253718 0.000000 0.826696
O O19 0.551309 0.000000 0.176488
O O20 0.344500 0.000000 0.100331
O O21 0.250000 0.750000 0.000000
#
# Coordination Sequence:
#
# PCOD9224653 Si02
#       8
#     8   8   8   8   8   8   8   8
#     4  12  25  41  61  87 121 157 197 247 302 360
#     4  10  20  35  60  91 123 156 196 243 294 349
#     4   9  19  37  60  86 118 157 203 251 295 348
#     4  11  20  34  58  87 122 158 197 243 301 363
#     4   9  18  34  57  87 120 154 192 242 292 347
#     4  10  21  38  61  87 116 157 206 250 295 349
#     4  11  22  39  62  88 120 157 200 249 303 361
#     4  12  23  38  62  90 122 157 196 240 297 359
#
# _framework density 9.8765429999999999
#
# number of rings (size 3 to 8) (size 9 to 14) (size 15 to 20)
#    0.000    1.500    2.500    3.750    0.000    2.000 
#    0.000    6.875    0.000    0.000    0.000    1.750 
#    0.000    0.000    0.000    0.000    0.000    0.000 
#
# Total GULP energy -178710.250937 kJ/mol
# GULP energy per Si atom -5584.695342 kJ/mol
# Density = 0.985406 g / cm^3
# Si number density = 9.876543 Si / 1000 Ang^3
#
#
#
# Elastic Constant Matrix: (Units=GPa)
#
#
# Indices 1 2 3 4 5 6 
#
# 1 147.8882 32.3017 14.3686 0.0000 15.2430 0.0000
# 2 32.3017 80.9153 3.6988 0.0000 8.1852 0.0000
# 3 14.3686 3.6988 20.1299 0.0000 17.5144 0.0000
# 4 0.0000 0.0000 0.0000 25.1266 0.0000 -0.3487
# 5 15.2430 8.1852 17.5144 0.0000 37.3163 0.0000
# 6 0.0000 0.0000 0.0000 -0.3487 0.0000 19.2277
#
#
#
# Elastic Compliance Matrix: (Units=1/GPa)
#
#
# Indices 1 2 3 4 5 6 
#
# 1 0.007897 -0.002899 -0.004818 0.000000 -0.000328 0.000000
# 2 -0.002899 0.013704 0.001921 0.000000 -0.002723 0.000000
# 3 -0.004818 0.001921 0.086908 0.000000 -0.039243 0.000000
# 4 0.000000 0.000000 0.000000 0.039809 0.000000 0.000722
# 5 -0.000328 -0.002723 -0.039243 0.000000 0.045948 0.000000
# 6 0.000000 0.000000 0.000000 0.000722 0.000000 0.052021
#
#
# Mechanical properties :
#
#
# Convention : Reuss Voigt Hill
#
# Bulk Modulus (GPa) = 10.31835 38.85242 24.58539
# Shear Modulus (GPa) = 17.23035 29.57175 23.40105
#
# Velocity S-wave (km/s) = 2.95665 3.87340 3.44565
# Velocity P-wave (km/s) = 4.10983 6.30206 5.32009
#
# Compressibility (1/GPa) = 0.09691468
#
# Stress axis : x y z
#
# Youngs Moduli (GPa) = 126.62920 72.97368 11.50642
#
# Poissons Ratio (x) = 0.21156 0.05544
# Poissons Ratio (y) = 0.36711 -0.02210
# Poissons Ratio (z) = 0.61016 -0.14015
#
# Static dielectric constant tensor:
#      x y z
#    x 1.722840 0.000000 0.038220 
#    y 0.000000 1.653920 0.000000 
#    z 0.038220 0.000000 1.729340 
# 
# From -- ./inp_files/249053.got.cif
#   From: 2010.05.17/outbox.ucp.g08.bks.cvg/sg12_125_cif.got.tgz:249053.got - 2010.06.11 11:47:21.
