data_PCOD9224973
_publ_section_title
;
Structure prediction by ZEFSAII (Michael W. Deem and Ramdas Pophale) SiO2 
 PCOD9224973
Probable space group: C 2/M
;
_chemical_formula_sum "Si O2"
_cell_formula_units_Z 24
_cell_length_a 24.000000
_cell_length_b 9.000000
_cell_length_c 12.000000
_cell_angle_alpha 90.000000
_cell_angle_beta 80.000000
_cell_angle_gamma 90.000000
_cell_volume 2552.621696
_symmetry_space_group_name_H-M "C 2/M"
_symmetry_group_IT_number 12
_symmetry_cell_setting 'monoclinic'
loop_
_space_group_symop_operation_xyz
x,y,z
-x,y,-z
-x,-y,-z
x,-y,z
1/2+x,1/2+y,z
1/2-x,1/2+y,-z
1/2-x,1/2-y,-z
1/2+x,1/2-y,z
loop_
_atom_site_type_symbol
_atom_site_label
_atom_site_fract_x
_atom_site_fract_y
_atom_site_fract_z
Si Si1 0.371273 0.323687 0.044150
Si Si2 0.148593 0.676672 0.591721
Si Si3 0.155148 0.178004 0.346183
Si Si4 0.272392 0.678376 0.248264
Si Si5 0.581131 0.177061 0.190456
Si Si6 0.448635 0.825584 0.199802
O O1 0.374464 0.500000 0.022238
O O2 0.311619 0.291602 0.126517
O O3 0.419240 0.273902 0.115946
O O4 0.383132 0.234360 0.927650
O O5 0.160358 0.500000 0.578139
O O6 0.151078 0.753585 0.471230
O O7 0.193599 0.753911 0.658435
O O8 0.087965 0.693772 0.674640
O O9 0.211750 0.243790 0.269245
O O10 0.103153 0.236426 0.290596
O O11 0.157394 0.000000 0.349420
O O12 0.266797 0.500000 0.261744
O O13 0.514675 0.206245 0.192005
O O14 0.588382 0.000000 0.202326
O O15 0.442859 0.000000 0.169094
#
# Coordination Sequence:
#
# PCOD9224973 Si02
#       6
#     8   8   8   8   8   8
#     4  10  21  37  60  88 115 145 185 233 281 329
#     4  10  20  38  62  86 113 146 187 232 278 329
#     4  12  25  39  56  82 115 150 189 232 283 336
#     4  10  21  39  61  85 113 147 188 231 278 332
#     4  11  23  39  58  82 115 153 190 228 276 334
#     4   9  20  38  61  86 112 148 190 229 273 331
#
# _framework density 9.4020980000000005
#
# number of rings (size 3 to 8) (size 9 to 14) (size 15 to 20)
#    0.000    1.667    0.000    4.500    0.000    7.333 
#    0.000    3.333    0.000    0.000    0.000    0.000 
#    0.000    0.000    0.000    0.000    0.000    0.000 
#
# Total GULP energy -134173.061017 kJ/mol
# GULP energy per Si atom -5590.544209 kJ/mol
# Density = 0.938070 g / cm^3
# Si number density = 9.402098 Si / 1000 Ang^3
#
#
#
# Elastic Constant Matrix: (Units=GPa)
#
#
# Indices 1 2 3 4 5 6 
#
# 1 13.8227 14.1433 15.6033 0.0000 -3.0272 0.0000
# 2 14.1433 91.4431 14.0464 0.0000 -7.8737 0.0000
# 3 15.6033 14.0464 15.8534 0.0000 -8.2671 0.0000
# 4 0.0000 0.0000 0.0000 37.9307 0.0000 2.1796
# 5 -3.0272 -7.8737 -8.2671 0.0000 12.7959 0.0000
# 6 0.0000 0.0000 0.0000 2.1796 0.0000 31.3760
#
#
#
# Elastic Compliance Matrix: (Units=1/GPa)
#
#
# Indices 1 2 3 4 5 6 
#
# 1 -0.216607 0.001780 0.279693 0.000000 0.130554 0.000000
# 2 0.001780 0.012650 -0.013093 0.000000 -0.000254 0.000000
# 3 0.279693 -0.013093 -0.256825 0.000000 -0.107816 0.000000
# 4 0.000000 0.000000 0.000000 0.026470 0.000000 -0.001839
# 5 0.130554 -0.000254 -0.107816 0.000000 0.039223 0.000000
# 6 0.000000 0.000000 0.000000 -0.001839 0.000000 0.031999
#
#
# Mechanical properties :
#
#
# Convention : Reuss Voigt Hill
#
# Bulk Modulus (GPa) = 13.16162 23.18950 18.17556
# Shear Modulus (GPa) = -5.71738 21.57561 7.92911
#
# Velocity S-wave (km/s) = -1.74559 3.39098 2.05568
# Velocity P-wave (km/s) = 1.71806 5.26218 3.91422
#
# Compressibility (1/GPa) = 0.07597847
#
# Stress axis : x y z
#
# Youngs Moduli (GPa) = -4.61666 79.05362 -3.89370
#
# Poissons Ratio (x) = -0.14075 1.08904
# Poissons Ratio (y) = 0.00822 -0.05098
# Poissons Ratio (z) = 1.29125 1.03501
#
# Static dielectric constant tensor:
#      x y z
#    x 1.642060 0.000000 -0.010500 
#    y 0.000000 1.622130 0.000000 
#    z -0.010500 0.000000 1.638350 
# 
# From -- ./inp_files/172100.got.cif
#   From: 2010.05.17/outbox.ucp.g08.bks.cvg/sg12_87_cif.got.tgz:172100.got - 2010.06.11 11:47:21.
