data_PCOD9224195
_publ_section_title
;
Structure prediction by ZEFSAII (Michael W. Deem and Ramdas Pophale) SiO2 
 PCOD9224195
Probable space group: C 2/M
;
_chemical_formula_sum "Si O2"
_cell_formula_units_Z 24
_cell_length_a 18.000000
_cell_length_b 24.000000
_cell_length_c 12.000000
_cell_angle_alpha 90.000000
_cell_angle_beta 30.000000
_cell_angle_gamma 90.000000
_cell_volume 2592.000000
_symmetry_space_group_name_H-M "C 2/M"
_symmetry_group_IT_number 12
_symmetry_cell_setting 'monoclinic'
loop_
_space_group_symop_operation_xyz
x,y,z
-x,y,-z
-x,-y,-z
x,-y,z
1/2+x,1/2+y,z
1/2-x,1/2+y,-z
1/2-x,1/2-y,-z
1/2+x,1/2-y,z
loop_
_atom_site_type_symbol
_atom_site_label
_atom_site_fract_x
_atom_site_fract_y
_atom_site_fract_z
Si Si1 0.671901 0.353327 0.278361
Si Si2 0.245441 0.852182 0.930730
Si Si3 0.143170 0.066531 0.892831
Si Si4 0.844749 0.264356 0.634879
Si Si5 0.925858 0.371950 0.418515
Si Si6 0.434073 0.935910 0.962675
O O1 0.500000 0.368738 0.500000
O O2 0.703254 0.299536 0.316132
O O3 0.775422 0.405471 0.170395
O O4 0.705789 0.335278 0.107011
O O5 0.143039 0.900303 0.010461
O O6 0.240873 0.799884 0.853112
O O7 0.416995 0.873509 0.718159
O O8 0.293039 0.091232 0.642050
O O9 0.152905 0.000000 0.894896
O O10 0.000000 0.078057 0.000000
O O11 0.874904 0.307058 0.494051
O O12 0.000000 0.259073 0.500000
O O13 0.965359 0.397758 0.248331
O O14 0.425980 0.000000 0.931904
O O15 0.500000 0.936776 0.000000
#
# Coordination Sequence:
#
# PCOD9224195 Si02
#       6
#     8   8   8   8   8   8
#     4  10  20  34  54  80 108 141 180 224 269 321
#     4   9  18  32  53  77 105 141 180 219 264 327
#     4  10  20  32  49  78 112 142 177 228 283 319
#     4   8  15  31  55  82 106 131 171 225 279 320
#     4   9  18  35  58  80 101 139 188 227 265 322
#     4  10  22  39  56  76 109 152 189 221 264 320
#
# _framework density 9.2592590000000001
#
# number of rings (size 3 to 8) (size 9 to 14) (size 15 to 20)
#    0.000    2.667    0.000    2.500    0.000    7.000 
#    0.000    5.833    0.000    0.000    0.000    3.500 
#    0.000    0.000    0.000    0.000    0.000    0.000 
#
# Total GULP energy -133651.898552 kJ/mol
# GULP energy per Si atom -5568.829106 kJ/mol
# Density = 0.923818 g / cm^3
# Si number density = 9.259259 Si / 1000 Ang^3
#
#
#
# Elastic Constant Matrix: (Units=GPa)
#
#
# Indices 1 2 3 4 5 6 
#
# 1 45.8090 28.6083 17.1074 0.0112 2.8581 -0.0112
# 2 28.6083 95.3629 35.9542 0.0142 8.4516 -0.0168
# 3 17.1074 35.9542 73.7127 0.0209 -1.9166 -0.0253
# 4 0.0112 0.0142 0.0209 16.1556 -0.0162 6.2338
# 5 2.8581 8.4516 -1.9166 -0.0162 18.4604 0.0180
# 6 -0.0112 -0.0168 -0.0253 6.2338 0.0180 19.7150
#
#
#
# Elastic Compliance Matrix: (Units=1/GPa)
#
#
# Indices 1 2 3 4 5 6 
#
# 1 0.027382 -0.006966 -0.002993 -0.000015 -0.001361 0.000012
# 2 -0.006966 0.015463 -0.006098 -0.000012 -0.006634 0.000011
# 3 -0.002993 -0.006098 0.017367 -0.000016 0.005058 0.000016
# 4 -0.000015 -0.000012 -0.000016 0.070499 0.000090 -0.022292
# 5 -0.001361 -0.006634 0.005058 0.000090 0.057943 -0.000081
# 6 0.000012 0.000011 0.000016 -0.022292 -0.000081 0.057771
#
#
# Mechanical properties :
#
#
# Convention : Reuss Voigt Hill
#
# Bulk Modulus (GPa) = 35.58834 42.02494 38.80664
# Shear Modulus (GPa) = 17.36679 19.74719 18.55699
#
# Velocity S-wave (km/s) = 3.06569 3.26904 3.16899
# Velocity P-wave (km/s) = 5.63832 6.08207 5.86439
#
# Compressibility (1/GPa) = 0.02809909
#
# Stress axis : x y z
#
# Youngs Moduli (GPa) = 36.51969 64.67053 57.58136
#
# Poissons Ratio (x) = 0.45047 0.17233
# Poissons Ratio (y) = 0.25438 0.35114
# Poissons Ratio (z) = 0.10930 0.39437
#
# Static dielectric constant tensor:
#      x y z
#    x 1.627370 0.000000 0.033970 
#    y 0.000000 1.661480 0.000000 
#    z 0.033970 0.000000 1.692530 
# 
# From -- ./inp_files/99830.got.cif
#   From: 2010.05.17/outbox.ucp.g08.bks.cvg/sg12_50_cif.got.tgz:99830.got - 2010.06.11 11:47:21.
