data_PCOD9224867
_publ_section_title
;
Structure prediction by ZEFSAII (Michael W. Deem and Ramdas Pophale) SiO2 
 PCOD9224867
Probable space group: C 2/M
;
_chemical_formula_sum "Si O2"
_cell_formula_units_Z 24
_cell_length_a 21.000000
_cell_length_b 9.000000
_cell_length_c 27.000000
_cell_angle_alpha 90.000000
_cell_angle_beta 30.000000
_cell_angle_gamma 90.000000
_cell_volume 2551.500000
_symmetry_space_group_name_H-M "C 2/M"
_symmetry_group_IT_number 12
_symmetry_cell_setting 'monoclinic'
loop_
_space_group_symop_operation_xyz
x,y,z
-x,y,-z
-x,-y,-z
x,-y,z
1/2+x,1/2+y,z
1/2-x,1/2+y,-z
1/2-x,1/2-y,-z
1/2+x,1/2-y,z
loop_
_atom_site_type_symbol
_atom_site_label
_atom_site_fract_x
_atom_site_fract_y
_atom_site_fract_z
Si Si1 0.141099 0.822859 0.923644
Si Si2 0.573110 0.820548 0.579461
Si Si3 0.669782 0.821278 0.008613
Si Si4 0.189969 0.676773 0.287970
Si Si5 0.843305 0.321096 0.371405
Si Si6 0.116448 0.678046 0.767433
O O1 0.232753 0.800450 0.815074
O O2 0.133766 0.000000 0.939182
O O3 0.193492 0.742528 0.937519
O O4 0.000000 0.774111 0.000000
O O5 0.453308 0.770343 0.627437
O O6 0.705673 0.751161 0.472851
O O7 0.566393 0.782584 0.642752
O O8 0.578616 0.000000 0.572351
O O9 0.520335 0.784653 0.117463
O O10 0.685771 0.000000 0.999060
O O11 0.750000 0.750000 0.000000
O O12 0.185664 0.500000 0.300428
O O13 0.267861 0.751686 0.279803
O O14 0.830628 0.500000 0.380429
O O15 0.888186 0.275297 0.286885
O O16 0.130661 0.500000 0.759523
#
# Coordination Sequence:
#
# PCOD9224867 Si02
#       6
#     8   8   8   8   8   8
#     4  10  20  37  60  83 113 151 187 226 277 333
#     4   9  19  36  58  82 107 141 184 227 276 330
#     4  11  24  39  58  84 115 150 189 232 279 331
#     4  10  21  36  58  84 112 148 185 227 276 330
#     4   9  19  37  58  79 108 144 182 226 277 328
#     4  10  22  38  57  81 112 148 183 228 278 329
#
# _framework density 9.4062319999999993
#
# number of rings (size 3 to 8) (size 9 to 14) (size 15 to 20)
#    0.000    2.167    1.667    0.500    2.333    3.667 
#    0.000    3.333    0.000    0.000    0.000    0.000 
#    0.000    0.000    0.000    0.000    0.000    0.000 
#
# Total GULP energy -133893.763761 kJ/mol
# GULP energy per Si atom -5578.906823 kJ/mol
# Density = 0.938482 g / cm^3
# Si number density = 9.406232 Si / 1000 Ang^3
#
#
#
# Elastic Constant Matrix: (Units=GPa)
#
#
# Indices 1 2 3 4 5 6 
#
# 1 78.6171 11.7507 -9.4667 0.0000 0.1878 -0.0001
# 2 11.7507 13.6973 -1.4185 0.0000 3.2040 -0.0002
# 3 -9.4667 -1.4185 12.7996 0.0000 -1.1142 0.0000
# 4 0.0000 0.0000 0.0000 19.9158 0.0000 -2.7600
# 5 0.1878 3.2040 -1.1142 0.0000 35.1523 0.0000
# 6 -0.0001 -0.0002 0.0000 -2.7600 0.0000 39.6101
#
#
#
# Elastic Compliance Matrix: (Units=1/GPa)
#
#
# Indices 1 2 3 4 5 6 
#
# 1 0.015903 -0.012892 0.010457 0.000000 0.001422 0.000000
# 2 -0.012892 0.085813 -0.000702 0.000000 -0.007775 0.000000
# 3 0.010457 -0.000702 0.086021 0.000000 0.002735 0.000000
# 4 0.000000 0.000000 0.000000 0.050701 0.000000 0.003533
# 5 0.001422 -0.007775 0.002735 0.000000 0.029235 0.000000
# 6 0.000000 0.000000 0.000000 0.003533 0.000000 0.025492
#
#
# Mechanical properties :
#
#
# Convention : Reuss Voigt Hill
#
# Bulk Modulus (GPa) = 5.51079 11.87168 8.69124
# Shear Modulus (GPa) = 13.89164 25.88553 19.88859
#
# Velocity S-wave (km/s) = 2.72035 3.71344 3.25499
# Velocity P-wave (km/s) = 3.57810 4.97096 4.33089
#
# Compressibility (1/GPa) = 0.18146206
#
# Stress axis : x y z
#
# Youngs Moduli (GPa) = 62.88285 11.65320 11.62501
#
# Poissons Ratio (x) = 0.15024 -0.12156
# Poissons Ratio (y) = 0.81070 0.00816
# Poissons Ratio (z) = -0.65754 0.00818
#
# Static dielectric constant tensor:
#      x y z
#    x 1.638820 0.000000 0.015920 
#    y 0.000000 1.637020 0.000000 
#    z 0.015920 0.000000 1.675360 
# 
# From -- ./inp_files/229276.got.cif
#   From: 2010.05.17/outbox.ucp.g08.bks.cvg/sg12_115_cif.got.tgz:229276.got - 2010.06.11 11:47:21.
