data_PCOD9224478
_publ_section_title
;
Structure prediction by ZEFSAII (Michael W. Deem and Ramdas Pophale) SiO2 
 PCOD9224478
Probable space group: C 2/M
;
_chemical_formula_sum "Si O2"
_cell_formula_units_Z 32
_cell_length_a 24.000000
_cell_length_b 9.000000
_cell_length_c 21.000000
_cell_angle_alpha 90.000000
_cell_angle_beta 50.000000
_cell_angle_gamma 90.000000
_cell_volume 3474.777594
_symmetry_space_group_name_H-M "C 2/M"
_symmetry_group_IT_number 12
_symmetry_cell_setting 'monoclinic'
loop_
_space_group_symop_operation_xyz
x,y,z
-x,y,-z
-x,-y,-z
x,-y,z
1/2+x,1/2+y,z
1/2-x,1/2+y,-z
1/2-x,1/2-y,-z
1/2+x,1/2-y,z
loop_
_atom_site_type_symbol
_atom_site_label
_atom_site_fract_x
_atom_site_fract_y
_atom_site_fract_z
Si Si1 0.490410 0.679417 0.173913
Si Si2 0.210217 0.179154 0.271853
Si Si3 0.780510 0.177609 0.881127
Si Si4 0.549767 0.680738 0.405545
Si Si5 0.668039 0.321088 0.732173
Si Si6 0.181154 0.321829 0.583476
Si Si7 0.032791 0.180386 0.661938
Si Si8 0.144511 0.821317 0.045117
O O1 0.492986 0.500000 0.172337
O O2 0.416202 0.719988 0.193667
O O3 0.490713 0.720739 0.248664
O O4 0.564203 0.732820 0.088248
O O5 0.202585 0.218596 0.203156
O O6 0.132684 0.223104 0.357842
O O7 0.276482 0.260224 0.256877
O O8 0.219292 0.000000 0.270499
O O9 0.837652 0.217655 0.894326
O O10 0.774707 0.000000 0.887187
O O11 0.705411 0.249401 0.957467
O O12 0.500000 0.733216 0.500000
O O13 0.548377 0.500000 0.406115
O O14 0.519754 0.723427 0.357698
O O15 0.673601 0.500000 0.721965
O O16 0.681792 0.243260 0.654409
O O17 0.182466 0.500000 0.583019
O O18 0.250000 0.250000 0.500000
O O19 0.110226 0.259860 0.599351
O O20 0.040887 0.000000 0.654487
O O21 0.148846 0.000000 0.036391
#
# Coordination Sequence:
#
# PCOD9224478 Si02
#       8
#     8   8   8   8   8   8   8   8
#     4   8  15  30  52  75  99 132 174 218 263 308
#     4  10  20  35  54  76 109 147 178 214 267 328
#     4   9  18  31  49  78 109 137 170 215 270 320
#     4   9  18  31  51  79 104 134 176 215 256 315
#     4  10  21  37  55  78 105 139 180 222 267 317
#     4  11  22  36  55  78 104 136 176 221 268 314
#     4   9  17  32  53  77 105 134 171 218 263 313
#     4   9  16  30  54  78 102 135 178 223 262 313
#
# _framework density 9.2092220000000005
#
# number of rings (size 3 to 8) (size 9 to 14) (size 15 to 20)
#    0.000    2.625    0.000    3.000    1.750    3.500 
#    0.000    4.375    0.000    7.500    0.000    0.000 
#    0.000    0.000    0.000    0.000    0.000    0.000 
#
# Total GULP energy -178268.424827 kJ/mol
# GULP energy per Si atom -5570.888276 kJ/mol
# Density = 0.918826 g / cm^3
# Si number density = 9.209222 Si / 1000 Ang^3
#
#
#
# Elastic Constant Matrix: (Units=GPa)
#
#
# Indices 1 2 3 4 5 6 
#
# 1 47.4064 20.2458 59.5865 0.0000 -22.7367 0.0000
# 2 20.2458 18.3201 13.8574 0.0001 -2.1406 -0.0001
# 3 59.5865 13.8574 64.8259 0.0000 -26.1259 0.0000
# 4 0.0000 0.0001 0.0000 15.2509 0.0000 1.3271
# 5 -22.7367 -2.1406 -26.1259 0.0000 27.5630 0.0000
# 6 0.0000 -0.0001 0.0000 1.3271 0.0000 27.4429
#
#
#
# Elastic Compliance Matrix: (Units=1/GPa)
#
#
# Indices 1 2 3 4 5 6 
#
# 1 -0.090539 0.044771 0.072739 0.000000 -0.002261 0.000000
# 2 0.044771 0.046067 -0.056107 -0.000001 -0.012673 0.000000
# 3 0.072739 -0.056107 -0.027532 0.000001 0.029549 0.000000
# 4 0.000000 -0.000001 0.000001 0.065847 0.000000 -0.003184
# 5 -0.002261 -0.012673 0.029549 0.000000 0.061439 0.000000
# 6 0.000000 0.000000 0.000000 -0.003184 0.000000 0.036593
#
#
# Mechanical properties :
#
#
# Convention : Reuss Voigt Hill
#
# Bulk Modulus (GPa) = 19.68415 35.32574 27.50495
# Shear Modulus (GPa) = -357.26575 16.50887 -170.37844
#
# Velocity S-wave (km/s) = -13.94248 2.99711 -9.62835
# Velocity P-wave (km/s) = 15.76325 5.58553 10.42310
#
# Compressibility (1/GPa) = 0.05080229
#
# Stress axis : x y z
#
# Youngs Moduli (GPa) = -11.04502 21.70733 -36.32141
#
# Poissons Ratio (x) = -0.97185 2.64199
# Poissons Ratio (y) = 0.49449 -2.03789
# Poissons Ratio (z) = 0.80341 1.21794
#
# Static dielectric constant tensor:
#      x y z
#    x 1.638000 0.000000 -0.043420 
#    y 0.000000 1.616240 0.000000 
#    z -0.043420 0.000000 1.714320 
# 
# From -- ./inp_files/319934.got.cif
#   From: 2010.05.17/outbox.ucp.g08.bks.cvg/sg12_160_cif.got.tgz:319934.got - 2010.06.11 11:47:21.
