data_PCOD9224432
_publ_section_title
;
Structure prediction by ZEFSAII (Michael W. Deem and Ramdas Pophale) SiO2 
 PCOD9224432
Probable space group: C 2/M
;
_chemical_formula_sum "Si O2"
_cell_formula_units_Z 28
_cell_length_a 30.000000
_cell_length_b 9.000000
_cell_length_c 12.000000
_cell_angle_alpha 90.000000
_cell_angle_beta 120.000000
_cell_angle_gamma 90.000000
_cell_volume 2805.922308
_symmetry_space_group_name_H-M "C 2/M"
_symmetry_group_IT_number 12
_symmetry_cell_setting 'monoclinic'
loop_
_space_group_symop_operation_xyz
x,y,z
-x,y,-z
-x,-y,-z
x,-y,z
1/2+x,1/2+y,z
1/2-x,1/2+y,-z
1/2-x,1/2-y,-z
1/2+x,1/2-y,z
loop_
_atom_site_type_symbol
_atom_site_label
_atom_site_fract_x
_atom_site_fract_y
_atom_site_fract_z
Si Si1 0.195675 0.319608 0.168514
Si Si2 0.302315 0.178377 0.359287
Si Si3 0.652940 0.822654 0.353913
Si Si4 0.559878 0.670667 0.361734
Si Si5 0.969494 0.829625 0.075127
Si Si6 0.599697 0.322406 0.640143
Si Si7 0.387256 0.825163 0.106059
O O1 0.200153 0.500000 0.177765
O O2 0.250232 0.241545 0.244750
O O3 0.166241 0.270990 0.245983
O O4 0.166951 0.280604 0.017565
O O5 0.306757 0.216162 0.496961
O O6 0.348903 0.257587 0.353078
O O7 0.306386 0.000000 0.353053
O O8 0.599809 0.764039 0.338632
O O9 0.650509 0.000000 0.345711
O O10 0.578782 0.500000 0.384722
O O11 0.507362 0.673640 0.228471
O O12 0.558133 0.714581 0.490081
O O13 0.925805 0.715390 0.053771
O O14 0.949983 0.000000 0.038822
O O15 0.000000 0.794402 0.000000
O O16 0.600967 0.500000 0.654215
O O17 0.596705 0.254442 0.759603
O O18 0.387011 0.000000 0.126816
#
# Coordination Sequence:
#
# PCOD9224432 Si02
#       7
#     8   8   8   8   8   8   8
#     4  10  21  36  53  77 111 148 182 220 271 324
#     4  10  20  34  56  84 110 139 180 226 269 321
#     4   9  18  33  54  82 113 142 176 221 271 323
#     4   9  19  35  57  83 109 142 181 221 268 322
#     4  10  21  38  60  86 114 142 175 217 268 326
#     4  10  21  39  59  78 107 145 183 224 270 319
#     4  11  24  39  56  80 110 144 185 228 266 315
#
# _framework density 9.9788940000000004
#
# number of rings (size 3 to 8) (size 9 to 14) (size 15 to 20)
#    0.000    2.143    0.000    2.571    0.000    4.857 
#    0.000    2.857    0.000    0.000    0.000    0.000 
#    0.000    0.000    0.000    0.000    0.000    0.000 
#
# Total GULP energy -156157.003382 kJ/mol
# GULP energy per Si atom -5577.035835 kJ/mol
# Density = 0.995618 g / cm^3
# Si number density = 9.978894 Si / 1000 Ang^3
#
#
#
# Elastic Constant Matrix: (Units=GPa)
#
#
# Indices 1 2 3 4 5 6 
#
# 1 32.6167 6.1456 19.8536 0.0000 -13.8939 0.0000
# 2 6.1456 12.7811 35.0620 0.0000 -3.9708 0.0000
# 3 19.8536 35.0620 110.3719 0.0000 -13.4457 0.0000
# 4 0.0000 0.0000 0.0000 24.7961 0.0000 -8.0727
# 5 -13.8939 -3.9708 -13.4457 0.0000 27.5084 0.0000
# 6 0.0000 0.0000 0.0000 -8.0727 0.0000 24.5729
#
#
#
# Elastic Compliance Matrix: (Units=1/GPa)
#
#
# Indices 1 2 3 4 5 6 
#
# 1 0.041745 0.000715 -0.005482 0.000000 0.018509 0.000000
# 2 0.000715 0.609984 -0.194728 0.000000 -0.006767 0.000000
# 3 -0.005482 -0.194728 0.072459 0.000000 0.004539 0.000000
# 4 0.000000 0.000000 0.000000 0.045159 0.000000 0.014836
# 5 0.018509 -0.006767 0.004539 0.000000 0.046943 0.000000
# 6 0.000000 0.000000 0.000000 0.014836 0.000000 0.045569
#
#
# Mechanical properties :
#
#
# Convention : Reuss Voigt Hill
#
# Bulk Modulus (GPa) = 3.07503 30.87689 16.97596
# Shear Modulus (GPa) = 3.65164 21.68937 12.67051
#
# Velocity S-wave (km/s) = 1.35413 3.30018 2.52239
# Velocity P-wave (km/s) = 1.99724 5.47963 4.12403
#
# Compressibility (1/GPa) = 0.32520011
#
# Stress axis : x y z
#
# Youngs Moduli (GPa) = 23.95482 1.63939 13.80094
#
# Poissons Ratio (x) = -0.00117 0.07565
# Poissons Ratio (y) = -0.01714 2.68743
# Poissons Ratio (z) = 0.13131 0.31923
#
# Static dielectric constant tensor:
#      x y z
#    x 1.714900 0.000000 0.031910 
#    y 0.000000 1.677210 0.000000 
#    z 0.031910 0.000000 1.740280 
# 
# From -- ./inp_files/180619.got.cif
#   From: 2010.05.17/outbox.ucp.g08.bks.cvg/sg12_91_cif.got.tgz:180619.got - 2010.06.11 11:47:21.
