data_PCOD9224657
_publ_section_title
;
Structure prediction by ZEFSAII (Michael W. Deem and Ramdas Pophale) SiO2 
 PCOD9224657
Probable space group: C 2/M
;
_chemical_formula_sum "Si O2"
_cell_formula_units_Z 28
_cell_length_a 24.000000
_cell_length_b 9.000000
_cell_length_c 15.000000
_cell_angle_alpha 90.000000
_cell_angle_beta 70.000000
_cell_angle_gamma 90.000000
_cell_volume 3044.604091
_symmetry_space_group_name_H-M "C 2/M"
_symmetry_group_IT_number 12
_symmetry_cell_setting 'monoclinic'
loop_
_space_group_symop_operation_xyz
x,y,z
-x,y,-z
-x,-y,-z
x,-y,z
1/2+x,1/2+y,z
1/2-x,1/2+y,-z
1/2-x,1/2-y,-z
1/2+x,1/2-y,z
loop_
_atom_site_type_symbol
_atom_site_label
_atom_site_fract_x
_atom_site_fract_y
_atom_site_fract_z
Si Si1 0.817027 0.823238 0.870831
Si Si2 0.384410 0.322833 0.539761
Si Si3 0.740432 0.821621 0.407632
Si Si4 0.308268 0.323756 0.083862
Si Si5 0.062703 0.176498 0.300247
Si Si6 0.345529 0.823076 0.236778
Si Si7 0.059180 0.323946 0.665648
O O1 0.759449 0.733569 0.870932
O O2 0.875856 0.788471 0.783309
O O3 0.804768 0.000000 0.867231
O O4 0.825884 0.794170 0.971448
O O5 0.373684 0.500000 0.540149
O O6 0.322956 0.238008 0.590335
O O7 0.427632 0.296294 0.599772
O O8 0.410938 0.263099 0.433024
O O9 0.750000 0.750000 0.500000
O O10 0.791864 0.760721 0.315834
O O11 0.741431 0.000000 0.412545
O O12 0.310936 0.500000 0.097807
O O13 0.347005 0.238799 0.135897
O O14 0.008061 0.268999 0.292881
O O15 0.051207 0.000000 0.295082
O O16 0.403711 0.795267 0.264708
O O17 0.334274 0.000000 0.242614
O O18 0.062413 0.500000 0.645769
#
# Coordination Sequence:
#
# PCOD9224657 Si02
#       7
#     8   8   8   8   8   8   8
#     4   9  19  38  61  87 119 149 183 233 292 349
#     4  11  22  37  59  85 115 153 192 235 288 343
#     4  12  23  36  57  85 116 150 188 234 283 338
#     4  10  20  35  61  92 116 146 187 234 289 347
#     4  10  22  39  59  82 111 150 192 235 288 344
#     4  11  23  39  57  81 116 156 192 234 290 342
#     4  11  24  39  56  79 112 154 197 240 285 337
#
# _framework density 9.1965979999999998
#
# number of rings (size 3 to 8) (size 9 to 14) (size 15 to 20)
#    0.000    1.429    1.429    4.286    0.000    6.857 
#    0.000    0.714    0.000    4.286    0.000    0.000 
#    0.000    0.000    0.000    0.000    0.000    0.000 
#
# Total GULP energy -156534.857863 kJ/mol
# GULP energy per Si atom -5590.530638 kJ/mol
# Density = 0.917567 g / cm^3
# Si number density = 9.196598 Si / 1000 Ang^3
#
#
#
# Elastic Constant Matrix: (Units=GPa)
#
#
# Indices 1 2 3 4 5 6 
#
# 1 97.4903 59.2825 40.3898 0.0000 18.2608 0.0000
# 2 59.2825 100.1718 40.9702 0.0000 19.0933 0.0000
# 3 40.3898 40.9702 65.6136 0.0000 22.5883 0.0000
# 4 0.0000 0.0000 0.0000 27.7384 0.0000 2.5345
# 5 18.2608 19.0933 22.5883 0.0000 23.2575 0.0000
# 6 0.0000 0.0000 0.0000 2.5345 0.0000 35.8566
#
#
#
# Elastic Compliance Matrix: (Units=1/GPa)
#
#
# Indices 1 2 3 4 5 6 
#
# 1 0.017610 -0.007880 -0.005088 0.000000 -0.002416 0.000000
# 2 -0.007880 0.017228 -0.004759 0.000000 -0.003334 0.000000
# 3 -0.005088 -0.004759 0.027979 0.000000 -0.019272 0.000000
# 4 0.000000 0.000000 0.000000 0.036285 0.000000 -0.002565
# 5 -0.002416 -0.003334 -0.019272 0.000000 0.066349 0.000000
# 6 0.000000 0.000000 0.000000 -0.002565 0.000000 0.028070
#
#
# Mechanical properties :
#
#
# Convention : Reuss Voigt Hill
#
# Bulk Modulus (GPa) = 36.54562 60.50673 48.52618
# Shear Modulus (GPa) = 20.99993 25.54606 23.27299
#
# Velocity S-wave (km/s) = 3.38260 3.73082 3.56097
# Velocity P-wave (km/s) = 5.93028 7.17819 6.58387
#
# Compressibility (1/GPa) = 0.02736306
#
# Stress axis : x y z
#
# Youngs Moduli (GPa) = 56.78736 58.04386 35.74108
#
# Poissons Ratio (x) = 0.45739 0.18184
# Poissons Ratio (y) = 0.44749 0.17009
# Poissons Ratio (z) = 0.28892 0.27623
#
# Static dielectric constant tensor:
#      x y z
#    x 1.622840 0.000000 0.010950 
#    y 0.000000 1.612930 0.000000 
#    z 0.010950 0.000000 1.635110 
# 
# From -- ./inp_files/237430.got.cif
#   From: 2010.05.17/outbox.ucp.g08.bks.cvg/sg12_119_cif.got.tgz:237430.got - 2010.06.11 11:47:21.
