data_PCOD9224039
_publ_section_title
;
Structure prediction by ZEFSAII (Michael W. Deem and Ramdas Pophale) SiO2 
 PCOD9224039
Probable space group: C 2/M
;
_chemical_formula_sum "Si O2"
_cell_formula_units_Z 32
_cell_length_a 24.000000
_cell_length_b 9.000000
_cell_length_c 21.000000
_cell_angle_alpha 90.000000
_cell_angle_beta 120.000000
_cell_angle_gamma 90.000000
_cell_volume 3928.291232
_symmetry_space_group_name_H-M "C 2/M"
_symmetry_group_IT_number 12
_symmetry_cell_setting 'monoclinic'
loop_
_space_group_symop_operation_xyz
x,y,z
-x,y,-z
-x,-y,-z
x,-y,z
1/2+x,1/2+y,z
1/2-x,1/2+y,-z
1/2-x,1/2-y,-z
1/2+x,1/2-y,z
loop_
_atom_site_type_symbol
_atom_site_label
_atom_site_fract_x
_atom_site_fract_y
_atom_site_fract_z
Si Si1 0.605333 0.325989 0.562323
Si Si2 0.431822 0.821125 0.114854
Si Si3 0.575495 0.822037 0.741529
Si Si4 0.804048 0.821282 0.986254
Si Si5 0.689020 0.179094 0.710589
Si Si6 0.183249 0.180154 0.152261
Si Si7 0.513138 0.326102 0.405015
Si Si8 0.536179 0.678881 0.087746
O O1 0.621241 0.500000 0.565089
O O2 0.662160 0.238697 0.628657
O O3 0.576223 0.271395 0.478672
O O4 0.545569 0.316490 0.577768
O O5 0.424588 0.779414 0.184897
O O6 0.372996 0.742783 0.045333
O O7 0.497039 0.761449 0.120466
O O8 0.427640 0.000000 0.106917
O O9 0.638726 0.773043 0.737673
O O10 0.512566 0.760657 0.670210
O O11 0.574867 0.000000 0.738146
O O12 0.802836 0.000000 0.991429
O O13 0.750000 0.750000 0.000000
O O14 0.795205 0.781942 0.907072
O O15 0.760630 0.230910 0.768471
O O16 0.688328 0.000000 0.709375
O O17 0.110447 0.228386 0.124680
O O18 0.181474 0.000000 0.153534
O O19 0.521888 0.500000 0.395290
O O20 0.534179 0.500000 0.096828
O O21 0.500000 0.707350 0.000000
#
# Coordination Sequence:
#
# PCOD9224039 Si02
#       8
#     8   8   8   8   8   8   8   8
#     4   8  14  25  40  63  95 125 151 188 230 273
#     4  11  22  35  50  72  99 127 160 204 250 289
#     4   9  18  30  44  66  99 129 156 192 236 282
#     4  11  21  35  52  72  98 130 162 197 240 291
#     4   9  16  28  46  67  92 126 159 188 227 285
#     4   9  18  33  51  68  93 125 160 200 243 285
#     4   8  14  25  42  63  91 126 159 186 224 276
#     4  10  19  36  56  71  88 122 167 208 248 291
#
# _framework density 8.1460360000000005
#
# number of rings (size 3 to 8) (size 9 to 14) (size 15 to 20)
#    0.000    2.625    1.250    2.250    0.000    3.750 
#    0.000    6.875    0.000    0.000    0.000    0.875 
#    0.000    0.000    0.000    0.000    0.000    0.000 
#
# Total GULP energy -178253.665195 kJ/mol
# GULP energy per Si atom -5570.427037 kJ/mol
# Density = 0.812749 g / cm^3
# Si number density = 8.146036 Si / 1000 Ang^3
#
#
#
# Elastic Constant Matrix: (Units=GPa)
#
#
# Indices 1 2 3 4 5 6 
#
# 1 69.9019 12.3661 20.8613 0.0000 26.1231 0.0000
# 2 12.3661 15.2286 17.0614 0.0000 8.1551 0.0000
# 3 20.8613 17.0614 93.2517 0.0000 36.5348 0.0000
# 4 0.0000 0.0000 0.0000 23.6856 0.0000 -1.8739
# 5 26.1231 8.1551 36.5348 0.0000 20.5147 0.0000
# 6 0.0000 0.0000 0.0000 -1.8739 0.0000 20.9998
#
#
#
# Elastic Compliance Matrix: (Units=1/GPa)
#
#
# Indices 1 2 3 4 5 6 
#
# 1 0.085412 -0.031177 0.080567 0.000000 -0.239850 0.000000
# 2 -0.031177 0.096427 -0.037067 0.000000 0.067381 0.000000
# 3 0.080567 -0.037067 0.112164 0.000000 -0.287612 0.000000
# 4 0.000000 0.000000 0.000000 0.042520 0.000000 0.003794
# 5 -0.239850 0.067381 -0.287612 0.000000 0.839591 0.000000
# 6 0.000000 0.000000 0.000000 0.003794 0.000000 0.047958
#
#
# Mechanical properties :
#
#
# Convention : Reuss Voigt Hill
#
# Bulk Modulus (GPa) = 3.13825 30.99552 17.06689
# Shear Modulus (GPa) = 3.82953 21.57959 12.70456
#
# Velocity S-wave (km/s) = 1.53481 3.64338 2.79552
# Velocity P-wave (km/s) = 2.25195 6.06343 4.57364
#
# Compressibility (1/GPa) = 0.31864897
#
# Stress axis : x y z
#
# Youngs Moduli (GPa) = 11.70801 10.37052 8.91548
#
# Poissons Ratio (x) = 0.32333 -0.71829
# Poissons Ratio (y) = 0.36503 0.33047
# Poissons Ratio (z) = -0.94328 0.38440
#
# Static dielectric constant tensor:
#      x y z
#    x 1.531110 0.000000 0.016240 
#    y 0.000000 1.545090 0.000000 
#    z 0.016240 0.000000 1.566610 
# 
# From -- ./inp_files/323770.got.cif
#   From: 2010.05.17/outbox.ucp.g08.bks.cvg/sg12_162_cif.got.tgz:323770.got - 2010.06.11 11:47:21.
