data_PCOD9224067
_publ_section_title
;
Structure prediction by ZEFSAII (Michael W. Deem and Ramdas Pophale) SiO2 
 PCOD9224067
Probable space group: C 2/M
;
_chemical_formula_sum "Si O2"
_cell_formula_units_Z 32
_cell_length_a 18.000000
_cell_length_b 9.000000
_cell_length_c 30.000000
_cell_angle_alpha 90.000000
_cell_angle_beta 40.000000
_cell_angle_gamma 90.000000
_cell_volume 3123.947783
_symmetry_space_group_name_H-M "C 2/M"
_symmetry_group_IT_number 12
_symmetry_cell_setting 'monoclinic'
loop_
_space_group_symop_operation_xyz
x,y,z
-x,y,-z
-x,-y,-z
x,-y,z
1/2+x,1/2+y,z
1/2-x,1/2+y,-z
1/2-x,1/2-y,-z
1/2+x,1/2-y,z
loop_
_atom_site_type_symbol
_atom_site_label
_atom_site_fract_x
_atom_site_fract_y
_atom_site_fract_z
Si Si1 0.170670 0.677209 0.129958
Si Si2 0.240051 0.326717 0.274304
Si Si3 0.986390 0.170595 0.634500
Si Si4 0.082119 0.320852 0.503787
Si Si5 0.071766 0.176330 0.012330
Si Si6 0.780780 0.177133 0.354921
Si Si7 0.483070 0.326130 0.735429
Si Si8 0.982086 0.322398 0.142316
O O1 0.171124 0.500000 0.132921
O O2 0.297888 0.724699 0.057872
O O3 0.128066 0.740864 0.196584
O O4 0.080778 0.720749 0.132606
O O5 0.230040 0.500000 0.267286
O O6 0.142870 0.227154 0.297338
O O7 0.214735 0.310807 0.338770
O O8 0.365181 0.265431 0.206228
O O9 0.033833 0.184618 0.662355
O O10 0.046042 0.261790 0.568171
O O11 0.986854 0.000000 0.620609
O O12 0.081871 0.500000 0.505655
O O13 0.206711 0.264914 0.429842
O O14 0.000000 0.278480 0.500000
O O15 0.070852 0.000000 0.025041
O O16 0.022146 0.272489 0.075152
O O17 0.000000 0.191530 0.000000
O O18 0.907488 0.239530 0.288359
O O19 0.796375 0.000000 0.354710
O O20 0.461605 0.500000 0.754349
O O21 0.964320 0.500000 0.153049
#
# Coordination Sequence:
#
# PCOD9224067 Si02
#       8
#     8   8   8   8   8   8   8   8
#     4  10  22  40  62  89 121 156 200 247 289 344
#     4  11  21  38  64  87 113 157 204 246 292 353
#     4  11  24  38  55  88 126 155 192 249 309 355
#     4  10  19  36  60  85 112 153 206 248 289 354
#     4  10  23  42  62  89 122 160 203 242 284 348
#     4   9  18  36  61  85 111 150 204 247 281 347
#     4  10  22  40  60  85 120 160 197 240 298 357
#     4  11  23  39  61  92 124 154 195 250 301 347
#
# _framework density 10.243449
#
# number of rings (size 3 to 8) (size 9 to 14) (size 15 to 20)
#    0.000    1.750    2.500    1.500    1.750    3.000 
#    0.000    0.625    0.000    0.000    0.000    0.000 
#    0.000    0.000    0.000    0.000    0.000    0.000 
#
# Total GULP energy -178366.574563 kJ/mol
# GULP energy per Si atom -5573.955455 kJ/mol
# Density = 1.022013 g / cm^3
# Si number density = 10.243449 Si / 1000 Ang^3
#
#
#
# Elastic Constant Matrix: (Units=GPa)
#
#
# Indices 1 2 3 4 5 6 
#
# 1 23.3941 -10.9496 9.4385 -0.0007 1.7157 -0.0005
# 2 -10.9496 -44.0925 -11.2377 0.0009 16.9279 -0.0010
# 3 9.4385 -11.2377 102.8992 -0.0003 7.8496 0.0000
# 4 -0.0007 0.0009 -0.0003 96.0172 0.0002 17.2962
# 5 1.7157 16.9279 7.8496 0.0002 22.9539 0.0000
# 6 -0.0005 -0.0010 0.0000 17.2962 0.0000 16.1627
#
#
#
# Elastic Compliance Matrix: (Units=1/GPa)
#
#
# Indices 1 2 3 4 5 6 
#
# 1 0.040962 -0.007378 -0.004872 0.000000 0.004045 0.000001
# 2 -0.007378 -0.015487 -0.001980 0.000000 0.012649 -0.000001
# 3 -0.004872 -0.001980 0.010073 0.000000 -0.001621 0.000000
# 4 0.000000 0.000000 0.000000 0.012902 0.000000 -0.013807
# 5 0.004045 0.012649 -0.001621 0.000000 0.034489 0.000001
# 6 0.000001 -0.000001 0.000000 -0.013807 0.000001 0.076645
#
#
# Mechanical properties :
#
#
# Convention : Reuss Voigt Hill
#
# Bulk Modulus (GPa) = 141.03697 6.30036 73.66867
# Shear Modulus (GPa) = 26.25991 33.35674 29.80833
#
# Velocity S-wave (km/s) = 3.58409 4.03947 3.81858
# Velocity P-wave (km/s) = 9.28007 4.98382 7.44842
#
# Compressibility (1/GPa) = 0.00709034
#
# Stress axis : x y z
#
# Youngs Moduli (GPa) = 24.41308 -64.57174 99.28000
#
# Poissons Ratio (x) = -0.47638 0.48364
# Poissons Ratio (y) = 0.18011 0.19653
# Poissons Ratio (z) = 0.11893 -0.12782
#
# Static dielectric constant tensor:
#      x y z
#    x 1.855260 0.000000 -0.036290 
#    y 0.000000 1.682160 0.000000 
#    z -0.036290 0.000000 1.722080 
# 
# From -- ./inp_files/378023.got.cif
#   From: 2010.05.17/outbox.ucp.g08.bks.cvg/sg12_190_cif.got.tgz:378023.got - 2010.06.11 11:47:21.
