data_PCOD9224895
_publ_section_title
;
Structure prediction by ZEFSAII (Michael W. Deem and Ramdas Pophale) SiO2 
 PCOD9224895
Probable space group: C 2/M
;
_chemical_formula_sum "Si O2"
_cell_formula_units_Z 28
_cell_length_a 18.000000
_cell_length_b 9.000000
_cell_length_c 27.000000
_cell_angle_alpha 90.000000
_cell_angle_beta 40.000000
_cell_angle_gamma 90.000000
_cell_volume 2811.553005
_symmetry_space_group_name_H-M "C 2/M"
_symmetry_group_IT_number 12
_symmetry_cell_setting 'monoclinic'
loop_
_space_group_symop_operation_xyz
x,y,z
-x,y,-z
-x,-y,-z
x,-y,z
1/2+x,1/2+y,z
1/2-x,1/2+y,-z
1/2-x,1/2-y,-z
1/2+x,1/2-y,z
loop_
_atom_site_type_symbol
_atom_site_label
_atom_site_fract_x
_atom_site_fract_y
_atom_site_fract_z
Si Si1 0.070172 0.176080 0.800967
Si Si2 0.632749 0.822719 0.671860
Si Si3 0.853184 0.826004 0.975239
Si Si4 0.260379 0.672952 0.763528
Si Si5 0.139005 0.664940 0.931074
Si Si6 0.034836 0.177091 0.624263
Si Si7 0.392000 0.680760 0.522690
O O1 0.058652 0.252016 0.753738
O O2 0.192868 0.223794 0.760303
O O3 0.973721 0.228182 0.889743
O O4 0.062373 0.000000 0.799516
O O5 0.587753 0.767127 0.642271
O O6 0.767143 0.774183 0.606703
O O7 0.628022 0.000000 0.677640
O O8 0.849826 0.000000 0.969650
O O9 0.750000 0.750000 0.000000
O O10 0.836906 0.786945 0.040564
O O11 0.241424 0.500000 0.758863
O O12 0.201831 0.693573 0.847213
O O13 0.396702 0.699011 0.694069
O O14 0.177476 0.500000 0.928423
O O15 0.000000 0.660822 0.000000
O O16 0.089131 0.222982 0.544043
O O17 0.055108 0.000000 0.620779
O O18 0.500000 0.733744 0.500000
O O19 0.394270 0.500000 0.522758
#
# Coordination Sequence:
#
# PCOD9224895 Si02
#       7
#     8   8   8   8   8   8   8
#     4  11  24  41  60  85 118 155 197 245 296 350
#     4  11  23  38  60  88 120 157 199 243 292 349
#     4  11  25  41  60  85 117 156 198 245 297 352
#     4  10  21  38  62  88 116 155 198 240 292 353
#     4  10  20  37  61  88 118 152 194 243 292 349
#     4  10  21  38  61  89 123 158 194 240 292 348
#     4   9  18  36  62  89 117 154 198 241 288 347
#
# _framework density 9.9589090000000002
#
# number of rings (size 3 to 8) (size 9 to 14) (size 15 to 20)
#    0.000    1.714    1.429    2.571    2.000    5.429 
#    0.000    0.714    0.000    3.000    0.000    0.000 
#    0.000    0.000    0.000    0.000    0.000    0.000 
#
# Total GULP energy -156353.971585 kJ/mol
# GULP energy per Si atom -5584.070414 kJ/mol
# Density = 0.993624 g / cm^3
# Si number density = 9.958909 Si / 1000 Ang^3
#
#
#
# Elastic Constant Matrix: (Units=GPa)
#
#
# Indices 1 2 3 4 5 6 
#
# 1 50.9988 43.7913 -3.1168 0.0000 5.8792 0.0003
# 2 43.7913 39.7848 32.6380 0.0000 5.5495 0.0006
# 3 -3.1168 32.6380 64.1627 0.0000 12.4502 0.0000
# 4 0.0000 0.0000 0.0000 13.2217 0.0000 5.8223
# 5 5.8792 5.5495 12.4502 0.0000 24.6152 0.0000
# 6 0.0003 0.0006 0.0000 5.8223 0.0000 30.6234
#
#
#
# Elastic Compliance Matrix: (Units=1/GPa)
#
#
# Indices 1 2 3 4 5 6 
#
# 1 -0.024468 0.048191 -0.027419 0.000000 0.008848 -0.000001
# 2 0.048191 -0.051729 0.031740 0.000000 -0.015902 0.000001
# 3 -0.027419 0.031740 -0.001967 0.000000 0.000388 0.000000
# 4 0.000000 0.000000 0.000000 0.082544 0.000000 -0.015694
# 5 0.008848 -0.015902 0.000388 0.000000 0.041901 0.000000
# 6 -0.000001 0.000001 0.000000 -0.015694 0.000000 0.035639
#
#
# Mechanical properties :
#
#
# Convention : Reuss Voigt Hill
#
# Bulk Modulus (GPa) = 37.23001 33.50792 35.36896
# Shear Modulus (GPa) = -353.36063 19.13432 -167.11316
#
# Velocity S-wave (km/s) = -13.33396 3.10282 -9.16970
# Velocity P-wave (km/s) = 14.77589 5.44943 9.71161
#
# Compressibility (1/GPa) = 0.02686005
#
# Stress axis : x y z
#
# Youngs Moduli (GPa) = -40.87036 -19.33163 -508.40063
#
# Poissons Ratio (x) = 0.93161 -13.93976
# Poissons Ratio (y) = 1.96958 16.13642
# Poissons Ratio (z) = -1.12062 0.61358
#
# Static dielectric constant tensor:
#      x y z
#    x 1.685420 0.000000 -0.009450 
#    y 0.000000 1.680230 0.000000 
#    z -0.009450 0.000000 1.686070 
# 
# From -- ./inp_files/362918.got.cif
#   From: 2010.05.17/outbox.ucp.g08.bks.cvg/sg12_182_cif.got.tgz:362918.got - 2010.06.11 11:47:21.
