data_PCOD9224696
_publ_section_title
;
Structure prediction by ZEFSAII (Michael W. Deem and Ramdas Pophale) SiO2 
 PCOD9224696
Probable space group: C 2/M
;
_chemical_formula_sum "Si O2"
_cell_formula_units_Z 32
_cell_length_a 30.000000
_cell_length_b 9.000000
_cell_length_c 24.000000
_cell_angle_alpha 90.000000
_cell_angle_beta 30.000000
_cell_angle_gamma 90.000000
_cell_volume 3240.000000
_symmetry_space_group_name_H-M "C 2/M"
_symmetry_group_IT_number 12
_symmetry_cell_setting 'monoclinic'
loop_
_space_group_symop_operation_xyz
x,y,z
-x,y,-z
-x,-y,-z
x,-y,z
1/2+x,1/2+y,z
1/2-x,1/2+y,-z
1/2-x,1/2-y,-z
1/2+x,1/2-y,z
loop_
_atom_site_type_symbol
_atom_site_label
_atom_site_fract_x
_atom_site_fract_y
_atom_site_fract_z
Si Si1 0.120285 0.321211 0.528670
Si Si2 0.679605 0.321039 0.679619
Si Si3 0.936011 0.322494 0.788765
Si Si4 0.602002 0.173342 0.872234
Si Si5 0.493087 0.825813 0.572959
Si Si6 0.995889 0.823136 0.833102
Si Si7 0.328903 0.677304 0.811241
Si Si8 0.647461 0.825208 0.944812
O O1 0.126019 0.500000 0.527458
O O2 0.218719 0.263771 0.437733
O O3 0.085799 0.286254 0.503535
O O4 0.032840 0.276087 0.658367
O O5 0.682250 0.500000 0.673917
O O6 0.643192 0.271646 0.779106
O O7 0.599370 0.272833 0.725184
O O8 0.930292 0.500000 0.794691
O O9 0.941475 0.257689 0.843859
O O10 0.855369 0.255233 0.840464
O O11 0.661187 0.186283 0.863837
O O12 0.601225 0.000000 0.854973
O O13 0.500000 0.208935 0.000000
O O14 0.500000 0.813309 0.500000
O O15 0.411114 0.728894 0.683479
O O16 0.474921 0.000000 0.607285
O O17 0.994350 0.000000 0.828030
O O18 0.939054 0.772519 0.947781
O O19 0.329065 0.500000 0.817755
O O20 0.234873 0.719647 0.885066
O O21 0.628158 0.000000 0.977472
#
# Coordination Sequence:
#
# PCOD9224696 Si02
#       8
#     8   8   8   8   8   8   8   8
#     4   8  17  35  55  79 111 146 183 224 270 327
#     4  10  21  36  56  84 115 146 184 230 276 325
#     4  10  21  40  63  81 108 148 187 227 280 338
#     4  10  20  36  57  79 112 151 187 227 270 328
#     4   9  18  33  54  80 111 150 190 224 269 333
#     4  11  23  37  57  85 113 142 186 236 281 327
#     4  10  21  37  57  82 113 144 183 236 282 323
#     4  10  22  39  57  81 114 152 188 224 276 337
#
# _framework density 9.8765429999999999
#
# number of rings (size 3 to 8) (size 9 to 14) (size 15 to 20)
#    0.000    2.250    1.250    1.875    1.750    3.500 
#    0.000    3.125    0.000    0.000    0.000    0.000 
#    0.000    0.000    0.000    0.000    0.000    0.000 
#
# Total GULP energy -178394.141662 kJ/mol
# GULP energy per Si atom -5574.816927 kJ/mol
# Density = 0.985406 g / cm^3
# Si number density = 9.876543 Si / 1000 Ang^3
#
#
#
# Elastic Constant Matrix: (Units=GPa)
#
#
# Indices 1 2 3 4 5 6 
#
# 1 98.8503 22.6629 10.8545 0.0013 -17.5010 -0.0012
# 2 22.6629 24.8726 4.5751 -0.0043 -5.6687 0.0049
# 3 10.8545 4.5751 30.5900 0.0016 -22.9738 0.0010
# 4 0.0013 -0.0043 0.0016 25.8227 0.0007 2.2127
# 5 -17.5010 -5.6687 -22.9738 0.0007 37.3289 -0.0007
# 6 -0.0012 0.0049 0.0010 2.2127 -0.0007 10.0254
#
#
#
# Elastic Compliance Matrix: (Units=1/GPa)
#
#
# Indices 1 2 3 4 5 6 
#
# 1 0.013525 -0.011299 0.000677 -0.000003 0.005042 0.000008
# 2 -0.011299 0.051210 -0.003324 0.000012 0.000434 -0.000029
# 3 0.000677 -0.003324 0.061003 -0.000005 0.037356 0.000000
# 4 -0.000003 0.000012 -0.000005 0.039472 -0.000004 -0.008712
# 5 0.005042 0.000434 0.037356 -0.000004 0.052209 0.000001
# 6 0.000008 -0.000029 0.000000 -0.008712 0.000001 0.101670
#
#
# Mechanical properties :
#
#
# Convention : Reuss Voigt Hill
#
# Bulk Modulus (GPa) = 10.22007 25.61087 17.91547
# Shear Modulus (GPa) = 13.17189 22.38344 17.77766
#
# Velocity S-wave (km/s) = 2.58510 3.36990 3.00324
# Velocity P-wave (km/s) = 3.75439 5.30427 4.59515
#
# Compressibility (1/GPa) = 0.09784673
#
# Stress axis : x y z
#
# Youngs Moduli (GPa) = 73.93700 19.52732 16.39270
#
# Poissons Ratio (x) = 0.22064 -0.01110
# Poissons Ratio (y) = 0.83541 0.05449
# Poissons Ratio (z) = -0.05008 0.06491
#
# Static dielectric constant tensor:
#      x y z
#    x 1.748660 0.000000 0.030650 
#    y 0.000000 1.666410 0.000000 
#    z 0.030650 0.000000 1.712760 
# 
# From -- ./inp_files/353423.got.cif
#   From: 2010.05.17/outbox.ucp.g08.bks.cvg/sg12_177_cif.got.tgz:353423.got - 2010.06.11 11:47:21.
