data_PCOD9224232
_publ_section_title
;
Structure prediction by ZEFSAII (Michael W. Deem and Ramdas Pophale) SiO2 
 PCOD9224232
Probable space group: C 2/M
;
_chemical_formula_sum "Si O2"
_cell_formula_units_Z 28
_cell_length_a 15.000000
_cell_length_b 9.000000
_cell_length_c 30.000000
_cell_angle_alpha 90.000000
_cell_angle_beta 130.000000
_cell_angle_gamma 90.000000
_cell_volume 3102.479995
_symmetry_space_group_name_H-M "C 2/M"
_symmetry_group_IT_number 12
_symmetry_cell_setting 'monoclinic'
loop_
_space_group_symop_operation_xyz
x,y,z
-x,y,-z
-x,-y,-z
x,-y,z
1/2+x,1/2+y,z
1/2-x,1/2+y,-z
1/2-x,1/2-y,-z
1/2+x,1/2-y,z
loop_
_atom_site_type_symbol
_atom_site_label
_atom_site_fract_x
_atom_site_fract_y
_atom_site_fract_z
Si Si1 0.996265 0.820848 0.867299
Si Si2 0.433885 0.821475 0.354651
Si Si3 0.805315 0.322660 0.561031
Si Si4 0.226203 0.320232 0.774422
Si Si5 0.571894 0.168983 0.067847
Si Si6 0.608631 0.324648 0.567000
Si Si7 0.680592 0.821346 0.858652
O O1 0.088403 0.753471 0.862230
O O2 0.861516 0.778192 0.813724
O O3 0.005012 0.751592 0.919458
O O4 0.006279 0.000000 0.871382
O O5 0.564892 0.768034 0.389597
O O6 0.347028 0.760990 0.289953
O O7 0.397094 0.772312 0.391335
O O8 0.434107 0.000000 0.351545
O O9 0.807553 0.500000 0.554639
O O10 0.750000 0.250000 0.500000
O O11 0.724453 0.293923 0.576933
O O12 0.227414 0.500000 0.774045
O O13 0.164039 0.281812 0.801039
O O14 0.688266 0.260659 0.093679
O O15 0.601326 0.000000 0.092213
O O16 0.500000 0.159191 0.000000
O O17 0.500000 0.291789 0.500000
O O18 0.602566 0.500000 0.576110
O O19 0.676912 0.000000 0.862631
#
# Coordination Sequence:
#
# PCOD9224232 Si02
#       7
#     8   8   8   8   8   8   8
#     4  10  20  36  58  81 111 149 186 230 279 327
#     4  10  20  35  55  77 101 134 177 219 263 321
#     4  10  20  33  51  72  98 132 166 206 257 314
#     4   8  18  36  54  76 106 137 175 226 275 320
#     4  10  21  37  57  84 117 151 189 230 272 323
#     4  10  20  34  50  72 104 134 164 211 266 319
#     4  10  20  36  59  83 111 148 186 230 278 326
#
# _framework density 9.0250380000000003
#
# number of rings (size 3 to 8) (size 9 to 14) (size 15 to 20)
#    0.000    2.286    1.429    2.143    0.000    3.714 
#    0.000    5.714    0.000    0.000    0.000    0.000 
#    0.000    0.000    0.000    0.000    0.000    0.000 
#
# Total GULP energy -156011.420613 kJ/mol
# GULP energy per Si atom -5571.836450 kJ/mol
# Density = 0.900450 g / cm^3
# Si number density = 9.025038 Si / 1000 Ang^3
#
#
#
# Elastic Constant Matrix: (Units=GPa)
#
#
# Indices 1 2 3 4 5 6 
#
# 1 84.7839 39.5140 5.6004 0.0000 -9.6246 0.0000
# 2 39.5140 45.8030 10.5935 0.0000 -2.4738 0.0000
# 3 5.6004 10.5935 35.3223 0.0000 -5.3249 0.0000
# 4 0.0000 0.0000 0.0000 -14.1979 0.0000 6.2801
# 5 -9.6246 -2.4738 -5.3249 0.0000 -2.4593 0.0000
# 6 0.0000 0.0000 0.0000 6.2801 0.0000 27.3165
#
#
#
# Elastic Compliance Matrix: (Units=1/GPa)
#
#
# Indices 1 2 3 4 5 6 
#
# 1 0.014319 -0.013428 -0.003509 0.000000 -0.034933 0.000000
# 2 -0.013428 0.035924 -0.004652 0.000000 0.026488 0.000000
# 3 -0.003509 -0.004652 0.024908 0.000000 -0.035518 0.000000
# 4 0.000000 0.000000 0.000000 -0.063932 0.000000 0.014698
# 5 -0.034933 0.026488 -0.035518 0.000000 -0.219650 0.000000
# 6 0.000000 0.000000 0.000000 0.014698 0.000000 0.033229
#
#
# Mechanical properties :
#
#
# Convention : Reuss Voigt Hill
#
# Bulk Modulus (GPa) = 31.27718 30.81390 31.04554
# Shear Modulus (GPa) = -41.19771 9.47862 -15.85955
#
# Velocity S-wave (km/s) = -4.78264 2.29406 -2.96740
# Velocity P-wave (km/s) = 3.62389 4.91175 2.34443
#
# Compressibility (1/GPa) = 0.03197220
#
# Stress axis : x y z
#
# Youngs Moduli (GPa) = 69.83609 27.83685 40.14800
#
# Poissons Ratio (x) = 0.37380 0.14089
# Poissons Ratio (y) = 0.93778 0.18676
# Poissons Ratio (z) = 0.24508 0.12949
#
# Static dielectric constant tensor:
#      x y z
#    x 1.578910 0.000000 0.005630 
#    y 0.000000 1.664790 0.000000 
#    z 0.005630 0.000000 1.639870 
# 
# From -- ./inp_files/375144.got.cif
#   From: 2010.05.17/outbox.ucp.g08.bks.cvg/sg12_188_cif.got.tgz:375144.got - 2010.06.11 11:47:21.
