data_PCOD9224448
_publ_section_title
;
Structure prediction by ZEFSAII (Michael W. Deem and Ramdas Pophale) SiO2 
 PCOD9224448
Probable space group: C 2/M
;
_chemical_formula_sum "Si O2"
_cell_formula_units_Z 24
_cell_length_a 18.000000
_cell_length_b 9.000000
_cell_length_c 15.000000
_cell_angle_alpha 90.000000
_cell_angle_beta 90.000000
_cell_angle_gamma 90.000000
_cell_volume 2430.000000
_symmetry_space_group_name_H-M "C 2/M"
_symmetry_group_IT_number 12
_symmetry_cell_setting 'monoclinic'
loop_
_space_group_symop_operation_xyz
x,y,z
-x,y,-z
-x,-y,-z
x,-y,z
1/2+x,1/2+y,z
1/2-x,1/2+y,-z
1/2-x,1/2-y,-z
1/2+x,1/2-y,z
loop_
_atom_site_type_symbol
_atom_site_label
_atom_site_fract_x
_atom_site_fract_y
_atom_site_fract_z
Si Si1 0.162174 0.676967 0.362682
Si Si2 0.817941 0.328475 0.329332
Si Si3 0.915413 0.823073 0.471049
Si Si4 0.063660 0.176726 0.210343
Si Si5 0.089879 0.166248 0.011553
Si Si6 0.588538 0.168392 0.840260
O O1 0.157530 0.500000 0.373783
O O2 0.245830 0.728719 0.343243
O O3 0.136723 0.763075 0.450789
O O4 0.106676 0.732983 0.285425
O O5 0.803050 0.500000 0.355478
O O6 0.887225 0.264190 0.384889
O O7 0.843807 0.325782 0.227655
O O8 0.000000 0.791807 0.500000
O O9 0.908075 0.000000 0.458482
O O10 0.103083 0.200814 0.114568
O O11 0.979031 0.230026 0.195553
O O12 0.064660 0.000000 0.230100
O O13 0.117053 0.000000 0.991861
O O14 0.114938 0.279834 0.937121
O O15 0.000000 0.163367 0.000000
O O16 0.559599 0.000000 0.844361
#
# Coordination Sequence:
#
# PCOD9224448 Si02
#       6
#     8   8   8   8   8   8
#     4  12  25  40  60  85 115 151 190 234 284 337
#     4  11  24  41  59  83 118 154 189 232 282 336
#     4  11  24  42  65  90 115 147 186 229 279 336
#     4  10  20  36  58  84 116 152 191 236 285 337
#     4   8  16  31  53  81 113 150 189 234 285 333
#     4  10  20  34  57  87 116 149 191 239 284 331
#
# _framework density 9.8765429999999999
#
# number of rings (size 3 to 8) (size 9 to 14) (size 15 to 20)
#    0.000    1.667    0.000    6.000    0.000   10.333 
#    0.000    0.833    0.000    0.000    0.000    0.000 
#    0.000    0.000    0.000    0.000    0.000    0.000 
#
# Total GULP energy -134038.244295 kJ/mol
# GULP energy per Si atom -5584.926846 kJ/mol
# Density = 0.985406 g / cm^3
# Si number density = 9.876543 Si / 1000 Ang^3
#
#
#
# Elastic Constant Matrix: (Units=GPa)
#
#
# Indices 1 2 3 4 5 6 
#
# 1 22.5211 -2.7973 -18.0305 0.0000 -18.6830 0.0000
# 2 -2.7973 23.2410 -2.7864 0.0000 -13.7858 0.0000
# 3 -18.0305 -2.7864 44.4155 0.0000 -18.0214 0.0000
# 4 0.0000 0.0000 0.0000 35.9564 0.0000 -7.3870
# 5 -18.6830 -13.7858 -18.0214 0.0000 10.5256 0.0000
# 6 0.0000 0.0000 0.0000 -7.3870 0.0000 39.6629
#
#
#
# Elastic Compliance Matrix: (Units=1/GPa)
#
#
# Indices 1 2 3 4 5 6 
#
# 1 0.007084 -0.019120 -0.011077 0.000000 -0.031432 0.000000
# 2 -0.019120 0.029942 -0.012255 0.000000 -0.015704 0.000000
# 3 -0.011077 -0.012255 0.009037 0.000000 -0.020239 0.000000
# 4 0.000000 0.000000 0.000000 0.028918 0.000000 0.005386
# 5 -0.031432 -0.015704 -0.020239 0.000000 -0.016006 0.000000
# 6 0.000000 0.000000 0.000000 0.005386 0.000000 0.026216
#
#
# Mechanical properties :
#
#
# Convention : Reuss Voigt Hill
#
# Bulk Modulus (GPa) = -25.74716 4.77215 -10.48751
# Shear Modulus (GPa) = 31.81710 24.81511 28.31610
#
# Velocity S-wave (km/s) = 4.01776 3.54823 3.79027
# Velocity P-wave (km/s) = 2.90867 4.38266 3.71941
#
# Compressibility (1/GPa) = -0.03883923
#
# Stress axis : x y z
#
# Youngs Moduli (GPa) = 141.15326 33.39791 110.65311
#
# Poissons Ratio (x) = 0.63856 1.22569
# Poissons Ratio (y) = 2.69880 1.35605
# Poissons Ratio (z) = 1.56354 0.40929
#
# Static dielectric constant tensor:
#      x y z
#    x 1.663360 0.000000 -0.019440 
#    y 0.000000 1.673370 0.000000 
#    z -0.019440 0.000000 1.741850 
# 
# From -- ./inp_files/221672.got.cif
#   From: 2010.05.17/outbox.ucp.g08.bks.cvg/sg12_111_cif.got.tgz:221672.got - 2010.06.11 11:47:21.
