data_PCOD9224655
_publ_section_title
;
Structure prediction by ZEFSAII (Michael W. Deem and Ramdas Pophale) SiO2 
 PCOD9224655
Probable space group: C 2/M
;
_chemical_formula_sum "Si O2"
_cell_formula_units_Z 32
_cell_length_a 24.000000
_cell_length_b 21.000000
_cell_length_c 18.000000
_cell_angle_alpha 90.000000
_cell_angle_beta 20.000000
_cell_angle_gamma 90.000000
_cell_volume 3102.806740
_symmetry_space_group_name_H-M "C 2/M"
_symmetry_group_IT_number 12
_symmetry_cell_setting 'monoclinic'
loop_
_space_group_symop_operation_xyz
x,y,z
-x,y,-z
-x,-y,-z
x,-y,z
1/2+x,1/2+y,z
1/2-x,1/2+y,-z
1/2-x,1/2-y,-z
1/2+x,1/2-y,z
loop_
_atom_site_type_symbol
_atom_site_label
_atom_site_fract_x
_atom_site_fract_y
_atom_site_fract_z
Si Si1 0.659234 0.750931 0.349277
Si Si2 0.848614 0.065562 0.135713
Si Si3 0.647971 0.339039 0.995986
Si Si4 0.684685 0.136549 0.750422
Si Si5 0.503233 0.425301 0.580118
Si Si6 0.710278 0.077818 0.053864
Si Si7 0.123142 0.636688 0.518619
Si Si8 0.286569 0.676730 0.464296
O O1 0.500000 0.734391 0.500000
O O2 0.771180 0.777587 0.141756
O O3 0.755015 0.697371 0.275950
O O4 0.616159 0.803992 0.468182
O O5 0.886654 0.121463 0.033954
O O6 0.692288 0.080611 0.380422
O O7 0.828339 0.000000 0.118305
O O8 0.000000 0.061550 0.000000
O O9 0.755598 0.385263 0.911732
O O10 0.475865 0.327692 0.249048
O O11 0.823457 0.086462 0.598797
O O12 0.691873 0.149716 0.653529
O O13 0.500000 0.119176 0.000000
O O14 0.500000 0.400495 0.500000
O O15 0.474520 0.500000 0.611079
O O16 0.355783 0.402020 0.816258
O O17 0.543673 0.111068 0.237911
O O18 0.702655 0.000000 0.069195
O O19 0.241190 0.648066 0.440809
O O20 0.250000 0.750000 0.500000
#
# Coordination Sequence:
#
# PCOD9224655 Si02
#       8
#     8   8   8   8   8   8   8   8
#     4  11  23  42  64  97 137 177 212 262 326 397
#     4  10  20  35  60  93 132 171 206 255 319 389
#     4  11  22  41  64  95 132 174 214 264 325 392
#     4  12  26  44  69  98 126 171 228 275 336 397
#     4  10  24  48  71  94 130 171 219 287 345 388
#     4  11  23  43  69  98 132 173 223 273 327 397
#     4  11  23  40  62  97 136 174 219 262 320 392
#     4  12  24  43  63  94 133 174 218 275 328 387
#
# _framework density 10.313243
#
# number of rings (size 3 to 8) (size 9 to 14) (size 15 to 20)
#    0.000    1.000    5.000    1.875    1.750    0.250 
#    2.250    5.000    0.000    0.000    0.000    0.000 
#    0.000    0.000    0.000    0.000    0.000    0.000 
#
# Total GULP energy -178229.214486 kJ/mol
# GULP energy per Si atom -5569.662953 kJ/mol
# Density = 1.028977 g / cm^3
# Si number density = 10.313243 Si / 1000 Ang^3
#
#
#
# Elastic Constant Matrix: (Units=GPa)
#
#
# Indices 1 2 3 4 5 6 
#
# 1 72.3999 -9.0358 2.0918 0.0067 2.4974 -0.0050
# 2 -9.0358 5.2539 -1.1699 0.0065 -3.5610 -0.0012
# 3 2.0918 -1.1699 105.9559 0.0205 3.2325 -0.0094
# 4 0.0067 0.0065 0.0205 13.4371 -0.0106 1.8328
# 5 2.4974 -3.5610 3.2325 -0.0106 34.9124 0.0034
# 6 -0.0050 -0.0012 -0.0094 1.8328 0.0034 27.9776
#
#
#
# Elastic Compliance Matrix: (Units=1/GPa)
#
#
# Indices 1 2 3 4 5 6 
#
# 1 0.017714 0.031794 -0.000059 -0.000023 0.001981 0.000006
# 2 0.031794 0.261817 0.001522 -0.000129 0.024289 0.000023
# 3 -0.000059 0.001522 0.009478 -0.000016 -0.000718 0.000004
# 4 -0.000023 -0.000129 -0.000016 0.075092 0.000013 -0.004919
# 5 0.001981 0.024289 -0.000718 0.000013 0.031045 -0.000004
# 6 0.000006 0.000023 0.000004 -0.004919 -0.000004 0.036065
#
#
# Mechanical properties :
#
#
# Convention : Reuss Voigt Hill
#
# Bulk Modulus (GPa) = 2.81276 18.59798 10.70537
# Shear Modulus (GPa) = 10.34758 28.04699 19.19728
#
# Velocity S-wave (km/s) = 2.24222 3.69149 3.05406
# Velocity P-wave (km/s) = 2.84078 5.21590 4.19974
#
# Compressibility (1/GPa) = 0.35552315
#
# Stress axis : x y z
#
# Youngs Moduli (GPa) = 56.45386 3.81946 105.51006
#
# Poissons Ratio (x) = -0.12144 0.00623
# Poissons Ratio (y) = -1.79490 -0.16060
# Poissons Ratio (z) = 0.00334 -0.00581
#
# Static dielectric constant tensor:
#      x y z
#    x 1.762790 0.000010 -0.006150 
#    y 0.000010 1.795270 0.000000 
#    z -0.006150 0.000000 1.791010 
# 
# From -- ./inp_files/290890.got.cif
#   From: 2010.05.17/outbox.ucp.g08.bks.cvg/sg12_146_cif.got.tgz:290890.got - 2010.06.11 11:47:21.
