data_PCOD9224488
_publ_section_title
;
Structure prediction by ZEFSAII (Michael W. Deem and Ramdas Pophale) SiO2 
 PCOD9224488
Probable space group: C 2/M
;
_chemical_formula_sum "Si O2"
_cell_formula_units_Z 28
_cell_length_a 27.000000
_cell_length_b 9.000000
_cell_length_c 18.000000
_cell_angle_alpha 90.000000
_cell_angle_beta 140.000000
_cell_angle_gamma 90.000000
_cell_volume 2811.553005
_symmetry_space_group_name_H-M "C 2/M"
_symmetry_group_IT_number 12
_symmetry_cell_setting 'monoclinic'
loop_
_space_group_symop_operation_xyz
x,y,z
-x,y,-z
-x,-y,-z
x,-y,z
1/2+x,1/2+y,z
1/2-x,1/2+y,-z
1/2-x,1/2-y,-z
1/2+x,1/2-y,z
loop_
_atom_site_type_symbol
_atom_site_label
_atom_site_fract_x
_atom_site_fract_y
_atom_site_fract_z
Si Si1 0.617494 0.821805 0.051774
Si Si2 0.054936 0.668567 0.821990
Si Si3 0.383261 0.167788 0.791397
Si Si4 0.699642 0.666978 0.599897
Si Si5 0.215161 0.323347 0.767212
Si Si6 0.179620 0.825786 0.875334
Si Si7 0.880039 0.327708 0.624421
O O1 0.586809 0.768995 0.096494
O O2 0.697393 0.739188 0.126728
O O3 0.632226 0.000000 0.075385
O O4 0.561797 0.803077 0.918107
O O5 0.086123 0.500000 0.845693
O O6 0.104807 0.788440 0.837024
O O7 0.967272 0.670056 0.696140
O O8 0.291986 0.158087 0.702174
O O9 0.386118 0.239778 0.714043
O O10 0.416487 0.000000 0.821160
O O11 0.669489 0.500000 0.574717
O O12 0.681560 0.767377 0.650374
O O13 0.671315 0.737870 0.491165
O O14 0.215410 0.500000 0.771816
O O15 0.172175 0.250657 0.786997
O O16 0.193791 0.000000 0.883732
O O17 0.250000 0.750000 0.000000
O O18 0.852772 0.500000 0.599563
#
# Coordination Sequence:
#
# PCOD9224488 Si02
#       7
#     8   8   8   8   8   8   8
#     4   9  17  32  53  80 114 148 184 227 275 330
#     4  10  21  35  54  81 116 152 186 227 277 331
#     4   8  16  31  54  82 110 145 191 235 275 321
#     4  10  20  36  57  81 111 148 190 234 278 327
#     4  11  21  35  58  86 111 140 181 232 282 328
#     4  12  23  37  59  85 113 144 182 225 273 331
#     4  10  20  35  54  80 114 152 192 232 274 325
#
# _framework density 9.9589090000000002
#
# number of rings (size 3 to 8) (size 9 to 14) (size 15 to 20)
#    0.000    2.000    1.429    4.286    0.000    1.143 
#    0.000    6.429    0.000    4.286    0.000    6.000 
#    0.000    0.000    0.000    0.000    0.000    0.000 
#
# Total GULP energy -156170.288657 kJ/mol
# GULP energy per Si atom -5577.510309 kJ/mol
# Density = 0.993624 g / cm^3
# Si number density = 9.958909 Si / 1000 Ang^3
#
#
#
# Elastic Constant Matrix: (Units=GPa)
#
#
# Indices 1 2 3 4 5 6 
#
# 1 73.2331 32.5420 48.7187 0.0000 -28.6702 0.0000
# 2 32.5420 97.8987 24.3237 0.0000 -12.6240 0.0000
# 3 48.7187 24.3237 13.2424 0.0000 1.8332 0.0000
# 4 0.0000 0.0000 0.0000 18.9181 0.0000 -5.5862
# 5 -28.6702 -12.6240 1.8332 0.0000 18.5011 0.0000
# 6 0.0000 0.0000 0.0000 -5.5862 0.0000 21.5152
#
#
#
# Elastic Compliance Matrix: (Units=1/GPa)
#
#
# Indices 1 2 3 4 5 6 
#
# 1 -0.002687 -0.006030 0.022414 0.000000 -0.010499 0.000000
# 2 -0.006030 0.011975 0.000354 0.000000 -0.001208 0.000000
# 3 0.022414 0.000354 -0.012611 0.000000 0.036225 0.000000
# 4 0.000000 0.000000 0.000000 0.057249 0.000000 0.014864
# 5 -0.010499 -0.001208 0.036225 0.000000 0.033368 0.000000
# 6 0.000000 0.000000 0.000000 0.014864 0.000000 0.050338
#
#
# Mechanical properties :
#
#
# Convention : Reuss Voigt Hill
#
# Bulk Modulus (GPa) = 33.16303 43.94920 38.55612
# Shear Modulus (GPa) = 43.78049 17.03952 30.41000
#
# Velocity S-wave (km/s) = 4.69343 2.92805 3.91163
# Velocity P-wave (km/s) = 6.78654 5.79176 6.30879
#
# Compressibility (1/GPa) = 0.03015406
#
# Stress axis : x y z
#
# Youngs Moduli (GPa) = -372.16694 83.50566 -79.29589
#
# Poissons Ratio (x) = 0.50351 1.77734
# Poissons Ratio (y) = -2.24403 0.02807
# Poissons Ratio (z) = 8.34176 -0.02956
#
# Static dielectric constant tensor:
#      x y z
#    x 1.747780 0.000000 -0.018030 
#    y 0.000000 1.688180 0.000000 
#    z -0.018030 0.000000 1.690110 
# 
# From -- ./inp_files/288482.got.cif
#   From: 2010.05.17/outbox.ucp.g08.bks.cvg/sg12_145_cif.got.tgz:288482.got - 2010.06.11 11:47:21.
