data_PCOD9224063
_publ_section_title
;
Structure prediction by ZEFSAII (Michael W. Deem and Ramdas Pophale) SiO2 
 PCOD9224063
Probable space group: C 2/M
;
_chemical_formula_sum "Si O2"
_cell_formula_units_Z 28
_cell_length_a 18.000000
_cell_length_b 21.000000
_cell_length_c 15.000000
_cell_angle_alpha 90.000000
_cell_angle_beta 30.000000
_cell_angle_gamma 90.000000
_cell_volume 2835.000000
_symmetry_space_group_name_H-M "C 2/M"
_symmetry_group_IT_number 12
_symmetry_cell_setting 'monoclinic'
loop_
_space_group_symop_operation_xyz
x,y,z
-x,y,-z
-x,-y,-z
x,-y,z
1/2+x,1/2+y,z
1/2-x,1/2+y,-z
1/2-x,1/2-y,-z
1/2+x,1/2-y,z
loop_
_atom_site_type_symbol
_atom_site_label
_atom_site_fract_x
_atom_site_fract_y
_atom_site_fract_z
Si Si1 0.874418 0.424887 0.355789
Si Si2 0.841659 0.275256 0.138440
Si Si3 0.208433 0.201293 0.462600
Si Si4 0.637341 0.636419 0.960868
Si Si5 0.319977 0.575005 0.269807
Si Si6 0.775297 0.573468 0.985042
Si Si7 0.918127 0.855986 0.679116
O O1 0.841246 0.500000 0.364979
O O2 0.792596 0.367106 0.388688
O O3 0.811623 0.416987 0.522096
O O4 0.052566 0.416838 0.166190
O O5 0.764481 0.264696 0.314193
O O6 0.874068 0.210271 0.052335
O O7 0.724339 0.314402 0.202310
O O8 0.000000 0.306353 0.000000
O O9 0.250000 0.250000 0.500000
O O10 0.036909 0.181814 0.618480
O O11 0.705804 0.602702 0.801831
O O12 0.732964 0.619670 0.947636
O O13 0.470927 0.608914 0.146591
O O14 0.350204 0.500000 0.230924
O O15 0.761000 0.500000 0.970472
O O16 0.656614 0.587619 0.186493
O O17 0.000000 0.872894 0.500000
#
# Coordination Sequence:
#
# PCOD9224063 Si02
#       7
#     8   8   8   8   8   8   8
#     4  10  23  42  65  96 133 173 219 274 332 392
#     4  11  23  41  61  94 133 168 211 269 327 388
#     4  11  24  41  67  96 129 175 225 271 326 389
#     4  11  21  35  60  92 130 170 215 259 320 386
#     4  10  19  36  59  91 130 171 214 261 320 392
#     4  11  24  42  66  96 129 170 219 270 331 397
#     4  10  25  45  66  95 128 166 218 276 334 389
#
# _framework density 9.8765429999999999
#
# number of rings (size 3 to 8) (size 9 to 14) (size 15 to 20)
#    0.000    1.429    1.429    4.286    4.000    3.143 
#    2.571    4.286    0.000    7.714    0.000    0.000 
#    0.000    0.000    0.000    0.000    0.000    0.000 
#
# Total GULP energy -156351.866769 kJ/mol
# GULP energy per Si atom -5583.995242 kJ/mol
# Density = 0.985406 g / cm^3
# Si number density = 9.876543 Si / 1000 Ang^3
#
#
#
# Elastic Constant Matrix: (Units=GPa)
#
#
# Indices 1 2 3 4 5 6 
#
# 1 99.6442 34.4764 15.3340 -0.0015 -19.2024 0.0022
# 2 34.4764 71.0889 20.4097 -0.0057 -9.6862 0.0038
# 3 15.3340 20.4097 94.8976 -0.0052 -14.7383 0.0058
# 4 -0.0015 -0.0057 -0.0052 25.5339 0.0058 1.6381
# 5 -19.2024 -9.6862 -14.7383 0.0058 31.6339 -0.0029
# 6 0.0022 0.0038 0.0058 1.6381 -0.0029 29.4842
#
#
#
# Elastic Compliance Matrix: (Units=1/GPa)
#
#
# Indices 1 2 3 4 5 6 
#
# 1 0.013161 -0.005535 0.000045 -0.000002 0.006315 0.000000
# 2 -0.005535 0.017653 -0.002786 0.000003 0.000747 -0.000001
# 3 0.000045 -0.002786 0.011860 0.000001 0.004699 -0.000002
# 4 -0.000002 0.000003 0.000001 0.039304 -0.000007 -0.002184
# 5 0.006315 0.000747 0.004699 -0.000007 0.037863 0.000003
# 6 0.000000 -0.000001 -0.000002 -0.002184 0.000003 0.034038
#
#
# Mechanical properties :
#
#
# Convention : Reuss Voigt Hill
#
# Bulk Modulus (GPa) = 38.28478 45.11900 41.70189
# Shear Modulus (GPa) = 27.91141 30.35778 29.13459
#
# Velocity S-wave (km/s) = 3.76309 3.92454 3.84466
# Velocity P-wave (km/s) = 6.18909 6.58992 6.39265
#
# Compressibility (1/GPa) = 0.02612004
#
# Stress axis : x y z
#
# Youngs Moduli (GPa) = 75.98269 56.64755 84.32031
#
# Poissons Ratio (x) = 0.31355 -0.00376
# Poissons Ratio (y) = 0.42057 0.23493
# Poissons Ratio (z) = -0.00339 0.15783
#
# Static dielectric constant tensor:
#      x y z
#    x 1.696490 0.000000 0.007830 
#    y 0.000000 1.693860 0.000000 
#    z 0.007830 0.000000 1.710420 
# 
# From -- ./inp_files/227589.got.cif
#   From: 2010.05.17/outbox.ucp.g08.bks.cvg/sg12_114_cif.got.tgz:227589.got - 2010.06.11 11:47:21.
