data_PCOD9224929
_publ_section_title
;
Structure prediction by ZEFSAII (Michael W. Deem and Ramdas Pophale) SiO2 
 PCOD9224929
Probable space group: C 2/M
;
_chemical_formula_sum "Si O2"
_cell_formula_units_Z 32
_cell_length_a 18.000000
_cell_length_b 9.000000
_cell_length_c 30.000000
_cell_angle_alpha 90.000000
_cell_angle_beta 40.000000
_cell_angle_gamma 90.000000
_cell_volume 3123.947783
_symmetry_space_group_name_H-M "C 2/M"
_symmetry_group_IT_number 12
_symmetry_cell_setting 'monoclinic'
loop_
_space_group_symop_operation_xyz
x,y,z
-x,y,-z
-x,-y,-z
x,-y,z
1/2+x,1/2+y,z
1/2-x,1/2+y,-z
1/2-x,1/2-y,-z
1/2+x,1/2-y,z
loop_
_atom_site_type_symbol
_atom_site_label
_atom_site_fract_x
_atom_site_fract_y
_atom_site_fract_z
Si Si1 0.304758 0.325844 0.516815
Si Si2 0.925137 0.824423 0.947384
Si Si3 0.528105 0.167930 0.434308
Si Si4 0.171492 0.327428 0.093588
Si Si5 0.877679 0.677890 0.326721
Si Si6 0.159117 0.674695 0.835332
Si Si7 0.210434 0.824734 0.717653
Si Si8 0.630485 0.828613 0.216290
O O1 0.289075 0.500000 0.521713
O O2 0.250000 0.250000 0.500000
O O3 0.437924 0.283814 0.456865
O O4 0.231144 0.274748 0.593506
O O5 0.896850 0.772960 0.909910
O O6 0.041638 0.744552 0.908624
O O7 0.942884 0.000000 0.941232
O O8 0.807703 0.787893 0.028128
O O9 0.500000 0.168749 0.500000
O O10 0.658361 0.202066 0.359977
O O11 0.502182 0.000000 0.430196
O O12 0.161032 0.500000 0.083464
O O13 0.128812 0.319736 0.163527
O O14 0.871442 0.500000 0.321328
O O15 0.870229 0.765179 0.284345
O O16 0.001500 0.705576 0.292576
O O17 0.146287 0.500000 0.838790
O O18 0.181509 0.740794 0.776066
O O19 0.270832 0.722568 0.811629
O O20 0.196785 0.000000 0.730675
O O21 0.658363 0.000000 0.215820
#
# Coordination Sequence:
#
# PCOD9224929 Si02
#       8
#     8   8   8   8   8   8   8   8
#     4  11  24  39  59  88 122 161 200 244 297 354
#     4  10  20  37  63  93 123 158 201 241 291 353
#     4  10  21  40  63  89 118 153 196 246 300 356
#     4   9  19  37  64  94 123 158 197 245 295 347
#     4  10  22  40  62  88 119 156 197 243 299 358
#     4  12  26  41  58  86 122 158 200 248 298 350
#     4  11  23  40  65  89 116 154 198 247 300 358
#     4  10  22  41  61  84 119 159 197 242 299 354
#
# _framework density 10.243449
#
# number of rings (size 3 to 8) (size 9 to 14) (size 15 to 20)
#    0.000    1.625    1.250    3.000    1.750    4.750 
#    0.000    2.500    0.000    0.000    0.000    0.000 
#    0.000    0.000    0.000    0.000    0.000    0.000 
#
# Total GULP energy -178767.107188 kJ/mol
# GULP energy per Si atom -5586.472100 kJ/mol
# Density = 1.022013 g / cm^3
# Si number density = 10.243449 Si / 1000 Ang^3
#
#
#
# Elastic Constant Matrix: (Units=GPa)
#
#
# Indices 1 2 3 4 5 6 
#
# 1 42.2907 39.0575 9.1099 0.0002 -16.7977 0.0006
# 2 39.0575 53.0312 33.7701 0.0003 -17.8875 0.0009
# 3 9.1099 33.7701 54.9167 0.0000 -22.4803 0.0000
# 4 0.0002 0.0003 0.0000 23.3294 0.0000 -1.6404
# 5 -16.7977 -17.8875 -22.4803 0.0000 29.0078 0.0001
# 6 0.0006 0.0009 0.0000 -1.6404 0.0001 34.6434
#
#
#
# Elastic Compliance Matrix: (Units=1/GPa)
#
#
# Indices 1 2 3 4 5 6 
#
# 1 0.493711 -0.483391 0.308109 0.000002 0.226592 0.000004
# 2 -0.483391 0.505102 -0.318561 -0.000002 -0.215328 -0.000004
# 3 0.308109 -0.318561 0.227920 0.000001 0.158612 0.000003
# 4 0.000002 -0.000002 0.000001 0.043008 0.000001 0.002036
# 5 0.226592 -0.215328 0.158612 0.000001 0.155827 0.000001
# 6 0.000004 -0.000004 0.000003 0.002036 0.000001 0.028962
#
#
# Mechanical properties :
#
#
# Convention : Reuss Voigt Hill
#
# Bulk Modulus (GPa) = 4.18326 34.90151 19.54239
# Shear Modulus (GPa) = 1.98264 21.94953 11.96608
#
# Velocity S-wave (km/s) = 0.98481 3.27677 2.41941
# Velocity P-wave (km/s) = 1.82743 5.60261 4.16706
#
# Compressibility (1/GPa) = 0.23904776
#
# Stress axis : x y z
#
# Youngs Moduli (GPa) = 2.02548 1.97980 4.38751
#
# Poissons Ratio (x) = 0.95702 -1.35183
# Poissons Ratio (y) = 0.97910 1.39769
# Poissons Ratio (z) = -0.62407 0.63069
#
# Static dielectric constant tensor:
#      x y z
#    x 1.701630 0.000000 0.019640 
#    y 0.000000 1.687720 0.000000 
#    z 0.019640 0.000000 1.694450 
# 
# From -- ./inp_files/378010.got.cif
#   From: 2010.05.17/outbox.ucp.g08.bks.cvg/sg12_190_cif.got.tgz:378010.got - 2010.06.11 11:47:21.
