data_PCOD9224342
_publ_section_title
;
Structure prediction by ZEFSAII (Michael W. Deem and Ramdas Pophale) SiO2 
 PCOD9224342
Probable space group: C 2/M
;
_chemical_formula_sum "Si O2"
_cell_formula_units_Z 32
_cell_length_a 30.000000
_cell_length_b 9.000000
_cell_length_c 18.000000
_cell_angle_alpha 90.000000
_cell_angle_beta 40.000000
_cell_angle_gamma 90.000000
_cell_volume 3123.947783
_symmetry_space_group_name_H-M "C 2/M"
_symmetry_group_IT_number 12
_symmetry_cell_setting 'monoclinic'
loop_
_space_group_symop_operation_xyz
x,y,z
-x,y,-z
-x,-y,-z
x,-y,z
1/2+x,1/2+y,z
1/2-x,1/2+y,-z
1/2-x,1/2-y,-z
1/2+x,1/2-y,z
loop_
_atom_site_type_symbol
_atom_site_label
_atom_site_fract_x
_atom_site_fract_y
_atom_site_fract_z
Si Si1 0.541667 0.825232 0.714102
Si Si2 0.451588 0.180237 0.127895
Si Si3 0.605166 0.827380 0.128700
Si Si4 0.695175 0.821873 0.737400
Si Si5 0.683231 0.668270 0.907411
Si Si6 0.651312 0.678591 0.481102
Si Si7 0.330531 0.168675 0.798119
Si Si8 0.426697 0.323980 0.566533
O O1 0.522053 0.788249 0.823620
O O2 0.474644 0.799156 0.748067
O O3 0.606584 0.730742 0.606901
O O4 0.558974 0.000000 0.688582
O O5 0.372714 0.233100 0.218560
O O6 0.450558 0.000000 0.122642
O O7 0.500000 0.237364 0.000000
O O8 0.657172 0.809782 0.130604
O O9 0.608584 0.000000 0.099153
O O10 0.624538 0.718699 0.038413
O O11 0.687113 0.777546 0.833309
O O12 0.770136 0.764608 0.616725
O O13 0.696285 0.000000 0.729376
O O14 0.674768 0.500000 0.891557
O O15 0.753224 0.677133 0.866493
O O16 0.653613 0.500000 0.473895
O O17 0.610085 0.735730 0.460798
O O18 0.373993 0.290747 0.699637
O O19 0.356112 0.000000 0.748738
O O20 0.500000 0.260198 0.500000
O O21 0.435842 0.500000 0.543147
#
# Coordination Sequence:
#
# PCOD9224342 Si02
#       8
#     8   8   8   8   8   8   8   8
#     4  10  21  37  59  85 110 142 186 231 274 326
#     4   9  18  35  60  87 110 138 183 231 274 329
#     4  10  21  37  56  79 110 149 187 225 279 339
#     4  10  20  37  60  81 109 150 188 226 277 336
#     4  11  22  35  54  83 114 144 185 235 281 327
#     4  10  21  36  54  80 112 148 186 225 276 331
#     4  10  21  35  52  79 111 144 186 231 277 327
#     4  10  20  34  53  77 108 149 193 230 270 325
#
# _framework density 10.243449
#
# number of rings (size 3 to 8) (size 9 to 14) (size 15 to 20)
#    0.000    2.000    1.250    2.250    0.000    5.250 
#    0.000    0.625    0.000    1.500    0.000    0.000 
#    0.000    0.000    0.000    0.000    0.000    0.000 
#
# Total GULP energy -178414.221990 kJ/mol
# GULP energy per Si atom -5575.444437 kJ/mol
# Density = 1.022013 g / cm^3
# Si number density = 10.243449 Si / 1000 Ang^3
#
#
#
# Elastic Constant Matrix: (Units=GPa)
#
#
# Indices 1 2 3 4 5 6 
#
# 1 57.9393 4.5976 -14.0721 -0.0621 -25.8937 -0.0019
# 2 4.5976 -31.1037 -6.3418 -0.1164 -10.1204 -0.0067
# 3 -14.0721 -6.3418 12.0486 -0.0911 -16.5149 -0.0032
# 4 -0.0621 -0.1164 -0.0911 76.9978 0.0235 10.8064
# 5 -25.8937 -10.1204 -16.5149 0.0235 20.8081 0.0018
# 6 -0.0019 -0.0067 -0.0032 10.8064 0.0018 3.9719
#
#
#
# Elastic Compliance Matrix: (Units=1/GPa)
#
#
# Indices 1 2 3 4 5 6 
#
# 1 -0.005441 0.015800 -0.036572 -0.000026 -0.028113 0.000080
# 2 0.015800 -0.039596 0.020880 -0.000033 0.016976 0.000040
# 3 -0.036572 0.020880 -0.031987 -0.000033 -0.060743 0.000109
# 4 -0.000026 -0.000033 -0.000033 0.021010 -0.000093 -0.057162
# 5 -0.028113 0.016976 -0.060743 -0.000093 -0.026879 0.000234
# 6 0.000080 0.000040 0.000109 -0.057162 0.000234 0.407292
#
#
# Mechanical properties :
#
#
# Convention : Reuss Voigt Hill
#
# Bulk Modulus (GPa) = -13.01948 0.80573 -6.10688
# Shear Modulus (GPa) = 16.74593 24.00225 20.37409
#
# Velocity S-wave (km/s) = 2.86212 3.42656 3.15698
# Velocity P-wave (km/s) = 2.13388 4.00615 3.20957
#
# Compressibility (1/GPa) = -0.07680798
#
# Stress axis : x y z
#
# Youngs Moduli (GPa) = -183.79380 -25.25522 -31.26264
#
# Poissons Ratio (x) = 0.39903 -1.14335
# Poissons Ratio (y) = 2.90394 0.65278
# Poissons Ratio (z) = -6.72180 0.52734
#
# Static dielectric constant tensor:
#      x y z
#    x 1.753690 0.000000 -0.021000 
#    y 0.000000 1.718780 0.000010 
#    z -0.021000 0.000010 1.735580 
# 
# From -- ./inp_files/295522.got.cif
#   From: 2010.05.17/outbox.ucp.g08.bks.cvg/sg12_148_cif.got.tgz:295522.got - 2010.06.11 11:47:21.
