data_PCOD9224649
_publ_section_title
;
Structure prediction by ZEFSAII (Michael W. Deem and Ramdas Pophale) SiO2 
 PCOD9224649
Probable space group: C 2/M
;
_chemical_formula_sum "Si O2"
_cell_formula_units_Z 28
_cell_length_a 30.000000
_cell_length_b 9.000000
_cell_length_c 21.000000
_cell_angle_alpha 90.000000
_cell_angle_beta 30.000000
_cell_angle_gamma 90.000000
_cell_volume 2835.000000
_symmetry_space_group_name_H-M "C 2/M"
_symmetry_group_IT_number 12
_symmetry_cell_setting 'monoclinic'
loop_
_space_group_symop_operation_xyz
x,y,z
-x,y,-z
-x,-y,-z
x,-y,z
1/2+x,1/2+y,z
1/2-x,1/2+y,-z
1/2-x,1/2-y,-z
1/2+x,1/2-y,z
loop_
_atom_site_type_symbol
_atom_site_label
_atom_site_fract_x
_atom_site_fract_y
_atom_site_fract_z
Si Si1 0.578972 0.328002 0.808626
Si Si2 0.768984 0.172086 0.272292
Si Si3 0.403367 0.827928 0.022706
Si Si4 0.616621 0.323228 0.213152
Si Si5 0.311174 0.176822 0.004094
Si Si6 0.156191 0.675330 0.596917
Si Si7 0.073064 0.677564 0.565916
O O1 0.575197 0.500000 0.792880
O O2 0.665622 0.316192 0.746856
O O3 0.593719 0.214312 0.732980
O O4 0.481148 0.278699 0.952966
O O5 0.812584 0.288390 0.171241
O O6 0.664746 0.200999 0.413339
O O7 0.777579 0.000000 0.239974
O O8 0.376125 0.800691 0.983396
O O9 0.427837 0.000000 0.001679
O O10 0.605325 0.500000 0.229760
O O11 0.705725 0.285055 0.144866
O O12 0.519008 0.250462 0.344102
O O13 0.649732 0.269673 0.102732
O O14 0.313171 0.000000 0.985950
O O15 0.171872 0.500000 0.569526
O O16 0.250000 0.750000 0.500000
O O17 0.105328 0.729032 0.596428
O O18 0.057419 0.500000 0.588518
#
# Coordination Sequence:
#
# PCOD9224649 Si02
#       7
#     8   8   8   8   8   8   8
#     4  11  22  38  57  81 112 149 187 230 279 327
#     4  10  22  40  56  75 110 153 188 225 274 328
#     4  11  23  38  57  82 109 145 188 232 278 326
#     4  10  20  35  60  89 110 139 182 225 273 331
#     4   9  20  39  58  81 116 145 173 224 284 330
#     4  11  21  35  55  81 113 147 182 224 273 325
#     4  10  21  38  56  79 114 151 181 220 280 329
#
# _framework density 9.8765429999999999
#
# number of rings (size 3 to 8) (size 9 to 14) (size 15 to 20)
#    0.000    1.714    1.429    3.000    0.000    9.714 
#    0.000    0.714    0.000    4.286    0.000    0.000 
#    0.000    0.000    0.000    0.000    0.000    0.000 
#
# Total GULP energy -156141.753046 kJ/mol
# GULP energy per Si atom -5576.491180 kJ/mol
# Density = 0.985406 g / cm^3
# Si number density = 9.876543 Si / 1000 Ang^3
#
#
#
# Elastic Constant Matrix: (Units=GPa)
#
#
# Indices 1 2 3 4 5 6 
#
# 1 40.3373 18.2848 16.1760 -0.0014 -24.9590 0.0000
# 2 18.2848 37.6928 19.1330 -0.0076 -15.6748 0.0028
# 3 16.1760 19.1330 86.8126 -0.0052 -39.3611 0.0009
# 4 -0.0014 -0.0076 -0.0052 41.1894 0.0016 -10.2490
# 5 -24.9590 -15.6748 -39.3611 0.0016 39.7556 -0.0001
# 6 0.0000 0.0028 0.0009 -10.2490 -0.0001 23.7453
#
#
#
# Elastic Compliance Matrix: (Units=1/GPa)
#
#
# Indices 1 2 3 4 5 6 
#
# 1 0.048778 -0.014191 0.009774 -0.000001 0.034706 0.000001
# 2 -0.014191 0.036139 -0.005262 0.000005 0.000130 -0.000002
# 3 0.009774 -0.005262 0.023043 0.000001 0.026876 0.000000
# 4 -0.000001 0.000005 0.000001 0.027199 0.000002 0.011740
# 5 0.034706 0.000130 0.026876 0.000002 0.073603 0.000000
# 6 0.000001 -0.000002 0.000000 0.011740 0.000000 0.047181
#
#
# Mechanical properties :
#
#
# Convention : Reuss Voigt Hill
#
# Bulk Modulus (GPa) = 11.28619 30.22561 20.75590
# Shear Modulus (GPa) = 16.40222 28.35464 22.37843
#
# Velocity S-wave (km/s) = 2.88473 3.79285 3.36952
# Velocity P-wave (km/s) = 4.10141 5.87502 5.06643
#
# Compressibility (1/GPa) = 0.08860386
#
# Stress axis : x y z
#
# Youngs Moduli (GPa) = 20.50084 27.67057 43.39661
#
# Poissons Ratio (x) = 0.39268 -0.42417
# Poissons Ratio (y) = 0.29094 0.22833
# Poissons Ratio (z) = -0.20038 0.14559
#
# Static dielectric constant tensor:
#      x y z
#    x 1.705740 0.000000 0.031160 
#    y 0.000000 1.662710 0.000000 
#    z 0.031160 0.000000 1.769780 
# 
# From -- ./inp_files/237431.got.cif
#   From: 2010.05.17/outbox.ucp.g08.bks.cvg/sg12_119_cif.got.tgz:237431.got - 2010.06.11 11:47:21.
