data_PCOD9224862
_publ_section_title
;
Structure prediction by ZEFSAII (Michael W. Deem and Ramdas Pophale) SiO2 
 PCOD9224862
Probable space group: C 2/M
;
_chemical_formula_sum "Si O2"
_cell_formula_units_Z 32
_cell_length_a 30.000000
_cell_length_b 9.000000
_cell_length_c 15.000000
_cell_angle_alpha 90.000000
_cell_angle_beta 50.000000
_cell_angle_gamma 90.000000
_cell_volume 3102.479995
_symmetry_space_group_name_H-M "C 2/M"
_symmetry_group_IT_number 12
_symmetry_cell_setting 'monoclinic'
loop_
_space_group_symop_operation_xyz
x,y,z
-x,y,-z
-x,-y,-z
x,-y,z
1/2+x,1/2+y,z
1/2-x,1/2+y,-z
1/2-x,1/2-y,-z
1/2+x,1/2-y,z
loop_
_atom_site_type_symbol
_atom_site_label
_atom_site_fract_x
_atom_site_fract_y
_atom_site_fract_z
Si Si1 0.812247 0.680309 0.898792
Si Si2 0.138960 0.330180 0.355137
Si Si3 0.384064 0.179847 0.977280
Si Si4 0.503853 0.824535 0.754832
Si Si5 0.279610 0.169813 0.583272
Si Si6 0.378861 0.675233 0.339836
Si Si7 0.026324 0.831911 0.563705
Si Si8 0.838997 0.323084 0.225159
O O1 0.807828 0.500000 0.904030
O O2 0.838818 0.723808 0.769170
O O3 0.853459 0.729743 0.926508
O O4 0.750000 0.750000 0.000000
O O5 0.116225 0.500000 0.375336
O O6 0.192191 0.335531 0.355227
O O7 0.090934 0.229090 0.463655
O O8 0.451615 0.220981 0.886305
O O9 0.383204 0.000000 0.976263
O O10 0.350625 0.224151 0.108887
O O11 0.561192 0.730350 0.696200
O O12 0.489441 0.780872 0.671842
O O13 0.515139 0.000000 0.748413
O O14 0.327128 0.237448 0.455902
O O15 0.224653 0.275647 0.661538
O O16 0.264264 0.000000 0.576774
O O17 0.370595 0.500000 0.357494
O O18 0.380607 0.732205 0.236491
O O19 0.000000 0.835656 0.500000
O O20 0.025730 0.000000 0.600522
O O21 0.847667 0.500000 0.222502
#
# Coordination Sequence:
#
# PCOD9224862 Si02
#       8
#     8   8   8   8   8   8   8   8
#     4  10  20  37  59  89 123 161 205 251 300 358
#     4  10  21  36  59  87 119 159 203 246 298 363
#     4   9  21  40  63  89 122 163 209 252 303 364
#     4  11  22  41  66  90 120 161 207 256 304 367
#     4  11  22  39  62  93 126 160 203 255 311 371
#     4  12  25  42  63  91 124 160 201 257 317 372
#     4  11  23  37  56  87 123 158 200 248 301 357
#     4  11  23  41  64  90 120 162 208 256 309 370
#
# _framework density 10.314329000000001
#
# number of rings (size 3 to 8) (size 9 to 14) (size 15 to 20)
#    0.000    1.375    1.250    4.500    0.000    3.500 
#    0.000    6.875    0.000    0.000    0.000    0.000 
#    0.000    0.000    0.000    0.000    0.000    0.000 
#
# Total GULP energy -178685.270463 kJ/mol
# GULP energy per Si atom -5583.914702 kJ/mol
# Density = 1.029085 g / cm^3
# Si number density = 10.314329 Si / 1000 Ang^3
#
#
#
# Elastic Constant Matrix: (Units=GPa)
#
#
# Indices 1 2 3 4 5 6 
#
# 1 59.5912 11.0965 50.1449 0.0000 14.1817 -0.0001
# 2 11.0965 43.8636 10.0254 0.0001 3.1320 -0.0002
# 3 50.1449 10.0254 69.3499 0.0000 -3.9567 0.0000
# 4 0.0000 0.0001 0.0000 20.5968 0.0000 6.8804
# 5 14.1817 3.1320 -3.9567 0.0000 28.4324 0.0000
# 6 -0.0001 -0.0002 0.0000 6.8804 0.0000 3.5783
#
#
#
# Elastic Compliance Matrix: (Units=1/GPa)
#
#
# Indices 1 2 3 4 5 6 
#
# 1 0.077079 -0.002959 -0.057940 -0.000002 -0.046183 0.000007
# 2 -0.002959 0.023964 -0.001402 -0.000002 -0.001359 0.000005
# 3 -0.057940 -0.001402 0.058641 0.000002 0.037215 -0.000006
# 4 -0.000002 -0.000002 0.000002 0.135734 0.000002 -0.260988
# 5 -0.046183 -0.001359 0.037215 0.000002 0.063535 -0.000005
# 6 0.000007 0.000005 -0.000006 -0.260988 -0.000005 0.781283
#
#
# Mechanical properties :
#
#
# Convention : Reuss Voigt Hill
#
# Bulk Modulus (GPa) = 28.50632 35.03757 31.77195
# Shear Modulus (GPa) = 3.91686 17.29069 10.60378
#
# Velocity S-wave (km/s) = 1.37945 2.89829 2.26969
# Velocity P-wave (km/s) = 4.04796 5.31243 4.72270
#
# Compressibility (1/GPa) = 0.03507994
#
# Stress axis : x y z
#
# Youngs Moduli (GPa) = 12.97377 41.72921 17.05299
#
# Poissons Ratio (x) = 0.12347 0.98806
# Poissons Ratio (y) = 0.03839 0.02392
# Poissons Ratio (z) = 0.75171 0.05852
#
# Static dielectric constant tensor:
#      x y z
#    x 1.933930 0.000000 0.048440 
#    y 0.000000 1.702590 0.000000 
#    z 0.048440 0.000000 1.709950 
# 
# From -- ./inp_files/249755.got.cif
#   From: 2010.05.17/outbox.ucp.g08.bks.cvg/sg12_125_cif.got.tgz:249755.got - 2010.06.11 11:47:21.
