data_PCOD9224115
_publ_section_title
;
Structure prediction by ZEFSAII (Michael W. Deem and Ramdas Pophale) SiO2 
 PCOD9224115
Probable space group: C 2/M
;
_chemical_formula_sum "Si O2"
_cell_formula_units_Z 32
_cell_length_a 18.000000
_cell_length_b 9.000000
_cell_length_c 30.000000
_cell_angle_alpha 90.000000
_cell_angle_beta 40.000000
_cell_angle_gamma 90.000000
_cell_volume 3123.947783
_symmetry_space_group_name_H-M "C 2/M"
_symmetry_group_IT_number 12
_symmetry_cell_setting 'monoclinic'
loop_
_space_group_symop_operation_xyz
x,y,z
-x,y,-z
-x,-y,-z
x,-y,z
1/2+x,1/2+y,z
1/2-x,1/2+y,-z
1/2-x,1/2-y,-z
1/2+x,1/2-y,z
loop_
_atom_site_type_symbol
_atom_site_label
_atom_site_fract_x
_atom_site_fract_y
_atom_site_fract_z
Si Si1 0.294835 0.175142 0.378493
Si Si2 0.195654 0.164870 0.709466
Si Si3 0.019582 0.671621 0.850985
Si Si4 0.442391 0.818640 0.749632
Si Si5 0.059293 0.179538 0.520039
Si Si6 0.449429 0.821056 0.976254
Si Si7 0.920664 0.666304 0.661770
Si Si8 0.207961 0.671947 0.097611
O O1 0.252938 0.216789 0.348667
O O2 0.424816 0.234892 0.314461
O O3 0.193913 0.230452 0.457033
O O4 0.303511 0.000000 0.381400
O O5 0.294893 0.151674 0.699755
O O6 0.085598 0.229925 0.784942
O O7 0.176763 0.000000 0.698541
O O8 0.060677 0.500000 0.828464
O O9 0.024676 0.727614 0.899133
O O10 0.885855 0.672018 0.898461
O O11 0.400390 0.774349 0.720406
O O12 0.360694 0.768702 0.827231
O O13 0.446000 0.000000 0.753113
O O14 0.000000 0.226133 0.500000
O O15 0.997497 0.242633 0.591933
O O16 0.056037 0.000000 0.522249
O O17 0.449912 0.000000 0.974467
O O18 0.500000 0.770769 0.000000
O O19 0.319540 0.763840 0.033999
O O20 0.973323 0.500000 0.641811
O O21 0.241276 0.500000 0.090672
#
# Coordination Sequence:
#
# PCOD9224115 Si02
#       8
#     8   8   8   8   8   8   8   8
#     4  10  19  37  61  80 109 150 189 229 276 334
#     4  11  22  34  55  86 113 141 186 237 280 324
#     4  10  21  39  61  82 110 153 191 223 276 336
#     4   9  19  37  58  81 111 148 187 226 277 334
#     4  10  20  34  56  83 109 145 191 233 276 334
#     4  10  23  40  57  85 122 151 180 227 285 331
#     4  10  22  37  54  80 115 149 181 231 288 331
#     4  10  20  37  63  85 107 149 195 228 267 330
#
# _framework density 10.243449
#
# number of rings (size 3 to 8) (size 9 to 14) (size 15 to 20)
#    0.000    2.000    2.500    0.750    1.750    3.000 
#    0.000    1.250    0.000    0.000    0.000    0.000 
#    0.000    0.000    0.000    0.000    0.000    0.000 
#
# Total GULP energy -178171.487369 kJ/mol
# GULP energy per Si atom -5567.858980 kJ/mol
# Density = 1.022013 g / cm^3
# Si number density = 10.243449 Si / 1000 Ang^3
#
#
#
# Elastic Constant Matrix: (Units=GPa)
#
#
# Indices 1 2 3 4 5 6 
#
# 1 7.0541 -25.3054 -22.1096 0.0000 0.6167 0.0002
# 2 -25.3054 -40.3566 -18.4334 0.0004 -18.9500 0.0013
# 3 -22.1096 -18.4334 46.3546 0.0000 -15.9810 0.0001
# 4 0.0000 0.0004 0.0000 24.2637 0.0000 -2.2288
# 5 0.6167 -18.9500 -15.9810 0.0000 19.0632 0.0001
# 6 0.0002 0.0013 0.0001 -2.2288 0.0001 6.0451
#
#
#
# Elastic Compliance Matrix: (Units=1/GPa)
#
#
# Indices 1 2 3 4 5 6 
#
# 1 0.061227 -0.030427 0.008429 0.000001 -0.025161 0.000005
# 2 -0.030427 0.004587 -0.015158 0.000000 -0.007163 0.000001
# 3 0.008429 -0.015158 0.020080 0.000000 0.001493 0.000003
# 4 0.000001 0.000000 0.000000 0.042659 0.000000 0.015728
# 5 -0.025161 -0.007163 0.001493 0.000000 0.047402 0.000002
# 6 0.000005 0.000001 0.000003 0.015728 0.000002 0.171222
#
#
# Mechanical properties :
#
#
# Convention : Reuss Voigt Hill
#
# Bulk Modulus (GPa) = 86.34467 -13.18275 36.58096
# Shear Modulus (GPa) = 11.75502 15.13443 13.44473
#
# Velocity S-wave (km/s) = 2.39797 2.72092 2.56454
# Velocity P-wave (km/s) = 7.06433 1.85000 5.16369
#
# Compressibility (1/GPa) = 0.01158149
#
# Stress axis : x y z
#
# Youngs Moduli (GPa) = 16.33270 217.99348 49.80079
#
# Poissons Ratio (x) = 6.63295 -0.41977
# Poissons Ratio (y) = 0.49696 0.75488
# Poissons Ratio (z) = -0.13767 3.30436
#
# Static dielectric constant tensor:
#      x y z
#    x 2.735300 0.000000 -0.282500 
#    y 0.000000 1.810850 0.000000 
#    z -0.282500 0.000000 1.786350 
# 
# From -- ./inp_files/378039.got.cif
#   From: 2010.05.17/outbox.ucp.g08.bks.cvg/sg12_190_cif.got.tgz:378039.got - 2010.06.11 11:47:21.
