data_PCOD9224525
_publ_section_title
;
Structure prediction by ZEFSAII (Michael W. Deem and Ramdas Pophale) SiO2 
 PCOD9224525
Probable space group: C 2/M
;
_chemical_formula_sum "Si O2"
_cell_formula_units_Z 24
_cell_length_a 24.000000
_cell_length_b 9.000000
_cell_length_c 12.000000
_cell_angle_alpha 90.000000
_cell_angle_beta 70.000000
_cell_angle_gamma 90.000000
_cell_volume 2435.683273
_symmetry_space_group_name_H-M "C 2/M"
_symmetry_group_IT_number 12
_symmetry_cell_setting 'monoclinic'
loop_
_space_group_symop_operation_xyz
x,y,z
-x,y,-z
-x,-y,-z
x,-y,z
1/2+x,1/2+y,z
1/2-x,1/2+y,-z
1/2-x,1/2-y,-z
1/2+x,1/2-y,z
loop_
_atom_site_type_symbol
_atom_site_label
_atom_site_fract_x
_atom_site_fract_y
_atom_site_fract_z
Si Si1 0.228445 0.821144 0.752256
Si Si2 0.121953 0.675728 0.953466
Si Si3 0.062155 0.677247 0.221615
Si Si4 0.952691 0.169302 0.178141
Si Si5 0.662717 0.330675 0.584978
Si Si6 0.639945 0.821784 0.367627
O O1 0.182032 0.747424 0.866825
O O2 0.213224 0.772052 0.635323
O O3 0.296395 0.787217 0.731190
O O4 0.220068 0.000000 0.759909
O O5 0.122590 0.500000 0.932407
O O6 0.068102 0.746160 0.918920
O O7 0.110782 0.701253 0.091390
O O8 0.051893 0.500000 0.236357
O O9 0.087308 0.731111 0.322960
O O10 0.003677 0.753269 0.214398
O O11 0.894341 0.166829 0.295343
O O12 0.969179 0.000000 0.141331
O O13 0.677804 0.500000 0.542519
O O14 0.644653 0.241824 0.488081
O O15 0.635353 0.000000 0.378260
#
# Coordination Sequence:
#
# PCOD9224525 Si02
#       6
#     8   8   8   8   8   8
#     4   9  19  36  56  79 107 138 175 219 262 307
#     4  10  20  35  56  80 106 137 175 219 263 309
#     4  10  22  37  52  77 111 142 174 215 262 311
#     4  10  21  37  57  80 105 136 176 220 264 311
#     4   9  19  35  54  78 105 133 174 224 265 305
#     4  10  21  36  54  77 108 144 177 212 259 314
#
# _framework density 9.8534980000000001
#
# number of rings (size 3 to 8) (size 9 to 14) (size 15 to 20)
#    0.000    2.333    0.000    3.000    0.000    9.333 
#    0.000    3.333    0.000    0.000    0.000    0.000 
#    0.000    0.000    0.000    0.000    0.000    0.000 
#
# Total GULP energy -133918.794580 kJ/mol
# GULP energy per Si atom -5579.949774 kJ/mol
# Density = 0.983107 g / cm^3
# Si number density = 9.853498 Si / 1000 Ang^3
#
#
#
# Elastic Constant Matrix: (Units=GPa)
#
#
# Indices 1 2 3 4 5 6 
#
# 1 53.5350 10.5554 7.4730 0.0000 19.0354 0.0000
# 2 10.5554 26.1634 13.8690 0.0000 7.5212 0.0000
# 3 7.4730 13.8690 20.6134 0.0000 8.8770 0.0000
# 4 0.0000 0.0000 0.0000 21.4904 0.0000 -6.5158
# 5 19.0354 7.5212 8.8770 0.0000 24.7653 0.0000
# 6 0.0000 0.0000 0.0000 -6.5158 0.0000 24.6483
#
#
#
# Elastic Compliance Matrix: (Units=1/GPa)
#
#
# Indices 1 2 3 4 5 6 
#
# 1 0.026495 -0.006906 0.003439 0.000000 -0.019500 0.000000
# 2 -0.006906 0.061617 -0.039237 0.000000 0.000660 0.000000
# 3 0.003439 -0.039237 0.082389 0.000000 -0.020259 0.000000
# 4 0.000000 0.000000 0.000000 0.050587 0.000000 0.013373
# 5 -0.019500 0.000660 -0.020259 0.000000 0.062429 0.000000
# 6 0.000000 0.000000 0.000000 0.013373 0.000000 0.044106
#
#
# Mechanical properties :
#
#
# Convention : Reuss Voigt Hill
#
# Bulk Modulus (GPa) = 11.75201 18.23406 14.99304
# Shear Modulus (GPa) = 11.32769 18.74175 15.03472
#
# Velocity S-wave (km/s) = 2.40011 3.08721 2.76508
# Velocity P-wave (km/s) = 3.69554 4.68833 4.22123
#
# Compressibility (1/GPa) = 0.08509182
#
# Stress axis : x y z
#
# Youngs Moduli (GPa) = 37.74356 16.22921 12.13749
#
# Poissons Ratio (x) = 0.11208 -0.04174
# Poissons Ratio (y) = 0.26067 0.47624
# Poissons Ratio (z) = -0.12980 0.63679
#
# Static dielectric constant tensor:
#      x y z
#    x 1.698780 0.000000 -0.023470 
#    y 0.000000 1.680120 0.000000 
#    z -0.023470 0.000000 1.695290 
# 
# From -- ./inp_files/172046.got.cif
#   From: 2010.05.17/outbox.ucp.g08.bks.cvg/sg12_87_cif.got.tgz:172046.got - 2010.06.11 11:47:21.
