data_PCOD9224516
_publ_section_title
;
Structure prediction by ZEFSAII (Michael W. Deem and Ramdas Pophale) SiO2 
 PCOD9224516
Probable space group: C 2/M
;
_chemical_formula_sum "Si O2"
_cell_formula_units_Z 32
_cell_length_a 30.000000
_cell_length_b 9.000000
_cell_length_c 18.000000
_cell_angle_alpha 90.000000
_cell_angle_beta 40.000000
_cell_angle_gamma 90.000000
_cell_volume 3123.947783
_symmetry_space_group_name_H-M "C 2/M"
_symmetry_group_IT_number 12
_symmetry_cell_setting 'monoclinic'
loop_
_space_group_symop_operation_xyz
x,y,z
-x,y,-z
-x,-y,-z
x,-y,z
1/2+x,1/2+y,z
1/2-x,1/2+y,-z
1/2-x,1/2-y,-z
1/2+x,1/2-y,z
loop_
_atom_site_type_symbol
_atom_site_label
_atom_site_fract_x
_atom_site_fract_y
_atom_site_fract_z
Si Si1 0.320887 0.319826 0.940614
Si Si2 0.961837 0.321349 0.747077
Si Si3 0.058177 0.329062 0.753627
Si Si4 0.206571 0.670976 0.491745
Si Si5 0.335972 0.672030 0.088813
Si Si6 0.580839 0.667767 0.877982
Si Si7 0.048631 0.174401 0.509361
Si Si8 0.688332 0.827182 0.350916
O O1 0.316797 0.500000 0.943256
O O2 0.390733 0.258723 0.813740
O O3 0.250000 0.250000 0.000000
O O4 0.335086 0.266210 0.007206
O O5 0.954036 0.500000 0.758563
O O6 0.993377 0.271824 0.787336
O O7 0.018292 0.272069 0.614829
O O8 0.042824 0.500000 0.792251
O O9 0.125583 0.324947 0.615398
O O10 0.081564 0.247885 0.798366
O O11 0.229690 0.500000 0.460451
O O12 0.250000 0.750000 0.500000
O O13 0.211837 0.731918 0.401810
O O14 0.360620 0.500000 0.050908
O O15 0.380069 0.738048 0.100903
O O16 0.256185 0.672330 0.214525
O O17 0.609311 0.500000 0.832409
O O18 0.500000 0.659368 0.000000
O O19 0.126348 0.231465 0.397140
O O20 0.000000 0.194130 0.500000
O O21 0.048541 0.000000 0.529410
O O22 0.665715 0.000000 0.389333
#
# Coordination Sequence:
#
# PCOD9224516 Si02
#       8
#     8   8   8   8   8   8   8   8
#     4  11  24  43  65  94 126 161 208 261 311 365
#     4  11  23  43  67  91 122 165 208 250 306 373
#     4  10  21  37  57  86 122 156 198 247 302 357
#     4  10  20  35  55  84 120 158 200 245 292 352
#     4   9  20  38  61  89 123 163 207 251 301 365
#     4  10  20  36  60  88 117 157 207 252 300 359
#     4  11  25  42  62  93 125 155 199 261 317 364
#     4  10  20  39  62  86 121 166 207 245 296 369
#
# _framework density 10.243449
#
# number of rings (size 3 to 8) (size 9 to 14) (size 15 to 20)
#    0.000    1.750    1.250    2.625    1.750    5.250 
#    0.000    2.500    0.000    0.000    0.000    0.000 
#    0.000    0.000    0.000    0.000    0.000    0.000 
#
# Total GULP energy -178581.160743 kJ/mol
# GULP energy per Si atom -5580.661273 kJ/mol
# Density = 1.022013 g / cm^3
# Si number density = 10.243449 Si / 1000 Ang^3
#
#
#
# Elastic Constant Matrix: (Units=GPa)
#
#
# Indices 1 2 3 4 5 6 
#
# 1 118.0150 34.4724 13.6894 0.0050 -22.0725 -0.0018
# 2 34.4724 43.6644 3.6716 0.0198 -5.8273 -0.0059
# 3 13.6894 3.6716 44.0558 0.0101 -4.5877 -0.0014
# 4 0.0050 0.0198 0.0101 14.3373 -0.0027 -1.6827
# 5 -22.0725 -5.8273 -4.5877 -0.0027 35.0227 -0.0001
# 6 -0.0018 -0.0059 -0.0014 -1.6827 -0.0001 18.9989
#
#
#
# Elastic Compliance Matrix: (Units=1/GPa)
#
#
# Indices 1 2 3 4 5 6 
#
# 1 0.012479 -0.008831 -0.002510 0.000011 0.006066 -0.000001
# 2 -0.008831 0.029779 0.000201 -0.000038 -0.000585 0.000005
# 3 -0.002510 0.000201 0.023623 -0.000016 0.001546 0.000000
# 4 0.000011 -0.000038 -0.000016 0.070481 0.000004 0.006242
# 5 0.006066 -0.000585 0.001546 0.000004 0.032481 0.000001
# 6 -0.000001 0.000005 0.000000 0.006242 0.000001 0.053187
#
#
# Mechanical properties :
#
#
# Convention : Reuss Voigt Hill
#
# Bulk Modulus (GPa) = 22.93504 34.37800 28.65652
# Shear Modulus (GPa) = 19.31672 23.93192 21.62432
#
# Velocity S-wave (km/s) = 3.07397 3.42154 3.25240
# Velocity P-wave (km/s) = 4.88040 5.69440 5.30304
#
# Compressibility (1/GPa) = 0.04360140
#
# Stress axis : x y z
#
# Youngs Moduli (GPa) = 80.13553 33.58053 42.33239
#
# Poissons Ratio (x) = 0.29656 0.10625
# Poissons Ratio (y) = 0.70770 -0.00853
# Poissons Ratio (z) = 0.20113 -0.00677
#
# Static dielectric constant tensor:
#      x y z
#    x 1.721640 0.000000 0.012530 
#    y 0.000000 1.730090 0.000000 
#    z 0.012530 0.000000 1.769610 
# 
# From -- ./inp_files/295570.got.cif
#   From: 2010.05.17/outbox.ucp.g08.bks.cvg/sg12_148_cif.got.tgz:295570.got - 2010.06.11 11:47:21.
