data_PCOD9224989
_publ_section_title
;
Structure prediction by ZEFSAII (Michael W. Deem and Ramdas Pophale) SiO2 
 PCOD9224989
Probable space group: C 2/M
;
_chemical_formula_sum "Si O2"
_cell_formula_units_Z 32
_cell_length_a 24.000000
_cell_length_b 9.000000
_cell_length_c 30.000000
_cell_angle_alpha 90.000000
_cell_angle_beta 30.000000
_cell_angle_gamma 90.000000
_cell_volume 3240.000000
_symmetry_space_group_name_H-M "C 2/M"
_symmetry_group_IT_number 12
_symmetry_cell_setting 'monoclinic'
loop_
_space_group_symop_operation_xyz
x,y,z
-x,y,-z
-x,-y,-z
x,-y,z
1/2+x,1/2+y,z
1/2-x,1/2+y,-z
1/2-x,1/2-y,-z
1/2+x,1/2-y,z
loop_
_atom_site_type_symbol
_atom_site_label
_atom_site_fract_x
_atom_site_fract_y
_atom_site_fract_z
Si Si1 0.868121 0.169163 0.593670
Si Si2 0.701256 0.671919 0.655156
Si Si3 0.525215 0.325088 0.066087
Si Si4 0.913768 0.676106 0.788743
Si Si5 0.991804 0.675071 0.835618
Si Si6 0.656365 0.824438 0.594843
Si Si7 0.707636 0.172123 0.888129
Si Si8 0.208800 0.328296 0.785373
O O1 0.818026 0.293483 0.596560
O O2 0.811133 0.195898 0.681017
O O3 0.000000 0.173383 0.500000
O O4 0.833439 0.000000 0.604185
O O5 0.685489 0.500000 0.654769
O O6 0.605428 0.730201 0.754411
O O7 0.689835 0.778366 0.621156
O O8 0.533619 0.500000 0.066123
O O9 0.570969 0.239969 0.078334
O O10 0.398173 0.274246 0.147693
O O11 0.599712 0.269352 0.973695
O O12 0.894951 0.500000 0.794130
O O13 0.936617 0.695364 0.825591
O O14 0.809072 0.770945 0.847299
O O15 0.025816 0.720838 0.683822
O O16 0.013973 0.500000 0.825617
O O17 0.750000 0.750000 0.500000
O O18 0.659602 0.000000 0.585973
O O19 0.743967 0.188744 0.811921
O O20 0.680963 0.000000 0.914950
O O21 0.171591 0.500000 0.804923
#
# Coordination Sequence:
#
# PCOD9224989 Si02
#       8
#     8   8   8   8   8   8   8   8
#     4  10  21  38  61  88 119 159 201 247 305 363
#     4  11  21  35  57  87 119 154 197 247 301 358
#     4  12  24  38  62  92 118 155 203 254 309 363
#     4   9  21  40  60  86 121 158 197 248 307 356
#     4  10  20  38  63  87 117 157 198 247 300 361
#     4  10  21  38  61  88 119 159 203 250 303 361
#     4  11  24  40  60  87 121 165 205 247 301 365
#     4  10  22  41  62  85 120 161 204 249 298 363
#
# _framework density 9.8765429999999999
#
# number of rings (size 3 to 8) (size 9 to 14) (size 15 to 20)
#    0.000    1.625    1.250    4.500    0.000    7.250 
#    0.000    1.250    0.000    0.000    0.000    0.000 
#    0.000    0.000    0.000    0.000    0.000    0.000 
#
# Total GULP energy -178537.379244 kJ/mol
# GULP energy per Si atom -5579.293101 kJ/mol
# Density = 0.985406 g / cm^3
# Si number density = 9.876543 Si / 1000 Ang^3
#
#
#
# Elastic Constant Matrix: (Units=GPa)
#
#
# Indices 1 2 3 4 5 6 
#
# 1 49.0536 7.7654 19.6144 0.0001 -9.2333 -0.0003
# 2 7.7654 20.9453 19.2769 0.0004 -17.4433 -0.0012
# 3 19.6144 19.2769 88.7206 -0.0001 -1.7283 -0.0003
# 4 0.0001 0.0004 -0.0001 30.3419 -0.0003 -4.7697
# 5 -9.2333 -17.4433 -1.7283 -0.0003 11.3013 0.0007
# 6 -0.0003 -0.0012 -0.0003 -4.7697 0.0007 20.5659
#
#
#
# Elastic Compliance Matrix: (Units=1/GPa)
#
#
# Indices 1 2 3 4 5 6 
#
# 1 0.020599 -0.022426 -0.000028 0.000000 -0.017789 0.000000
# 2 -0.022426 -0.085514 0.020672 0.000000 -0.147150 0.000000
# 3 -0.000028 0.020672 0.007429 0.000000 0.033020 0.000000
# 4 0.000000 0.000000 0.000000 0.034205 0.000001 0.007933
# 5 -0.017789 -0.147150 0.033020 0.000001 -0.148122 -0.000003
# 6 0.000000 0.000000 0.000000 0.007933 -0.000003 0.050464
#
#
# Mechanical properties :
#
#
# Convention : Reuss Voigt Hill
#
# Bulk Modulus (GPa) = -16.37971 28.00368 5.81199
# Shear Modulus (GPa) = -36.30438 19.91267 -8.19585
#
# Velocity S-wave (km/s) = -4.29174 3.17847 -2.03916
# Velocity P-wave (km/s) = 5.73314 5.26098 1.61106
#
# Compressibility (1/GPa) = -0.06105116
#
# Stress axis : x y z
#
# Youngs Moduli (GPa) = 48.54679 -11.69399 134.60318
#
# Poissons Ratio (x) = -0.26225 0.00374
# Poissons Ratio (y) = 1.08873 -2.78247
# Poissons Ratio (z) = 0.00135 0.24173
#
# Static dielectric constant tensor:
#      x y z
#    x 1.770830 0.000000 0.084680 
#    y 0.000000 1.674360 0.000000 
#    z 0.084680 0.000000 1.812110 
# 
# From -- ./inp_files/382395.got.cif
#   From: 2010.05.17/outbox.ucp.g08.bks.cvg/sg12_192_cif.got.tgz:382395.got - 2010.06.11 11:47:21.
