data_PCOD9224268
_publ_section_title
;
Structure prediction by ZEFSAII (Michael W. Deem and Ramdas Pophale) SiO2 
 PCOD9224268
Probable space group: C 2/M
;
_chemical_formula_sum "Si O2"
_cell_formula_units_Z 28
_cell_length_a 27.000000
_cell_length_b 18.000000
_cell_length_c 18.000000
_cell_angle_alpha 90.000000
_cell_angle_beta 160.000000
_cell_angle_gamma 90.000000
_cell_volume 2991.992214
_symmetry_space_group_name_H-M "C 2/M"
_symmetry_group_IT_number 12
_symmetry_cell_setting 'monoclinic'
loop_
_space_group_symop_operation_xyz
x,y,z
-x,y,-z
-x,-y,-z
x,-y,z
1/2+x,1/2+y,z
1/2-x,1/2+y,-z
1/2-x,1/2-y,-z
1/2+x,1/2-y,z
loop_
_atom_site_type_symbol
_atom_site_label
_atom_site_fract_x
_atom_site_fract_y
_atom_site_fract_z
Si Si1 0.095395 0.195925 0.705981
Si Si2 0.891769 0.811341 0.634051
Si Si3 0.572033 0.413061 0.797394
Si Si4 0.160745 0.412561 0.730548
Si Si5 0.175272 0.414210 0.578726
Si Si6 0.858538 0.211784 0.756362
Si Si7 0.576901 0.811467 0.813119
O O1 0.042067 0.125428 0.677556
O O2 0.083546 0.264094 0.746542
O O3 0.000000 0.207971 0.500000
O O4 0.263827 0.179694 0.929861
O O5 0.892998 0.815825 0.723064
O O6 0.737227 0.785293 0.386935
O O7 0.948526 0.886084 0.678432
O O8 0.991629 0.742475 0.748826
O O9 0.582127 0.500000 0.805658
O O10 0.721851 0.382814 0.045983
O O11 0.144490 0.500000 0.726989
O O12 0.212186 0.408312 0.718208
O O13 0.000000 0.380057 0.500000
O O14 0.193101 0.500000 0.582138
O O15 0.273945 0.354717 0.676895
O O16 0.012062 0.385831 0.331122
O O17 0.000000 0.229580 0.000000
#
# Coordination Sequence:
#
# PCOD9224268 Si02
#       7
#     8   8   8   8   8   8   8
#     4  10  21  35  54  78 105 140 181 216 250 301
#     4   9  20  36  52  75 100 134 178 212 262 320
#     4  10  20  34  52  76 108 142 175 215 261 311
#     4   9  17  29  48  76 109 141 168 199 251 316
#     4  10  20  33  53  82 109 135 169 212 268 322
#     4  10  20  35  56  76 101 133 171 223 269 310
#     4   9  20  36  53  76 107 140 173 214 260 309
#
# _framework density 9.3583130000000008
#
# number of rings (size 3 to 8) (size 9 to 14) (size 15 to 20)
#    0.000    2.429    0.000    1.714    0.000   10.286 
#    0.000    0.000    0.000    0.429    0.000    0.000 
#    0.000    0.000    0.000    0.000    0.000    0.000 
#
# Total GULP energy -156083.843578 kJ/mol
# GULP energy per Si atom -5574.422985 kJ/mol
# Density = 0.933701 g / cm^3
# Si number density = 9.358313 Si / 1000 Ang^3
#
#
#
# Elastic Constant Matrix: (Units=GPa)
#
#
# Indices 1 2 3 4 5 6 
#
# 1 33.5726 23.3554 53.8453 0.0000 9.2170 0.0000
# 2 23.3554 41.4321 5.6274 0.0000 -17.4715 0.0000
# 3 53.8453 5.6274 99.8655 0.0000 -21.8888 0.0000
# 4 0.0000 0.0000 0.0000 21.2416 0.0000 -4.0993
# 5 9.2170 -17.4715 -21.8888 0.0000 4.1997 0.0000
# 6 0.0000 0.0000 0.0000 -4.0993 0.0000 7.5676
#
#
#
# Elastic Compliance Matrix: (Units=1/GPa)
#
#
# Indices 1 2 3 4 5 6 
#
# 1 0.008709 0.009945 0.002652 0.000000 0.036080 0.000000
# 2 0.009945 0.013430 -0.009436 0.000000 -0.015133 0.000000
# 3 0.002652 -0.009436 0.005367 0.000000 -0.017102 0.000000
# 4 0.000000 0.000000 0.000000 0.052573 0.000000 0.028479
# 5 0.036080 -0.015133 -0.017102 0.000000 0.006837 0.000000
# 6 0.000000 0.000000 0.000000 0.028479 0.000000 0.147569
#
#
# Mechanical properties :
#
#
# Convention : Reuss Voigt Hill
#
# Bulk Modulus (GPa) = 29.56090 37.83628 33.69859
# Shear Modulus (GPa) = 20.88212 12.73791 16.81001
#
# Velocity S-wave (km/s) = 3.34383 2.61160 3.00014
# Velocity P-wave (km/s) = 5.54405 5.41785 5.48131
#
# Compressibility (1/GPa) = 0.03382847
#
# Stress axis : x y z
#
# Youngs Moduli (GPa) = 114.81955 74.45898 186.33063
#
# Poissons Ratio (x) = -0.74049 -0.49412
# Poissons Ratio (y) = -1.14187 1.75816
# Poissons Ratio (z) = -0.30448 0.70257
#
# Static dielectric constant tensor:
#      x y z
#    x 1.671840 0.000000 0.054240 
#    y 0.000000 1.628740 0.000000 
#    z 0.054240 0.000000 1.677190 
# 
# From -- ./inp_files/133242.got.cif
#   From: 2010.05.17/outbox.ucp.g08.bks.cvg/sg12_67_cif.got.tgz:133242.got - 2010.06.11 11:47:21.
