data_PCOD9224191
_publ_section_title
;
Structure prediction by ZEFSAII (Michael W. Deem and Ramdas Pophale) SiO2 
 PCOD9224191
Probable space group: C 2/M
;
_chemical_formula_sum "Si O2"
_cell_formula_units_Z 32
_cell_length_a 30.000000
_cell_length_b 9.000000
_cell_length_c 24.000000
_cell_angle_alpha 90.000000
_cell_angle_beta 30.000000
_cell_angle_gamma 90.000000
_cell_volume 3240.000000
_symmetry_space_group_name_H-M "C 2/M"
_symmetry_group_IT_number 12
_symmetry_cell_setting 'monoclinic'
loop_
_space_group_symop_operation_xyz
x,y,z
-x,y,-z
-x,-y,-z
x,-y,z
1/2+x,1/2+y,z
1/2-x,1/2+y,-z
1/2-x,1/2-y,-z
1/2+x,1/2-y,z
loop_
_atom_site_type_symbol
_atom_site_label
_atom_site_fract_x
_atom_site_fract_y
_atom_site_fract_z
Si Si1 0.627789 0.834372 0.673980
Si Si2 0.164940 0.669397 0.896803
Si Si3 0.786552 0.167784 0.576832
Si Si4 0.557213 0.163885 0.626202
Si Si5 0.836800 0.835198 0.210910
Si Si6 0.114265 0.825129 0.154194
Si Si7 0.219611 0.674795 0.953789
Si Si8 0.500681 0.666916 0.889112
O O1 0.729869 0.813170 0.581449
O O2 0.606111 0.838372 0.632973
O O3 0.568908 0.707706 0.766199
O O4 0.603914 0.000000 0.722325
O O5 0.169614 0.500000 0.871098
O O6 0.173301 0.793839 0.841675
O O7 0.231949 0.691550 0.875050
O O8 0.069944 0.703204 0.027588
O O9 0.868091 0.277761 0.495649
O O10 0.714327 0.207961 0.700863
O O11 0.818489 0.000000 0.544877
O O12 0.476849 0.274791 0.720791
O O13 0.524284 0.000000 0.648775
O O14 0.938108 0.832749 0.121987
O O15 0.802560 0.000000 0.261695
O O16 0.193805 0.770066 0.107716
O O17 0.118686 0.000000 0.144971
O O18 0.134719 0.756177 0.071959
O O19 0.207180 0.500000 0.978171
O O20 0.463634 0.500000 0.921943
#
# Coordination Sequence:
#
# PCOD9224191 Si02
#       8
#     8   8   8   8   8   8   8   8
#     4   9  19  33  49  72 104 138 170 206 247 295
#     4  11  21  33  52  75 100 133 171 209 251 299
#     4  10  20  35  53  73  99 135 176 210 246 294
#     4  11  21  33  51  76 105 135 168 208 253 296
#     4  10  21  36  51  71 102 136 170 210 253 294
#     4  10  20  35  55  78 104 134 167 203 248 303
#     4   9  20  37  54  76 106 134 163 205 254 300
#     4  10  20  32  48  73 105 137 169 207 249 295
#
# _framework density 9.8765429999999999
#
# number of rings (size 3 to 8) (size 9 to 14) (size 15 to 20)
#    0.000    2.000    0.000    3.750    0.000    9.000 
#    0.000    0.000    0.000    0.750    0.000    5.250 
#    0.000    0.000    0.000    0.000    0.000    0.000 
#
# Total GULP energy -178239.162882 kJ/mol
# GULP energy per Si atom -5569.973840 kJ/mol
# Density = 0.985406 g / cm^3
# Si number density = 9.876543 Si / 1000 Ang^3
#
#
#
# Elastic Constant Matrix: (Units=GPa)
#
#
# Indices 1 2 3 4 5 6 
#
# 1 35.3093 30.4604 15.4457 -0.0009 -2.9767 0.0009
# 2 30.4604 3.5977 4.8163 -0.0031 7.0492 0.0032
# 3 15.4457 4.8163 11.4726 -0.0024 -7.7164 0.0007
# 4 -0.0009 -0.0031 -0.0024 32.0815 0.0010 -2.9374
# 5 -2.9767 7.0492 -7.7164 0.0010 5.9613 -0.0017
# 6 0.0009 0.0032 0.0007 -2.9374 -0.0017 10.4905
#
#
#
# Elastic Compliance Matrix: (Units=1/GPa)
#
#
# Indices 1 2 3 4 5 6 
#
# 1 -0.065076 0.035924 0.170829 0.000011 0.146148 0.000011
# 2 0.035924 -0.027202 -0.025076 -0.000003 0.017646 0.000009
# 3 0.170829 -0.025076 -0.424910 -0.000022 -0.435056 -0.000057
# 4 0.000011 -0.000003 -0.000022 0.031991 -0.000022 0.008958
# 5 0.146148 0.017646 -0.435056 -0.000022 -0.343281 -0.000052
# 6 0.000011 0.000009 -0.000057 0.008958 -0.000052 0.097833
#
#
# Mechanical properties :
#
#
# Convention : Reuss Voigt Hill
#
# Bulk Modulus (GPa) = -6.50044 16.86939 5.18448
# Shear Modulus (GPa) = -4.36575 9.68380 2.65902
#
# Velocity S-wave (km/s) = -1.48827 2.21654 1.16149
# Velocity P-wave (km/s) = 2.50025 3.88708 2.10454
#
# Compressibility (1/GPa) = -0.15383584
#
# Stress axis : x y z
#
# Youngs Moduli (GPa) = -15.36670 -36.76138 -2.35344
#
# Poissons Ratio (x) = 1.32060 0.40203
# Poissons Ratio (y) = 0.55203 -0.05901
# Poissons Ratio (z) = 2.62507 -0.92182
#
# Static dielectric constant tensor:
#      x y z
#    x 1.739380 0.000000 0.018310 
#    y 0.000000 1.671580 0.000000 
#    z 0.018310 0.000000 1.700330 
# 
# From -- ./inp_files/353283.got.cif
#   From: 2010.05.17/outbox.ucp.g08.bks.cvg/sg12_177_cif.got.tgz:353283.got - 2010.06.11 11:47:21.
