data_PCOD9224020
_publ_section_title
;
Structure prediction by ZEFSAII (Michael W. Deem and Ramdas Pophale) SiO2 
 PCOD9224020
Probable space group: C 2/M
;
_chemical_formula_sum "Si O2"
_cell_formula_units_Z 32
_cell_length_a 30.000000
_cell_length_b 9.000000
_cell_length_c 18.000000
_cell_angle_alpha 90.000000
_cell_angle_beta 40.000000
_cell_angle_gamma 90.000000
_cell_volume 3123.947783
_symmetry_space_group_name_H-M "C 2/M"
_symmetry_group_IT_number 12
_symmetry_cell_setting 'monoclinic'
loop_
_space_group_symop_operation_xyz
x,y,z
-x,y,-z
-x,-y,-z
x,-y,z
1/2+x,1/2+y,z
1/2-x,1/2+y,-z
1/2-x,1/2-y,-z
1/2+x,1/2-y,z
loop_
_atom_site_type_symbol
_atom_site_label
_atom_site_fract_x
_atom_site_fract_y
_atom_site_fract_z
Si Si1 0.823855 0.321944 0.890730
Si Si2 0.945157 0.324154 0.342127
Si Si3 0.793447 0.678473 0.510373
Si Si4 0.783179 0.322995 0.256880
Si Si5 0.682834 0.324178 0.258065
Si Si6 0.555663 0.178929 0.492198
Si Si7 0.576640 0.323855 0.933857
Si Si8 0.415678 0.176133 0.918741
O O1 0.822078 0.500000 0.888730
O O2 0.839001 0.259650 0.789406
O O3 0.871013 0.286185 0.902293
O O4 0.750000 0.250000 0.000000
O O5 0.933289 0.500000 0.365305
O O6 0.872275 0.262644 0.408605
O O7 0.969037 0.278489 0.393918
O O8 0.005474 0.306843 0.207376
O O9 0.790711 0.500000 0.507425
O O10 0.750000 0.750000 0.500000
O O11 0.763766 0.730351 0.627037
O O12 0.774959 0.500000 0.277313
O O13 0.755986 0.290730 0.206815
O O14 0.860825 0.273334 0.178904
O O15 0.682116 0.500000 0.244663
O O16 0.624599 0.271630 0.389723
O O17 0.500000 0.213144 0.500000
O O18 0.568889 0.000000 0.471333
O O19 0.587243 0.500000 0.908541
O O20 0.500000 0.286414 0.000000
O O21 0.587749 0.281247 0.005952
O O22 0.401746 0.000000 0.955107
#
# Coordination Sequence:
#
# PCOD9224020 Si02
#       8
#     8   8   8   8   8   8   8   8
#     4  11  23  39  62  90 124 163 209 260 310 368
#     4   9  19  37  61  90 123 161 204 247 303 365
#     4  11  23  40  64  94 127 164 206 258 314 372
#     4  11  24  43  66  93 125 166 212 258 308 373
#     4  11  23  38  59  90 126 161 204 254 307 365
#     4  10  19  35  60  88 121 163 207 248 299 364
#     4  11  26  45  65  94 126 160 204 261 322 375
#     4  10  22  42  65  92 124 164 212 258 304 371
#
# _framework density 10.243449
#
# number of rings (size 3 to 8) (size 9 to 14) (size 15 to 20)
#    0.000    1.500    1.250    3.375    1.750    8.750 
#    0.000    1.250    0.000    0.000    0.000    0.000 
#    0.000    0.000    0.000    0.000    0.000    0.000 
#
# Total GULP energy -178503.354096 kJ/mol
# GULP energy per Si atom -5578.229816 kJ/mol
# Density = 1.022013 g / cm^3
# Si number density = 10.243449 Si / 1000 Ang^3
#
#
#
# Elastic Constant Matrix: (Units=GPa)
#
#
# Indices 1 2 3 4 5 6 
#
# 1 109.3298 42.7645 38.7231 0.0022 -18.4359 -0.0005
# 2 42.7645 54.5465 0.9303 0.0104 -3.2947 -0.0034
# 3 38.7231 0.9303 -23.5428 0.0030 -4.9566 -0.0009
# 4 0.0022 0.0104 0.0030 25.8166 -0.0010 6.1016
# 5 -18.4359 -3.2947 -4.9566 -0.0010 36.3572 -0.0002
# 6 -0.0005 -0.0034 -0.0009 6.1016 -0.0002 34.5754
#
#
#
# Elastic Compliance Matrix: (Units=1/GPa)
#
#
# Indices 1 2 3 4 5 6 
#
# 1 0.008204 -0.006322 0.012140 0.000001 0.005242 0.000000
# 2 -0.006322 0.023303 -0.008989 -0.000009 -0.002320 0.000004
# 3 0.012140 -0.008989 -0.023319 0.000006 0.002162 -0.000002
# 4 0.000001 -0.000009 0.000006 0.040421 0.000001 -0.007133
# 5 0.005242 -0.002320 0.002162 0.000001 0.030248 0.000000
# 6 0.000000 0.000004 -0.000002 -0.007133 0.000000 0.030181
#
#
# Mechanical properties :
#
#
# Convention : Reuss Voigt Hill
#
# Bulk Modulus (GPa) = 542.09208 33.90768 287.99988
# Shear Modulus (GPa) = 43.10518 23.21088 33.15803
#
# Velocity S-wave (km/s) = 4.59195 3.36960 4.02742
# Velocity P-wave (km/s) = 17.12581 5.63257 12.74793
#
# Compressibility (1/GPa) = 0.00184471
#
# Stress axis : x y z
#
# Youngs Moduli (GPa) = 121.89611 42.91334 -42.88431
#
# Poissons Ratio (x) = 0.27130 0.52061
# Poissons Ratio (y) = 0.77064 -0.38550
# Poissons Ratio (z) = -1.47981 0.38577
#
# Static dielectric constant tensor:
#      x y z
#    x 1.728820 0.000000 0.005570 
#    y 0.000000 1.678990 0.000000 
#    z 0.005570 0.000000 1.933500 
# 
# From -- ./inp_files/295558.got.cif
#   From: 2010.05.17/outbox.ucp.g08.bks.cvg/sg12_148_cif.got.tgz:295558.got - 2010.06.11 11:47:21.
