data_PCOD9224631
_publ_section_title
;
Structure prediction by ZEFSAII (Michael W. Deem and Ramdas Pophale) SiO2 
 PCOD9224631
Probable space group: C 2/M
;
_chemical_formula_sum "Si O2"
_cell_formula_units_Z 32
_cell_length_a 18.000000
_cell_length_b 9.000000
_cell_length_c 30.000000
_cell_angle_alpha 90.000000
_cell_angle_beta 40.000000
_cell_angle_gamma 90.000000
_cell_volume 3123.947783
_symmetry_space_group_name_H-M "C 2/M"
_symmetry_group_IT_number 12
_symmetry_cell_setting 'monoclinic'
loop_
_space_group_symop_operation_xyz
x,y,z
-x,y,-z
-x,-y,-z
x,-y,z
1/2+x,1/2+y,z
1/2-x,1/2+y,-z
1/2-x,1/2-y,-z
1/2+x,1/2-y,z
loop_
_atom_site_type_symbol
_atom_site_label
_atom_site_fract_x
_atom_site_fract_y
_atom_site_fract_z
Si Si1 0.162274 0.321026 0.332273
Si Si2 0.820231 0.675231 0.402106
Si Si3 0.908027 0.323034 0.462217
Si Si4 0.609480 0.320197 0.720017
Si Si5 0.637506 0.670717 0.155943
Si Si6 0.446681 0.327446 0.071330
Si Si7 0.224237 0.170595 0.213137
Si Si8 0.301863 0.668900 0.017665
O O1 0.161650 0.500000 0.331615
O O2 0.275715 0.272115 0.306783
O O3 0.173483 0.262630 0.277077
O O4 0.039805 0.275574 0.409653
O O5 0.820932 0.500000 0.393588
O O6 0.880129 0.701145 0.422556
O O7 0.689762 0.736177 0.466220
O O8 0.881581 0.759037 0.333819
O O9 0.896392 0.500000 0.476438
O O10 0.606670 0.500000 0.720219
O O11 0.489517 0.271703 0.798126
O O12 0.648798 0.500000 0.135790
O O13 0.644538 0.674449 0.206054
O O14 0.745509 0.758065 0.086963
O O15 0.410202 0.500000 0.080887
O O16 0.345355 0.237125 0.140453
O O17 0.500000 0.271247 0.000000
O O18 0.560693 0.325717 0.048858
O O19 0.238620 0.000000 0.220251
O O20 0.265532 0.500000 0.034873
O O21 0.250000 0.750000 0.000000
#
# Coordination Sequence:
#
# PCOD9224631 Si02
#       8
#     8   8   8   8   8   8   8   8
#     4  10  22  39  59  83 113 152 195 234 278 341
#     4  10  20  35  59  88 115 147 186 234 283 331
#     4   9  19  37  60  85 113 149 192 232 275 332
#     4  10  22  39  58  81 114 154 190 228 280 342
#     4  10  22  40  59  83 115 152 192 234 287 343
#     4  10  21  40  62  84 111 149 195 235 281 344
#     4  11  23  37  59  87 116 148 187 243 293 333
#     4  11  24  40  61  86 115 151 189 236 288 343
#
# _framework density 10.243449
#
# number of rings (size 3 to 8) (size 9 to 14) (size 15 to 20)
#    0.000    1.875    1.250    1.875    1.750    4.250 
#    0.000    2.500    0.000    0.000    0.000    0.000 
#    0.000    0.000    0.000    0.000    0.000    0.000 
#
# Total GULP energy -178633.061166 kJ/mol
# GULP energy per Si atom -5582.283161 kJ/mol
# Density = 1.022013 g / cm^3
# Si number density = 10.243449 Si / 1000 Ang^3
#
#
#
# Elastic Constant Matrix: (Units=GPa)
#
#
# Indices 1 2 3 4 5 6 
#
# 1 30.1221 26.8312 14.5946 -0.0002 -20.2442 0.0014
# 2 26.8312 11.5894 18.4696 -0.0003 -17.3783 0.0027
# 3 14.5946 18.4696 74.7108 0.0000 -30.5887 -0.0001
# 4 -0.0002 -0.0003 0.0000 30.6615 -0.0001 5.6554
# 5 -20.2442 -17.3783 -30.5887 -0.0001 33.3386 0.0000
# 6 0.0014 0.0027 -0.0001 5.6554 0.0000 20.3764
#
#
#
# Elastic Compliance Matrix: (Units=1/GPa)
#
#
# Indices 1 2 3 4 5 6 
#
# 1 -0.010400 0.071657 -0.004766 0.000002 0.026664 -0.000010
# 2 0.071657 -0.075983 0.010226 -0.000001 0.013288 0.000006
# 3 -0.004766 0.010226 0.020478 0.000000 0.021226 -0.000001
# 4 0.000002 -0.000001 0.000000 0.034374 0.000001 -0.009540
# 5 0.026664 0.013288 0.021226 0.000001 0.072588 -0.000004
# 6 -0.000010 0.000006 -0.000001 -0.009540 -0.000004 0.051724
#
#
# Mechanical properties :
#
#
# Convention : Reuss Voigt Hill
#
# Bulk Modulus (GPa) = 11.32117 26.24589 18.78353
# Shear Modulus (GPa) = -156.20372 20.64375 -67.77998
#
# Velocity S-wave (km/s) = -8.74135 3.17780 -5.75816
# Velocity P-wave (km/s) = 9.81547 5.12869 5.91777
#
# Compressibility (1/GPa) = 0.08833010
#
# Stress axis : x y z
#
# Youngs Moduli (GPa) = -96.14983 -13.16092 48.83221
#
# Poissons Ratio (x) = 0.94307 0.23273
# Poissons Ratio (y) = 6.88978 -0.49938
# Poissons Ratio (z) = -0.45824 0.13459
#
# Static dielectric constant tensor:
#      x y z
#    x 1.794210 0.000000 0.005710 
#    y 0.000000 1.695360 0.000000 
#    z 0.005710 0.000000 1.703870 
# 
# From -- ./inp_files/378079.got.cif
#   From: 2010.05.17/outbox.ucp.g08.bks.cvg/sg12_190_cif.got.tgz:378079.got - 2010.06.11 11:47:21.
