data_PCOD9224211
_publ_section_title
;
Structure prediction by ZEFSAII (Michael W. Deem and Ramdas Pophale) SiO2 
 PCOD9224211
Probable space group: C 2/M
;
_chemical_formula_sum "Si O2"
_cell_formula_units_Z 28
_cell_length_a 18.000000
_cell_length_b 9.000000
_cell_length_c 30.000000
_cell_angle_alpha 90.000000
_cell_angle_beta 40.000000
_cell_angle_gamma 90.000000
_cell_volume 3123.947783
_symmetry_space_group_name_H-M "C 2/M"
_symmetry_group_IT_number 12
_symmetry_cell_setting 'monoclinic'
loop_
_space_group_symop_operation_xyz
x,y,z
-x,y,-z
-x,-y,-z
x,-y,z
1/2+x,1/2+y,z
1/2-x,1/2+y,-z
1/2-x,1/2-y,-z
1/2+x,1/2-y,z
loop_
_atom_site_type_symbol
_atom_site_label
_atom_site_fract_x
_atom_site_fract_y
_atom_site_fract_z
Si Si1 0.779732 0.679422 0.704840
Si Si2 0.202673 0.678850 0.567104
Si Si3 0.482288 0.320645 0.153232
Si Si4 0.629863 0.678554 0.427681
Si Si5 0.665723 0.678793 0.001802
Si Si6 0.150206 0.679866 0.149818
Si Si7 0.443030 0.819166 0.711114
O O1 0.782886 0.500000 0.699981
O O2 0.649696 0.723194 0.778108
O O3 0.821911 0.747556 0.639121
O O4 0.864466 0.725678 0.705692
O O5 0.199916 0.500000 0.562654
O O6 0.250000 0.750000 0.500000
O O7 0.288237 0.713906 0.568333
O O8 0.074234 0.728509 0.640794
O O9 0.489292 0.500000 0.154483
O O10 0.538456 0.282132 0.079048
O O11 0.560061 0.245671 0.155628
O O12 0.500000 0.725456 0.500000
O O13 0.629671 0.500000 0.421602
O O14 0.673760 0.500000 0.000457
O O15 0.750000 0.750000 0.000000
O O16 0.722096 0.720910 0.928230
O O17 0.143083 0.500000 0.152600
O O18 0.112460 0.730318 0.216424
O O19 0.444212 0.000000 0.712154
#
# Coordination Sequence:
#
# PCOD9224211 Si02
#       7
#     8   8   8   8   8   8   8
#     4  10  20  33  49  69  96 129 159 190 231 279
#     4  10  20  34  52  72  95 122 152 190 232 275
#     4   9  17  29  45  69  98 122 152 197 239 273
#     4  10  21  36  53  74  98 122 153 196 238 274
#     4   8  14  25  43  67  92 119 153 192 233 276
#     4   9  16  29  50  70  90 123 162 194 231 281
#     4   9  18  32  48  68  94 123 157 193 228 273
#
# _framework density 8.9630179999999999
#
# number of rings (size 3 to 8) (size 9 to 14) (size 15 to 20)
#    0.000    2.714    0.000    1.714    0.000    2.571 
#    0.000    2.143    0.000    4.286    0.000    0.000 
#    0.000   12.571    0.000    0.000    0.000    0.000 
#
# Total GULP energy -155979.224306 kJ/mol
# GULP energy per Si atom -5570.686582 kJ/mol
# Density = 0.894262 g / cm^3
# Si number density = 8.963018 Si / 1000 Ang^3
#
#
#
# Elastic Constant Matrix: (Units=GPa)
#
#
# Indices 1 2 3 4 5 6 
#
# 1 109.4790 22.8983 109.0805 0.0000 5.7600 -0.0002
# 2 22.8983 2.6398 31.0431 -0.0001 1.5276 -0.0010
# 3 109.0805 31.0431 246.8977 0.0000 9.7645 0.0000
# 4 0.0000 -0.0001 0.0000 25.5120 0.0000 4.4104
# 5 5.7600 1.5276 9.7645 0.0000 31.7022 0.0000
# 6 -0.0002 -0.0010 0.0000 4.4104 0.0000 12.4427
#
#
#
# Elastic Compliance Matrix: (Units=1/GPa)
#
#
# Indices 1 2 3 4 5 6 
#
# 1 0.007836 0.056743 -0.010560 -0.000001 -0.000905 0.000005
# 2 0.056743 -0.378848 0.022524 0.000004 0.001008 -0.000031
# 3 -0.010560 0.022524 0.005923 0.000000 -0.000991 0.000002
# 4 -0.000001 0.000004 0.000000 0.041756 0.000000 -0.014801
# 5 -0.000905 0.001008 -0.000991 0.000000 0.031965 0.000000
# 6 0.000005 -0.000031 0.000002 -0.014801 0.000000 0.085615
#
#
# Mechanical properties :
#
#
# Convention : Reuss Voigt Hill
#
# Bulk Modulus (GPa) = -4.39222 76.11782 35.86280
# Shear Modulus (GPa) = -11.93145 26.99768 7.53312
#
# Velocity S-wave (km/s) = -2.58271 3.88501 2.05218
# Velocity P-wave (km/s) = 3.36888 7.91699 5.06603
#
# Compressibility (1/GPa) = -0.22767540
#
# Stress axis : x y z
#
# Youngs Moduli (GPa) = 127.62243 -2.63958 168.83134
#
# Poissons Ratio (x) = 0.14978 1.78294
# Poissons Ratio (y) = -7.24171 -3.80282
# Poissons Ratio (z) = 1.34776 0.05945
#
# Static dielectric constant tensor:
#      x y z
#    x 1.594360 0.000000 -0.017170 
#    y 0.000000 1.601970 0.000000 
#    z -0.017170 0.000000 1.642760 
# 
# From -- ./inp_files/313789.got.cif
#   From: 2010.05.17/outbox.ucp.g08.bks.cvg/sg12_157_cif.got.tgz:313789.got - 2010.06.11 11:47:21.
