data_PCOD9224404
_publ_section_title
;
Structure prediction by ZEFSAII (Michael W. Deem and Ramdas Pophale) SiO2 
 PCOD9224404
Probable space group: C 2/M
;
_chemical_formula_sum "Si O2"
_cell_formula_units_Z 28
_cell_length_a 18.000000
_cell_length_b 9.000000
_cell_length_c 24.000000
_cell_angle_alpha 90.000000
_cell_angle_beta 130.000000
_cell_angle_gamma 90.000000
_cell_volume 2978.380795
_symmetry_space_group_name_H-M "C 2/M"
_symmetry_group_IT_number 12
_symmetry_cell_setting 'monoclinic'
loop_
_space_group_symop_operation_xyz
x,y,z
-x,y,-z
-x,-y,-z
x,-y,z
1/2+x,1/2+y,z
1/2-x,1/2+y,-z
1/2-x,1/2-y,-z
1/2+x,1/2-y,z
loop_
_atom_site_type_symbol
_atom_site_label
_atom_site_fract_x
_atom_site_fract_y
_atom_site_fract_z
Si Si1 0.477542 0.678821 0.647934
Si Si2 0.365621 0.678610 0.810313
Si Si3 0.040184 0.334293 0.957965
Si Si4 0.762922 0.175678 0.946829
Si Si5 0.328493 0.821964 0.211114
Si Si6 0.167986 0.320156 0.500838
Si Si7 0.185782 0.179259 0.339143
O O1 0.478294 0.500000 0.643015
O O2 0.582057 0.739821 0.716535
O O3 0.432309 0.752188 0.570218
O O4 0.401431 0.720022 0.660778
O O5 0.384876 0.500000 0.819050
O O6 0.458840 0.764703 0.878643
O O7 0.272075 0.703167 0.804381
O O8 0.336779 0.729713 0.734100
O O9 0.070719 0.500000 0.952222
O O10 0.127229 0.221561 0.011356
O O11 0.000000 0.353922 0.000000
O O12 0.692319 0.227182 0.862759
O O13 0.752969 0.000000 0.945070
O O14 0.750000 0.250000 0.000000
O O15 0.346918 0.000000 0.220484
O O16 0.166215 0.500000 0.495129
O O17 0.250000 0.250000 0.500000
O O18 0.211197 0.279540 0.582661
O O19 0.186709 0.000000 0.337483
#
# Coordination Sequence:
#
# PCOD9224404 Si02
#       7
#     8   8   8   8   8   8   8
#     4  10  20  34  55  82 112 146 184 226 278 333
#     4  10  20  38  60  81 109 146 189 233 279 333
#     4  11  23  39  59  84 114 150 190 231 281 337
#     4  11  24  41  60  85 114 148 190 236 285 335
#     4  10  22  38  56  80 111 145 185 230 280 334
#     4   9  16  31  54  81 111 142 181 225 275 329
#     4   8  17  33  56  84 106 136 183 229 272 325
#
# _framework density 9.4010809999999996
#
# number of rings (size 3 to 8) (size 9 to 14) (size 15 to 20)
#    0.000    2.143    1.429    2.571    2.000    2.286 
#    0.000    4.286    0.000    4.286    0.000    0.000 
#    0.000    0.000    0.000    0.000    0.000    0.000 
#
# Total GULP energy -156044.300742 kJ/mol
# GULP energy per Si atom -5573.010741 kJ/mol
# Density = 0.937968 g / cm^3
# Si number density = 9.401081 Si / 1000 Ang^3
#
#
#
# Elastic Constant Matrix: (Units=GPa)
#
#
# Indices 1 2 3 4 5 6 
#
# 1 15.7570 3.8219 8.0678 0.0000 2.7408 0.0000
# 2 3.8219 52.1852 36.2573 0.0000 6.8532 0.0000
# 3 8.0678 36.2573 171.1983 0.0000 11.5542 0.0000
# 4 0.0000 0.0000 0.0000 49.5280 0.0000 7.4760
# 5 2.7408 6.8532 11.5542 0.0000 30.8187 0.0000
# 6 0.0000 0.0000 0.0000 7.4760 0.0000 22.6746
#
#
#
# Elastic Compliance Matrix: (Units=1/GPa)
#
#
# Indices 1 2 3 4 5 6 
#
# 1 0.066037 -0.002697 -0.002242 0.000000 -0.004433 0.000000
# 2 -0.002697 0.022910 -0.004511 0.000000 -0.003163 0.000000
# 3 -0.002242 -0.004511 0.006998 0.000000 -0.001421 0.000000
# 4 0.000000 0.000000 0.000000 0.021248 0.000000 -0.007006
# 5 -0.004433 -0.003163 -0.001421 0.000000 0.034078 0.000000
# 6 0.000000 0.000000 0.000000 -0.007006 0.000000 0.046412
#
#
# Mechanical properties :
#
#
# Convention : Reuss Voigt Hill
#
# Bulk Modulus (GPa) = 12.97942 37.27051 25.12497
# Shear Modulus (GPa) = 20.63857 33.33713 26.98785
#
# Velocity S-wave (km/s) = 3.31670 4.21533 3.79272
# Velocity P-wave (km/s) = 4.64602 6.59981 5.70714
#
# Compressibility (1/GPa) = 0.07704502
#
# Stress axis : x y z
#
# Youngs Moduli (GPa) = 15.14309 43.64921 142.89415
#
# Poissons Ratio (x) = 0.11771 0.32033
# Poissons Ratio (y) = 0.04084 0.64465
# Poissons Ratio (z) = 0.03395 0.19692
#
# Static dielectric constant tensor:
#      x y z
#    x 1.685850 0.000000 0.008410 
#    y 0.000000 1.946450 0.000000 
#    z 0.008410 0.000000 1.664190 
# 
# From -- ./inp_files/342501.got.cif
#   From: 2010.05.17/outbox.ucp.g08.bks.cvg/sg12_172_cif.got.tgz:342501.got - 2010.06.11 11:47:21.
