data_PCOD9224907
_publ_section_title
;
Structure prediction by ZEFSAII (Michael W. Deem and Ramdas Pophale) SiO2 
 PCOD9224907
Probable space group: C 2/M
;
_chemical_formula_sum "Si O2"
_cell_formula_units_Z 24
_cell_length_a 24.000000
_cell_length_b 9.000000
_cell_length_c 12.000000
_cell_angle_alpha 90.000000
_cell_angle_beta 70.000000
_cell_angle_gamma 90.000000
_cell_volume 2435.683273
_symmetry_space_group_name_H-M "C 2/M"
_symmetry_group_IT_number 12
_symmetry_cell_setting 'monoclinic'
loop_
_space_group_symop_operation_xyz
x,y,z
-x,y,-z
-x,-y,-z
x,-y,z
1/2+x,1/2+y,z
1/2-x,1/2+y,-z
1/2-x,1/2-y,-z
1/2+x,1/2-y,z
loop_
_atom_site_type_symbol
_atom_site_label
_atom_site_fract_x
_atom_site_fract_y
_atom_site_fract_z
Si Si1 0.848814 0.831206 0.116272
Si Si2 0.759439 0.171841 0.875271
Si Si3 0.063491 0.168601 0.516465
Si Si4 0.545619 0.331352 0.788317
Si Si5 0.568511 0.167636 0.107015
Si Si6 0.130095 0.666965 0.292640
O O1 0.793068 0.726732 0.167544
O O2 0.893475 0.823015 0.187963
O O3 0.829146 0.000000 0.113211
O O4 0.886266 0.776332 0.984657
O O5 0.820492 0.220022 0.780178
O O6 0.755864 0.000000 0.896964
O O7 0.750000 0.250000 0.000000
O O8 0.055814 0.195133 0.651723
O O9 0.104396 0.286673 0.427894
O O10 0.000000 0.174336 0.500000
O O11 0.086649 0.000000 0.484854
O O12 0.521578 0.500000 0.818148
O O13 0.497907 0.218611 0.868685
O O14 0.579849 0.174121 0.231603
O O15 0.580299 0.000000 0.061274
O O16 0.154196 0.500000 0.275173
#
# Coordination Sequence:
#
# PCOD9224907 Si02
#       6
#     8   8   8   8   8   8
#     4  11  23  39  60  86 121 159 197 243 297 354
#     4  12  24  40  63  88 117 154 197 243 294 350
#     4  10  20  37  62  87 117 155 199 244 290 347
#     4  10  22  39  59  87 121 159 199 243 297 352
#     4  11  22  35  57  88 123 157 194 243 297 354
#     4  11  23  38  59  90 122 152 195 245 293 345
#
# _framework density 9.8534980000000001
#
# number of rings (size 3 to 8) (size 9 to 14) (size 15 to 20)
#    0.000    1.167    3.333    3.500    0.000    5.667 
#    0.000    0.833    0.000    0.000    0.000    0.000 
#    0.000    0.000    0.000    0.000    0.000    0.000 
#
# Total GULP energy -134019.423209 kJ/mol
# GULP energy per Si atom -5584.142634 kJ/mol
# Density = 0.983107 g / cm^3
# Si number density = 9.853498 Si / 1000 Ang^3
#
#
#
# Elastic Constant Matrix: (Units=GPa)
#
#
# Indices 1 2 3 4 5 6 
#
# 1 57.1302 44.7723 13.5296 0.0000 -4.0618 0.0000
# 2 44.7723 114.4165 29.6318 0.0000 -6.8939 0.0000
# 3 13.5296 29.6318 -20.9689 0.0000 -18.0167 0.0000
# 4 0.0000 0.0000 0.0000 19.7866 0.0000 -5.9671
# 5 -4.0618 -6.8939 -18.0167 0.0000 -3.4512 0.0000
# 6 0.0000 0.0000 0.0000 -5.9671 0.0000 23.3566
#
#
#
# Elastic Compliance Matrix: (Units=1/GPa)
#
#
# Indices 1 2 3 4 5 6 
#
# 1 0.025903 -0.008115 -0.005025 0.000000 0.011954 0.000000
# 2 -0.008115 0.016979 -0.011388 0.000000 0.035084 0.000000
# 3 -0.005025 -0.011388 0.026295 0.000000 -0.108610 0.000000
# 4 0.000000 0.000000 0.000000 0.054758 0.000000 0.013989
# 5 0.011954 0.035084 -0.108610 0.000000 0.193085 0.000000
# 6 0.000000 0.000000 0.000000 0.013989 0.000000 0.046388
#
#
# Mechanical properties :
#
#
# Convention : Reuss Voigt Hill
#
# Bulk Modulus (GPa) = 49.69548 36.27169 42.98358
# Shear Modulus (GPa) = 11.92835 12.11468 12.02151
#
# Velocity S-wave (km/s) = 2.46292 2.48208 2.47252
# Velocity P-wave (km/s) = 5.77580 5.16331 5.47812
#
# Compressibility (1/GPa) = 0.02012255
#
# Stress axis : x y z
#
# Youngs Moduli (GPa) = 38.60558 58.89799 38.03007
#
# Poissons Ratio (x) = 0.47793 0.19108
# Poissons Ratio (y) = 0.31327 0.43308
# Poissons Ratio (z) = 0.19397 0.67072
#
# Static dielectric constant tensor:
#      x y z
#    x 1.737110 0.000000 0.001380 
#    y 0.000000 1.707890 0.000000 
#    z 0.001380 0.000000 1.659970 
# 
# From -- ./inp_files/172065.got.cif
#   From: 2010.05.17/outbox.ucp.g08.bks.cvg/sg12_87_cif.got.tgz:172065.got - 2010.06.11 11:47:21.
