data_PCOD9224231
_publ_section_title
;
Structure prediction by ZEFSAII (Michael W. Deem and Ramdas Pophale) SiO2 
 PCOD9224231
Probable space group: C 2/M
;
_chemical_formula_sum "Si O2"
_cell_formula_units_Z 28
_cell_length_a 9.000000
_cell_length_b 30.000000
_cell_length_c 15.000000
_cell_angle_alpha 90.000000
_cell_angle_beta 50.000000
_cell_angle_gamma 90.000000
_cell_volume 3102.479995
_symmetry_space_group_name_H-M "C 2/M"
_symmetry_group_IT_number 12
_symmetry_cell_setting 'monoclinic'
loop_
_space_group_symop_operation_xyz
x,y,z
-x,y,-z
-x,-y,-z
x,-y,z
1/2+x,1/2+y,z
1/2-x,1/2+y,-z
1/2-x,1/2-y,-z
1/2+x,1/2-y,z
loop_
_atom_site_type_symbol
_atom_site_label
_atom_site_fract_x
_atom_site_fract_y
_atom_site_fract_z
Si Si1 0.062230 0.817130 0.202064
Si Si2 0.959079 0.592182 0.373072
Si Si3 0.551844 0.188624 0.693147
Si Si4 0.709705 0.250581 0.295474
Si Si5 0.292608 0.297445 0.029375
Si Si6 0.485378 0.500000 0.350148
Si Si7 0.811964 0.500000 0.366619
Si Si8 0.663244 0.593969 0.654113
O O1 0.889249 0.784175 0.234386
O O2 0.970399 0.861751 0.281760
O O3 0.184449 0.784741 0.221239
O O4 0.183473 0.829134 0.066383
O O5 0.928907 0.545877 0.333150
O O6 0.798847 0.595598 0.513651
O O7 0.924906 0.636784 0.330764
O O8 0.176034 0.593450 0.329535
O O9 0.469309 0.216719 0.641175
O O10 0.747180 0.214244 0.643988
O O11 0.383938 0.193394 0.834436
O O12 0.500000 0.297360 0.000000
O O13 0.250000 0.250000 0.000000
O O14 0.689911 0.500000 0.322679
O O15 0.331948 0.500000 0.491816
O O16 0.447892 0.546284 0.311221
#
# Coordination Sequence:
#
# PCOD9224231 Si02
#       8
#     8   8   8   8   8   4   4   8
#     4  11  20  34  51  78 103 141 177 212 254 298
#     4  10  20  36  55  77 105 135 170 211 260 314
#     4  11  20  34  51  78 103 141 177 212 254 298
#     4  10  20  33  51  72 108 140 177 215 248 298
#     4  12  18  30  52  71 104 137 177 219 244 290
#     4   9  19  35  57  80  99 126 170 220 261 303
#     4   9  19  35  57  80  99 126 170 220 261 303
#     4  10  20  36  55  77 105 135 170 211 260 314
#
# _framework density 9.0250380000000003
#
# number of rings (size 3 to 8) (size 9 to 14) (size 15 to 20)
#    0.000    1.571    5.714    0.429    2.000    1.714 
#    0.000    4.286    0.000    0.857    0.000    4.000 
#    0.000    0.000    0.000    0.000    0.000    0.000 
#
# Total GULP energy -155964.607668 kJ/mol
# GULP energy per Si atom -5570.164560 kJ/mol
# Density = 0.900450 g / cm^3
# Si number density = 9.025038 Si / 1000 Ang^3
#
#
#
# Elastic Constant Matrix: (Units=GPa)
#
#
# Indices 1 2 3 4 5 6 
#
# 1 67.8574 38.0875 1.6551 0.0000 5.8401 0.0000
# 2 38.0875 163.2812 22.5543 0.0000 5.8485 0.0000
# 3 1.6551 22.5543 16.9942 0.0000 -2.5273 0.0000
# 4 0.0000 0.0000 0.0000 16.1955 0.0000 -4.0240
# 5 5.8401 5.8485 -2.5273 0.0000 9.7532 0.0000
# 6 0.0000 0.0000 0.0000 -4.0240 0.0000 29.3951
#
#
#
# Elastic Compliance Matrix: (Units=1/GPa)
#
#
# Indices 1 2 3 4 5 6 
#
# 1 0.017685 -0.004256 0.002840 0.000000 -0.007301 0.000000
# 2 -0.004256 0.009068 -0.012533 0.000000 -0.006137 0.000000
# 3 0.002840 -0.012533 0.079114 0.000000 0.026315 0.000000
# 4 0.000000 0.000000 0.000000 0.063920 0.000000 0.008750
# 5 -0.007301 -0.006137 0.026315 0.000000 0.117401 0.000000
# 6 0.000000 0.000000 0.000000 0.008750 0.000000 0.035217
#
#
# Mechanical properties :
#
#
# Convention : Reuss Voigt Hill
#
# Bulk Modulus (GPa) = 12.82552 41.41405 27.11979
# Shear Modulus (GPa) = 13.28752 23.45783 18.37267
#
# Velocity S-wave (km/s) = 2.71615 3.60890 3.19387
# Velocity P-wave (km/s) = 4.11796 6.35290 5.35336
#
# Compressibility (1/GPa) = 0.07796953
#
# Stress axis : x y z
#
# Youngs Moduli (GPa) = 56.54589 110.27489 12.63991
#
# Poissons Ratio (x) = 0.46933 -0.03590
# Poissons Ratio (y) = 0.24066 0.15842
# Poissons Ratio (z) = -0.16061 1.38211
#
# Static dielectric constant tensor:
#      x y z
#    x 1.676340 0.000000 0.021240 
#    y 0.000000 1.602540 0.000000 
#    z 0.021240 0.000000 1.665620 
# 
# From -- ./inp_files/200891.got.cif
#   From: 2010.05.17/outbox.ucp.g08.bks.cvg/sg12_101_cif.got.tgz:200891.got - 2010.06.11 11:47:21.
