data_PCOD9224080
_publ_section_title
;
Structure prediction by ZEFSAII (Michael W. Deem and Ramdas Pophale) SiO2 
 PCOD9224080
Probable space group: C 2/M
;
_chemical_formula_sum "Si O2"
_cell_formula_units_Z 28
_cell_length_a 30.000000
_cell_length_b 9.000000
_cell_length_c 12.000000
_cell_angle_alpha 90.000000
_cell_angle_beta 60.000000
_cell_angle_gamma 90.000000
_cell_volume 2805.922308
_symmetry_space_group_name_H-M "C 2/M"
_symmetry_group_IT_number 12
_symmetry_cell_setting 'monoclinic'
loop_
_space_group_symop_operation_xyz
x,y,z
-x,y,-z
-x,-y,-z
x,-y,z
1/2+x,1/2+y,z
1/2-x,1/2+y,-z
1/2-x,1/2-y,-z
1/2+x,1/2-y,z
loop_
_atom_site_type_symbol
_atom_site_label
_atom_site_fract_x
_atom_site_fract_y
_atom_site_fract_z
Si Si1 0.194122 0.823031 0.572719
Si Si2 0.539823 0.672647 0.052032
Si Si3 0.119618 0.673751 0.499115
Si Si4 0.103790 0.326695 0.264176
Si Si5 0.700003 0.821896 0.007655
Si Si6 0.352977 0.177841 0.150767
Si Si7 0.496624 0.177547 0.322153
O O1 0.250000 0.750000 0.500000
O O2 0.161377 0.772896 0.507184
O O3 0.164504 0.752219 0.713827
O O4 0.197581 0.000000 0.577034
O O5 0.546092 0.500000 0.080183
O O6 0.515536 0.775475 0.177290
O O7 0.500000 0.673268 0.000000
O O8 0.594129 0.744209 0.951549
O O9 0.123461 0.500000 0.531745
O O10 0.126290 0.676292 0.358781
O O11 0.061495 0.731993 0.591150
O O12 0.098190 0.500000 0.236465
O O13 0.147004 0.261785 0.129503
O O14 0.045171 0.268093 0.335613
O O15 0.702576 0.000000 0.023364
O O16 0.750000 0.750000 0.000000
O O17 0.690966 0.797727 0.887927
O O18 0.360611 0.000000 0.151564
O O19 0.491960 0.000000 0.345627
#
# Coordination Sequence:
#
# PCOD9224080 Si02
#       7
#     8   8   8   8   8   8   8
#     4  12  27  46  66  90 124 163 208 258 308 365
#     4  11  23  37  57  88 126 166 206 253 307 364
#     4  10  21  38  65  95 125 164 209 254 309 369
#     4   9  18  37  62  93 126 161 203 253 306 364
#     4  10  22  39  62  92 126 159 202 254 307 369
#     4  11  23  43  67  93 123 159 207 256 307 367
#     4  10  19  36  61  91 125 163 207 254 304 366
#
# _framework density 9.9788940000000004
#
# number of rings (size 3 to 8) (size 9 to 14) (size 15 to 20)
#    0.000    1.571    1.429    3.429    2.000    6.857 
#    0.000    0.714    0.000    1.714    0.000    0.000 
#    0.000    0.000    0.000    0.000    0.000    0.000 
#
# Total GULP energy -156267.168938 kJ/mol
# GULP energy per Si atom -5580.970319 kJ/mol
# Density = 0.995618 g / cm^3
# Si number density = 9.978894 Si / 1000 Ang^3
#
#
#
# Elastic Constant Matrix: (Units=GPa)
#
#
# Indices 1 2 3 4 5 6 
#
# 1 118.7597 28.9035 -0.8425 0.0000 2.7405 0.0000
# 2 28.9035 31.4158 -15.4521 0.0000 0.0664 0.0000
# 3 -0.8425 -15.4521 20.7360 0.0000 -5.0461 0.0000
# 4 0.0000 0.0000 0.0000 7.8184 0.0000 0.4672
# 5 2.7405 0.0664 -5.0461 0.0000 15.5325 0.0000
# 6 0.0000 0.0000 0.0000 0.4672 0.0000 36.1523
#
#
#
# Elastic Compliance Matrix: (Units=1/GPa)
#
#
# Indices 1 2 3 4 5 6 
#
# 1 0.013495 -0.020605 -0.016683 0.000000 -0.007713 0.000000
# 2 -0.020605 0.084239 0.068118 0.000000 0.025405 0.000000
# 3 -0.016683 0.068118 0.107448 0.000000 0.037559 0.000000
# 4 0.000000 0.000000 0.000000 0.128002 0.000000 -0.001654
# 5 -0.007713 0.025405 0.037559 0.000000 0.077835 0.000000
# 6 0.000000 0.000000 0.000000 -0.001654 0.000000 0.027682
#
#
# Mechanical properties :
#
#
# Convention : Reuss Voigt Hill
#
# Bulk Modulus (GPa) = 3.74754 21.79217 12.76985
# Shear Modulus (GPa) = 10.72991 22.45416 16.59204
#
# Velocity S-wave (km/s) = 2.32120 3.35786 2.88645
# Velocity P-wave (km/s) = 3.01094 5.09672 4.18583
#
# Compressibility (1/GPa) = 0.26684190
#
# Stress axis : x y z
#
# Youngs Moduli (GPa) = 74.10277 11.87100 9.30687
#
# Poissons Ratio (x) = 0.24460 0.15527
# Poissons Ratio (y) = 1.52688 -0.63397
# Poissons Ratio (z) = 1.23625 -0.80863
#
# Static dielectric constant tensor:
#      x y z
#    x 1.724060 0.000000 -0.016080 
#    y 0.000000 1.725710 0.000000 
#    z -0.016080 0.000000 1.658570 
# 
# From -- ./inp_files/180779.got.cif
#   From: 2010.05.17/outbox.ucp.g08.bks.cvg/sg12_91_cif.got.tgz:180779.got - 2010.06.11 11:47:21.
