data_PCOD9224962
_publ_section_title
;
Structure prediction by ZEFSAII (Michael W. Deem and Ramdas Pophale) SiO2 
 PCOD9224962
Probable space group: C 2/M
;
_chemical_formula_sum "Si O2"
_cell_formula_units_Z 32
_cell_length_a 30.000000
_cell_length_b 9.000000
_cell_length_c 15.000000
_cell_angle_alpha 90.000000
_cell_angle_beta 130.000000
_cell_angle_gamma 90.000000
_cell_volume 3102.479995
_symmetry_space_group_name_H-M "C 2/M"
_symmetry_group_IT_number 12
_symmetry_cell_setting 'monoclinic'
loop_
_space_group_symop_operation_xyz
x,y,z
-x,y,-z
-x,-y,-z
x,-y,z
1/2+x,1/2+y,z
1/2-x,1/2+y,-z
1/2-x,1/2-y,-z
1/2+x,1/2-y,z
loop_
_atom_site_type_symbol
_atom_site_label
_atom_site_fract_x
_atom_site_fract_y
_atom_site_fract_z
Si Si1 0.225990 0.324133 0.556989
Si Si2 0.708111 0.668509 0.014192
Si Si3 0.514717 0.326130 0.803361
Si Si4 0.104454 0.173748 0.425165
Si Si5 0.404366 0.334530 0.251745
Si Si6 0.940502 0.324205 0.970952
Si Si7 0.434092 0.168868 0.450692
Si Si8 0.819549 0.820669 0.824183
O O1 0.228757 0.500000 0.552817
O O2 0.250000 0.250000 0.500000
O O3 0.160760 0.271023 0.484770
O O4 0.266993 0.280570 0.691908
O O5 0.729703 0.500000 0.054628
O O6 0.696819 0.733515 0.097520
O O7 0.750000 0.750000 0.000000
O O8 0.646836 0.663444 0.885169
O O9 0.524898 0.500000 0.840539
O O10 0.446210 0.296260 0.711722
O O11 0.539102 0.306394 0.735366
O O12 0.548212 0.218759 0.912095
O O13 0.079455 0.217545 0.488968
O O14 0.118472 0.000000 0.438872
O O15 0.409197 0.500000 0.298446
O O16 0.395711 0.213687 0.316245
O O17 0.935391 0.500000 0.950944
O O18 0.880409 0.245649 0.868450
O O19 0.000000 0.271138 0.000000
O O20 0.500000 0.180613 0.500000
O O21 0.423725 0.000000 0.467063
O O22 0.825963 0.000000 0.836281
#
# Coordination Sequence:
#
# PCOD9224962 Si02
#       8
#     8   8   8   8   8   8   8   8
#     4  11  26  47  70  95 128 171 219 273 325 380
#     4  10  22  40  62  90 123 162 209 258 311 372
#     4  10  21  40  65  91 123 165 211 259 314 381
#     4  11  24  42  66  94 126 169 220 266 318 380
#     4  10  20  38  61  86 121 164 208 257 310 372
#     4  11  25  41  63  98 130 159 199 259 326 378
#     4  11  23  37  57  90 129 167 206 254 314 374
#     4  10  23  46  69  92 126 170 217 260 312 383
#
# _framework density 10.314329000000001
#
# number of rings (size 3 to 8) (size 9 to 14) (size 15 to 20)
#    0.000    1.500    2.500    1.500    3.500    5.000 
#    0.000    0.000    0.000    0.000    0.000    0.000 
#    0.000    0.000    0.000    0.000    0.000    0.000 
#
# Total GULP energy -178637.520000 kJ/mol
# GULP energy per Si atom -5582.422500 kJ/mol
# Density = 1.029085 g / cm^3
# Si number density = 10.314329 Si / 1000 Ang^3
#
#
#
# Elastic Constant Matrix: (Units=GPa)
#
#
# Indices 1 2 3 4 5 6 
#
# 1 80.0772 11.9196 11.3208 0.0000 19.1803 0.0000
# 2 11.9196 -6.5178 8.4719 0.0000 5.4435 0.0000
# 3 11.3208 8.4719 48.5251 0.0000 11.7508 0.0000
# 4 0.0000 0.0000 0.0000 22.7091 0.0000 1.3423
# 5 19.1803 5.4435 11.7508 0.0000 18.2697 0.0000
# 6 0.0000 0.0000 0.0000 1.3423 0.0000 30.8261
#
#
#
# Elastic Compliance Matrix: (Units=1/GPa)
#
#
# Indices 1 2 3 4 5 6 
#
# 1 0.015505 0.011222 -0.000977 0.000000 -0.018993 0.000000
# 2 0.011222 -0.106256 0.013171 0.000000 0.011407 0.000000
# 3 -0.000977 0.013171 0.022787 0.000000 -0.017555 0.000000
# 4 0.000000 0.000000 0.000000 0.044149 0.000000 -0.001922
# 5 -0.018993 0.011407 -0.017555 0.000000 0.082567 0.000000
# 6 0.000000 0.000000 0.000000 -0.001922 0.000000 0.032524
#
#
# Mechanical properties :
#
#
# Convention : Reuss Voigt Hill
#
# Bulk Modulus (GPa) = -47.32007 20.61213 -13.35397
# Shear Modulus (GPa) = 133.69017 20.38578 77.03797
#
# Velocity S-wave (km/s) = 8.05907 3.14702 6.11770
# Velocity P-wave (km/s) = 7.97555 4.81857 6.58893
#
# Compressibility (1/GPa) = -0.02113268
#
# Stress axis : x y z
#
# Youngs Moduli (GPa) = 64.49606 -9.41120 43.88375
#
# Poissons Ratio (x) = 0.10562 0.04289
# Poissons Ratio (y) = -0.72380 -0.57798
# Poissons Ratio (z) = 0.06303 0.12395
#
# Static dielectric constant tensor:
#      x y z
#    x 1.735930 0.000000 0.017470 
#    y 0.000000 1.725610 0.000000 
#    z 0.017470 0.000000 1.760480 
# 
# From -- ./inp_files/249990.got.cif
#   From: 2010.05.17/outbox.ucp.g08.bks.cvg/sg12_125_cif.got.tgz:249990.got - 2010.06.11 11:47:21.
