data_PCOD9224897
_publ_section_title
;
Structure prediction by ZEFSAII (Michael W. Deem and Ramdas Pophale) SiO2 
 PCOD9224897
Probable space group: C 2/M
;
_chemical_formula_sum "Si O2"
_cell_formula_units_Z 32
_cell_length_a 15.000000
_cell_length_b 9.000000
_cell_length_c 30.000000
_cell_angle_alpha 90.000000
_cell_angle_beta 50.000000
_cell_angle_gamma 90.000000
_cell_volume 3102.479995
_symmetry_space_group_name_H-M "C 2/M"
_symmetry_group_IT_number 12
_symmetry_cell_setting 'monoclinic'
loop_
_space_group_symop_operation_xyz
x,y,z
-x,y,-z
-x,-y,-z
x,-y,z
1/2+x,1/2+y,z
1/2-x,1/2+y,-z
1/2-x,1/2-y,-z
1/2+x,1/2-y,z
loop_
_atom_site_type_symbol
_atom_site_label
_atom_site_fract_x
_atom_site_fract_y
_atom_site_fract_z
Si Si1 0.478904 0.672787 0.172956
Si Si2 0.477633 0.673180 0.740332
Si Si3 0.627491 0.169626 0.939146
Si Si4 0.683181 0.680408 0.455175
Si Si5 0.940164 0.324148 0.371826
Si Si6 0.545500 0.678394 0.416153
Si Si7 0.797350 0.664880 0.185378
Si Si8 0.307713 0.826803 0.939167
O O1 0.507015 0.500000 0.160741
O O2 0.495511 0.719468 0.218287
O O3 0.349622 0.709409 0.199366
O O4 0.568351 0.759931 0.113166
O O5 0.512417 0.500000 0.722773
O O6 0.539330 0.776743 0.685107
O O7 0.338976 0.679783 0.778802
O O8 0.637023 0.172837 0.883077
O O9 0.719951 0.285719 0.927707
O O10 0.660208 0.000000 0.942429
O O11 0.500000 0.198653 0.000000
O O12 0.684338 0.500000 0.456073
O O13 0.811064 0.733010 0.426625
O O14 0.649300 0.723277 0.415577
O O15 0.574485 0.725699 0.520476
O O16 0.943347 0.500000 0.376497
O O17 0.038542 0.249283 0.370305
O O18 0.545718 0.500000 0.412691
O O19 0.819663 0.500000 0.197316
O O20 0.317870 0.000000 0.943402
O O21 0.250000 0.750000 0.000000
#
# Coordination Sequence:
#
# PCOD9224897 Si02
#       8
#     8   8   8   8   8   8   8   8
#     4  11  23  42  65  89 118 152 196 246 299 355
#     4  10  23  43  61  80 116 163 201 238 291 357
#     4  10  20  37  61  88 120 153 189 239 298 356
#     4   8  17  34  57  84 116 155 196 240 290 355
#     4  11  22  35  55  86 119 149 195 251 296 339
#     4   9  17  35  60  83 113 156 199 236 293 360
#     4  10  21  40  63  87 117 154 193 237 298 360
#     4  12  24  38  60  89 122 156 195 240 293 354
#
# _framework density 10.314329000000001
#
# number of rings (size 3 to 8) (size 9 to 14) (size 15 to 20)
#    0.000    1.875    1.250    3.750    0.000    4.250 
#    0.000    6.875    0.000    0.000    0.000    0.000 
#    0.000    0.000    0.000    0.000    0.000    0.000 
#
# Total GULP energy -178627.855076 kJ/mol
# GULP energy per Si atom -5582.120471 kJ/mol
# Density = 1.029085 g / cm^3
# Si number density = 10.314329 Si / 1000 Ang^3
#
#
#
# Elastic Constant Matrix: (Units=GPa)
#
#
# Indices 1 2 3 4 5 6 
#
# 1 70.4960 9.9955 9.8241 0.0000 20.6407 0.0000
# 2 9.9955 5.3527 16.0608 0.0000 25.4594 -0.0001
# 3 9.8241 16.0608 17.9748 0.0000 8.9223 0.0000
# 4 0.0000 0.0000 0.0000 25.0227 0.0000 -2.3202
# 5 20.6407 25.4594 8.9223 0.0000 13.4553 0.0000
# 6 0.0000 -0.0001 0.0000 -2.3202 0.0000 21.8631
#
#
#
# Elastic Compliance Matrix: (Units=1/GPa)
#
#
# Indices 1 2 3 4 5 6 
#
# 1 0.017346 -0.011863 0.004749 0.000000 -0.007312 0.000000
# 2 -0.011863 -0.015210 -0.004837 0.000000 0.050185 0.000000
# 3 0.004749 -0.004837 0.084122 0.000000 -0.053915 0.000000
# 4 0.000000 0.000000 0.000000 0.040361 0.000000 0.004283
# 5 -0.007312 0.050185 -0.053915 0.000000 0.026331 0.000000
# 6 0.000000 0.000000 0.000000 0.004283 0.000000 0.046194
#
#
# Mechanical properties :
#
#
# Convention : Reuss Voigt Hill
#
# Bulk Modulus (GPa) = 16.03685 18.39824 17.21754
# Shear Modulus (GPa) = 20.50588 15.93108 18.21848
#
# Velocity S-wave (km/s) = 3.15627 2.78201 2.97503
# Velocity P-wave (km/s) = 4.59061 4.38834 4.49061
#
# Compressibility (1/GPa) = 0.06235638
#
# Stress axis : x y z
#
# Youngs Moduli (GPa) = 57.64915 -65.74661 11.88745
#
# Poissons Ratio (x) = -0.77996 -0.05645
# Poissons Ratio (y) = 0.68390 0.05750
# Poissons Ratio (z) = -0.27376 -0.31800
#
# Static dielectric constant tensor:
#      x y z
#    x 1.809310 0.000000 0.077050 
#    y 0.000000 1.670660 0.000000 
#    z 0.077050 0.000000 1.805280 
# 
# From -- ./inp_files/375373.got.cif
#   From: 2010.05.17/outbox.ucp.g08.bks.cvg/sg12_188_cif.got.tgz:375373.got - 2010.06.11 11:47:21.
