data_PCOD9224166
_publ_section_title
;
Structure prediction by ZEFSAII (Michael W. Deem and Ramdas Pophale) SiO2 
 PCOD9224166
Probable space group: C 2/M
;
_chemical_formula_sum "Si O2"
_cell_formula_units_Z 28
_cell_length_a 12.000000
_cell_length_b 21.000000
_cell_length_c 12.000000
_cell_angle_alpha 90.000000
_cell_angle_beta 70.000000
_cell_angle_gamma 90.000000
_cell_volume 2841.630485
_symmetry_space_group_name_H-M "C 2/M"
_symmetry_group_IT_number 12
_symmetry_cell_setting 'monoclinic'
loop_
_space_group_symop_operation_xyz
x,y,z
-x,y,-z
-x,-y,-z
x,-y,z
1/2+x,1/2+y,z
1/2-x,1/2+y,-z
1/2-x,1/2-y,-z
1/2+x,1/2-y,z
loop_
_atom_site_type_symbol
_atom_site_label
_atom_site_fract_x
_atom_site_fract_y
_atom_site_fract_z
Si Si1 0.762986 0.423790 0.173827
Si Si2 0.741945 0.424075 0.929386
Si Si3 0.703815 0.000000 0.386469
Si Si4 0.989457 0.378812 0.203088
Si Si5 0.556257 0.000000 0.637829
Si Si6 0.323146 0.629796 0.272328
Si Si7 0.453411 0.642718 0.638735
Si Si8 0.080414 0.708044 0.364354
O O1 0.790515 0.500000 0.173884
O O2 0.882885 0.380901 0.149374
O O3 0.658645 0.400623 0.290364
O O4 0.709070 0.414715 0.068638
O O5 0.734834 0.500000 0.905777
O O6 0.669047 0.382946 0.863995
O O7 0.880484 0.402917 0.878332
O O8 0.772444 0.937478 0.330639
O O9 0.672821 0.000000 0.525138
O O10 0.572790 0.000000 0.376783
O O11 0.942787 0.435050 0.296919
O O12 0.015902 0.319106 0.274809
O O13 0.441033 0.642128 0.304225
O O14 0.212846 0.678529 0.327734
O O15 0.500000 0.624153 0.500000
O O16 0.412200 0.716091 0.643786
O O17 0.000000 0.690022 0.500000
#
# Coordination Sequence:
#
# PCOD9224166 Si02
#       8
#     8   8   4   8   4   8   8   8
#     4  11  25  40  64  93 129 165 202 258 317 370
#     4  10  19  40  66  95 122 162 211 255 308 361
#     4  11  20  32  59  97 128 158 204 254 313 361
#     4  11  19  36  63  98 128 155 205 260 312 358
#     4  11  18  30  57 102 129 154 197 261 317 358
#     4  11  22  41  66  90 125 163 207 258 298 372
#     4  11  29  44  60  90 128 170 206 249 310 378
#     4  10  23  41  66  91 120 170 211 249 304 368
#
# _framework density 9.8534980000000001
#
# number of rings (size 3 to 8) (size 9 to 14) (size 15 to 20)
#    0.000    1.286    5.000    1.286    7.000    3.143 
#    0.000    4.286    6.286    0.000    0.000    0.000 
#    0.000    0.000    0.000    0.000    0.000    0.000 
#
# Total GULP energy -156159.979752 kJ/mol
# GULP energy per Si atom -5577.142134 kJ/mol
# Density = 0.983107 g / cm^3
# Si number density = 9.853498 Si / 1000 Ang^3
#
#
#
# Elastic Constant Matrix: (Units=GPa)
#
#
# Indices 1 2 3 4 5 6 
#
# 1 92.5866 -3.1620 -1.6932 0.0000 26.6582 0.0000
# 2 -3.1620 33.5478 13.5000 0.0000 6.9380 0.0000
# 3 -1.6932 13.5000 76.4693 0.0000 11.7518 0.0000
# 4 0.0000 0.0000 0.0000 28.8968 0.0000 1.2611
# 5 26.6582 6.9380 11.7518 0.0000 10.7371 0.0000
# 6 0.0000 0.0000 0.0000 1.2611 0.0000 -13.8635
#
#
#
# Elastic Compliance Matrix: (Units=1/GPa)
#
#
# Indices 1 2 3 4 5 6 
#
# 1 1.537406 0.944638 0.658448 0.000000 -5.148183 0.000000
# 2 0.944638 0.615488 0.401318 0.000000 -3.182326 0.000000
# 3 0.658448 0.401318 0.298027 0.000000 -2.220324 0.000000
# 4 0.000000 0.000000 0.000000 0.034469 0.000000 0.003136
# 5 -5.148183 -3.182326 -2.220324 0.000000 17.361652 0.000000
# 6 0.000000 0.000000 0.000000 0.003136 0.000000 -0.071847
#
#
# Mechanical properties :
#
#
# Convention : Reuss Voigt Hill
#
# Bulk Modulus (GPa) = 0.15481 24.43256 12.29368
# Shear Modulus (GPa) = 0.27902 18.08466 9.18184
#
# Velocity S-wave (km/s) = 0.37669 3.03260 2.16085
# Velocity P-wave (km/s) = 0.51761 4.96861 3.53235
#
# Compressibility (1/GPa) = 6.45973086
#
# Stress axis : x y z
#
# Youngs Moduli (GPa) = 0.65045 1.62473 3.35540
#
# Poissons Ratio (x) = -1.53478 -2.20935
# Poissons Ratio (y) = -0.61444 -1.34658
# Poissons Ratio (z) = -0.42829 -0.65203
#
# Static dielectric constant tensor:
#      x y z
#    x 1.735520 0.000000 0.062680 
#    y 0.000000 1.654240 0.000000 
#    z 0.062680 0.000000 1.770210 
# 
# From -- ./inp_files/133913.got.cif
#   From: 2010.05.17/outbox.ucp.g08.bks.cvg/sg12_67_cif.got.tgz:133913.got - 2010.06.11 11:47:21.
