data_PCOD9224101
_publ_section_title
;
Structure prediction by ZEFSAII (Michael W. Deem and Ramdas Pophale) SiO2 
 PCOD9224101
Probable space group: C 2/M
;
_chemical_formula_sum "Si O2"
_cell_formula_units_Z 28
_cell_length_a 24.000000
_cell_length_b 15.000000
_cell_length_c 9.000000
_cell_angle_alpha 90.000000
_cell_angle_beta 120.000000
_cell_angle_gamma 90.000000
_cell_volume 2805.922308
_symmetry_space_group_name_H-M "C 2/M"
_symmetry_group_IT_number 12
_symmetry_cell_setting 'monoclinic'
loop_
_space_group_symop_operation_xyz
x,y,z
-x,y,-z
-x,-y,-z
x,-y,z
1/2+x,1/2+y,z
1/2-x,1/2+y,-z
1/2-x,1/2-y,-z
1/2+x,1/2-y,z
loop_
_atom_site_type_symbol
_atom_site_label
_atom_site_fract_x
_atom_site_fract_y
_atom_site_fract_z
Si Si1 0.762016 0.401274 0.382624
Si Si2 0.315642 0.268019 0.330428
Si Si3 0.430468 0.500000 0.602597
Si Si4 0.560719 0.304683 0.699402
Si Si5 0.125768 0.841772 0.291904
Si Si6 0.562466 0.198377 0.998025
Si Si7 0.300944 0.895939 0.782128
Si Si8 0.579501 0.500000 0.738151
O O1 0.779446 0.500000 0.359942
O O2 0.786819 0.329706 0.300544
O O3 0.685354 0.389395 0.291863
O O4 0.789433 0.387739 0.587470
O O5 0.377279 0.272215 0.308613
O O6 0.341656 0.286714 0.531516
O O7 0.256795 0.336825 0.224875
O O8 0.415975 0.414715 0.680048
O O9 0.502808 0.500000 0.650710
O O10 0.393321 0.500000 0.395463
O O11 0.500000 0.315653 0.500000
O O12 0.588431 0.398708 0.804073
O O13 0.544586 0.237298 0.811648
O O14 0.084638 0.781714 0.128769
O O15 0.627444 0.138363 0.081567
O O16 0.500000 0.158512 0.000000
O O17 0.293431 0.000000 0.809097
#
# Coordination Sequence:
#
# PCOD9224101 Si02
#       8
#     8   8   4   8   8   8   8   4
#     4  10  19  36  67  97 128 160 203 257 317 378
#     4  11  20  39  68  90 130 161 210 254 312 380
#     4  11  18  31  64  84 132 156 203 246 297 382
#     4  12  25  41  64  91 126 174 209 252 327 383
#     4  11  19  37  60  94 122 163 204 258 307 368
#     4  12  25  41  63  90 129 165 212 269 310 361
#     4  10  22  39  66  98 121 169 218 256 312 367
#     4  11  20  37  56  91 122 166 208 242 306 392
#
# _framework density 9.9788940000000004
#
# number of rings (size 3 to 8) (size 9 to 14) (size 15 to 20)
#    0.000    1.000    6.429    2.571    2.000    1.429 
#    0.000    2.143    0.000    0.857    0.000    0.000 
#    0.000    0.000    0.000    0.000    0.000    0.000 
#
# Total GULP energy -156125.402389 kJ/mol
# GULP energy per Si atom -5575.907228 kJ/mol
# Density = 0.995618 g / cm^3
# Si number density = 9.978894 Si / 1000 Ang^3
#
#
#
# Elastic Constant Matrix: (Units=GPa)
#
#
# Indices 1 2 3 4 5 6 
#
# 1 124.9145 51.1199 26.0324 0.0000 -7.1040 0.0000
# 2 51.1199 63.0287 12.0802 0.0000 -30.0508 0.0000
# 3 26.0324 12.0802 43.3352 0.0000 20.6400 0.0000
# 4 0.0000 0.0000 0.0000 7.7735 0.0000 -11.9061
# 5 -7.1040 -30.0508 20.6400 0.0000 -1.7116 0.0000
# 6 0.0000 0.0000 0.0000 -11.9061 0.0000 -13.2886
#
#
#
# Elastic Compliance Matrix: (Units=1/GPa)
#
#
# Indices 1 2 3 4 5 6 
#
# 1 0.012749 -0.007793 -0.006740 0.000000 0.002633 0.000000
# 2 -0.007793 0.010621 0.011141 0.000000 -0.019779 0.000000
# 3 -0.006740 0.011141 0.015402 0.000000 0.018093 0.000000
# 4 0.000000 0.000000 0.000000 0.054227 0.000000 -0.048586
# 5 0.002633 -0.019779 0.018093 0.000000 -0.029732 0.000000
# 6 0.000000 0.000000 0.000000 -0.048586 0.000000 -0.031722
#
#
# Mechanical properties :
#
#
# Convention : Reuss Voigt Hill
#
# Bulk Modulus (GPa) = 31.26223 45.52703 38.39463
# Shear Modulus (GPa) = 102.05765 8.02440 55.04102
#
# Velocity S-wave (km/s) = 7.15875 2.00734 5.25724
# Velocity P-wave (km/s) = 9.16671 5.31354 7.49207
#
# Compressibility (1/GPa) = 0.03198748
#
# Stress axis : x y z
#
# Youngs Moduli (GPa) = 78.43653 94.15244 64.92831
#
# Poissons Ratio (x) = 0.73375 0.43763
# Poissons Ratio (y) = 0.61128 -0.72338
# Poissons Ratio (z) = 0.52867 -1.04897
#
# Static dielectric constant tensor:
#      x y z
#    x 1.708110 0.000000 -0.003830 
#    y 0.000000 1.731350 0.000000 
#    z -0.003830 0.000000 1.712290 
# 
# From -- ./inp_files/97012.got.cif
#   From: 2010.05.17/outbox.ucp.g08.bks.cvg/sg12_49_cif.got.tgz:97012.got - 2010.06.11 11:47:21.
