data_PCOD9224646
_publ_section_title
;
Structure prediction by ZEFSAII (Michael W. Deem and Ramdas Pophale) SiO2 
 PCOD9224646
Probable space group: C 2/M
;
_chemical_formula_sum "Si O2"
_cell_formula_units_Z 28
_cell_length_a 30.000000
_cell_length_b 9.000000
_cell_length_c 12.000000
_cell_angle_alpha 90.000000
_cell_angle_beta 70.000000
_cell_angle_gamma 90.000000
_cell_volume 3044.604091
_symmetry_space_group_name_H-M "C 2/M"
_symmetry_group_IT_number 12
_symmetry_cell_setting 'monoclinic'
loop_
_space_group_symop_operation_xyz
x,y,z
-x,y,-z
-x,-y,-z
x,-y,z
1/2+x,1/2+y,z
1/2-x,1/2+y,-z
1/2-x,1/2-y,-z
1/2+x,1/2-y,z
loop_
_atom_site_type_symbol
_atom_site_label
_atom_site_fract_x
_atom_site_fract_y
_atom_site_fract_z
Si Si1 0.748970 0.678161 0.326853
Si Si2 0.898486 0.819505 0.839336
Si Si3 0.572154 0.321397 0.702008
Si Si4 0.211299 0.179608 0.115028
Si Si5 0.322624 0.321693 0.413560
Si Si6 0.445835 0.320581 0.031936
Si Si7 0.014063 0.678109 0.360043
O O1 0.754685 0.500000 0.323216
O O2 0.728377 0.721414 0.224756
O O3 0.710081 0.718626 0.453599
O O4 0.797929 0.751409 0.325958
O O5 0.843524 0.776997 0.864040
O O6 0.936206 0.751370 0.720103
O O7 0.900942 0.000000 0.830852
O O8 0.917661 0.771468 0.945876
O O9 0.564886 0.500000 0.697238
O O10 0.623189 0.278455 0.609413
O O11 0.576988 0.287625 0.829363
O O12 0.527663 0.241551 0.683575
O O13 0.212965 0.000000 0.104726
O O14 0.250000 0.250000 0.000000
O O15 0.322150 0.500000 0.400558
O O16 0.448420 0.500000 0.019417
O O17 0.500000 0.265902 0.000000
O O18 0.017094 0.500000 0.346053
O O19 0.000000 0.713038 0.500000
#
# Coordination Sequence:
#
# PCOD9224646 Si02
#       7
#     8   8   8   8   8   8   8
#     4   9  19  37  54  79 116 147 187 239 287 338
#     4  10  21  39  63  85 111 153 197 239 283 334
#     4  10  20  35  60  87 111 145 191 236 277 336
#     4  10  23  39  59  85 116 154 196 240 287 341
#     4   9  19  34  58  86 109 144 191 236 284 337
#     4   9  16  31  55  85 112 134 177 234 278 320
#     4  11  25  41  56  83 122 155 188 233 289 348
#
# _framework density 9.1965979999999998
#
# number of rings (size 3 to 8) (size 9 to 14) (size 15 to 20)
#    0.000    2.286    1.429    0.429    4.000    2.857 
#    0.000    1.429    0.000    0.000    0.000    0.000 
#    0.000    0.000    0.000    0.000    0.000    0.000 
#
# Total GULP energy -156157.501725 kJ/mol
# GULP energy per Si atom -5577.053633 kJ/mol
# Density = 0.917567 g / cm^3
# Si number density = 9.196598 Si / 1000 Ang^3
#
#
#
# Elastic Constant Matrix: (Units=GPa)
#
#
# Indices 1 2 3 4 5 6 
#
# 1 164.3150 35.2376 75.8510 0.0000 -3.1754 0.0000
# 2 35.2376 20.4540 31.9936 0.0000 -1.1196 0.0000
# 3 75.8510 31.9936 111.4194 0.0000 8.6650 0.0000
# 4 0.0000 0.0000 0.0000 25.0518 0.0000 0.1358
# 5 -3.1754 -1.1196 8.6650 0.0000 36.6911 0.0000
# 6 0.0000 0.0000 0.0000 0.1358 0.0000 28.4482
#
#
#
# Elastic Compliance Matrix: (Units=1/GPa)
#
#
# Indices 1 2 3 4 5 6 
#
# 1 0.010422 -0.011991 -0.003762 0.000000 0.001425 0.000000
# 2 -0.011991 0.105492 -0.022715 0.000000 0.007546 0.000000
# 3 -0.003762 -0.022715 0.018477 0.000000 -0.005382 0.000000
# 4 0.000000 0.000000 0.000000 0.039918 0.000000 -0.000191
# 5 0.001425 0.007546 -0.005382 0.000000 0.028879 0.000000
# 6 0.000000 0.000000 0.000000 -0.000191 0.000000 0.035153
#
#
# Mechanical properties :
#
#
# Convention : Reuss Voigt Hill
#
# Bulk Modulus (GPa) = 17.40527 64.70585 41.05556
# Shear Modulus (GPa) = 14.95080 28.24530 21.59805
#
# Velocity S-wave (km/s) = 2.85413 3.92297 3.43044
# Velocity P-wave (km/s) = 4.51053 7.46828 6.16928
#
# Compressibility (1/GPa) = 0.05745388
#
# Stress axis : x y z
#
# Youngs Moduli (GPa) = 95.95344 9.47937 54.11998
#
# Poissons Ratio (x) = 0.11367 0.20362
# Poissons Ratio (y) = 1.15062 1.22934
# Poissons Ratio (z) = 0.36100 0.21532
#
# Static dielectric constant tensor:
#      x y z
#    x 1.619640 0.000000 -0.011840 
#    y 0.000000 1.619610 0.000000 
#    z -0.011840 0.000000 1.661210 
# 
# From -- ./inp_files/186437.got.cif
#   From: 2010.05.17/outbox.ucp.g08.bks.cvg/sg12_94_cif.got.tgz:186437.got - 2010.06.11 11:47:21.
