data_PCOD9224193
_publ_section_title
;
Structure prediction by ZEFSAII (Michael W. Deem and Ramdas Pophale) SiO2 
 PCOD9224193
Probable space group: C 2/M
;
_chemical_formula_sum "Si O2"
_cell_formula_units_Z 32
_cell_length_a 30.000000
_cell_length_b 9.000000
_cell_length_c 24.000000
_cell_angle_alpha 90.000000
_cell_angle_beta 150.000000
_cell_angle_gamma 90.000000
_cell_volume 3240.000000
_symmetry_space_group_name_H-M "C 2/M"
_symmetry_group_IT_number 12
_symmetry_cell_setting 'monoclinic'
loop_
_space_group_symop_operation_xyz
x,y,z
-x,y,-z
-x,-y,-z
x,-y,z
1/2+x,1/2+y,z
1/2-x,1/2+y,-z
1/2-x,1/2-y,-z
1/2+x,1/2-y,z
loop_
_atom_site_type_symbol
_atom_site_label
_atom_site_fract_x
_atom_site_fract_y
_atom_site_fract_z
Si Si1 0.709926 0.832046 0.563743
Si Si2 0.850218 0.836989 0.813130
Si Si3 0.890091 0.331635 0.172440
Si Si4 0.351987 0.831348 0.649334
Si Si5 0.937050 0.169539 0.638102
Si Si6 0.486736 0.834530 0.899057
Si Si7 0.665127 0.333500 0.080169
Si Si8 0.768116 0.668125 0.944360
O O1 0.773949 0.827171 0.685336
O O2 0.773305 0.779093 0.581957
O O3 0.630706 0.715630 0.483344
O O4 0.677433 0.000000 0.521043
O O5 0.922312 0.711483 0.879758
O O6 0.806525 0.831355 0.825593
O O7 0.894341 0.000000 0.854901
O O8 0.917874 0.500000 0.214015
O O9 0.798899 0.288741 0.103802
O O10 0.963707 0.214865 0.268745
O O11 0.863236 0.318589 0.078517
O O12 0.405535 0.774454 0.654293
O O13 0.421963 0.832571 0.775711
O O14 0.318483 0.000000 0.607012
O O15 0.929083 0.000000 0.645548
O O16 0.524276 0.000000 0.945816
O O17 0.562058 0.713040 0.971068
O O18 0.675665 0.500000 0.068167
O O19 0.716520 0.209922 0.101918
O O20 0.737036 0.500000 0.920701
#
# Coordination Sequence:
#
# PCOD9224193 Si02
#       8
#     8   8   8   8   8   8   8   8
#     4  10  20  36  54  72 100 138 178 218 259 301
#     4   9  20  36  52  72 101 139 179 216 255 303
#     4  10  21  38  58  80 107 137 168 204 251 306
#     4  10  20  34  50  73 106 140 175 213 255 305
#     4  12  23  34  52  78 105 135 173 213 257 307
#     4  10  20  32  49  75 106 139 175 215 257 302
#     4  11  21  33  52  77 105 138 175 212 254 306
#     4  10  21  37  57  82 109 135 166 206 253 304
#
# _framework density 9.8765429999999999
#
# number of rings (size 3 to 8) (size 9 to 14) (size 15 to 20)
#    0.000    1.750    0.000    4.875    0.000    9.000 
#    0.000    0.000    0.000    0.750    0.000    5.250 
#    0.000    0.000    0.000    0.000    0.000    0.000 
#
# Total GULP energy -178422.052415 kJ/mol
# GULP energy per Si atom -5575.689138 kJ/mol
# Density = 0.985406 g / cm^3
# Si number density = 9.876543 Si / 1000 Ang^3
#
#
#
# Elastic Constant Matrix: (Units=GPa)
#
#
# Indices 1 2 3 4 5 6 
#
# 1 34.5249 12.3997 20.9854 0.0000 -9.3035 0.0000
# 2 12.3997 60.9394 10.2697 0.0000 -12.6850 0.0000
# 3 20.9854 10.2697 45.8917 0.0000 -9.3589 0.0000
# 4 0.0000 0.0000 0.0000 21.0600 0.0000 6.1795
# 5 -9.3035 -12.6850 -9.3589 0.0000 13.5599 0.0000
# 6 0.0000 0.0000 0.0000 6.1795 0.0000 22.1255
#
#
#
# Elastic Compliance Matrix: (Units=1/GPa)
#
#
# Indices 1 2 3 4 5 6 
#
# 1 0.044323 -0.002837 -0.016262 0.000000 0.016533 0.000000
# 2 -0.002837 0.020584 0.000257 0.000000 0.017487 0.000000
# 3 -0.016262 0.000257 0.031356 0.000000 0.010725 0.000000
# 4 0.000000 0.000000 0.000000 0.051722 0.000000 -0.014446
# 5 0.016533 0.017487 0.010725 0.000000 0.108851 0.000000
# 6 0.000000 0.000000 0.000000 -0.014446 0.000000 0.049231
#
#
# Mechanical properties :
#
#
# Convention : Reuss Voigt Hill
#
# Bulk Modulus (GPa) = 17.07058 25.40727 21.23893
# Shear Modulus (GPa) = 13.76362 17.86248 15.81305
#
# Velocity S-wave (km/s) = 2.64253 3.01040 2.83244
# Velocity P-wave (km/s) = 4.23926 4.99737 4.63385
#
# Compressibility (1/GPa) = 0.05858032
#
# Stress axis : x y z
#
# Youngs Moduli (GPa) = 22.56165 48.58227 31.89163
#
# Poissons Ratio (x) = 0.13782 0.51861
# Poissons Ratio (y) = 0.06400 -0.00820
# Poissons Ratio (z) = 0.36689 -0.01249
#
# Static dielectric constant tensor:
#      x y z
#    x 1.708530 0.000000 -0.055520 
#    y 0.000000 1.688650 0.000000 
#    z -0.055520 0.000000 1.764110 
# 
# From -- ./inp_files/249134.got.cif
#   From: 2010.05.17/outbox.ucp.g08.bks.cvg/sg12_125_cif.got.tgz:249134.got - 2010.06.11 11:47:21.
