data_PCOD9224703
_publ_section_title
;
Structure prediction by ZEFSAII (Michael W. Deem and Ramdas Pophale) SiO2 
 PCOD9224703
Probable space group: C 2/M
;
_chemical_formula_sum "Si O2"
_cell_formula_units_Z 28
_cell_length_a 21.000000
_cell_length_b 30.000000
_cell_length_c 9.000000
_cell_angle_alpha 90.000000
_cell_angle_beta 150.000000
_cell_angle_gamma 90.000000
_cell_volume 2835.000000
_symmetry_space_group_name_H-M "C 2/M"
_symmetry_group_IT_number 12
_symmetry_cell_setting 'monoclinic'
loop_
_space_group_symop_operation_xyz
x,y,z
-x,y,-z
-x,-y,-z
x,-y,z
1/2+x,1/2+y,z
1/2-x,1/2+y,-z
1/2-x,1/2-y,-z
1/2+x,1/2-y,z
loop_
_atom_site_type_symbol
_atom_site_label
_atom_site_fract_x
_atom_site_fract_y
_atom_site_fract_z
Si Si1 0.572362 0.227747 0.295907
Si Si2 0.866136 0.000000 0.388128
Si Si3 0.690178 0.669075 0.298078
Si Si4 0.216704 0.408840 0.706691
Si Si5 0.205644 0.898580 0.794370
Si Si6 0.432066 0.678676 0.628589
Si Si7 0.971115 0.644050 0.270504
Si Si8 0.652860 0.500000 0.010735
O O1 0.700496 0.205235 0.496782
O O2 0.603043 0.269350 0.466068
O O3 0.495545 0.187695 0.220230
O O4 0.500000 0.243565 0.000000
O O5 0.811975 0.949244 0.303113
O O6 0.861070 0.000000 0.197279
O O7 0.003336 0.000000 0.746978
O O8 0.739487 0.622176 0.338669
O O9 0.636230 0.666662 0.353750
O O10 0.580771 0.681021 0.960788
O O11 0.069190 0.395651 0.428169
O O12 0.275966 0.399349 0.990164
O O13 0.266109 0.457870 0.775292
O O14 0.097681 0.862326 0.538759
O O15 0.331279 0.875933 0.979820
O O16 0.000000 0.656493 0.500000
#
# Coordination Sequence:
#
# PCOD9224703 Si02
#       8
#     8   4   8   8   8   8   8   4
#     4  11  21  37  57  77 105 149 183 225 269 328
#     4   9  18  31  54  84 109 145 180 223 268 330
#     4  10  21  36  52  79 109 135 187 220 273 325
#     4   9  19  36  56  80 109 147 178 229 270 327
#     4  10  20  36  57  81 113 145 183 225 276 323
#     4  11  22  34  54  80 105 143 180 229 269 322
#     4   9  20  37  54  81 115 141 183 230 274 317
#     4   9  16  31  56  80 111 139 188 217 272 326
#
# _framework density 9.8765429999999999
#
# number of rings (size 3 to 8) (size 9 to 14) (size 15 to 20)
#    0.000    2.143    1.429    2.143    2.000    2.286 
#    2.571    5.714    0.000    2.571    0.000    5.500 
#    0.000    0.000    0.000    0.000    0.000    0.000 
#
# Total GULP energy -155932.667966 kJ/mol
# GULP energy per Si atom -5569.023856 kJ/mol
# Density = 0.985406 g / cm^3
# Si number density = 9.876543 Si / 1000 Ang^3
#
#
#
# Elastic Constant Matrix: (Units=GPa)
#
#
# Indices 1 2 3 4 5 6 
#
# 1 30.7375 11.5551 11.7230 0.0000 16.6383 0.0000
# 2 11.5551 106.6343 48.8956 0.0000 6.2619 0.0000
# 3 11.7230 48.8956 59.5713 0.0000 3.6504 0.0000
# 4 0.0000 0.0000 0.0000 23.5177 0.0000 -4.9964
# 5 16.6383 6.2619 3.6504 0.0000 6.1553 0.0000
# 6 0.0000 0.0000 0.0000 -4.9964 0.0000 12.7885
#
#
#
# Elastic Compliance Matrix: (Units=1/GPa)
#
#
# Indices 1 2 3 4 5 6 
#
# 1 -0.066585 -0.007030 0.007686 0.000000 0.182577 0.000000
# 2 -0.007030 0.014713 -0.011353 0.000000 0.010769 0.000000
# 3 0.007686 -0.011353 0.026106 0.000000 -0.024708 0.000000
# 4 0.000000 0.000000 0.000000 0.046370 0.000000 0.018116
# 5 0.182577 0.010769 -0.024708 0.000000 -0.327361 0.000000
# 6 0.000000 0.000000 0.000000 0.018116 0.000000 0.085273
#
#
# Mechanical properties :
#
#
# Convention : Reuss Voigt Hill
#
# Bulk Modulus (GPa) = -21.20440 37.92119 8.35839
# Shear Modulus (GPa) = -23.16863 16.81027 -3.17918
#
# Velocity S-wave (km/s) = -3.42850 2.92039 -1.27002
# Velocity P-wave (km/s) = 5.14109 5.53271 1.44569
#
# Compressibility (1/GPa) = -0.04716003
#
# Stress axis : x y z
#
# Youngs Moduli (GPa) = -15.01847 67.96784 38.30495
#
# Poissons Ratio (x) = 0.47785 -0.29440
# Poissons Ratio (y) = -0.10559 0.43486
# Poissons Ratio (z) = 0.11543 0.77161
#
# Static dielectric constant tensor:
#      x y z
#    x 1.728330 0.000000 0.055690 
#    y 0.000000 1.745810 0.000000 
#    z 0.055690 0.000000 1.737270 
# 
# From -- ./inp_files/91675.got.cif
#   From: 2010.05.17/outbox.ucp.g08.bks.cvg/sg12_46_cif.got.tgz:91675.got - 2010.06.11 11:47:21.
