data_PCOD9224663
_publ_section_title
;
Structure prediction by ZEFSAII (Michael W. Deem and Ramdas Pophale) SiO2 
 PCOD9224663
Probable space group: C 2/M
;
_chemical_formula_sum "Si O2"
_cell_formula_units_Z 32
_cell_length_a 30.000000
_cell_length_b 18.000000
_cell_length_c 9.000000
_cell_angle_alpha 90.000000
_cell_angle_beta 40.000000
_cell_angle_gamma 90.000000
_cell_volume 3123.947783
_symmetry_space_group_name_H-M "C 2/M"
_symmetry_group_IT_number 12
_symmetry_cell_setting 'monoclinic'
loop_
_space_group_symop_operation_xyz
x,y,z
-x,y,-z
-x,-y,-z
x,-y,z
1/2+x,1/2+y,z
1/2-x,1/2+y,-z
1/2-x,1/2-y,-z
1/2+x,1/2-y,z
loop_
_atom_site_type_symbol
_atom_site_label
_atom_site_fract_x
_atom_site_fract_y
_atom_site_fract_z
Si Si1 0.821102 0.797128 0.076277
Si Si2 0.154792 0.630826 0.913749
Si Si3 0.340043 0.797240 0.557429
Si Si4 0.138018 0.086308 0.272355
Si Si5 0.802735 0.418217 0.885760
Si Si6 0.921364 0.414260 0.159234
Si Si7 0.925634 0.146667 0.280009
Si Si8 0.197761 0.087973 0.609184
O O1 0.855076 0.719439 0.037405
O O2 0.740526 0.773856 0.252865
O O3 0.815128 0.859261 0.217989
O O4 0.859260 0.843686 0.848598
O O5 0.092793 0.597382 0.977149
O O6 0.229250 0.614444 0.646248
O O7 0.161355 0.587305 0.049109
O O8 0.334203 0.848068 0.718664
O O9 0.367048 0.857671 0.370762
O O10 0.391865 0.727722 0.405586
O O11 0.081101 0.103316 0.545068
O O12 0.128409 0.000000 0.242525
O O13 0.219050 0.088702 0.120037
O O14 0.813781 0.500000 0.787432
O O15 0.908542 0.500000 0.233186
O O16 0.000000 0.395336 0.000000
O O17 0.868001 0.104689 0.327685
O O18 0.000000 0.149820 0.000000
O O19 0.202149 0.000000 0.631225
#
# Coordination Sequence:
#
# PCOD9224663 Si02
#       8
#     8   8   8   8   8   8   8   8
#     4  11  22  38  65  97 127 162 212 272 328 375
#     4  12  21  38  64  94 131 166 214 271 319 376
#     4  11  21  39  61  93 130 168 211 264 320 385
#     4  10  21  39  62  94 133 170 213 267 326 386
#     4  10  20  35  63  98 130 167 214 269 327 383
#     4  11  24  40  60  89 129 173 212 260 324 391
#     4  12  25  41  63  92 130 178 220 263 319 381
#     4  12  23  38  62  95 128 166 219 271 317 378
#
# _framework density 10.243449
#
# number of rings (size 3 to 8) (size 9 to 14) (size 15 to 20)
#    0.000    0.875    3.750    4.500    0.000    4.000 
#    0.000    1.250    0.000    6.750    0.000    0.000 
#    0.000    0.000    0.000    0.000    0.000    0.000 
#
# Total GULP energy -178527.072264 kJ/mol
# GULP energy per Si atom -5578.971008 kJ/mol
# Density = 1.022013 g / cm^3
# Si number density = 10.243449 Si / 1000 Ang^3
#
#
#
# Elastic Constant Matrix: (Units=GPa)
#
#
# Indices 1 2 3 4 5 6 
#
# 1 40.3525 -11.8309 -6.5160 0.0000 -4.1774 0.0000
# 2 -11.8309 117.1038 10.3417 0.0000 -6.3450 0.0000
# 3 -6.5160 10.3417 51.5905 0.0000 -5.3358 0.0000
# 4 0.0000 0.0000 0.0000 55.6327 0.0000 -0.5708
# 5 -4.1774 -6.3450 -5.3358 0.0000 18.2581 0.0000
# 6 0.0000 0.0000 0.0000 -0.5708 0.0000 36.8004
#
#
#
# Elastic Compliance Matrix: (Units=1/GPa)
#
#
# Indices 1 2 3 4 5 6 
#
# 1 0.027073 0.002856 0.003702 0.000000 0.008269 0.000000
# 2 0.002856 0.009115 -0.001105 0.000000 0.003498 0.000000
# 3 0.003702 -0.001105 0.020747 0.000000 0.006526 0.000000
# 4 0.000000 0.000000 0.000000 0.017978 0.000000 0.000279
# 5 0.008269 0.003498 0.006526 0.000000 0.059785 0.000000
# 6 0.000000 0.000000 0.000000 0.000279 0.000000 0.027178
#
#
# Mechanical properties :
#
#
# Convention : Reuss Voigt Hill
#
# Bulk Modulus (GPa) = 14.74001 21.44849 18.09425
# Shear Modulus (GPa) = 28.80463 36.60837 32.70650
#
# Velocity S-wave (km/s) = 3.75374 4.23178 3.99991
# Velocity P-wave (km/s) = 5.09881 5.86254 5.49396
#
# Compressibility (1/GPa) = 0.06784257
#
# Stress axis : x y z
#
# Youngs Moduli (GPa) = 36.93740 109.70805 48.19875
#
# Poissons Ratio (x) = -0.31335 -0.17843
# Poissons Ratio (y) = -0.10550 0.05324
# Poissons Ratio (z) = -0.13674 0.12119
#
# Static dielectric constant tensor:
#      x y z
#    x 1.821470 0.000000 0.087520 
#    y 0.000000 1.723170 0.000000 
#    z 0.087520 0.000000 1.750500 
# 
# From -- ./inp_files/112853.got.cif
#   From: 2010.05.17/outbox.ucp.g08.bks.cvg/sg12_57_cif.got.tgz:112853.got - 2010.06.11 11:47:21.
