data_PCOD9224360
_publ_section_title
;
Structure prediction by ZEFSAII (Michael W. Deem and Ramdas Pophale) SiO2 
 PCOD9224360
Probable space group: C 2/M
;
_chemical_formula_sum "Si O2"
_cell_formula_units_Z 20
_cell_length_a 18.000000
_cell_length_b 9.000000
_cell_length_c 27.000000
_cell_angle_alpha 90.000000
_cell_angle_beta 30.000000
_cell_angle_gamma 90.000000
_cell_volume 2187.000000
_symmetry_space_group_name_H-M "C 2/M"
_symmetry_group_IT_number 12
_symmetry_cell_setting 'monoclinic'
loop_
_space_group_symop_operation_xyz
x,y,z
-x,y,-z
-x,-y,-z
x,-y,z
1/2+x,1/2+y,z
1/2-x,1/2+y,-z
1/2-x,1/2-y,-z
1/2+x,1/2-y,z
loop_
_atom_site_type_symbol
_atom_site_label
_atom_site_fract_x
_atom_site_fract_y
_atom_site_fract_z
Si Si1 0.585838 0.322231 0.699852
Si Si2 0.424941 0.178116 0.490665
Si Si3 0.663485 0.823960 0.095944
Si Si4 0.914183 0.823802 0.695903
Si Si5 0.832680 0.176654 0.102440
O O1 0.582491 0.500000 0.710236
O O2 0.754797 0.272631 0.595298
O O3 0.495448 0.245681 0.796670
O O4 0.509393 0.293049 0.690806
O O5 0.500000 0.208245 0.500000
O O6 0.509299 0.252559 0.396112
O O7 0.425695 0.000000 0.481884
O O8 0.756170 0.800492 0.093225
O O9 0.649916 0.000000 0.094990
O O10 0.750000 0.750000 0.000000
O O11 0.755570 0.755992 0.802589
O O12 0.904439 0.000000 0.695021
O O13 0.832252 0.000000 0.112618
O O14 0.000000 0.230094 0.000000
#
# Coordination Sequence:
#
# PCOD9224360 Si02
#       5
#     8   8   8   8   8
#     4   9  19  36  55  75 101 135 174 211 250 300
#     4  10  21  36  54  76 103 136 172 210 252 301
#     4  10  20  34  54  78 104 135 170 210 254 301
#     4  10  20  34  54  78 104 134 168 211 258 302
#     4   9  19  36  56  76 100 135 176 211 247 299
#
# _framework density 9.1449470000000002
#
# number of rings (size 3 to 8) (size 9 to 14) (size 15 to 20)
#    0.000    2.400    0.000    1.800    0.000    4.800 
#    0.000    8.000    0.000    0.000    0.000    0.000 
#    0.000    0.000    0.000    0.000    0.000    0.000 
#
# Total GULP energy -111546.428828 kJ/mol
# GULP energy per Si atom -5577.321441 kJ/mol
# Density = 0.912413 g / cm^3
# Si number density = 9.144947 Si / 1000 Ang^3
#
#
#
# Elastic Constant Matrix: (Units=GPa)
#
#
# Indices 1 2 3 4 5 6 
#
# 1 24.5095 55.9644 77.9090 0.0000 10.3398 0.0000
# 2 55.9644 56.4947 87.4401 0.0000 21.0931 0.0000
# 3 77.9090 87.4401 246.2233 -0.0002 24.3010 0.0000
# 4 0.0000 0.0000 -0.0002 36.3939 0.0001 10.2058
# 5 10.3398 21.0931 24.3010 0.0001 39.8930 0.0000
# 6 0.0000 0.0000 0.0000 10.2058 0.0000 20.5083
#
#
#
# Elastic Compliance Matrix: (Units=1/GPa)
#
#
# Indices 1 2 3 4 5 6 
#
# 1 -0.028076 0.036138 -0.002960 0.000000 -0.010027 0.000000
# 2 0.036138 0.000434 -0.011322 0.000000 -0.002699 0.000000
# 3 -0.002960 -0.011322 0.008887 0.000000 0.001341 0.000000
# 4 0.000000 0.000000 0.000000 0.031934 0.000000 -0.015891
# 5 -0.010027 -0.002699 0.001341 0.000000 0.028277 0.000000
# 6 0.000000 0.000000 0.000000 -0.015891 0.000000 0.056669
#
#
# Mechanical properties :
#
#
# Convention : Reuss Voigt Hill
#
# Bulk Modulus (GPa) = 40.07144 85.53942 62.80543
# Shear Modulus (GPa) = 79.70373 26.41998 53.06185
#
# Velocity S-wave (km/s) = 6.60853 3.80480 5.39208
# Velocity P-wave (km/s) = 8.95471 8.13463 8.55450
#
# Compressibility (1/GPa) = 0.02495543
#
# Stress axis : x y z
#
# Youngs Moduli (GPa) = -35.61787 2302.17270 112.52960
#
# Poissons Ratio (x) = -83.19519 0.33310
# Poissons Ratio (y) = 1.28715 1.27411
# Poissons Ratio (z) = -0.10543 26.06617
#
# Static dielectric constant tensor:
#      x y z
#    x 1.629480 0.000000 -0.055330 
#    y 0.000000 1.618720 0.000000 
#    z -0.055330 0.000000 1.615600 
# 
# From -- ./inp_files/151707.got.cif
#   From: 2010.05.17/outbox.ucp.g08.bks.cvg/sg12_76_cif.got.tgz:151707.got - 2010.06.11 11:47:21.
