data_PCOD9224596
_publ_section_title
;
Structure prediction by ZEFSAII (Michael W. Deem and Ramdas Pophale) SiO2 
 PCOD9224596
Probable space group: C 2/M
;
_chemical_formula_sum "Si O2"
_cell_formula_units_Z 20
_cell_length_a 24.000000
_cell_length_b 15.000000
_cell_length_c 6.000000
_cell_angle_alpha 90.000000
_cell_angle_beta 70.000000
_cell_angle_gamma 90.000000
_cell_volume 2029.736061
_symmetry_space_group_name_H-M "C 2/M"
_symmetry_group_IT_number 12
_symmetry_cell_setting 'monoclinic'
loop_
_space_group_symop_operation_xyz
x,y,z
-x,y,-z
-x,-y,-z
x,-y,z
1/2+x,1/2+y,z
1/2-x,1/2+y,-z
1/2-x,1/2-y,-z
1/2+x,1/2-y,z
loop_
_atom_site_type_symbol
_atom_site_label
_atom_site_fract_x
_atom_site_fract_y
_atom_site_fract_z
Si Si1 0.563092 0.766024 0.301841
Si Si2 0.726538 0.602050 0.181388
Si Si3 0.855662 0.605627 0.082204
Si Si4 0.842347 0.236439 0.443426
Si Si5 0.116025 0.104438 0.992641
O O1 0.500000 0.783451 0.500000
O O2 0.610744 0.758152 0.431195
O O3 0.567311 0.669277 0.174193
O O4 0.588472 0.844491 0.107472
O O5 0.720955 0.500000 0.287279
O O6 0.795313 0.609002 0.015090
O O7 0.712180 0.685750 0.361967
O O8 0.676488 0.606933 0.058785
O O9 0.866179 0.500000 0.117708
O O10 0.837986 0.671457 0.310818
O O11 0.868214 0.157607 0.252277
O O12 0.099709 0.000000 0.989087
#
# Coordination Sequence:
#
# PCOD9224596 Si02
#       5
#     8   8   8   8   8
#     4  10  23  40  54  74 108 146 184 226 267 307
#     4   9  18  34  56  85 117 140 164 210 272 330
#     4  10  22  37  55  81 109 141 182 222 264 316
#     4  10  20  35  58  81 107 141 178 219 268 320
#     4   9  19  35  57  85 113 139 170 213 267 328
#
# _framework density 9.8534980000000001
#
# number of rings (size 3 to 8) (size 9 to 14) (size 15 to 20)
#    0.000    2.400    0.000    1.200    0.000   14.400 
#    0.000    6.000    0.000    0.000    0.000    0.000 
#    0.000    0.000    0.000    0.000    0.000    0.000 
#
# Total GULP energy -111407.655505 kJ/mol
# GULP energy per Si atom -5570.382775 kJ/mol
# Density = 0.983107 g / cm^3
# Si number density = 9.853498 Si / 1000 Ang^3
#
#
#
# Elastic Constant Matrix: (Units=GPa)
#
#
# Indices 1 2 3 4 5 6 
#
# 1 26.4518 20.4544 7.8167 0.0000 -24.1513 0.0000
# 2 20.4544 180.9289 33.4885 0.0000 -5.3990 0.0000
# 3 7.8167 33.4885 35.7347 0.0000 -6.2253 0.0000
# 4 0.0000 0.0000 0.0000 23.1123 0.0000 0.0976
# 5 -24.1513 -5.3990 -6.2253 0.0000 30.1456 0.0000
# 6 0.0000 0.0000 0.0000 0.0976 0.0000 23.9364
#
#
#
# Elastic Compliance Matrix: (Units=1/GPa)
#
#
# Indices 1 2 3 4 5 6 
#
# 1 0.176769 -0.015923 0.000446 0.000000 0.138859 0.000000
# 2 -0.015923 0.008122 -0.006324 0.000000 -0.012608 0.000000
# 3 0.000446 -0.006324 0.034935 0.000000 0.006439 0.000000
# 4 0.000000 0.000000 0.000000 0.043268 0.000000 -0.000176
# 5 0.138859 -0.012608 0.006439 0.000000 0.143492 0.000000
# 6 0.000000 0.000000 0.000000 -0.000176 0.000000 0.041778
#
#
# Mechanical properties :
#
#
# Convention : Reuss Voigt Hill
#
# Bulk Modulus (GPa) = 5.67465 40.73717 23.20591
# Shear Modulus (GPa) = 9.07924 27.52925 18.30424
#
# Velocity S-wave (km/s) = 2.14875 3.74160 3.05096
# Velocity P-wave (km/s) = 3.00698 6.27554 4.92059
#
# Compressibility (1/GPa) = 0.17622218
#
# Stress axis : x y z
#
# Youngs Moduli (GPa) = 5.65711 123.12951 28.62451
#
# Poissons Ratio (x) = 1.96059 -0.01276
# Poissons Ratio (y) = 0.09008 0.18103
# Poissons Ratio (z) = -0.00252 0.77873
#
# Static dielectric constant tensor:
#      x y z
#    x 1.689990 0.000000 0.006470 
#    y 0.000000 1.696160 0.000000 
#    z 0.006470 0.000000 1.739290 
# 
# From -- ./inp_files/24047.got.cif
#   From: 2010.05.17/outbox.ucp.g08.bks.cvg/sg12_13_cif.got.tgz:24047.got - 2010.06.11 11:47:21.
