data_PCOD9224284
_publ_section_title
;
Structure prediction by ZEFSAII (Michael W. Deem and Ramdas Pophale) SiO2 
 PCOD9224284
Probable space group: C 2/M
;
_chemical_formula_sum "Si O2"
_cell_formula_units_Z 32
_cell_length_a 24.000000
_cell_length_b 21.000000
_cell_length_c 9.000000
_cell_angle_alpha 90.000000
_cell_angle_beta 50.000000
_cell_angle_gamma 90.000000
_cell_volume 3474.777594
_symmetry_space_group_name_H-M "C 2/M"
_symmetry_group_IT_number 12
_symmetry_cell_setting 'monoclinic'
loop_
_space_group_symop_operation_xyz
x,y,z
-x,y,-z
-x,-y,-z
x,-y,z
1/2+x,1/2+y,z
1/2-x,1/2+y,-z
1/2-x,1/2-y,-z
1/2+x,1/2-y,z
loop_
_atom_site_type_symbol
_atom_site_label
_atom_site_fract_x
_atom_site_fract_y
_atom_site_fract_z
Si Si1 0.067914 0.842672 0.975338
Si Si2 0.057717 0.290538 0.521855
Si Si3 0.784193 0.294864 0.167590
Si Si4 0.046947 0.701931 0.066517
Si Si5 0.573027 0.573673 0.458981
Si Si6 0.637476 0.675554 0.555984
Si Si7 0.286103 0.166251 0.823565
Si Si8 0.165751 0.072397 0.011218
O O1 0.123152 0.819390 0.753837
O O2 0.106745 0.889693 0.017761
O O3 0.042764 0.778518 0.099993
O O4 0.000000 0.869616 0.000000
O O5 0.100403 0.234696 0.534871
O O6 0.127270 0.330136 0.346838
O O7 0.000000 0.264865 0.500000
O O8 0.002216 0.328883 0.721861
O O9 0.722796 0.325074 0.376219
O O10 0.759241 0.221021 0.187992
O O11 0.866654 0.309146 0.077768
O O12 0.774842 0.320921 0.017146
O O13 0.000000 0.690128 0.000000
O O14 0.500000 0.596366 0.500000
O O15 0.560432 0.500000 0.520412
O O16 0.596906 0.614767 0.557320
O O17 0.638097 0.577703 0.228035
O O18 0.245002 0.101855 0.855404
O O19 0.164049 0.000000 0.968759
#
# Coordination Sequence:
#
# PCOD9224284 Si02
#       8
#     8   8   8   8   8   8   8   8
#     4  11  22  35  51  79 117 152 185 219 265 339
#     4  11  21  32  57  84 108 147 179 226 281 331
#     4  10  20  33  56  82 112 143 178 232 278 333
#     4  11  21  36  51  82 119 144 177 219 276 339
#     4  10  21  34  52  77 106 146 195 230 263 321
#     4  11  21  33  54  78 111 152 177 226 275 328
#     4  10  20  35  56  85 109 138 192 230 275 331
#     4  11  23  39  57  77 112 152 189 236 274 316
#
# _framework density 9.2092220000000005
#
# number of rings (size 3 to 8) (size 9 to 14) (size 15 to 20)
#    0.000    1.375    6.250    1.125    1.750    2.250 
#    0.000    0.000    0.000    0.375    0.000    0.000 
#    0.000    2.500    0.000    0.000    0.000    0.000 
#
# Total GULP energy -178296.673422 kJ/mol
# GULP energy per Si atom -5571.771044 kJ/mol
# Density = 0.918826 g / cm^3
# Si number density = 9.209222 Si / 1000 Ang^3
#
#
#
# Elastic Constant Matrix: (Units=GPa)
#
#
# Indices 1 2 3 4 5 6 
#
# 1 44.8471 -19.3632 4.7726 0.0000 -11.5546 0.0000
# 2 -19.3632 4.6587 -4.5568 0.0000 10.1339 0.0000
# 3 4.7726 -4.5568 86.0994 0.0000 -20.5614 0.0000
# 4 0.0000 0.0000 0.0000 -583.0516 0.0000-1037.2771
# 5 -11.5546 10.1339 -20.5614 0.0000 32.7011 0.0000
# 6 0.0000 0.0000 0.0000-1037.2771 0.0000-1784.7336
#
#
#
# Elastic Compliance Matrix: (Units=1/GPa)
#
#
# Indices 1 2 3 4 5 6 
#
# 1 -0.007869 -0.083974 0.001815 0.000000 0.024384 0.000000
# 2 -0.083974 -0.217293 0.002530 0.000000 0.039257 0.000000
# 3 0.001815 0.002530 0.013666 0.000000 0.008450 0.000000
# 4 0.000000 0.000000 0.000000 0.050484 0.000000 -0.029341
# 5 0.024384 0.039257 0.008450 0.000000 0.032343 0.000000
# 6 0.000000 0.000000 0.000000 -0.029341 0.000000 0.016493
#
#
# Mechanical properties :
#
#
# Convention : Reuss Voigt Hill
#
# Bulk Modulus (GPa) = -2.69720 10.81227 4.05753
# Shear Modulus (GPa) = -65.35633 -456.69996 -261.02815
#
# Velocity S-wave (km/s) = -5.96332 -15.76376 -11.91758
# Velocity P-wave (km/s) = 6.99160 18.04010 13.68078
#
# Compressibility (1/GPa) = -0.37075502
#
# Stress axis : x y z
#
# Youngs Moduli (GPa) = -127.07472 -4.60208 73.17602
#
# Poissons Ratio (x) = -0.38645 -0.13281
# Poissons Ratio (y) = -10.67092 -0.18510
# Poissons Ratio (z) = 0.23063 0.01164
#
# Static dielectric constant tensor:
#      x y z
#    x 1.641210 0.000000 0.007690 
#    y 0.000000 1.624210 0.000000 
#    z 0.007690 0.000000 1.717410 
# 
# From -- ./inp_files/78830.got.cif
#   From: 2010.05.17/outbox.ucp.g08.bks.cvg/sg12_40_cif.got.tgz:78830.got - 2010.06.11 11:47:21.
