data_PCOD9224552
_publ_section_title
;
Structure prediction by ZEFSAII (Michael W. Deem and Ramdas Pophale) SiO2 
 PCOD9224552
Probable space group: C 2/M
;
_chemical_formula_sum "Si O2"
_cell_formula_units_Z 28
_cell_length_a 18.000000
_cell_length_b 9.000000
_cell_length_c 18.000000
_cell_angle_alpha 90.000000
_cell_angle_beta 70.000000
_cell_angle_gamma 90.000000
_cell_volume 2740.143682
_symmetry_space_group_name_H-M "C 2/M"
_symmetry_group_IT_number 12
_symmetry_cell_setting 'monoclinic'
loop_
_space_group_symop_operation_xyz
x,y,z
-x,y,-z
-x,-y,-z
x,-y,z
1/2+x,1/2+y,z
1/2-x,1/2+y,-z
1/2-x,1/2-y,-z
1/2+x,1/2-y,z
loop_
_atom_site_type_symbol
_atom_site_label
_atom_site_fract_x
_atom_site_fract_y
_atom_site_fract_z
Si Si1 0.996865 0.820511 0.395260
Si Si2 0.359681 0.320429 0.546166
Si Si3 0.279299 0.321910 0.323937
Si Si4 0.907682 0.678633 0.033279
Si Si5 0.243477 0.678790 0.820820
Si Si6 0.462273 0.680090 0.245372
Si Si7 0.883186 0.820995 0.890681
O O1 0.909900 0.777924 0.455649
O O2 0.003258 0.777589 0.308578
O O3 0.073441 0.774901 0.415721
O O4 0.997003 0.000000 0.400526
O O5 0.349820 0.500000 0.551198
O O6 0.276012 0.245742 0.592444
O O7 0.279297 0.500000 0.330768
O O8 0.241077 0.265134 0.260350
O O9 0.371131 0.270763 0.284102
O O10 0.909751 0.500000 0.032025
O O11 0.844884 0.720752 0.119284
O O12 0.867321 0.740641 0.973058
O O13 0.000000 0.730736 0.000000
O O14 0.244340 0.500000 0.807703
O O15 0.313744 0.710978 0.855301
O O16 0.458722 0.500000 0.241239
O O17 0.527492 0.728536 0.163242
O O18 0.884666 0.000000 0.899110
#
# Coordination Sequence:
#
# PCOD9224552 Si02
#       7
#     8   8   8   8   8   8   8
#     4   8  15  31  55  77  98 132 176 213 246 296
#     4   9  17  32  56  79  98 130 175 215 251 298
#     4  11  22  33  49  75 106 137 166 207 263 309
#     4  10  21  36  54  79 111 139 163 204 262 311
#     4  10  21  37  56  76 100 135 177 214 249 299
#     4   9  18  32  49  73 104 134 169 212 254 299
#     4  10  20  35  57  79  99 132 177 217 249 292
#
# _framework density 10.218442
#
# number of rings (size 3 to 8) (size 9 to 14) (size 15 to 20)
#    0.000    2.429    0.000    3.429    0.000    4.286 
#    0.000    2.143    0.000    3.429    0.000    0.000 
#    0.000    0.000    0.000    0.000    0.000    0.000 
#
# Total GULP energy -156054.626661 kJ/mol
# GULP energy per Si atom -5573.379524 kJ/mol
# Density = 1.019518 g / cm^3
# Si number density = 10.218442 Si / 1000 Ang^3
#
#
#
# Elastic Constant Matrix: (Units=GPa)
#
#
# Indices 1 2 3 4 5 6 
#
# 1 58.6600 1.5927 -6.6078 0.0000 -23.2549 0.0000
# 2 1.5927 1.3481 4.2316 0.0000 -9.3549 0.0000
# 3 -6.6078 4.2316 72.9282 0.0000 -18.3985 0.0000
# 4 0.0000 0.0000 0.0000 24.7880 0.0000 -8.1373
# 5 -23.2549 -9.3549 -18.3985 0.0000 39.3938 0.0000
# 6 0.0000 0.0000 0.0000 -8.1373 0.0000 17.6762
#
#
#
# Elastic Compliance Matrix: (Units=1/GPa)
#
#
# Indices 1 2 3 4 5 6 
#
# 1 0.017182 -0.078014 0.004499 0.000000 -0.006283 0.000000
# 2 -0.078014 -0.790349 -0.022873 0.000000 -0.244422 0.000001
# 3 0.004499 -0.022873 0.016716 0.000000 0.005031 0.000000
# 4 0.000000 0.000000 0.000000 0.047524 0.000000 0.021878
# 5 -0.006283 -0.244422 0.005031 0.000000 -0.034017 0.000000
# 6 0.000000 0.000001 0.000000 0.021878 0.000000 0.066645
#
#
# Mechanical properties :
#
#
# Convention : Reuss Voigt Hill
#
# Bulk Modulus (GPa) = -1.05349 14.59661 6.77156
# Shear Modulus (GPa) = -6.25053 25.28627 9.51787
#
# Velocity S-wave (km/s) = -1.75074 3.52132 2.16040
# Velocity P-wave (km/s) = 2.14555 4.86731 3.08928
#
# Compressibility (1/GPa) = -0.94922777
#
# Stress axis : x y z
#
# Youngs Moduli (GPa) = 58.20122 -1.26526 59.82243
#
# Poissons Ratio (x) = -0.09871 -0.26911
# Poissons Ratio (y) = 4.54054 1.36829
# Poissons Ratio (z) = -0.26182 -0.02894
#
# Static dielectric constant tensor:
#      x y z
#    x 1.740300 0.000000 0.007220 
#    y 0.000000 1.679890 0.000000 
#    z 0.007220 0.000000 1.751140 
# 
# From -- ./inp_files/275002.got.cif
#   From: 2010.05.17/outbox.ucp.g08.bks.cvg/sg12_138_cif.got.tgz:275002.got - 2010.06.11 11:47:21.
