data_PCOD9224987
_publ_section_title
;
Structure prediction by ZEFSAII (Michael W. Deem and Ramdas Pophale) SiO2 
 PCOD9224987
Probable space group: C 2/M
;
_chemical_formula_sum "Si O2"
_cell_formula_units_Z 28
_cell_length_a 18.000000
_cell_length_b 9.000000
_cell_length_c 27.000000
_cell_angle_alpha 90.000000
_cell_angle_beta 140.000000
_cell_angle_gamma 90.000000
_cell_volume 2811.553005
_symmetry_space_group_name_H-M "C 2/M"
_symmetry_group_IT_number 12
_symmetry_cell_setting 'monoclinic'
loop_
_space_group_symop_operation_xyz
x,y,z
-x,y,-z
-x,-y,-z
x,-y,z
1/2+x,1/2+y,z
1/2-x,1/2+y,-z
1/2-x,1/2-y,-z
1/2+x,1/2-y,z
loop_
_atom_site_type_symbol
_atom_site_label
_atom_site_fract_x
_atom_site_fract_y
_atom_site_fract_z
Si Si1 0.989766 0.168951 0.405342
Si Si2 0.325967 0.178681 0.432746
Si Si3 0.756707 0.675290 0.711539
Si Si4 0.001218 0.176678 0.863385
Si Si5 0.579119 0.672446 0.343714
Si Si6 0.138308 0.822569 0.831283
Si Si7 0.887582 0.820868 0.975949
O O1 0.058663 0.266945 0.480454
O O2 0.065400 0.176026 0.394953
O O3 0.860369 0.195084 0.316578
O O4 0.986210 0.000000 0.423436
O O5 0.298749 0.249277 0.365568
O O6 0.207280 0.230671 0.398746
O O7 0.331234 0.000000 0.432258
O O8 0.778711 0.500000 0.715667
O O9 0.875532 0.748359 0.790618
O O10 0.081472 0.199481 0.856469
O O11 0.072347 0.225980 0.948255
O O12 0.979773 0.000000 0.857491
O O13 0.581717 0.500000 0.327667
O O14 0.464988 0.735208 0.257820
O O15 0.153787 0.000000 0.830428
O O16 0.265820 0.749231 0.896033
O O17 0.873383 0.000000 0.968126
O O18 0.000000 0.784388 0.000000
#
# Coordination Sequence:
#
# PCOD9224987 Si02
#       7
#     8   8   8   8   8   8   8
#     4  10  22  38  56  82 118 153 191 243 290 334
#     4  11  21  38  61  84 114 153 195 238 288 345
#     4  11  23  37  58  86 116 151 193 240 287 339
#     4  10  21  40  62  83 116 155 192 236 284 338
#     4   9  19  37  59  83 115 151 191 240 288 333
#     4  10  20  38  63  86 112 153 198 237 279 335
#     4  10  23  40  59  89 125 153 181 232 292 342
#
# _framework density 9.9589090000000002
#
# number of rings (size 3 to 8) (size 9 to 14) (size 15 to 20)
#    0.000    1.857    1.429    2.143    2.000    4.286 
#    0.000    1.429    0.000    0.000    0.000    0.000 
#    0.000    0.000    0.000    0.000    0.000    0.000 
#
# Total GULP energy -155966.447172 kJ/mol
# GULP energy per Si atom -5570.230256 kJ/mol
# Density = 0.993624 g / cm^3
# Si number density = 9.958909 Si / 1000 Ang^3
#
#
#
# Elastic Constant Matrix: (Units=GPa)
#
#
# Indices 1 2 3 4 5 6 
#
# 1 46.1051 15.0935 13.5446 0.0000 15.5646 0.0000
# 2 15.0935 43.2033 28.3752 0.0000 6.8687 0.0000
# 3 13.5446 28.3752 121.2829 0.0000 23.8692 0.0000
# 4 0.0000 0.0000 0.0000 33.6587 0.0000 12.6327
# 5 15.5646 6.8687 23.8692 0.0000 33.7634 0.0000
# 6 0.0000 0.0000 0.0000 12.6327 0.0000 11.9343
#
#
#
# Elastic Compliance Matrix: (Units=1/GPa)
#
#
# Indices 1 2 3 4 5 6 
#
# 1 0.028299 -0.008802 0.001294 0.000000 -0.012170 0.000000
# 2 -0.008802 0.030129 -0.006573 0.000000 0.002575 0.000000
# 3 0.001294 -0.006573 0.011027 0.000000 -0.007055 0.000000
# 4 0.000000 0.000000 0.000000 0.049293 0.000000 -0.052178
# 5 -0.012170 0.002575 -0.007055 0.000000 0.039692 0.000000
# 6 0.000000 0.000000 0.000000 -0.052178 0.000000 0.139023
#
#
# Mechanical properties :
#
#
# Convention : Reuss Voigt Hill
#
# Bulk Modulus (GPa) = 24.21653 36.06867 30.14260
# Shear Modulus (GPa) = 14.73241 26.10981 20.42111
#
# Velocity S-wave (km/s) = 2.72262 3.62453 3.20546
# Velocity P-wave (km/s) = 4.69768 5.97197 5.37273
#
# Compressibility (1/GPa) = 0.04129411
#
# Stress axis : x y z
#
# Youngs Moduli (GPa) = 35.33665 33.19084 90.68781
#
# Poissons Ratio (x) = 0.29213 -0.11734
# Poissons Ratio (y) = 0.31102 0.59606
# Poissons Ratio (z) = -0.04572 0.21815
#
# Static dielectric constant tensor:
#      x y z
#    x 1.853030 0.000000 -0.004440 
#    y 0.000000 1.719320 0.000000 
#    z -0.004440 0.000000 1.671320 
# 
# From -- ./inp_files/275045.got.cif
#   From: 2010.05.17/outbox.ucp.g08.bks.cvg/sg12_138_cif.got.tgz:275045.got - 2010.06.11 11:47:21.
