data_PCOD9224852
_publ_section_title
;
Structure prediction by ZEFSAII (Michael W. Deem and Ramdas Pophale) SiO2 
 PCOD9224852
Probable space group: C 2/M
;
_chemical_formula_sum "Si O2"
_cell_formula_units_Z 32
_cell_length_a 30.000000
_cell_length_b 9.000000
_cell_length_c 15.000000
_cell_angle_alpha 90.000000
_cell_angle_beta 60.000000
_cell_angle_gamma 90.000000
_cell_volume 3507.402885
_symmetry_space_group_name_H-M "C 2/M"
_symmetry_group_IT_number 12
_symmetry_cell_setting 'monoclinic'
loop_
_space_group_symop_operation_xyz
x,y,z
-x,y,-z
-x,-y,-z
x,-y,z
1/2+x,1/2+y,z
1/2-x,1/2+y,-z
1/2-x,1/2-y,-z
1/2+x,1/2-y,z
loop_
_atom_site_type_symbol
_atom_site_label
_atom_site_fract_x
_atom_site_fract_y
_atom_site_fract_z
Si Si1 0.078155 0.677501 0.340360
Si Si2 0.245355 0.178129 0.786917
Si Si3 0.176247 0.177846 0.152412
Si Si4 0.278874 0.821691 0.556247
Si Si5 0.355491 0.321126 0.013363
Si Si6 0.600310 0.175450 0.529029
Si Si7 0.029221 0.180917 0.061857
Si Si8 0.994017 0.176542 0.297085
O O1 0.083229 0.500000 0.319931
O O2 0.124060 0.771258 0.251807
O O3 0.084527 0.698878 0.440657
O O4 0.028245 0.736555 0.336908
O O5 0.279409 0.250224 0.831288
O O6 0.257316 0.228218 0.674551
O O7 0.186447 0.207970 0.869668
O O8 0.254988 0.000000 0.780901
O O9 0.182613 0.000000 0.145866
O O10 0.168098 0.230229 0.058076
O O11 0.250000 0.750000 0.500000
O O12 0.340199 0.794538 0.506027
O O13 0.271852 0.000000 0.556691
O O14 0.360517 0.500000 0.998011
O O15 0.411611 0.266380 0.986448
O O16 0.564056 0.280265 0.622794
O O17 0.590778 0.000000 0.556318
O O18 0.005272 0.218751 0.182786
O O19 0.029443 0.000000 0.056814
O O20 0.000000 0.231129 0.000000
O O21 0.004004 0.000000 0.296151
#
# Coordination Sequence:
#
# PCOD9224852 Si02
#       8
#     8   8   8   8   8   8   8   8
#     4  11  21  37  60  83 114 156 189 221 281 349
#     4  10  20  37  59  82 112 152 190 222 277 351
#     4  11  20  33  56  87 119 144 179 235 285 327
#     4  10  22  40  59  82 112 149 195 240 279 330
#     4   9  18  33  55  83 115 146 180 230 280 332
#     4  10  22  40  58  81 115 153 189 228 283 343
#     4   9  18  34  55  81 113 147 184 230 280 326
#     4  11  22  36  58  90 118 144 189 238 280 330
#
# _framework density 9.1235599999999994
#
# number of rings (size 3 to 8) (size 9 to 14) (size 15 to 20)
#    0.000    1.875    2.500    1.875    0.000    4.500 
#    0.000    3.125    0.000    1.500    0.000    0.000 
#    0.000    0.000    0.000    0.000    0.000    0.000 
#
# Total GULP energy -178391.443227 kJ/mol
# GULP energy per Si atom -5574.732601 kJ/mol
# Density = 0.910279 g / cm^3
# Si number density = 9.123560 Si / 1000 Ang^3
#
#
#
# Elastic Constant Matrix: (Units=GPa)
#
#
# Indices 1 2 3 4 5 6 
#
# 1 143.4050 30.0108 80.1406 0.0000 29.5257 0.0000
# 2 30.0108 26.0516 22.2321 0.0000 5.0615 0.0000
# 3 80.1406 22.2321 89.2526 0.0000 9.0933 0.0000
# 4 0.0000 0.0000 0.0000 19.1879 0.0000 3.3005
# 5 29.5257 5.0615 9.0933 0.0000 26.3716 0.0000
# 6 0.0000 0.0000 0.0000 3.3005 0.0000 31.6466
#
#
#
# Elastic Compliance Matrix: (Units=1/GPa)
#
#
# Indices 1 2 3 4 5 6 
#
# 1 0.019771 -0.007535 -0.014269 0.000000 -0.015769 0.000000
# 2 -0.007535 0.052361 -0.006335 0.000000 0.000571 0.000000
# 3 -0.014269 -0.006335 0.024711 0.000000 0.008671 0.000000
# 4 0.000000 0.000000 0.000000 0.053068 0.000000 -0.005535
# 5 -0.015769 0.000571 0.008671 0.000000 0.052476 0.000000
# 6 0.000000 0.000000 0.000000 -0.005535 0.000000 0.032176
#
#
# Mechanical properties :
#
#
# Convention : Reuss Voigt Hill
#
# Bulk Modulus (GPa) = 24.65199 58.16402 41.40800
# Shear Modulus (GPa) = 16.42778 23.86294 20.14536
#
# Velocity S-wave (km/s) = 3.00375 3.62023 3.32630
# Velocity P-wave (km/s) = 5.05662 7.02991 6.12328
#
# Compressibility (1/GPa) = 0.04056467
#
# Stress axis : x y z
#
# Youngs Moduli (GPa) = 50.57927 19.09821 40.46781
#
# Poissons Ratio (x) = 0.14390 0.57743
# Poissons Ratio (y) = 0.38111 0.25637
# Poissons Ratio (z) = 0.72171 0.12099
#
# Static dielectric constant tensor:
#      x y z
#    x 1.638310 0.000000 -0.024300 
#    y 0.000000 1.618800 0.000000 
#    z -0.024300 0.000000 1.650480 
# 
# From -- ./inp_files/248981.got.cif
#   From: 2010.05.17/outbox.ucp.g08.bks.cvg/sg12_125_cif.got.tgz:248981.got - 2010.06.11 11:47:21.
