data_PCOD9224959
_publ_section_title
;
Structure prediction by ZEFSAII (Michael W. Deem and Ramdas Pophale) SiO2 
 PCOD9224959
Probable space group: C 2/M
;
_chemical_formula_sum "Si O2"
_cell_formula_units_Z 32
_cell_length_a 18.000000
_cell_length_b 9.000000
_cell_length_c 30.000000
_cell_angle_alpha 90.000000
_cell_angle_beta 40.000000
_cell_angle_gamma 90.000000
_cell_volume 3123.947783
_symmetry_space_group_name_H-M "C 2/M"
_symmetry_group_IT_number 12
_symmetry_cell_setting 'monoclinic'
loop_
_space_group_symop_operation_xyz
x,y,z
-x,y,-z
-x,-y,-z
x,-y,z
1/2+x,1/2+y,z
1/2-x,1/2+y,-z
1/2-x,1/2-y,-z
1/2+x,1/2-y,z
loop_
_atom_site_type_symbol
_atom_site_label
_atom_site_fract_x
_atom_site_fract_y
_atom_site_fract_z
Si Si1 0.756407 0.321906 0.863508
Si Si2 0.332043 0.821642 0.499608
Si Si3 0.328255 0.679421 0.001469
Si Si4 0.324988 0.173107 0.267926
Si Si5 0.909876 0.821403 0.139365
Si Si6 0.173685 0.831898 0.648524
Si Si7 0.929920 0.831448 0.729063
Si Si8 0.571541 0.677183 0.368017
O O1 0.754865 0.500000 0.864790
O O2 0.671486 0.269699 0.863367
O O3 0.879819 0.264018 0.791728
O O4 0.714584 0.269694 0.930550
O O5 0.250000 0.750000 0.500000
O O6 0.282203 0.777569 0.570750
O O7 0.461499 0.765167 0.434673
O O8 0.325420 0.000000 0.499371
O O9 0.320819 0.500000 0.003401
O O10 0.460023 0.721408 0.932095
O O11 0.250000 0.750000 0.000000
O O12 0.371210 0.257974 0.204146
O O13 0.376550 0.232705 0.289443
O O14 0.189214 0.200706 0.340084
O O15 0.341736 0.000000 0.252765
O O16 0.903787 0.000000 0.143909
O O17 0.067702 0.837553 0.662781
O O18 0.194136 0.000000 0.655713
O O19 0.893049 0.773232 0.698059
O O20 0.887727 0.000000 0.754336
O O21 0.546449 0.500000 0.377906
#
# Coordination Sequence:
#
# PCOD9224959 Si02
#       8
#     8   8   8   8   8   8   8   8
#     4  10  21  38  62  90 117 153 203 247 286 345
#     4  11  22  38  62  89 118 156 200 248 297 352
#     4  10  23  41  60  88 123 157 194 242 295 349
#     4  11  24  40  61  89 122 156 195 249 298 345
#     4  10  21  40  64  86 117 160 199 239 294 353
#     4  10  23  41  59  84 120 159 196 241 299 358
#     4  10  20  38  61  85 119 157 196 245 297 348
#     4  10  21  40  61  86 121 156 196 246 298 350
#
# _framework density 10.243449
#
# number of rings (size 3 to 8) (size 9 to 14) (size 15 to 20)
#    0.000    1.750    2.500    1.125    1.750    6.000 
#    0.000    2.500    0.000    2.250    0.000    0.000 
#    0.000    0.000    0.000    0.000    0.000    0.000 
#
# Total GULP energy -178417.944943 kJ/mol
# GULP energy per Si atom -5575.560779 kJ/mol
# Density = 1.022013 g / cm^3
# Si number density = 10.243449 Si / 1000 Ang^3
#
#
#
# Elastic Constant Matrix: (Units=GPa)
#
#
# Indices 1 2 3 4 5 6 
#
# 1 72.8621 23.2783 61.7314 0.0002 8.6683 0.0012
# 2 23.2783 -0.2519 38.9553 0.0001 -3.1014 0.0008
# 3 61.7314 38.9553 145.2107 0.0000 8.5248 0.0001
# 4 0.0002 0.0001 0.0000 18.4244 0.0001 -8.4823
# 5 8.6683 -3.1014 8.5248 0.0001 14.7119 0.0005
# 6 0.0012 0.0008 0.0001 -8.4823 0.0005 16.3989
#
#
#
# Elastic Compliance Matrix: (Units=1/GPa)
#
#
# Indices 1 2 3 4 5 6 
#
# 1 0.019735 0.013363 -0.011861 -0.000001 -0.001938 -0.000003
# 2 0.013363 -0.069411 0.014764 0.000002 -0.031061 0.000005
# 3 -0.011861 0.014764 0.007635 0.000000 0.005677 0.000000
# 4 -0.000001 0.000002 0.000000 0.071241 0.000000 0.036849
# 5 -0.001938 -0.031061 0.005677 0.000000 0.059277 0.000000
# 6 -0.000003 0.000005 0.000000 0.036849 0.000000 0.080040
#
#
# Mechanical properties :
#
#
# Convention : Reuss Voigt Hill
#
# Bulk Modulus (GPa) = -105.14930 51.75008 -26.69961
# Shear Modulus (GPa) = 37.64662 16.16408 26.90535
#
# Velocity S-wave (km/s) = 4.29137 2.81195 3.62787
# Velocity P-wave (km/s) = 5.18480 5.98813 2.11844
#
# Compressibility (1/GPa) = -0.00951029
#
# Stress axis : x y z
#
# Youngs Moduli (GPa) = 50.67248 -14.40687 130.97876
#
# Poissons Ratio (x) = 0.19252 1.55348
# Poissons Ratio (y) = -0.67713 -1.93371
# Poissons Ratio (z) = 0.60100 0.21270
#
# Static dielectric constant tensor:
#      x y z
#    x 1.820010 0.000000 -0.033610 
#    y 0.000000 1.722090 0.000000 
#    z -0.033610 0.000000 1.717250 
# 
# From -- ./inp_files/378210.got.cif
#   From: 2010.05.17/outbox.ucp.g08.bks.cvg/sg12_190_cif.got.tgz:378210.got - 2010.06.11 11:47:21.
