data_PCOD9224163
_publ_section_title
;
Structure prediction by ZEFSAII (Michael W. Deem and Ramdas Pophale) SiO2 
 PCOD9224163
Probable space group: C 2/M
;
_chemical_formula_sum "Si O2"
_cell_formula_units_Z 32
_cell_length_a 21.000000
_cell_length_b 18.000000
_cell_length_c 27.000000
_cell_angle_alpha 90.000000
_cell_angle_beta 160.000000
_cell_angle_gamma 90.000000
_cell_volume 3490.657583
_symmetry_space_group_name_H-M "C 2/M"
_symmetry_group_IT_number 12
_symmetry_cell_setting 'monoclinic'
loop_
_space_group_symop_operation_xyz
x,y,z
-x,y,-z
-x,-y,-z
x,-y,z
1/2+x,1/2+y,z
1/2-x,1/2+y,-z
1/2-x,1/2-y,-z
1/2+x,1/2-y,z
loop_
_atom_site_type_symbol
_atom_site_label
_atom_site_fract_x
_atom_site_fract_y
_atom_site_fract_z
Si Si1 0.814417 0.589630 0.996506
Si Si2 0.585532 0.339390 0.272782
Si Si3 0.929532 0.660746 0.729673
Si Si4 0.999478 0.823992 0.559774
Si Si5 0.475913 0.846299 0.390014
Si Si6 0.422183 0.166945 0.887742
Si Si7 0.315410 0.909674 0.169984
Si Si8 0.082554 0.838533 0.152681
O O1 0.814712 0.500000 0.003695
O O2 0.939378 0.631407 0.129765
O O3 0.931997 0.613990 0.034172
O O4 0.598336 0.618876 0.839329
O O5 0.567026 0.251046 0.271941
O O6 0.565335 0.345770 0.198910
O O7 0.800951 0.367182 0.441283
O O8 0.706312 0.643229 0.575403
O O9 0.036180 0.622528 0.761575
O O10 0.000000 0.816268 0.500000
O O11 0.009440 0.742836 0.592570
O O12 0.203384 0.858424 0.722990
O O13 0.396795 0.877575 0.280784
O O14 0.294552 0.865176 0.293032
O O15 0.427851 0.250968 0.869332
O O16 0.500000 0.172553 0.000000
O O17 0.312293 0.000000 0.166782
O O18 0.101810 0.879446 0.004932
#
# Coordination Sequence:
#
# PCOD9224163 Si02
#       8
#     8   8   8   8   8   8   8   8
#     4  12  24  40  61  90 128 165 200 250 307 368
#     4  11  22  39  69  94 117 157 212 255 306 360
#     4  11  21  41  66  88 121 161 213 256 296 354
#     4  10  19  39  68  95 116 150 205 260 305 359
#     4  10  22  38  60  91 123 153 195 262 309 349
#     4  11  22  39  65  96 123 156 202 254 310 362
#     4  12  26  40  58  89 130 170 207 245 304 368
#     4  11  20  40  66  93 119 160 208 257 300 362
#
# _framework density 9.1673270000000002
#
# number of rings (size 3 to 8) (size 9 to 14) (size 15 to 20)
#    0.000    1.000    3.750    6.000    0.000    4.750 
#    0.000    1.875    0.000    4.125    0.000    0.000 
#    0.000    0.000    0.000    0.000    0.000    0.000 
#
# Total GULP energy -178285.875611 kJ/mol
# GULP energy per Si atom -5571.433613 kJ/mol
# Density = 0.914646 g / cm^3
# Si number density = 9.167327 Si / 1000 Ang^3
#
#
#
# Elastic Constant Matrix: (Units=GPa)
#
#
# Indices 1 2 3 4 5 6 
#
# 1 76.0361 20.1160 43.7267 -0.0004 19.9959 0.0083
# 2 20.1160 75.0619 43.5611 0.0037 12.5547 -0.0021
# 3 43.7267 43.5611 195.3247 -0.0159 30.9905 -0.0050
# 4 -0.0004 0.0037 -0.0159 24.2242 -0.0072 3.9622
# 5 19.9959 12.5547 30.9905 -0.0072 50.4524 0.0036
# 6 0.0083 -0.0021 -0.0050 3.9622 0.0036 9.7140
#
#
#
# Elastic Compliance Matrix: (Units=1/GPa)
#
#
# Indices 1 2 3 4 5 6 
#
# 1 0.016308 -0.002206 -0.002460 0.000000 -0.004403 -0.000014
# 2 -0.002206 0.015767 -0.002813 -0.000006 -0.001321 0.000007
# 3 -0.002460 -0.002813 0.006683 0.000003 -0.002430 0.000004
# 4 0.000000 -0.000006 0.000003 0.044232 0.000007 -0.018042
# 5 -0.004403 -0.001321 -0.002430 0.000007 0.023387 -0.000009
# 6 -0.000014 0.000007 0.000004 -0.018042 -0.000009 0.110303
#
#
# Mechanical properties :
#
#
# Convention : Reuss Voigt Hill
#
# Bulk Modulus (GPa) = 42.01689 62.35893 52.18791
# Shear Modulus (GPa) = 20.87047 32.81269 26.84158
#
# Velocity S-wave (km/s) = 3.37754 4.23502 3.83035
# Velocity P-wave (km/s) = 6.17874 7.61572 6.93455
#
# Compressibility (1/GPa) = 0.02379995
#
# Stress axis : x y z
#
# Youngs Moduli (GPa) = 61.31928 63.42375 149.62606
#
# Poissons Ratio (x) = 0.13993 0.36811
# Poissons Ratio (y) = 0.13529 0.42087
# Poissons Ratio (z) = 0.15086 0.17840
#
# Static dielectric constant tensor:
#      x y z
#    x 1.691140 0.000000 0.009210 
#    y 0.000000 1.620200 -0.000010 
#    z 0.009210 -0.000010 1.647480 
# 
# From -- ./inp_files/366850.got.cif
#   From: 2010.05.17/outbox.ucp.g08.bks.cvg/sg12_184_cif.got.tgz:366850.got - 2010.06.11 11:47:21.
