data_PCOD9224172
_publ_section_title
;
Structure prediction by ZEFSAII (Michael W. Deem and Ramdas Pophale) SiO2 
 PCOD9224172
Probable space group: C 2/M
;
_chemical_formula_sum "Si O2"
_cell_formula_units_Z 28
_cell_length_a 21.000000
_cell_length_b 9.000000
_cell_length_c 30.000000
_cell_angle_alpha 90.000000
_cell_angle_beta 30.000000
_cell_angle_gamma 90.000000
_cell_volume 2835.000000
_symmetry_space_group_name_H-M "C 2/M"
_symmetry_group_IT_number 12
_symmetry_cell_setting 'monoclinic'
loop_
_space_group_symop_operation_xyz
x,y,z
-x,y,-z
-x,-y,-z
x,-y,z
1/2+x,1/2+y,z
1/2-x,1/2+y,-z
1/2-x,1/2-y,-z
1/2+x,1/2-y,z
loop_
_atom_site_type_symbol
_atom_site_label
_atom_site_fract_x
_atom_site_fract_y
_atom_site_fract_z
Si Si1 0.596408 0.179231 0.981348
Si Si2 0.744138 0.818887 0.698646
Si Si3 0.662323 0.172177 0.135169
Si Si4 0.556346 0.676954 0.352447
Si Si5 0.951838 0.319556 0.886556
Si Si6 0.564731 0.171769 0.659888
Si Si7 0.811331 0.820756 0.559932
O O1 0.739700 0.240836 0.892524
O O2 0.596648 0.000000 0.979832
O O3 0.500000 0.227931 0.000000
O O4 0.564985 0.225861 0.051623
O O5 0.815668 0.768728 0.700304
O O6 0.596423 0.778993 0.787399
O O7 0.803167 0.767855 0.615847
O O8 0.752615 0.000000 0.694444
O O9 0.639013 0.233328 0.099033
O O10 0.526313 0.173381 0.241834
O O11 0.704645 0.000000 0.106399
O O12 0.567817 0.500000 0.337970
O O13 0.507468 0.748670 0.336598
O O14 0.446376 0.704003 0.455612
O O15 0.941621 0.500000 0.891862
O O16 0.699396 0.236438 0.595133
O O17 0.584208 0.000000 0.634586
O O18 0.791779 0.000000 0.573851
#
# Coordination Sequence:
#
# PCOD9224172 Si02
#       7
#     8   8   8   8   8   8   8
#     4  10  22  36  55  83 111 133 159 209 271 316
#     4   9  16  29  52  78 104 134 174 218 253 299
#     4  10  20  36  57  76  99 140 184 211 242 302
#     4  10  20  30  51  82 107 133 171 222 266 298
#     4   9  17  33  54  76 103 139 175 205 252 311
#     4  10  20  34  52  73 104 143 176 210 255 309
#     4   9  16  31  51  76 104 135 179 219 252 299
#
# _framework density 9.8765429999999999
#
# number of rings (size 3 to 8) (size 9 to 14) (size 15 to 20)
#    0.000    2.429    1.429    1.286    2.000    2.571 
#    0.000    0.000    0.000    3.429    0.000    0.000 
#    0.000    0.000    0.000    0.000    0.000    0.000 
#
# Total GULP energy -156012.962954 kJ/mol
# GULP energy per Si atom -5571.891534 kJ/mol
# Density = 0.985406 g / cm^3
# Si number density = 9.876543 Si / 1000 Ang^3
#
#
#
# Elastic Constant Matrix: (Units=GPa)
#
#
# Indices 1 2 3 4 5 6 
#
# 1 140.9480 12.8202 1.8316 -0.0001 -22.4955 0.0003
# 2 12.8202 1.7057 5.8182 -0.0007 -1.3275 0.0016
# 3 1.8316 5.8182 -0.5083 -0.0004 -5.2725 0.0002
# 4 -0.0001 -0.0007 -0.0004 12.6804 0.0002 0.3749
# 5 -22.4955 -1.3275 -5.2725 0.0002 33.1540 -0.0002
# 6 0.0003 0.0016 0.0002 0.3749 -0.0002 26.4684
#
#
#
# Elastic Compliance Matrix: (Units=1/GPa)
#
#
# Indices 1 2 3 4 5 6 
#
# 1 0.007869 -0.001464 -0.016296 -0.000001 0.002689 0.000000
# 2 -0.001464 0.040277 0.169588 0.000007 0.027589 -0.000004
# 3 -0.016296 0.169588 -0.015338 0.000009 -0.006706 -0.000010
# 4 -0.000001 0.000007 0.000009 0.078895 0.000001 -0.001118
# 5 0.002689 0.027589 -0.006706 0.000001 0.032025 -0.000001
# 6 0.000000 -0.000004 -0.000010 -0.001118 -0.000001 0.037797
#
#
# Mechanical properties :
#
#
# Convention : Reuss Voigt Hill
#
# Bulk Modulus (GPa) = 2.97210 20.34284 11.65747
# Shear Modulus (GPa) = -501.18615 22.57226 -239.30694
#
# Velocity S-wave (km/s) = -15.94604 3.38408 -11.01872
# Velocity P-wave (km/s) = 18.37191 5.05868 12.48873
#
# Compressibility (1/GPa) = 0.33646251
#
# Stress axis : x y z
#
# Youngs Moduli (GPa) = 127.08242 24.82823 -65.19844
#
# Poissons Ratio (x) = 0.03635 -1.06249
# Poissons Ratio (y) = 0.18605 11.05684
# Poissons Ratio (z) = 2.07096 -4.21056
#
# Static dielectric constant tensor:
#      x y z
#    x 1.692510 0.000000 0.001740 
#    y 0.000000 1.687760 0.000000 
#    z 0.001740 0.000000 1.754580 
# 
# From -- ./inp_files/223364.got.cif
#   From: 2010.05.17/outbox.ucp.g08.bks.cvg/sg12_112_cif.got.tgz:223364.got - 2010.06.11 11:47:21.
