data_PCOD9224490
_publ_section_title
;
Structure prediction by ZEFSAII (Michael W. Deem and Ramdas Pophale) SiO2 
 PCOD9224490
Probable space group: C 2/M
;
_chemical_formula_sum "Si O2"
_cell_formula_units_Z 29
_cell_length_a 27.000000
_cell_length_b 12.000000
_cell_length_c 18.000000
_cell_angle_alpha 90.000000
_cell_angle_beta 30.000000
_cell_angle_gamma 90.000000
_cell_volume 2916.000000
_symmetry_space_group_name_H-M "C 2/M"
_symmetry_group_IT_number 12
_symmetry_cell_setting 'monoclinic'
loop_
_space_group_symop_operation_xyz
x,y,z
-x,y,-z
-x,-y,-z
x,-y,z
1/2+x,1/2+y,z
1/2-x,1/2+y,-z
1/2-x,1/2-y,-z
1/2+x,1/2-y,z
loop_
_atom_site_type_symbol
_atom_site_label
_atom_site_fract_x
_atom_site_fract_y
_atom_site_fract_z
Si Si1 0.871139 0.120118 0.357624
Si Si2 0.966378 0.740255 0.777262
Si Si3 0.721869 0.626077 0.934443
Si Si4 0.042772 0.632007 0.363639
Si Si5 0.689194 0.808006 0.681553
Si Si6 0.000000 0.000000 0.000000
Si Si7 0.348245 0.682962 0.133952
Si Si8 0.483655 0.118744 0.901546
O O1 0.778998 0.122189 0.532802
O O2 0.840096 0.207975 0.336215
O O3 0.966852 0.159720 0.277585
O O4 0.890527 0.000000 0.297233
O O5 0.994217 0.702359 0.658743
O O6 0.992345 0.640825 0.801616
O O7 0.853267 0.783946 0.932239
O O8 0.697449 0.500000 0.991808
O O9 0.838116 0.644993 0.794877
O O10 0.705466 0.632312 0.867008
O O11 0.020274 0.500000 0.383190
O O12 0.000000 0.664754 0.500000
O O13 0.717617 0.747313 0.720466
O O14 0.587404 0.876310 0.810379
O O15 0.918982 0.904210 0.081477
O O16 0.419427 0.779058 0.011080
O O17 0.435257 0.000000 0.977192
#
# Coordination Sequence:
#
# PCOD9224490 Si02
#       8
#     8   8   8   8   8   2   8   8
#     4  10  22  36  55  80 116 158 200 239 289 355
#     4  10  21  37  60  85 112 152 194 243 298 352
#     4  10  21  37  60  88 115 149 197 239 297 354
#     4  10  22  40  62  87 113 145 187 252 308 356
#     4  10  21  35  51  83 115 159 197 236 290 334
#     4  12  20  36  54  88 122 148 194 242 282 340
#     4  11  22  33  58  86 118 156 191 246 287 340
#     4  10  20  35  54  82 116 153 194 232 286 353
#
# _framework density 9.9451300000000007
#
# number of rings (size 3 to 8) (size 9 to 14) (size 15 to 20)
#    0.000    1.793    2.069    1.655    2.897    1.655 
#    0.000    0.690    0.000    2.483    0.000    0.000 
#    0.000    0.000    0.000    0.000    0.000    0.000 
#
# Total GULP energy -161481.476734 kJ/mol
# GULP energy per Si atom -5568.326784 kJ/mol
# Density = 0.992249 g / cm^3
# Si number density = 9.945130 Si / 1000 Ang^3
#
#
#
# Elastic Constant Matrix: (Units=GPa)
#
#
# Indices 1 2 3 4 5 6 
#
# 1 48.9900 19.0439 14.4638 0.0000 20.4492 0.0000
# 2 19.0439 105.5197 14.3921 0.0000 4.5022 0.0000
# 3 14.4638 14.3921 34.7642 0.0000 7.6031 0.0000
# 4 0.0000 0.0000 0.0000 19.5839 0.0000 -3.2893
# 5 20.4492 4.5022 7.6031 0.0000 31.9266 0.0000
# 6 0.0000 0.0000 0.0000 -3.2893 0.0000 13.4503
#
#
#
# Elastic Compliance Matrix: (Units=1/GPa)
#
#
# Indices 1 2 3 4 5 6 
#
# 1 0.031663 -0.003908 -0.007638 0.000000 -0.017910 0.000000
# 2 -0.003908 0.010533 -0.003119 0.000000 0.001761 0.000000
# 3 -0.007638 -0.003119 0.033830 0.000000 -0.002724 0.000000
# 4 0.000000 0.000000 0.000000 0.053250 0.000000 0.013022
# 5 -0.017910 0.001761 -0.002724 0.000000 0.043194 0.000000
# 6 0.000000 0.000000 0.000000 0.013022 0.000000 0.077533
#
#
# Mechanical properties :
#
#
# Convention : Reuss Voigt Hill
#
# Bulk Modulus (GPa) = 21.41633 31.67483 26.54558
# Shear Modulus (GPa) = 16.95500 22.41710 19.68605
#
# Velocity S-wave (km/s) = 2.92280 3.36078 3.14942
# Velocity P-wave (km/s) = 4.70967 5.56949 5.15753
#
# Compressibility (1/GPa) = 0.04669334
#
# Stress axis : x y z
#
# Youngs Moduli (GPa) = 31.58297 94.94314 29.55920
#
# Poissons Ratio (x) = 0.37108 0.22578
# Poissons Ratio (y) = 0.12344 0.09221
# Poissons Ratio (z) = 0.24124 0.29617
#
# Static dielectric constant tensor:
#      x y z
#    x 1.713810 0.000000 0.048340 
#    y 0.000000 1.668480 0.000000 
#    z 0.048340 0.000000 1.756380 
# 
# From -- ./inp_files/232568.got.cif
#   From: 2010.05.17/outbox.ucp.g08.bks.cvg/sg12_117_cif.got.tgz:232568.got - 2010.06.11 11:47:21.
