data_PCOD9224910
_publ_section_title
;
Structure prediction by ZEFSAII (Michael W. Deem and Ramdas Pophale) SiO2 
 PCOD9224910
Probable space group: C 2/M
;
_chemical_formula_sum "Si O2"
_cell_formula_units_Z 28
_cell_length_a 18.000000
_cell_length_b 9.000000
_cell_length_c 27.000000
_cell_angle_alpha 90.000000
_cell_angle_beta 40.000000
_cell_angle_gamma 90.000000
_cell_volume 2811.553005
_symmetry_space_group_name_H-M "C 2/M"
_symmetry_group_IT_number 12
_symmetry_cell_setting 'monoclinic'
loop_
_space_group_symop_operation_xyz
x,y,z
-x,y,-z
-x,-y,-z
x,-y,z
1/2+x,1/2+y,z
1/2-x,1/2+y,-z
1/2-x,1/2-y,-z
1/2+x,1/2-y,z
loop_
_atom_site_type_symbol
_atom_site_label
_atom_site_fract_x
_atom_site_fract_y
_atom_site_fract_z
Si Si1 0.888687 0.670154 0.593052
Si Si2 0.335185 0.664861 0.419097
Si Si3 0.427297 0.177492 0.990587
Si Si4 0.670991 0.828649 0.679459
Si Si5 0.165160 0.824514 0.162362
Si Si6 0.400475 0.330325 0.690657
Si Si7 0.483995 0.178338 0.849245
O O1 0.844593 0.500000 0.612312
O O2 0.805031 0.794629 0.614083
O O3 0.888959 0.716198 0.650957
O O4 0.000000 0.674087 0.500000
O O5 0.286114 0.500000 0.436340
O O6 0.250000 0.750000 0.500000
O O7 0.362343 0.737268 0.352039
O O8 0.461496 0.655033 0.377589
O O9 0.454088 0.233363 0.920515
O O10 0.452584 0.000000 0.975060
O O11 0.500000 0.239847 0.000000
O O12 0.295717 0.193650 0.075875
O O13 0.611554 0.787222 0.762293
O O14 0.644058 0.000000 0.684366
O O15 0.146168 0.783004 0.230397
O O16 0.091701 0.740676 0.157790
O O17 0.135078 0.000000 0.176006
O O18 0.353245 0.500000 0.705210
O O19 0.469440 0.000000 0.858233
#
# Coordination Sequence:
#
# PCOD9224910 Si02
#       7
#     8   8   8   8   8   8   8
#     4  11  25  42  60  84 116 156 200 249 304 356
#     4  11  22  38  60  87 120 154 197 246 295 350
#     4   9  19  35  60  90 119 153 196 241 287 345
#     4  11  23  38  60  88 120 157 200 245 294 353
#     4  10  20  37  62  88 118 157 195 240 294 350
#     4  10  22  38  59  87 117 153 197 242 293 354
#     4  10  21  37  60  90 120 155 196 241 290 347
#
# _framework density 9.9589090000000002
#
# number of rings (size 3 to 8) (size 9 to 14) (size 15 to 20)
#    0.000    1.714    1.429    2.571    2.000    5.714 
#    0.000    0.000    0.000    0.857    0.000    0.000 
#    0.000    0.000    0.000    0.000    0.000    0.000 
#
# Total GULP energy -155874.752853 kJ/mol
# GULP energy per Si atom -5566.955459 kJ/mol
# Density = 0.993624 g / cm^3
# Si number density = 9.958909 Si / 1000 Ang^3
#
#
#
# Elastic Constant Matrix: (Units=GPa)
#
#
# Indices 1 2 3 4 5 6 
#
# 1 51.9922 19.4495 14.0816 0.0000 18.8049 0.0002
# 2 19.4495 47.3166 43.0104 0.0000 12.0646 0.0005
# 3 14.0816 43.0104 97.7345 0.0000 36.1381 0.0000
# 4 0.0000 0.0000 0.0000 23.6033 0.0000 6.9218
# 5 18.8049 12.0646 36.1381 0.0000 32.2794 0.0000
# 6 0.0002 0.0005 0.0000 6.9218 0.0000 20.7638
#
#
#
# Elastic Compliance Matrix: (Units=1/GPa)
#
#
# Indices 1 2 3 4 5 6 
#
# 1 0.032360 -0.018767 0.013605 0.000000 -0.027069 0.000000
# 2 -0.018767 0.047102 -0.026547 0.000000 0.023048 -0.000001
# 3 0.013605 -0.026547 0.032790 0.000000 -0.034713 0.000001
# 4 0.000000 0.000000 0.000000 0.046958 0.000000 -0.015654
# 5 -0.027069 0.023048 -0.034713 0.000000 0.076998 0.000000
# 6 0.000000 -0.000001 0.000001 -0.015654 0.000000 0.053379
#
#
# Mechanical properties :
#
#
# Convention : Reuss Voigt Hill
#
# Bulk Modulus (GPa) = 20.47693 38.90291 29.68992
# Shear Modulus (GPa) = 13.53985 23.36277 18.45131
#
# Velocity S-wave (km/s) = 2.61010 3.42856 3.04694
# Velocity P-wave (km/s) = 4.40301 5.93696 5.22657
#
# Compressibility (1/GPa) = 0.04883544
#
# Stress axis : x y z
#
# Youngs Moduli (GPa) = 30.90271 21.23036 30.49741
#
# Poissons Ratio (x) = 0.39842 -0.41493
# Poissons Ratio (y) = 0.57994 0.80961
# Poissons Ratio (z) = -0.42044 0.56360
#
# Static dielectric constant tensor:
#      x y z
#    x 1.835420 0.000000 -0.038140 
#    y 0.000000 1.722040 0.000000 
#    z -0.038140 0.000000 1.706690 
# 
# From -- ./inp_files/362965.got.cif
#   From: 2010.05.17/outbox.ucp.g08.bks.cvg/sg12_182_cif.got.tgz:362965.got - 2010.06.11 11:47:21.
