data_PCOD9224061
_publ_section_title
;
Structure prediction by ZEFSAII (Michael W. Deem and Ramdas Pophale) SiO2 
 PCOD9224061
Probable space group: C 2/M
;
_chemical_formula_sum "Si O2"
_cell_formula_units_Z 28
_cell_length_a 15.000000
_cell_length_b 9.000000
_cell_length_c 30.000000
_cell_angle_alpha 90.000000
_cell_angle_beta 130.000000
_cell_angle_gamma 90.000000
_cell_volume 3102.479995
_symmetry_space_group_name_H-M "C 2/M"
_symmetry_group_IT_number 12
_symmetry_cell_setting 'monoclinic'
loop_
_space_group_symop_operation_xyz
x,y,z
-x,y,-z
-x,-y,-z
x,-y,z
1/2+x,1/2+y,z
1/2-x,1/2+y,-z
1/2-x,1/2-y,-z
1/2+x,1/2-y,z
loop_
_atom_site_type_symbol
_atom_site_label
_atom_site_fract_x
_atom_site_fract_y
_atom_site_fract_z
Si Si1 0.180109 0.820315 0.870960
Si Si2 0.616660 0.821317 0.566674
Si Si3 0.482263 0.679178 0.879348
Si Si4 0.067937 0.320030 0.652701
Si Si5 0.200804 0.321582 0.438800
Si Si6 0.285808 0.818871 0.212866
Si Si7 0.661935 0.680090 0.008107
O O1 0.166024 0.753519 0.817134
O O2 0.294630 0.750881 0.931763
O O3 0.071667 0.777166 0.868557
O O4 0.188001 0.000000 0.872517
O O5 0.500000 0.792072 0.500000
O O6 0.606429 0.775319 0.615135
O O7 0.719959 0.736321 0.575677
O O8 0.634696 0.000000 0.570840
O O9 0.481005 0.500000 0.878207
O O10 0.350280 0.727529 0.828958
O O11 0.537756 0.718566 0.945490
O O12 0.072169 0.500000 0.654227
O O13 0.145157 0.272899 0.720014
O O14 0.932734 0.276899 0.612738
O O15 0.205335 0.500000 0.444457
O O16 0.250000 0.250000 0.500000
O O17 0.291369 0.000000 0.211285
O O18 0.671349 0.500000 0.013343
O O19 0.750000 0.750000 0.000000
#
# Coordination Sequence:
#
# PCOD9224061 Si02
#       7
#     8   8   8   8   8   8   8
#     4  10  20  35  53  79 111 141 177 229 278 323
#     4  10  19  36  59  83 111 144 179 222 273 326
#     4   8  17  33  54  76 103 138 180 222 267 323
#     4   9  20  37  56  78 110 144 180 222 272 329
#     4  11  21  36  57  85 113 143 178 222 272 326
#     4  10  20  37  57  76 101 145 189 221 264 326
#     4   9  16  30  52  79 107 140 180 227 275 325
#
# _framework density 9.0250380000000003
#
# number of rings (size 3 to 8) (size 9 to 14) (size 15 to 20)
#    0.000    2.429    1.429    2.143    0.000    2.000 
#    0.000   10.714    0.000    0.000    0.000    0.000 
#    0.000    0.000    0.000    0.000    0.000    0.000 
#
# Total GULP energy -156110.662636 kJ/mol
# GULP energy per Si atom -5575.380808 kJ/mol
# Density = 0.900450 g / cm^3
# Si number density = 9.025038 Si / 1000 Ang^3
#
#
#
# Elastic Constant Matrix: (Units=GPa)
#
#
# Indices 1 2 3 4 5 6 
#
# 1 97.3526 25.6823 53.5110 0.0000 -3.2654 0.0000
# 2 25.6823 45.0783 32.8794 0.0000 -2.3638 0.0000
# 3 53.5110 32.8794 163.3482 0.0000 -9.2279 0.0000
# 4 0.0000 0.0000 0.0000 25.1397 0.0000 -6.7284
# 5 -3.2654 -2.3638 -9.2279 0.0000 34.7509 0.0000
# 6 0.0000 0.0000 0.0000 -6.7284 0.0000 27.6195
#
#
#
# Elastic Compliance Matrix: (Units=1/GPa)
#
#
# Indices 1 2 3 4 5 6 
#
# 1 0.013506 -0.005236 -0.003369 0.000000 0.000018 0.000000
# 2 -0.005236 0.028036 -0.003907 0.000000 0.000378 0.000000
# 3 -0.003369 -0.003907 0.008101 0.000000 0.001569 0.000000
# 4 0.000000 0.000000 0.000000 0.042552 0.000000 0.010366
# 5 0.000018 0.000378 0.001569 0.000000 0.029220 0.000000
# 6 0.000000 0.000000 0.000000 0.010366 0.000000 0.038732
#
#
# Mechanical properties :
#
#
# Convention : Reuss Voigt Hill
#
# Bulk Modulus (GPa) = 40.62018 58.88049 49.75033
# Shear Modulus (GPa) = 25.85628 30.41580 28.13604
#
# Velocity S-wave (km/s) = 3.78891 4.10942 3.95242
# Velocity P-wave (km/s) = 6.45710 7.43020 6.96068
#
# Compressibility (1/GPa) = 0.02461831
#
# Stress axis : x y z
#
# Youngs Moduli (GPa) = 74.04166 35.66846 123.44733
#
# Poissons Ratio (x) = 0.18676 0.41594
# Poissons Ratio (y) = 0.38769 0.48226
# Poissons Ratio (z) = 0.24948 0.13934
#
# Static dielectric constant tensor:
#      x y z
#    x 1.646260 0.000000 0.007780 
#    y 0.000000 1.600370 0.000000 
#    z 0.007780 0.000000 1.623810 
# 
# From -- ./inp_files/375140.got.cif
#   From: 2010.05.17/outbox.ucp.g08.bks.cvg/sg12_188_cif.got.tgz:375140.got - 2010.06.11 11:47:21.
