data_PCOD9224453
_publ_section_title
;
Structure prediction by ZEFSAII (Michael W. Deem and Ramdas Pophale) SiO2 
 PCOD9224453
Probable space group: C 2/M
;
_chemical_formula_sum "Si O2"
_cell_formula_units_Z 29
_cell_length_a 21.000000
_cell_length_b 18.000000
_cell_length_c 12.000000
_cell_angle_alpha 90.000000
_cell_angle_beta 140.000000
_cell_angle_gamma 90.000000
_cell_volume 2915.684598
_symmetry_space_group_name_H-M "C 2/M"
_symmetry_group_IT_number 12
_symmetry_cell_setting 'monoclinic'
loop_
_space_group_symop_operation_xyz
x,y,z
-x,y,-z
-x,-y,-z
x,-y,z
1/2+x,1/2+y,z
1/2-x,1/2+y,-z
1/2-x,1/2-y,-z
1/2+x,1/2-y,z
loop_
_atom_site_type_symbol
_atom_site_label
_atom_site_fract_x
_atom_site_fract_y
_atom_site_fract_z
Si Si1 0.366890 0.417903 0.921951
Si Si2 0.565059 0.133794 0.250238
Si Si3 0.922216 0.799733 0.303487
Si Si4 0.232751 0.917614 0.970203
Si Si5 0.026780 0.805339 0.203265
Si Si6 0.500000 0.000000 0.000000
Si Si7 0.211183 0.913418 0.423230
Si Si8 0.052789 0.628917 0.681065
O O1 0.416582 0.500000 0.985947
O O2 0.307542 0.413942 0.957293
O O3 0.296275 0.413612 0.721100
O O4 0.445339 0.351694 0.025014
O O5 0.545659 0.220376 0.190298
O O6 0.681583 0.115366 0.397114
O O7 0.527413 0.131848 0.327675
O O8 0.512290 0.067381 0.111643
O O9 0.907114 0.711471 0.300102
O O10 0.000000 0.826560 0.500000
O O11 0.977005 0.803579 0.258507
O O12 0.824179 0.850825 0.169065
O O13 0.350391 0.909661 0.138198
O O14 0.207584 0.000000 0.891272
O O15 0.125107 0.856158 0.343088
O O16 0.196335 0.000000 0.439668
O O17 0.000000 0.597034 0.500000
#
# Coordination Sequence:
#
# PCOD9224453 Si02
#       8
#     8   8   8   8   8   2   8   8
#     4   9  19  35  60  91 124 143 188 261 312 340
#     4  11  25  44  60  84 125 166 201 244 292 356
#     4   9  20  40  58  85 122 153 192 253 297 344
#     4  10  20  34  57  90 120 155 192 241 302 364
#     4  10  21  38  63  90 113 157 207 239 301 364
#     4  12  28  48  58  76 136 166 192 242 296 344
#     4  11  21  38  60  88 117 154 199 254 299 346
#     4  10  21  40  67  90 114 153 207 252 294 346
#
# _framework density 9.9462060000000001
#
# number of rings (size 3 to 8) (size 9 to 14) (size 15 to 20)
#    0.000    1.931    0.690    2.483    2.897    2.207 
#    2.483    0.000    0.000    0.000    0.000    0.000 
#    0.000    0.000    0.000    0.000    0.000    0.000 
#
# Total GULP energy -161517.175041 kJ/mol
# GULP energy per Si atom -5569.557760 kJ/mol
# Density = 0.992357 g / cm^3
# Si number density = 9.946206 Si / 1000 Ang^3
#
#
#
# Elastic Constant Matrix: (Units=GPa)
#
#
# Indices 1 2 3 4 5 6 
#
# 1 17.0985 -1.9426 -0.5090 0.0000 11.5552 0.0000
# 2 -1.9426 137.1362 24.3314 0.0000 8.9198 0.0000
# 3 -0.5090 24.3314 60.8721 0.0000 -0.6403 0.0000
# 4 0.0000 0.0000 0.0000 9.5597 0.0000 21.2398
# 5 11.5552 8.9198 -0.6403 0.0000 29.8451 0.0000
# 6 0.0000 0.0000 0.0000 21.2398 0.0000 5.2031
#
#
#
# Elastic Compliance Matrix: (Units=1/GPa)
#
#
# Indices 1 2 3 4 5 6 
#
# 1 0.080653 0.003425 -0.001034 0.000000 -0.032272 0.000000
# 2 0.003425 0.008172 -0.003278 0.000000 -0.003839 0.000000
# 3 -0.001034 -0.003278 0.017748 0.000000 0.001761 0.000000
# 4 0.000000 0.000000 0.000000 -0.012963 0.000000 0.052916
# 5 -0.032272 -0.003839 0.001761 0.000000 0.047186 0.000000
# 6 0.000000 0.000000 0.000000 0.052916 0.000000 -0.023816
#
#
# Mechanical properties :
#
#
# Convention : Reuss Voigt Hill
#
# Bulk Modulus (GPa) = 9.54211 28.76292 19.15251
# Shear Modulus (GPa) = 32.53352 21.80337 27.16845
#
# Velocity S-wave (km/s) = 4.04849 3.31428 3.69964
# Velocity P-wave (km/s) = 5.16342 5.39783 5.28193
#
# Compressibility (1/GPa) = 0.10479867
#
# Stress axis : x y z
#
# Youngs Moduli (GPa) = 12.39878 122.37142 56.34413
#
# Poissons Ratio (x) = -0.41913 0.05827
# Poissons Ratio (y) = -0.04247 0.18470
# Poissons Ratio (z) = 0.01282 0.40115
#
# Static dielectric constant tensor:
#      x y z
#    x 1.696490 0.000000 -0.006360 
#    y 0.000000 1.728800 0.000000 
#    z -0.006360 0.000000 1.692240 
# 
# From -- ./inp_files/169004.got.cif
#   From: 2010.05.17/outbox.ucp.g08.bks.cvg/sg12_85_cif.got.tgz:169004.got - 2010.06.11 11:47:21.
