data_PCOD9224597
_publ_section_title
;
Structure prediction by ZEFSAII (Michael W. Deem and Ramdas Pophale) SiO2 
 PCOD9224597
Probable space group: C 2/M
;
_chemical_formula_sum "Si O2"
_cell_formula_units_Z 24
_cell_length_a 21.000000
_cell_length_b 9.000000
_cell_length_c 27.000000
_cell_angle_alpha 90.000000
_cell_angle_beta 150.000000
_cell_angle_gamma 90.000000
_cell_volume 2551.500000
_symmetry_space_group_name_H-M "C 2/M"
_symmetry_group_IT_number 12
_symmetry_cell_setting 'monoclinic'
loop_
_space_group_symop_operation_xyz
x,y,z
-x,y,-z
-x,-y,-z
x,-y,z
1/2+x,1/2+y,z
1/2-x,1/2+y,-z
1/2-x,1/2-y,-z
1/2+x,1/2-y,z
loop_
_atom_site_type_symbol
_atom_site_label
_atom_site_fract_x
_atom_site_fract_y
_atom_site_fract_z
Si Si1 0.015703 0.321107 0.277860
Si Si2 0.250812 0.321669 0.732124
Si Si3 0.241096 0.321037 0.610172
Si Si4 0.497341 0.821587 0.055464
Si Si5 0.262568 0.678886 0.062454
Si Si6 0.998005 0.319805 0.616928
O O1 0.009530 0.500000 0.269718
O O2 0.886827 0.248262 0.171103
O O3 0.027639 0.278867 0.343714
O O4 0.134654 0.259025 0.327315
O O5 0.260810 0.500000 0.744170
O O6 0.222508 0.290137 0.655629
O O7 0.383758 0.250061 0.836765
O O8 0.134235 0.268089 0.687945
O O9 0.256234 0.500000 0.614846
O O10 0.117549 0.272744 0.496019
O O11 0.510355 0.000000 0.065902
O O12 0.500000 0.774291 0.000000
O O13 0.363633 0.783743 0.991045
O O14 0.273100 0.500000 0.066471
O O15 0.250000 0.750000 0.000000
O O16 0.001461 0.500000 0.617186
#
# Coordination Sequence:
#
# PCOD9224597 Si02
#       6
#     8   8   8   8   8   8
#     4  11  22  36  56  82 113 146 183 227 273 324
#     4  10  20  35  58  84 108 140 183 228 272 320
#     4  10  20  36  58  82 111 146 184 226 273 324
#     4  10  22  39  57  79 109 144 180 222 274 328
#     4  11  23  39  59  82 111 146 184 226 273 327
#     4   9  19  36  57  82 111 145 185 227 270 321
#
# _framework density 9.4062319999999993
#
# number of rings (size 3 to 8) (size 9 to 14) (size 15 to 20)
#    0.000    1.833    0.000    4.000    0.000    7.000 
#    0.000    2.500    0.000    2.000    0.000    0.000 
#    0.000    0.000    0.000    0.000    0.000    0.000 
#
# Total GULP energy -134101.313926 kJ/mol
# GULP energy per Si atom -5587.554747 kJ/mol
# Density = 0.938482 g / cm^3
# Si number density = 9.406232 Si / 1000 Ang^3
#
#
#
# Elastic Constant Matrix: (Units=GPa)
#
#
# Indices 1 2 3 4 5 6 
#
# 1 67.2029 13.1351 -22.9639 0.0000 5.1318 0.0000
# 2 13.1351 17.5318 1.0875 0.0000 -1.0816 -0.0001
# 3 -22.9639 1.0875 53.7659 0.0002 -1.6987 0.0001
# 4 0.0000 0.0000 0.0002 29.0510 0.0000 1.6160
# 5 5.1318 -1.0816 -1.6987 0.0000 38.6236 0.0000
# 6 0.0000 -0.0001 0.0001 1.6160 0.0000 25.5620
#
#
#
# Elastic Compliance Matrix: (Units=1/GPa)
#
#
# Indices 1 2 3 4 5 6 
#
# 1 0.021680 -0.017015 0.009511 0.000000 -0.002939 0.000000
# 2 -0.017015 0.070557 -0.008572 0.000000 0.003860 0.000000
# 3 0.009511 -0.008572 0.022819 0.000000 -0.000500 0.000000
# 4 0.000000 0.000000 0.000000 0.034544 0.000000 -0.002184
# 5 -0.002939 0.003860 -0.000500 0.000000 0.026367 0.000000
# 6 0.000000 0.000000 0.000000 -0.002184 0.000000 0.039259
#
#
# Mechanical properties :
#
#
# Convention : Reuss Voigt Hill
#
# Bulk Modulus (GPa) = 12.06203 13.44645 12.75424
# Shear Modulus (GPa) = 18.18103 28.46347 23.32225
#
# Velocity S-wave (km/s) = 3.11213 3.89396 3.52479
# Velocity P-wave (km/s) = 4.39766 5.23263 4.83321
#
# Compressibility (1/GPa) = 0.08290476
#
# Stress axis : x y z
#
# Youngs Moduli (GPa) = 46.12470 14.17301 43.82301
#
# Poissons Ratio (x) = 0.24115 -0.41681
# Poissons Ratio (y) = 0.78479 0.37566
# Poissons Ratio (z) = -0.43870 0.12149
#
# Static dielectric constant tensor:
#      x y z
#    x 1.636460 0.000000 -0.014760 
#    y 0.000000 1.632600 0.000000 
#    z -0.014760 0.000000 1.618790 
# 
# From -- ./inp_files/365374.got.cif
#   From: 2010.05.17/outbox.ucp.g08.bks.cvg/sg12_183_cif.got.tgz:365374.got - 2010.06.11 11:47:21.
