data_PCOD9224992
_publ_section_title
;
Structure prediction by ZEFSAII (Michael W. Deem and Ramdas Pophale) SiO2 
 PCOD9224992
Probable space group: C 2/M
;
_chemical_formula_sum "Si O2"
_cell_formula_units_Z 24
_cell_length_a 18.000000
_cell_length_b 9.000000
_cell_length_c 15.000000
_cell_angle_alpha 90.000000
_cell_angle_beta 90.000000
_cell_angle_gamma 90.000000
_cell_volume 2430.000000
_symmetry_space_group_name_H-M "C 2/M"
_symmetry_group_IT_number 12
_symmetry_cell_setting 'monoclinic'
loop_
_space_group_symop_operation_xyz
x,y,z
-x,y,-z
-x,-y,-z
x,-y,z
1/2+x,1/2+y,z
1/2-x,1/2+y,-z
1/2-x,1/2-y,-z
1/2+x,1/2-y,z
loop_
_atom_site_type_symbol
_atom_site_label
_atom_site_fract_x
_atom_site_fract_y
_atom_site_fract_z
Si Si1 0.814455 0.674118 0.056577
Si Si2 0.924391 0.333839 0.553037
Si Si3 0.071070 0.166407 0.062089
Si Si4 0.276447 0.677496 0.238834
Si Si5 0.098139 0.323500 0.241353
Si Si6 0.189566 0.825385 0.562363
O O1 0.803817 0.500000 0.064378
O O2 0.814707 0.744674 0.154890
O O3 0.750000 0.750000 0.000000
O O4 0.883005 0.714087 0.994013
O O5 0.887566 0.500000 0.553420
O O6 0.928118 0.290533 0.657356
O O7 0.883013 0.215326 0.492268
O O8 0.000000 0.350976 0.500000
O O9 0.061377 0.228179 0.162295
O O10 0.106063 0.000000 0.067515
O O11 0.000000 0.150268 0.000000
O O12 0.287579 0.500000 0.230733
O O13 0.187312 0.703896 0.236722
O O14 0.306279 0.728878 0.335388
O O15 0.085845 0.500000 0.226084
O O16 0.250000 0.750000 0.500000
O O17 0.201870 0.000000 0.566738
#
# Coordination Sequence:
#
# PCOD9224992 Si02
#       6
#     8   8   8   8   8   8
#     4  12  24  39  63  92 121 157 203 252 301 362
#     4  10  22  41  63  90 127 164 203 253 305 360
#     4  11  25  43  63  90 125 162 202 253 307 364
#     4  10  21  38  61  91 126 161 201 255 305 354
#     4  10  20  38  63  89 122 164 204 249 306 363
#     4  11  22  38  62  90 123 159 203 252 301 358
#
# _framework density 9.8765429999999999
#
# number of rings (size 3 to 8) (size 9 to 14) (size 15 to 20)
#    0.000    1.333    3.333    2.500    0.000    5.000 
#    0.000    3.333    0.000    0.000    0.000    0.000 
#    0.000    0.000    0.000    0.000    0.000    0.000 
#
# Total GULP energy -133812.495619 kJ/mol
# GULP energy per Si atom -5575.520651 kJ/mol
# Density = 0.985406 g / cm^3
# Si number density = 9.876543 Si / 1000 Ang^3
#
#
#
# Elastic Constant Matrix: (Units=GPa)
#
#
# Indices 1 2 3 4 5 6 
#
# 1 36.2474 16.6136 23.4408 0.0000 3.0166 0.0000
# 2 16.6136 76.6931 60.7959 0.0000 8.5817 0.0000
# 3 23.4408 60.7959 201.1466 0.0000 11.4569 0.0000
# 4 0.0000 0.0000 0.0000 34.7784 0.0000 -2.1434
# 5 3.0166 8.5817 11.4569 0.0000 22.2850 0.0000
# 6 0.0000 0.0000 0.0000 -2.1434 0.0000 19.2206
#
#
#
# Elastic Compliance Matrix: (Units=1/GPa)
#
#
# Indices 1 2 3 4 5 6 
#
# 1 0.031323 -0.005008 -0.002065 0.000000 -0.001250 0.000000
# 2 -0.005008 0.018312 -0.004726 0.000000 -0.003944 0.000000
# 3 -0.002065 -0.004726 0.006718 0.000000 -0.001354 0.000000
# 4 0.000000 0.000000 0.000000 0.028952 0.000000 0.003229
# 5 -0.001250 -0.003944 -0.001354 0.000000 0.047257 0.000000
# 6 0.000000 0.000000 0.000000 0.003229 0.000000 0.052387
#
#
# Mechanical properties :
#
#
# Convention : Reuss Voigt Hill
#
# Bulk Modulus (GPa) = 30.53167 57.30974 43.92070
# Shear Modulus (GPa) = 22.78236 29.47261 26.12748
#
# Velocity S-wave (km/s) = 3.39980 3.86690 3.64085
# Velocity P-wave (km/s) = 5.55893 7.00095 6.32119
#
# Compressibility (1/GPa) = 0.03275287
#
# Stress axis : x y z
#
# Youngs Moduli (GPa) = 31.92513 54.60917 148.85687
#
# Poissons Ratio (x) = 0.27350 0.30745
# Poissons Ratio (y) = 0.15989 0.70356
# Poissons Ratio (z) = 0.06594 0.25811
#
# Static dielectric constant tensor:
#      x y z
#    x 1.804550 0.000000 -0.053230 
#    y 0.000000 1.856500 0.000000 
#    z -0.053230 0.000000 1.764950 
# 
# From -- ./inp_files/221570.got.cif
#   From: 2010.05.17/outbox.ucp.g08.bks.cvg/sg12_111_cif.got.tgz:221570.got - 2010.06.11 11:47:21.
