data_PCOD9224695
_publ_section_title
;
Structure prediction by ZEFSAII (Michael W. Deem and Ramdas Pophale) SiO2 
 PCOD9224695
Probable space group: C 2/M
;
_chemical_formula_sum "Si O2"
_cell_formula_units_Z 28
_cell_length_a 24.000000
_cell_length_b 9.000000
_cell_length_c 15.000000
_cell_angle_alpha 90.000000
_cell_angle_beta 60.000000
_cell_angle_gamma 90.000000
_cell_volume 2805.922308
_symmetry_space_group_name_H-M "C 2/M"
_symmetry_group_IT_number 12
_symmetry_cell_setting 'monoclinic'
loop_
_space_group_symop_operation_xyz
x,y,z
-x,y,-z
-x,-y,-z
x,-y,z
1/2+x,1/2+y,z
1/2-x,1/2+y,-z
1/2-x,1/2-y,-z
1/2+x,1/2-y,z
loop_
_atom_site_type_symbol
_atom_site_label
_atom_site_fract_x
_atom_site_fract_y
_atom_site_fract_z
Si Si1 0.930463 0.669573 0.400887
Si Si2 0.926441 0.678517 0.708773
Si Si3 0.798199 0.170211 0.528523
Si Si4 0.430976 0.676014 0.899815
Si Si5 0.560786 0.830098 0.820870
Si Si6 0.663649 0.820758 0.885463
Si Si7 0.301921 0.326087 0.730447
O O1 0.919798 0.500000 0.439582
O O2 0.870246 0.768104 0.472857
O O3 0.930559 0.669903 0.292742
O O4 0.000597 0.718618 0.379346
O O5 0.924807 0.500000 0.715320
O O6 0.921929 0.747558 0.810989
O O7 0.866931 0.737618 0.698861
O O8 0.750000 0.250000 0.500000
O O9 0.778386 0.181771 0.647124
O O10 0.799363 0.000000 0.500400
O O11 0.428015 0.500000 0.893056
O O12 0.500008 0.724834 0.884775
O O13 0.376974 0.740062 0.007122
O O14 0.624942 0.789803 0.823965
O O15 0.543436 0.000000 0.860322
O O16 0.738016 0.773626 0.832246
O O17 0.662662 0.000000 0.896601
O O18 0.314594 0.500000 0.740293
#
# Coordination Sequence:
#
# PCOD9224695 Si02
#       7
#     8   8   8   8   8   8   8
#     4   9  19  37  60  85 114 149 189 232 279 332
#     4  10  22  41  62  83 110 148 192 232 277 336
#     4  11  23  39  61  89 119 150 185 227 279 335
#     4  11  22  35  55  84 116 147 185 236 286 334
#     4   9  18  35  58  83 114 152 191 230 278 338
#     4  10  20  36  57  79 110 153 193 231 281 336
#     4  10  23  41  59  82 113 148 189 236 279 327
#
# _framework density 9.9788940000000004
#
# number of rings (size 3 to 8) (size 9 to 14) (size 15 to 20)
#    0.000    2.000    0.000    4.286    0.000   10.286 
#    0.000    4.286    0.000    0.000    0.000    0.000 
#    0.000    0.000    0.000    0.000    0.000    0.000 
#
# Total GULP energy -156274.316736 kJ/mol
# GULP energy per Si atom -5581.225598 kJ/mol
# Density = 0.995618 g / cm^3
# Si number density = 9.978894 Si / 1000 Ang^3
#
#
#
# Elastic Constant Matrix: (Units=GPa)
#
#
# Indices 1 2 3 4 5 6 
#
# 1 132.7529 52.5491 21.3247 0.0000 -19.7397 0.0000
# 2 52.5491 54.5290 22.9209 0.0000 -22.2069 0.0000
# 3 21.3247 22.9209 32.4612 0.0000 -24.6138 0.0000
# 4 0.0000 0.0000 0.0000 17.7922 0.0000 2.0539
# 5 -19.7397 -22.2069 -24.6138 0.0000 27.1837 0.0000
# 6 0.0000 0.0000 0.0000 2.0539 0.0000 32.1166
#
#
#
# Elastic Compliance Matrix: (Units=1/GPa)
#
#
# Indices 1 2 3 4 5 6 
#
# 1 0.012207 -0.012159 -0.000778 0.000000 -0.001773 0.000000
# 2 -0.012159 0.040193 -0.006990 0.000000 0.017676 0.000000
# 3 -0.000778 -0.006990 0.100484 0.000000 0.084709 0.000000
# 4 0.000000 0.000000 0.000000 0.056623 0.000000 -0.003621
# 5 -0.001773 0.017676 0.084709 0.000000 0.126640 0.000000
# 6 0.000000 0.000000 0.000000 -0.003621 0.000000 0.031368
#
#
# Mechanical properties :
#
#
# Convention : Reuss Voigt Hill
#
# Bulk Modulus (GPa) = 8.84724 45.92584 27.38654
# Shear Modulus (GPa) = 11.23479 23.61504 17.42491
#
# Velocity S-wave (km/s) = 2.37518 3.44357 2.95801
# Velocity P-wave (km/s) = 3.45899 6.23477 5.04167
#
# Compressibility (1/GPa) = 0.11302964
#
# Stress axis : x y z
#
# Youngs Moduli (GPa) = 81.91915 24.87987 9.95184
#
# Poissons Ratio (x) = 0.30251 0.00775
# Poissons Ratio (y) = 0.99605 0.06956
# Poissons Ratio (z) = 0.06377 0.17391
#
# Static dielectric constant tensor:
#      x y z
#    x 1.683470 0.000000 -0.008230 
#    y 0.000000 1.676640 0.000000 
#    z -0.008230 0.000000 1.764460 
# 
# From -- ./inp_files/238305.got.cif
#   From: 2010.05.17/outbox.ucp.g08.bks.cvg/sg12_120_cif.got.tgz:238305.got - 2010.06.11 11:47:21.
