data_PCOD9224362
_publ_section_title
;
Structure prediction by ZEFSAII (Michael W. Deem and Ramdas Pophale) SiO2 
 PCOD9224362
Probable space group: C 2/M
;
_chemical_formula_sum "Si O2"
_cell_formula_units_Z 28
_cell_length_a 18.000000
_cell_length_b 9.000000
_cell_length_c 21.000000
_cell_angle_alpha 90.000000
_cell_angle_beta 60.000000
_cell_angle_gamma 90.000000
_cell_volume 2946.218424
_symmetry_space_group_name_H-M "C 2/M"
_symmetry_group_IT_number 12
_symmetry_cell_setting 'monoclinic'
loop_
_space_group_symop_operation_xyz
x,y,z
-x,y,-z
-x,-y,-z
x,-y,z
1/2+x,1/2+y,z
1/2-x,1/2+y,-z
1/2-x,1/2-y,-z
1/2+x,1/2-y,z
loop_
_atom_site_type_symbol
_atom_site_label
_atom_site_fract_x
_atom_site_fract_y
_atom_site_fract_z
Si Si1 0.267029 0.678401 0.106388
Si Si2 0.067561 0.677858 0.027999
Si Si3 0.274304 0.822088 0.734843
Si Si4 0.116445 0.676553 0.557594
Si Si5 0.956205 0.823036 0.687056
Si Si6 0.245363 0.821799 0.602826
Si Si7 0.418232 0.679004 0.845204
O O1 0.264254 0.500000 0.098203
O O2 0.342912 0.751123 0.033572
O O3 0.278937 0.707555 0.177472
O O4 0.176452 0.750521 0.124631
O O5 0.075586 0.500000 0.032327
O O6 0.044524 0.751422 0.105914
O O7 0.000000 0.706766 0.000000
O O8 0.363983 0.740122 0.707329
O O9 0.239606 0.781016 0.679736
O O10 0.288861 0.000000 0.727044
O O11 0.107477 0.500000 0.566293
O O12 0.179071 0.736422 0.586314
O O13 0.162158 0.708434 0.470081
O O14 0.026812 0.753175 0.610923
O O15 0.968387 0.787319 0.757496
O O16 0.957500 0.000000 0.681194
O O17 0.230065 0.000000 0.603964
O O18 0.412279 0.500000 0.853639
#
# Coordination Sequence:
#
# PCOD9224362 Si02
#       7
#     8   8   8   8   8   8   8
#     4  10  20  36  59  82 106 139 177 217 263 317
#     4  11  24  39  55  79 111 142 174 217 264 311
#     4   9  19  36  57  80 106 138 177 220 265 313
#     4  10  20  34  54  78 107 144 181 219 265 317
#     4  10  21  36  55  80 109 139 175 221 266 312
#     4   9  19  36  55  77 107 142 181 222 264 313
#     4  10  21  38  59  80 105 140 179 218 262 314
#
# _framework density 9.5037079999999996
#
# number of rings (size 3 to 8) (size 9 to 14) (size 15 to 20)
#    0.000    2.143    0.000    2.571    0.000    6.286 
#    0.000    7.143    0.000    0.000    0.000    0.000 
#    0.000    0.000    0.000    0.000    0.000    0.000 
#
# Total GULP energy -156306.289546 kJ/mol
# GULP energy per Si atom -5582.367484 kJ/mol
# Density = 0.948208 g / cm^3
# Si number density = 9.503708 Si / 1000 Ang^3
#
#
#
# Elastic Constant Matrix: (Units=GPa)
#
#
# Indices 1 2 3 4 5 6 
#
# 1 13.6115 0.9773 -11.6187 0.0000 15.5640 0.0000
# 2 0.9773 39.4268 6.0824 0.0000 8.1486 0.0001
# 3 -11.6187 6.0824 32.5034 0.0000 17.1177 0.0000
# 4 0.0000 0.0000 0.0000 30.7866 0.0000 2.7636
# 5 15.5640 8.1486 17.1177 0.0000 40.1020 0.0000
# 6 0.0000 0.0001 0.0000 2.7636 0.0000 27.9545
#
#
#
# Elastic Compliance Matrix: (Units=1/GPa)
#
#
# Indices 1 2 3 4 5 6 
#
# 1 -0.176436 -0.001401 -0.127735 0.000000 0.123286 0.000000
# 2 -0.001401 0.026654 -0.003770 0.000000 -0.003263 0.000000
# 3 -0.127735 -0.003770 -0.052503 0.000000 0.072753 0.000000
# 4 0.000000 0.000000 0.000000 0.032773 0.000000 -0.003240
# 5 0.123286 -0.003263 0.072753 0.000000 -0.053304 0.000000
# 6 0.000000 0.000000 0.000000 -0.003240 0.000000 0.036093
#
#
# Mechanical properties :
#
#
# Convention : Reuss Voigt Hill
#
# Bulk Modulus (GPa) = -2.13631 8.49152 3.17761
# Shear Modulus (GPa) = -64.98130 25.77534 -19.60298
#
# Velocity S-wave (km/s) = -5.85334 3.68648 -3.21492
# Velocity P-wave (km/s) = 6.84167 4.75366 3.47930
#
# Compressibility (1/GPa) = -0.46809691
#
# Stress axis : x y z
#
# Youngs Moduli (GPa) = -5.66776 37.51759 -19.04641
#
# Poissons Ratio (x) = 0.05256 -2.43289
# Poissons Ratio (y) = -0.00794 -0.07181
# Poissons Ratio (z) = -0.72397 0.14145
#
# Static dielectric constant tensor:
#      x y z
#    x 1.656800 0.000000 0.005930 
#    y 0.000000 1.627710 0.000000 
#    z 0.005930 0.000000 1.673830 
# 
# From -- ./inp_files/275269.got.cif
#   From: 2010.05.17/outbox.ucp.g08.bks.cvg/sg12_138_cif.got.tgz:275269.got - 2010.06.11 11:47:21.
