data_PCOD9224627
_publ_section_title
;
Structure prediction by ZEFSAII (Michael W. Deem and Ramdas Pophale) SiO2 
 PCOD9224627
Probable space group: C 2/M
;
_chemical_formula_sum "Si O2"
_cell_formula_units_Z 26
_cell_length_a 12.000000
_cell_length_b 24.000000
_cell_length_c 12.000000
_cell_angle_alpha 90.000000
_cell_angle_beta 130.000000
_cell_angle_gamma 90.000000
_cell_volume 2647.449595
_symmetry_space_group_name_H-M "C 2/M"
_symmetry_group_IT_number 12
_symmetry_cell_setting 'monoclinic'
loop_
_space_group_symop_operation_xyz
x,y,z
-x,y,-z
-x,-y,-z
x,-y,z
1/2+x,1/2+y,z
1/2-x,1/2+y,-z
1/2-x,1/2-y,-z
1/2+x,1/2-y,z
loop_
_atom_site_type_symbol
_atom_site_label
_atom_site_fract_x
_atom_site_fract_y
_atom_site_fract_z
Si Si1 0.752449 0.902818 0.052542
Si Si2 0.619971 0.701221 0.991358
Si Si3 0.500000 0.708206 0.500000
Si Si4 0.343626 0.500000 0.946686
Si Si5 0.155638 0.901626 0.638870
Si Si6 0.431729 0.000000 0.338152
Si Si7 0.057872 0.277183 0.751954
Si Si8 0.966532 0.599956 0.748645
O O1 0.818386 0.844491 0.054179
O O2 0.809846 0.914759 0.211590
O O3 0.810050 0.947593 0.002271
O O4 0.577761 0.902343 0.925307
O O5 0.546734 0.747914 0.865917
O O6 0.500000 0.679723 0.000000
O O7 0.765896 0.720321 0.149666
O O8 0.368241 0.664915 0.394231
O O9 0.488372 0.744054 0.604532
O O10 0.240627 0.500000 0.773424
O O11 0.500000 0.500000 0.000000
O O12 0.301350 0.915516 0.667552
O O13 0.000000 0.925845 0.500000
O O14 0.500000 0.000000 0.500000
O O15 0.477622 0.054503 0.301152
O O16 0.990142 0.338401 0.715661
#
# Coordination Sequence:
#
# PCOD9224627 Si02
#       8
#     8   8   4   4   8   4   8   8
#     4  10  20  41  59  89 117 159 203 245 298 363
#     4  10  20  35  59  85 118 156 202 246 295 359
#     4  10  22  40  52  88 132 146 204 242 302 364
#     4  10  22  39  66  89 117 156 204 252 301 354
#     4  10  22  39  60  88 124 155 196 254 297 359
#     4  10  24  45  62  91 123 154 206 254 297 364
#     4  10  22  37  57  88 119 160 199 241 307 363
#     4  10  23  40  65  85 118 166 201 244 305 357
#
# _framework density 9.8207719999999998
#
# number of rings (size 3 to 8) (size 9 to 14) (size 15 to 20)
#    0.462    1.538    1.538    0.923    3.231    2.462 
#    2.769    3.077    0.000    0.000    0.000    0.000 
#    0.000    0.000    0.000    0.000    0.000    0.000 
#
# Total GULP energy -144876.227721 kJ/mol
# GULP energy per Si atom -5572.162605 kJ/mol
# Density = 0.979842 g / cm^3
# Si number density = 9.820772 Si / 1000 Ang^3
#
#
#
# Elastic Constant Matrix: (Units=GPa)
#
#
# Indices 1 2 3 4 5 6 
#
# 1 90.6331 -0.1022 48.6733 0.0000 27.1618 0.0000
# 2 -0.1022 56.3663 13.4938 0.0000 2.7853 0.0000
# 3 48.6733 13.4938 138.9666 0.0000 5.6900 0.0000
# 4 0.0000 0.0000 0.0000 20.5121 0.0000 6.0325
# 5 27.1618 2.7853 5.6900 0.0000 24.0150 0.0000
# 6 0.0000 0.0000 0.0000 6.0325 0.0000 -13.0401
#
#
#
# Elastic Compliance Matrix: (Units=1/GPa)
#
#
# Indices 1 2 3 4 5 6 
#
# 1 0.021737 0.002850 -0.006937 0.000000 -0.023272 0.000000
# 2 0.002850 0.018606 -0.002610 0.000000 -0.004763 0.000000
# 3 -0.006937 -0.002610 0.009639 0.000000 0.005865 0.000000
# 4 0.000000 0.000000 0.000000 0.042913 0.000000 0.019852
# 5 -0.023272 -0.004763 0.005865 0.000000 0.067125 0.000000
# 6 0.000000 0.000000 0.000000 0.019852 0.000000 -0.067503
#
#
# Mechanical properties :
#
#
# Convention : Reuss Voigt Hill
#
# Bulk Modulus (GPa) = 27.33134 45.56621 36.44877
# Shear Modulus (GPa) = 42.33443 21.22413 31.77928
#
# Velocity S-wave (km/s) = 4.64761 3.29077 4.02675
# Velocity P-wave (km/s) = 6.53802 6.13907 6.34168
#
# Compressibility (1/GPa) = 0.03658803
#
# Stress axis : x y z
#
# Youngs Moduli (GPa) = 46.00556 53.74481 103.74525
#
# Poissons Ratio (x) = -0.15318 0.71969
# Poissons Ratio (y) = -0.13112 0.27077
# Poissons Ratio (z) = 0.31915 0.14027
#
# Static dielectric constant tensor:
#      x y z
#    x 1.668260 0.000000 0.034060 
#    y 0.000000 1.731580 0.000000 
#    z 0.034060 0.000000 1.691370 
# 
# From -- ./inp_files/136044.got.cif
#   From: 2010.05.17/outbox.ucp.g08.bks.cvg/sg12_69_cif.got.tgz:136044.got - 2010.06.11 11:47:21.
