data_PCOD9224574
_publ_section_title
;
Structure prediction by ZEFSAII (Michael W. Deem and Ramdas Pophale) SiO2 
 PCOD9224574
Probable space group: C 2/M
;
_chemical_formula_sum "Si O2"
_cell_formula_units_Z 28
_cell_length_a 30.000000
_cell_length_b 9.000000
_cell_length_c 12.000000
_cell_angle_alpha 90.000000
_cell_angle_beta 60.000000
_cell_angle_gamma 90.000000
_cell_volume 2805.922308
_symmetry_space_group_name_H-M "C 2/M"
_symmetry_group_IT_number 12
_symmetry_cell_setting 'monoclinic'
loop_
_space_group_symop_operation_xyz
x,y,z
-x,y,-z
-x,-y,-z
x,-y,z
1/2+x,1/2+y,z
1/2-x,1/2+y,-z
1/2-x,1/2-y,-z
1/2+x,1/2-y,z
loop_
_atom_site_type_symbol
_atom_site_label
_atom_site_fract_x
_atom_site_fract_y
_atom_site_fract_z
Si Si1 0.628001 0.169621 0.365876
Si Si2 0.296868 0.827879 0.301929
Si Si3 0.028045 0.679131 0.085180
Si Si4 0.824068 0.827293 0.492677
Si Si5 0.028048 0.678422 0.349769
Si Si6 0.362290 0.675509 0.037626
Si Si7 0.196144 0.672058 0.082055
O O1 0.636110 0.271602 0.463162
O O2 0.586008 0.204476 0.322644
O O3 0.680498 0.173735 0.230501
O O4 0.617364 0.000000 0.416323
O O5 0.235076 0.816577 0.390246
O O6 0.323223 0.774661 0.384110
O O7 0.318621 0.722950 0.179423
O O8 0.309512 0.000000 0.263513
O O9 0.025864 0.500000 0.091734
O O10 0.016053 0.727014 0.234240
O O11 0.085416 0.739988 0.998078
O O12 0.000000 0.721375 0.000000
O O13 0.833593 0.000000 0.452799
O O14 0.019779 0.500000 0.356415
O O15 0.000000 0.734115 0.500000
O O16 0.370213 0.500000 0.026865
O O17 0.342958 0.735688 0.944107
O O18 0.196223 0.500000 0.045070
O O19 0.250000 0.750000 0.000000
#
# Coordination Sequence:
#
# PCOD9224574 Si02
#       7
#     8   8   8   8   8   8   8
#     4  10  20  35  57  83 116 154 196 246 299 364
#     4  10  21  38  59  82 116 161 205 249 300 365
#     4  10  21  40  65  91 119 159 212 266 321 386
#     4  10  21  36  56  85 120 156 198 248 302 368
#     4   9  18  36  61  88 117 152 201 260 315 373
#     4  12  24  38  59  87 122 161 203 254 314 371
#     4  11  22  37  58  88 123 160 205 250 303 367
#
# _framework density 9.9788940000000004
#
# number of rings (size 3 to 8) (size 9 to 14) (size 15 to 20)
#    0.000    1.714    1.429    3.429    0.000    6.571 
#    0.000    2.857    0.000    1.714    0.000    0.000 
#    0.000    0.000    0.000    0.000    0.000    0.000 
#
# Total GULP energy -155913.322245 kJ/mol
# GULP energy per Si atom -5568.332937 kJ/mol
# Density = 0.995618 g / cm^3
# Si number density = 9.978894 Si / 1000 Ang^3
#
#
#
# Elastic Constant Matrix: (Units=GPa)
#
#
# Indices 1 2 3 4 5 6 
#
# 1 75.8029 21.8169 1.5219 0.0000 27.0493 0.0000
# 2 21.8169 13.0546 14.2189 0.0000 7.8480 0.0000
# 3 1.5219 14.2189 61.2256 0.0000 13.3615 0.0000
# 4 0.0000 0.0000 0.0000 21.3913 0.0000 3.8243
# 5 27.0493 7.8480 13.3615 0.0000 36.0062 0.0000
# 6 0.0000 0.0000 0.0000 3.8243 0.0000 19.0562
#
#
#
# Elastic Compliance Matrix: (Units=1/GPa)
#
#
# Indices 1 2 3 4 5 6 
#
# 1 0.050193 -0.097555 0.027199 0.000000 -0.026537 0.000000
# 2 -0.097555 0.299837 -0.075015 0.000000 0.035771 0.000000
# 3 0.027199 -0.075015 0.036963 0.000000 -0.017799 0.000000
# 4 0.000000 0.000000 0.000000 0.048488 0.000000 -0.009731
# 5 -0.026537 0.035771 -0.017799 0.000000 0.046517 0.000000
# 6 0.000000 0.000000 0.000000 -0.009731 0.000000 0.054429
#
#
# Mechanical properties :
#
#
# Convention : Reuss Voigt Hill
#
# Bulk Modulus (GPa) = 10.38939 25.02204 17.70571
# Shear Modulus (GPa) = 5.81903 22.79244 14.30573
#
# Velocity S-wave (km/s) = 1.70939 3.38306 2.68022
# Velocity P-wave (km/s) = 3.01877 5.27493 4.29755
#
# Compressibility (1/GPa) = 0.09625206
#
# Stress axis : x y z
#
# Youngs Moduli (GPa) = 19.92323 3.33515 27.05444
#
# Poissons Ratio (x) = 0.32536 -0.73586
# Poissons Ratio (y) = 1.94360 2.02948
# Poissons Ratio (z) = -0.54190 0.25019
#
# Static dielectric constant tensor:
#      x y z
#    x 1.962270 0.000000 -0.142260 
#    y 0.000000 1.689710 0.000000 
#    z -0.142260 0.000000 1.839940 
# 
# From -- ./inp_files/187197.got.cif
#   From: 2010.05.17/outbox.ucp.g08.bks.cvg/sg12_94_cif.got.tgz:187197.got - 2010.06.11 11:47:21.
