data_PCOD9224323
_publ_section_title
;
Structure prediction by ZEFSAII (Michael W. Deem and Ramdas Pophale) SiO2 
 PCOD9224323
Probable space group: C 2/M
;
_chemical_formula_sum "Si O2"
_cell_formula_units_Z 28
_cell_length_a 27.000000
_cell_length_b 9.000000
_cell_length_c 12.000000
_cell_angle_alpha 90.000000
_cell_angle_beta 110.000000
_cell_angle_gamma 90.000000
_cell_volume 2740.143682
_symmetry_space_group_name_H-M "C 2/M"
_symmetry_group_IT_number 12
_symmetry_cell_setting 'monoclinic'
loop_
_space_group_symop_operation_xyz
x,y,z
-x,y,-z
-x,-y,-z
x,-y,z
1/2+x,1/2+y,z
1/2-x,1/2+y,-z
1/2-x,1/2-y,-z
1/2+x,1/2-y,z
loop_
_atom_site_type_symbol
_atom_site_label
_atom_site_fract_x
_atom_site_fract_y
_atom_site_fract_z
Si Si1 0.691520 0.320170 0.465535
Si Si2 0.079230 0.175497 0.710829
Si Si3 0.199723 0.179368 0.073041
Si Si4 0.881062 0.178201 0.806297
Si Si5 0.023205 0.820367 0.248679
Si Si6 0.906649 0.322810 0.503232
Si Si7 0.686820 0.170303 0.834599
O O1 0.694567 0.500000 0.481948
O O2 0.750000 0.250000 0.500000
O O3 0.657789 0.287522 0.327063
O O4 0.652414 0.247160 0.527911
O O5 0.067950 0.272590 0.593414
O O6 0.139659 0.216382 0.779317
O O7 0.038208 0.214248 0.778268
O O8 0.073825 0.000000 0.683349
O O9 0.149676 0.223327 0.107777
O O10 0.256221 0.192564 0.179391
O O11 0.196258 0.000000 0.040386
O O12 0.200198 0.296537 0.973419
O O13 0.941038 0.228363 0.829163
O O14 0.883078 0.000000 0.813697
O O15 0.055986 0.749486 0.375008
O O16 0.026964 0.000000 0.257806
O O17 0.903586 0.500000 0.511500
O O18 0.669853 0.000000 0.801671
#
# Coordination Sequence:
#
# PCOD9224323 Si02
#       7
#     8   8   8   8   8   8   8
#     4  10  20  34  52  79 113 146 184 228 270 321
#     4  11  22  36  56  80 108 144 184 228 275 327
#     4   9  18  36  59  79 104 139 177 220 273 330
#     4   8  16  33  57  78 101 138 180 222 269 319
#     4   9  19  37  57  79 108 142 184 229 273 325
#     4  11  22  35  53  78 111 149 185 223 272 326
#     4  10  21  35  54  82 111 138 174 225 275 328
#
# _framework density 10.218442
#
# number of rings (size 3 to 8) (size 9 to 14) (size 15 to 20)
#    0.000    2.286    0.000    3.857    2.000    3.429 
#    0.000    4.286    0.000    4.286    0.000    0.000 
#    0.000    0.000    0.000    0.000    0.000    0.000 
#
# Total GULP energy -155956.031520 kJ/mol
# GULP energy per Si atom -5569.858269 kJ/mol
# Density = 1.019518 g / cm^3
# Si number density = 10.218442 Si / 1000 Ang^3
#
#
#
# Elastic Constant Matrix: (Units=GPa)
#
#
# Indices 1 2 3 4 5 6 
#
# 1 100.6874 11.5226 -6.6016 0.0000 -20.8735 0.0000
# 2 11.5226 29.8874 -19.2081 0.0000 -0.2234 0.0000
# 3 -6.6016 -19.2081 -5.9029 0.0000 -3.1440 0.0000
# 4 0.0000 0.0000 0.0000 21.1397 0.0000 6.2162
# 5 -20.8735 -0.2234 -3.1440 0.0000 23.7894 0.0000
# 6 0.0000 0.0000 0.0000 6.2162 0.0000 26.9764
#
#
#
# Elastic Compliance Matrix: (Units=1/GPa)
#
#
# Indices 1 2 3 4 5 6 
#
# 1 0.012770 -0.005749 -0.001413 0.000000 0.010964 0.000000
# 2 -0.005749 0.013893 -0.033784 0.000000 -0.009379 0.000000
# 3 -0.001413 -0.033784 -0.053314 0.000000 -0.008603 0.000000
# 4 0.000000 0.000000 0.000000 0.050743 0.000000 -0.011693
# 5 0.010964 -0.009379 -0.008603 0.000000 0.050431 0.000000
# 6 0.000000 0.000000 0.000000 -0.011693 0.000000 0.039764
#
#
# Mechanical properties :
#
#
# Convention : Reuss Voigt Hill
#
# Bulk Modulus (GPa) = -9.21304 10.67752 0.73224
# Shear Modulus (GPa) = 31.25058 23.64504 27.44781
#
# Velocity S-wave (km/s) = 3.91465 3.40513 3.66874
# Velocity P-wave (km/s) = 3.98933 4.54927 4.27847
#
# Compressibility (1/GPa) = -0.10854180
#
# Stress axis : x y z
#
# Youngs Moduli (GPa) = 78.30857 71.97753 -18.75687
#
# Poissons Ratio (x) = 0.41382 -0.02650
# Poissons Ratio (y) = 0.45022 -0.63367
# Poissons Ratio (z) = 0.11063 2.43166
#
# Static dielectric constant tensor:
#      x y z
#    x 1.819350 0.000000 -0.029760 
#    y 0.000000 1.686670 0.000000 
#    z -0.029760 0.000000 1.820960 
# 
# From -- ./inp_files/181102.got.cif
#   From: 2010.05.17/outbox.ucp.g08.bks.cvg/sg12_91_cif.got.tgz:181102.got - 2010.06.11 11:47:21.
