data_PCOD9224718
_publ_section_title
;
Structure prediction by ZEFSAII (Michael W. Deem and Ramdas Pophale) SiO2 
 PCOD9224718
Probable space group: C 2/M
;
_chemical_formula_sum "Si O2"
_cell_formula_units_Z 24
_cell_length_a 18.000000
_cell_length_b 9.000000
_cell_length_c 30.000000
_cell_angle_alpha 90.000000
_cell_angle_beta 30.000000
_cell_angle_gamma 90.000000
_cell_volume 2430.000000
_symmetry_space_group_name_H-M "C 2/M"
_symmetry_group_IT_number 12
_symmetry_cell_setting 'monoclinic'
loop_
_space_group_symop_operation_xyz
x,y,z
-x,y,-z
-x,-y,-z
x,-y,z
1/2+x,1/2+y,z
1/2-x,1/2+y,-z
1/2-x,1/2-y,-z
1/2+x,1/2-y,z
loop_
_atom_site_type_symbol
_atom_site_label
_atom_site_fract_x
_atom_site_fract_y
_atom_site_fract_z
Si Si1 0.874503 0.821233 0.196706
Si Si2 0.548872 0.178292 0.692552
Si Si3 0.137318 0.321227 0.461240
Si Si4 0.620957 0.679100 0.141186
Si Si5 0.463562 0.822589 0.967458
Si Si6 0.960946 0.680303 0.638731
O O1 0.703848 0.770070 0.290918
O O2 0.999128 0.772334 0.167723
O O3 0.928034 0.765503 0.121096
O O4 0.873372 0.000000 0.198997
O O5 0.706252 0.242551 0.627607
O O6 0.424478 0.242711 0.789605
O O7 0.509920 0.228166 0.662454
O O8 0.551977 0.000000 0.692070
O O9 0.158991 0.500000 0.446837
O O10 0.000000 0.284404 0.500000
O O11 0.081614 0.278060 0.539330
O O12 0.610685 0.500000 0.151040
O O13 0.793306 0.714240 0.042675
O O14 0.483285 0.000000 0.951203
O O15 0.500000 0.789111 0.000000
O O16 0.955830 0.500000 0.641843
#
# Coordination Sequence:
#
# PCOD9224718 Si02
#       6
#     8   8   8   8   8   8
#     4  10  20  36  58  80 104 139 184 226 263 314
#     4  11  22  35  54  81 111 139 174 224 272 314
#     4  10  20  37  60  80 105 144 182 216 261 319
#     4  10  21  37  56  78 107 145 184 219 264 324
#     4  10  21  36  54  80 113 144 177 221 271 321
#     4   9  19  35  54  79 108 139 178 221 266 319
#
# _framework density 9.8765429999999999
#
# number of rings (size 3 to 8) (size 9 to 14) (size 15 to 20)
#    0.000    2.000    0.000    3.500    0.000    4.667 
#    0.000    2.500    0.000    0.000    0.000    0.000 
#    0.000    0.000    0.000    0.000    0.000    0.000 
#
# Total GULP energy -134017.704478 kJ/mol
# GULP energy per Si atom -5584.071020 kJ/mol
# Density = 0.985406 g / cm^3
# Si number density = 9.876543 Si / 1000 Ang^3
#
#
#
# Elastic Constant Matrix: (Units=GPa)
#
#
# Indices 1 2 3 4 5 6 
#
# 1 47.0106 -4.0237 -24.2893 -0.0001 -3.0996 0.0001
# 2 -4.0237 -3.6352 3.6742 -0.0001 -3.9831 0.0001
# 3 -24.2893 3.6742 54.0912 -0.0005 -9.1322 0.0001
# 4 -0.0001 -0.0001 -0.0005 21.7566 0.0000 8.6984
# 5 -3.0996 -3.9831 -9.1322 0.0000 37.2838 0.0000
# 6 0.0001 0.0001 0.0001 8.6984 0.0000 17.1003
#
#
#
# Elastic Compliance Matrix: (Units=1/GPa)
#
#
# Indices 1 2 3 4 5 6 
#
# 1 0.027123 -0.019699 0.014127 0.000000 0.003611 0.000000
# 2 -0.019699 -0.223720 0.002127 -0.000002 -0.025017 0.000003
# 3 0.014127 0.002127 0.025998 0.000001 0.007770 -0.000001
# 4 0.000000 -0.000002 0.000001 0.057697 0.000000 -0.029349
# 5 0.003611 -0.025017 0.007770 0.000000 0.026352 0.000000
# 6 0.000000 0.000003 -0.000001 -0.029349 0.000000 0.073407
#
#
# Mechanical properties :
#
#
# Convention : Reuss Voigt Hill
#
# Bulk Modulus (GPa) = -5.63415 5.35434 -0.13991
# Shear Modulus (GPa) = -76.43395 23.36849 -26.53273
#
# Velocity S-wave (km/s) = -6.22725 3.44325 -3.66897
# Velocity P-wave (km/s) = 7.38670 4.30401 4.24493
#
# Compressibility (1/GPa) = -0.17748893
#
# Stress axis : x y z
#
# Youngs Moduli (GPa) = 36.86924 -4.46987 38.46425
#
# Poissons Ratio (x) = -0.08805 -0.54338
# Poissons Ratio (y) = 0.72628 -0.08181
# Poissons Ratio (z) = -0.52085 0.00951
#
# Static dielectric constant tensor:
#      x y z
#    x 1.698510 0.000000 0.011360 
#    y 0.000000 1.653710 0.000000 
#    z 0.011360 0.000000 1.675510 
# 
# From -- ./inp_files/274016.got.cif
#   From: 2010.05.17/outbox.ucp.g08.bks.cvg/sg12_138_cif.got.tgz:274016.got - 2010.06.11 11:47:21.
