data_PCOD9224071
_publ_section_title
;
Structure prediction by ZEFSAII (Michael W. Deem and Ramdas Pophale) SiO2 
 PCOD9224071
Probable space group: C 2/M
;
_chemical_formula_sum "Si O2"
_cell_formula_units_Z 32
_cell_length_a 15.000000
_cell_length_b 18.000000
_cell_length_c 24.000000
_cell_angle_alpha 90.000000
_cell_angle_beta 30.000000
_cell_angle_gamma 90.000000
_cell_volume 3240.000000
_symmetry_space_group_name_H-M "C 2/M"
_symmetry_group_IT_number 12
_symmetry_cell_setting 'monoclinic'
loop_
_space_group_symop_operation_xyz
x,y,z
-x,y,-z
-x,-y,-z
x,-y,z
1/2+x,1/2+y,z
1/2-x,1/2+y,-z
1/2-x,1/2-y,-z
1/2+x,1/2-y,z
loop_
_atom_site_type_symbol
_atom_site_label
_atom_site_fract_x
_atom_site_fract_y
_atom_site_fract_z
Si Si1 0.165600 0.086450 0.037455
Si Si2 0.026773 0.164998 0.213191
Si Si3 0.791212 0.909992 0.594797
Si Si4 0.477826 0.824391 0.178572
Si Si5 0.664905 0.798102 0.870328
Si Si6 0.980869 0.415446 0.354853
Si Si7 0.333577 0.913621 0.631323
Si Si8 0.642960 0.620563 0.877792
O O1 0.147220 0.109572 0.111480
O O2 0.970274 0.105297 0.117127
O O3 0.201062 0.000000 0.010195
O O4 0.329399 0.135186 0.925957
O O5 0.142432 0.175634 0.207993
O O6 0.011861 0.244330 0.189261
O O7 0.826905 0.130058 0.313755
O O8 0.663843 0.870778 0.708603
O O9 0.690414 0.888244 0.589443
O O10 0.000000 0.892340 0.500000
O O11 0.778152 0.000000 0.603707
O O12 0.394736 0.817914 0.160837
O O13 0.670006 0.708496 0.869314
O O14 0.500000 0.821263 0.000000
O O15 0.934259 0.500000 0.396007
O O16 0.073442 0.381653 0.361519
O O17 0.162367 0.414610 0.220001
O O18 0.500000 0.915942 0.500000
O O19 0.275747 0.000000 0.673535
O O20 0.500000 0.593389 0.000000
#
# Coordination Sequence:
#
# PCOD9224071 Si02
#       8
#     8   8   8   8   8   8   8   8
#     4  12  23  38  62  92 127 167 209 260 320 377
#     4  12  23  40  64  91 128 167 210 261 320 380
#     4  10  23  42  63  89 123 165 213 268 322 373
#     4  12  23  41  64  91 126 168 215 261 316 383
#     4  11  22  38  59  89 126 172 210 248 316 379
#     4  10  19  36  60  88 120 156 205 265 318 366
#     4  10  22  41  65  93 126 167 215 266 320 377
#     4  11  21  35  59  91 124 161 207 261 315 375
#
# _framework density 9.8765429999999999
#
# number of rings (size 3 to 8) (size 9 to 14) (size 15 to 20)
#    0.000    1.000    3.750    4.500    0.000    3.500 
#    0.000    4.375    0.000    4.500    0.000    0.000 
#    0.000    0.000    0.000    0.000    0.000    0.000 
#
# Total GULP energy -178300.819532 kJ/mol
# GULP energy per Si atom -5571.900610 kJ/mol
# Density = 0.985406 g / cm^3
# Si number density = 9.876543 Si / 1000 Ang^3
#
#
#
# Elastic Constant Matrix: (Units=GPa)
#
#
# Indices 1 2 3 4 5 6 
#
# 1 165.9055 22.6470 27.1317 0.0003 -31.6204 0.0001
# 2 22.6470 66.3630 19.4760 0.0034 -16.8734 -0.0012
# 3 27.1317 19.4760 80.9218 0.0085 -28.8546 -0.0030
# 4 0.0003 0.0034 0.0085 24.1987 -0.0032 -2.6838
# 5 -31.6204 -16.8734 -28.8546 -0.0032 44.2373 0.0005
# 6 0.0001 -0.0012 -0.0030 -2.6838 0.0005 28.0738
#
#
#
# Elastic Compliance Matrix: (Units=1/GPa)
#
#
# Indices 1 2 3 4 5 6 
#
# 1 0.007091 -0.001170 -0.000583 0.000001 0.004242 0.000000
# 2 -0.001170 0.017208 -0.002224 -0.000001 0.004276 0.000000
# 3 -0.000583 -0.002224 0.016467 -0.000004 0.009476 0.000001
# 4 0.000001 -0.000001 -0.000004 0.041767 0.000001 0.003993
# 5 0.004242 0.004276 0.009476 0.000001 0.033449 0.000001
# 6 0.000000 0.000000 0.000001 0.003993 0.000001 0.036002
#
#
# Mechanical properties :
#
#
# Convention : Reuss Voigt Hill
#
# Bulk Modulus (GPa) = 30.47802 50.18885 40.33344
# Shear Modulus (GPa) = 29.26067 35.56435 32.41251
#
# Velocity S-wave (km/s) = 3.85297 4.24777 4.05518
# Velocity P-wave (km/s) = 5.93775 7.03714 6.51069
#
# Compressibility (1/GPa) = 0.03281053
#
# Stress axis : x y z
#
# Youngs Moduli (GPa) = 141.02136 58.11227 60.72621
#
# Poissons Ratio (x) = 0.06800 0.03543
# Poissons Ratio (y) = 0.16502 0.13508
# Poissons Ratio (z) = 0.08227 0.12927
#
# Static dielectric constant tensor:
#      x y z
#    x 1.775930 0.000000 0.063910 
#    y 0.000000 1.698580 0.000000 
#    z 0.063910 0.000000 1.751370 
# 
# From -- ./inp_files/340816.got.cif
#   From: 2010.05.17/outbox.ucp.g08.bks.cvg/sg12_171_cif.got.tgz:340816.got - 2010.06.11 11:47:21.
