data_PCOD9224121
_publ_section_title
;
Structure prediction by ZEFSAII (Michael W. Deem and Ramdas Pophale) SiO2 
 PCOD9224121
Probable space group: C 2/M
;
_chemical_formula_sum "Si O2"
_cell_formula_units_Z 32
_cell_length_a 18.000000
_cell_length_b 9.000000
_cell_length_c 30.000000
_cell_angle_alpha 90.000000
_cell_angle_beta 40.000000
_cell_angle_gamma 90.000000
_cell_volume 3123.947783
_symmetry_space_group_name_H-M "C 2/M"
_symmetry_group_IT_number 12
_symmetry_cell_setting 'monoclinic'
loop_
_space_group_symop_operation_xyz
x,y,z
-x,y,-z
-x,-y,-z
x,-y,z
1/2+x,1/2+y,z
1/2-x,1/2+y,-z
1/2-x,1/2-y,-z
1/2+x,1/2-y,z
loop_
_atom_site_type_symbol
_atom_site_label
_atom_site_fract_x
_atom_site_fract_y
_atom_site_fract_z
Si Si1 0.994629 0.324166 0.643238
Si Si2 0.417973 0.680065 0.234678
Si Si3 0.190603 0.835662 0.220516
Si Si4 0.932979 0.681037 0.487346
Si Si5 0.397535 0.327108 0.145655
Si Si6 0.835897 0.831066 0.869846
Si Si7 0.094527 0.825437 0.993647
Si Si8 0.325903 0.679512 0.372018
O O1 0.013290 0.500000 0.636085
O O2 0.012730 0.271920 0.584354
O O3 0.083090 0.243185 0.635278
O O4 0.871685 0.282388 0.719909
O O5 0.429190 0.500000 0.233708
O O6 0.362607 0.704433 0.212409
O O7 0.546269 0.743940 0.168766
O O8 0.354227 0.730313 0.308552
O O9 0.321116 0.786100 0.153252
O O10 0.139924 0.837143 0.194376
O O11 0.179512 0.000000 0.244812
O O12 0.937107 0.500000 0.485860
O O13 0.800425 0.725280 0.553656
O O14 0.000000 0.734073 0.500000
O O15 0.370991 0.500000 0.147544
O O16 0.529984 0.307451 0.070630
O O17 0.716342 0.753638 0.934973
O O18 0.828155 0.000000 0.890311
O O19 0.114156 0.000000 0.976774
O O20 0.000000 0.777524 0.000000
O O21 0.330999 0.500000 0.370040
#
# Coordination Sequence:
#
# PCOD9224121 Si02
#       8
#     8   8   8   8   8   8   8   8
#     4  11  22  36  59  88 116 149 191 234 279 334
#     4   9  19  36  58  83 109 148 191 229 278 334
#     4  11  22  37  58  84 113 147 191 237 282 332
#     4   9  20  36  58  89 117 148 192 232 272 332
#     4  10  21  37  58  83 113 148 189 234 283 341
#     4  10  20  36  57  80 107 145 194 233 272 337
#     4  10  20  34  53  82 115 145 181 232 292 337
#     4  10  19  37  62  83 113 152 191 234 276 329
#
# _framework density 10.243449
#
# number of rings (size 3 to 8) (size 9 to 14) (size 15 to 20)
#    0.000    2.000    2.500    1.125    1.750    1.750 
#    0.000    1.875    0.000    1.875    0.000    0.000 
#    0.000    0.000    0.000    0.000    0.000    0.000 
#
# Total GULP energy -178284.740404 kJ/mol
# GULP energy per Si atom -5571.398138 kJ/mol
# Density = 1.022013 g / cm^3
# Si number density = 10.243449 Si / 1000 Ang^3
#
#
#
# Elastic Constant Matrix: (Units=GPa)
#
#
# Indices 1 2 3 4 5 6 
#
# 1 43.7013 10.0826 19.1773 0.0000 1.6429 0.0000
# 2 10.0826 2.0795 11.2443 -0.0002 0.1420 -0.0004
# 3 19.1773 11.2443 70.3152 -0.0001 2.6435 0.0000
# 4 0.0000 -0.0002 -0.0001 19.1218 0.0000 -3.5286
# 5 1.6429 0.1420 2.6435 0.0000 34.9666 0.0000
# 6 0.0000 -0.0004 0.0000 -3.5286 0.0000 1.5416
#
#
#
# Elastic Compliance Matrix: (Units=1/GPa)
#
#
# Indices 1 2 3 4 5 6 
#
# 1 -0.007231 0.181968 -0.027189 0.000018 0.001656 0.000088
# 2 0.181968 -0.996111 0.110144 -0.000097 -0.012832 -0.000485
# 3 -0.027189 0.110144 0.004004 0.000011 0.000528 0.000054
# 4 0.000018 -0.000097 0.000011 0.090536 -0.000001 0.207226
# 5 0.001656 -0.012832 0.000528 -0.000001 0.028533 -0.000006
# 6 0.000088 -0.000485 0.000054 0.207226 -0.000006 1.122989
#
#
# Mechanical properties :
#
#
# Convention : Reuss Voigt Hill
#
# Bulk Modulus (GPa) = -2.12996 21.90049 9.88527
# Shear Modulus (GPa) = -11.27078 16.16546 2.44734
#
# Velocity S-wave (km/s) = -2.34806 2.81207 1.09416
# Velocity P-wave (km/s) = 2.89709 4.61052 2.53612
#
# Compressibility (1/GPa) = -0.46949289
#
# Stress axis : x y z
#
# Youngs Moduli (GPa) = -138.28395 -1.00390 249.76489
#
# Poissons Ratio (x) = 0.18268 6.79083
# Poissons Ratio (y) = 25.16325 -27.51013
# Poissons Ratio (z) = -3.75979 0.11057
#
# Static dielectric constant tensor:
#      x y z
#    x 1.869090 0.000000 -0.001280 
#    y 0.000000 1.692480 0.000000 
#    z -0.001280 0.000000 1.742810 
# 
# From -- ./inp_files/378253.got.cif
#   From: 2010.05.17/outbox.ucp.g08.bks.cvg/sg12_190_cif.got.tgz:378253.got - 2010.06.11 11:47:21.
