data_PCOD9224506
_publ_section_title
;
Structure prediction by ZEFSAII (Michael W. Deem and Ramdas Pophale) SiO2 
 PCOD9224506
Probable space group: C 2/M
;
_chemical_formula_sum "Si O2"
_cell_formula_units_Z 32
_cell_length_a 24.000000
_cell_length_b 9.000000
_cell_length_c 15.000000
_cell_angle_alpha 90.000000
_cell_angle_beta 90.000000
_cell_angle_gamma 90.000000
_cell_volume 3240.000000
_symmetry_space_group_name_H-M "C 2/M"
_symmetry_group_IT_number 12
_symmetry_cell_setting 'monoclinic'
loop_
_space_group_symop_operation_xyz
x,y,z
-x,y,-z
-x,-y,-z
x,-y,z
1/2+x,1/2+y,z
1/2-x,1/2+y,-z
1/2-x,1/2-y,-z
1/2+x,1/2-y,z
loop_
_atom_site_type_symbol
_atom_site_label
_atom_site_fract_x
_atom_site_fract_y
_atom_site_fract_z
Si Si1 0.149077 0.322135 0.343719
Si Si2 0.384483 0.821540 0.312793
Si Si3 0.756413 0.679220 0.286687
Si Si4 0.032574 0.175262 0.827727
Si Si5 0.936094 0.319572 0.502582
Si Si6 0.403618 0.679236 0.828423
Si Si7 0.618907 0.674894 0.969075
Si Si8 0.774125 0.323840 0.088270
O O1 0.152438 0.500000 0.347498
O O2 0.210810 0.253560 0.349867
O O3 0.103781 0.270179 0.416838
O O4 0.127097 0.265659 0.248915
O O5 0.320100 0.775242 0.304897
O O6 0.426678 0.755384 0.240883
O O7 0.407235 0.781349 0.409844
O O8 0.385207 0.000000 0.303421
O O9 0.752344 0.500000 0.293865
O O10 0.746946 0.719655 0.182324
O O11 0.058400 0.194318 0.925974
O O12 0.968688 0.221329 0.823841
O O13 0.034411 0.000000 0.807817
O O14 0.938578 0.500000 0.508920
O O15 0.000000 0.265623 0.500000
O O16 0.398343 0.500000 0.816235
O O17 0.381071 0.712747 0.927060
O O18 0.633977 0.500000 0.960206
O O19 0.661836 0.773012 0.913477
O O20 0.769401 0.500000 0.081109
O O21 0.750000 0.250000 0.000000
#
# Coordination Sequence:
#
# PCOD9224506 Si02
#       8
#     8   8   8   8   8   8   8   8
#     4  11  23  38  59  87 113 145 192 240 280 332
#     4  10  20  38  62  84 113 154 193 232 285 346
#     4  10  22  39  57  80 114 153 189 232 289 343
#     4  10  20  35  57  85 116 148 189 238 285 336
#     4   9  19  37  61  88 116 146 183 230 287 345
#     4  10  21  37  56  81 116 156 189 228 289 350
#     4  10  20  35  55  80 112 150 191 233 282 340
#     4  11  22  36  54  79 111 151 197 239 283 335
#
# _framework density 9.8765429999999999
#
# number of rings (size 3 to 8) (size 9 to 14) (size 15 to 20)
#    0.000    1.875    1.250    2.625    0.000    8.500 
#    0.000    1.250    0.000    5.625    0.000    0.000 
#    0.000    0.000    0.000    0.000    0.000    0.000 
#
# Total GULP energy -178654.937019 kJ/mol
# GULP energy per Si atom -5582.966782 kJ/mol
# Density = 0.985406 g / cm^3
# Si number density = 9.876543 Si / 1000 Ang^3
#
#
#
# Elastic Constant Matrix: (Units=GPa)
#
#
# Indices 1 2 3 4 5 6 
#
# 1 104.2461 18.3514 40.9679 0.0000 -14.9061 0.0000
# 2 18.3514 9.4555 22.1679 0.0000 -4.2703 0.0000
# 3 40.9679 22.1679 94.3183 0.0000 -17.0969 0.0000
# 4 0.0000 0.0000 0.0000 -1.7485 0.0000 1.9819
# 5 -14.9061 -4.2703 -17.0969 0.0000 33.2253 0.0000
# 6 0.0000 0.0000 0.0000 1.9819 0.0000 27.4594
#
#
#
# Elastic Compliance Matrix: (Units=1/GPa)
#
#
# Indices 1 2 3 4 5 6 
#
# 1 0.014943 -0.030497 0.001304 0.000000 0.003455 0.000000
# 2 -0.030497 0.297911 -0.057693 0.000000 -0.005080 0.000000
# 3 0.001304 -0.057693 0.024658 0.000000 0.005858 0.000000
# 4 0.000000 0.000000 0.000000 -0.528660 0.000000 0.038156
# 5 0.003455 -0.005080 0.005858 0.000000 0.034009 0.000000
# 6 0.000000 0.000000 0.000000 0.038156 0.000000 0.033664
#
#
# Mechanical properties :
#
#
# Convention : Reuss Voigt Hill
#
# Bulk Modulus (GPa) = 6.10731 41.22159 23.66445
# Shear Modulus (GPa) = 47.67441 20.22273 33.94857
#
# Velocity S-wave (km/s) = 4.91809 3.20312 4.15015
# Velocity P-wave (km/s) = 5.94547 5.88164 5.91364
#
# Compressibility (1/GPa) = 0.16373817
#
# Stress axis : x y z
#
# Youngs Moduli (GPa) = 66.92016 3.35671 40.55494
#
# Poissons Ratio (x) = 0.10237 -0.05286
# Poissons Ratio (y) = 2.04089 2.33974
# Poissons Ratio (z) = -0.08723 0.19366
#
# Static dielectric constant tensor:
#      x y z
#    x 1.746810 0.000000 0.032050 
#    y 0.000000 1.664050 0.000000 
#    z 0.032050 0.000000 1.685400 
# 
# From -- ./inp_files/238783.got.cif
#   From: 2010.05.17/outbox.ucp.g08.bks.cvg/sg12_120_cif.got.tgz:238783.got - 2010.06.11 11:47:21.
