data_PCOD9224998
_publ_section_title
;
Structure prediction by ZEFSAII (Michael W. Deem and Ramdas Pophale) SiO2 
 PCOD9224998
Probable space group: C 2/M
;
_chemical_formula_sum "Si O2"
_cell_formula_units_Z 29
_cell_length_a 9.000000
_cell_length_b 27.000000
_cell_length_c 12.000000
_cell_angle_alpha 90.000000
_cell_angle_beta 90.000000
_cell_angle_gamma 90.000000
_cell_volume 2916.000000
_symmetry_space_group_name_H-M "C 2/M"
_symmetry_group_IT_number 12
_symmetry_cell_setting 'monoclinic'
loop_
_space_group_symop_operation_xyz
x,y,z
-x,y,-z
-x,-y,-z
x,-y,z
1/2+x,1/2+y,z
1/2-x,1/2+y,-z
1/2-x,1/2-y,-z
1/2+x,1/2-y,z
loop_
_atom_site_type_symbol
_atom_site_label
_atom_site_fract_x
_atom_site_fract_y
_atom_site_fract_z
Si Si1 0.906282 0.807788 0.806076
Si Si2 0.235429 0.445632 0.640212
Si Si3 0.573187 0.787577 0.880013
Si Si4 0.476658 0.143142 0.321003
Si Si5 0.505606 0.420403 0.795836
Si Si6 0.280080 0.698098 0.557726
Si Si7 0.210426 0.108248 0.589261
Si Si8 0.000000 0.000000 0.000000
O O1 0.750775 0.795788 0.869631
O O2 0.956245 0.864195 0.827975
O O3 0.871449 0.801003 0.673720
O O4 0.028447 0.767784 0.842268
O O5 0.168006 0.500000 0.635652
O O6 0.125607 0.405041 0.690484
O O7 0.373498 0.444171 0.723217
O O8 0.283550 0.429269 0.515527
O O9 0.503212 0.826277 0.791899
O O10 0.500000 0.795960 0.000000
O O11 0.379903 0.177860 0.401534
O O12 0.626189 0.123806 0.373271
O O13 0.630347 0.411966 0.699528
O O14 0.531583 0.455887 0.902412
O O15 0.250000 0.750000 0.500000
O O16 0.345494 0.659128 0.468682
#
# Coordination Sequence:
#
# PCOD9224998 Si02
#       8
#     8   8   8   8   8   8   8   2
#     4  11  25  42  65 103 139 176 235 282 351 413
#     4  11  22  45  74  95 139 178 224 294 360 419
#     4  11  24  43  67  94 136 198 231 281 330 413
#     4  10  23  43  62 105 142 182 230 284 352 418
#     4  12  26  48  69 101 134 183 241 288 359 410
#     4  10  20  38  64 100 147 187 213 277 348 417
#     4  11  24  40  68 106 138 177 231 287 356 431
#     4  12  32  52  78  90 136 188 244 324 342 416
#
# _framework density 9.9451300000000007
#
# number of rings (size 3 to 8) (size 9 to 14) (size 15 to 20)
#    0.000    1.103    4.828    3.310    7.724    3.862 
#    0.000    0.000    0.000    1.241    0.000    0.000 
#    0.000    0.000    0.000    0.000    0.000    0.000 
#
# Total GULP energy -161702.813382 kJ/mol
# GULP energy per Si atom -5575.959082 kJ/mol
# Density = 0.992249 g / cm^3
# Si number density = 9.945130 Si / 1000 Ang^3
#
#
#
# Elastic Constant Matrix: (Units=GPa)
#
#
# Indices 1 2 3 4 5 6 
#
# 1 59.4468 9.1497 27.7262 0.0000 -4.9347 0.0000
# 2 9.1497 163.2825 64.6149 0.0000 -10.1062 0.0000
# 3 27.7262 64.6149 141.9842 0.0000 -19.9031 0.0000
# 4 0.0000 0.0000 0.0000 38.7956 0.0000 4.8308
# 5 -4.9347 -10.1062 -19.9031 0.0000 16.4736 0.0000
# 6 0.0000 0.0000 0.0000 4.8308 0.0000 4.3858
#
#
#
# Elastic Compliance Matrix: (Units=1/GPa)
#
#
# Indices 1 2 3 4 5 6 
#
# 1 0.018567 0.000492 -0.003645 0.000000 0.001460 0.000000
# 2 0.000492 0.007487 -0.003418 0.000000 0.000611 0.000000
# 3 -0.003645 -0.003418 0.010670 0.000000 0.009703 0.000000
# 4 0.000000 0.000000 0.000000 0.029873 0.000000 -0.032904
# 5 0.001460 0.000611 0.009703 0.000000 0.073239 0.000000
# 6 0.000000 0.000000 0.000000 -0.032904 0.000000 0.264248
#
#
# Mechanical properties :
#
#
# Convention : Reuss Voigt Hill
#
# Bulk Modulus (GPa) = 42.40203 63.07724 52.73963
# Shear Modulus (GPa) = 11.76230 29.47919 20.62074
#
# Velocity S-wave (km/s) = 2.43443 3.85397 3.22332
# Velocity P-wave (km/s) = 5.40982 7.18231 6.35814
#
# Compressibility (1/GPa) = 0.02358378
#
# Stress axis : x y z
#
# Youngs Moduli (GPa) = 53.85813 133.56349 93.71748
#
# Poissons Ratio (x) = -0.06577 0.34162
# Poissons Ratio (y) = -0.02652 0.32030
# Poissons Ratio (z) = 0.19632 0.45648
#
# Static dielectric constant tensor:
#      x y z
#    x 1.779870 0.000000 -0.030110 
#    y 0.000000 1.727890 0.000000 
#    z -0.030110 0.000000 1.712890 
# 
# From -- ./inp_files/124315.got.cif
#   From: 2010.05.17/outbox.ucp.g08.bks.cvg/sg12_63_cif.got.tgz:124315.got - 2010.06.11 11:47:21.
