data_PCOD9224445
_publ_section_title
;
Structure prediction by ZEFSAII (Michael W. Deem and Ramdas Pophale) SiO2 
 PCOD9224445
Probable space group: C 2/M
;
_chemical_formula_sum "Si O2"
_cell_formula_units_Z 32
_cell_length_a 30.000000
_cell_length_b 9.000000
_cell_length_c 24.000000
_cell_angle_alpha 90.000000
_cell_angle_beta 150.000000
_cell_angle_gamma 90.000000
_cell_volume 3240.000000
_symmetry_space_group_name_H-M "C 2/M"
_symmetry_group_IT_number 12
_symmetry_cell_setting 'monoclinic'
loop_
_space_group_symop_operation_xyz
x,y,z
-x,y,-z
-x,-y,-z
x,-y,z
1/2+x,1/2+y,z
1/2-x,1/2+y,-z
1/2-x,1/2-y,-z
1/2+x,1/2-y,z
loop_
_atom_site_type_symbol
_atom_site_label
_atom_site_fract_x
_atom_site_fract_y
_atom_site_fract_z
Si Si1 0.094718 0.321739 0.074035
Si Si2 0.234369 0.324962 0.682606
Si Si3 0.096260 0.679792 0.850854
Si Si4 0.389140 0.174621 0.637481
Si Si5 0.872885 0.678998 0.241663
Si Si6 0.742176 0.828962 0.405105
Si Si7 0.689362 0.821305 0.064246
Si Si8 0.459175 0.672024 0.517637
O O1 0.100293 0.500000 0.088780
O O2 0.182261 0.245659 0.194653
O O3 0.112552 0.293737 0.027483
O O4 0.000000 0.274856 0.000000
O O5 0.227192 0.500000 0.685589
O O6 0.258550 0.287087 0.645243
O O7 0.138131 0.247961 0.588438
O O8 0.099472 0.500000 0.855782
O O9 0.131316 0.724755 0.828125
O O10 0.992097 0.718559 0.745311
O O11 0.153081 0.731973 0.965101
O O12 0.345844 0.180526 0.651988
O O13 0.327210 0.282048 0.534057
O O14 0.381309 0.000000 0.610814
O O15 0.872533 0.500000 0.245689
O O16 0.785753 0.745373 0.178233
O O17 0.967029 0.741423 0.366044
O O18 0.750131 0.000000 0.394130
O O19 0.703530 0.000000 0.078860
O O20 0.500000 0.672509 0.500000
O O21 0.450843 0.500000 0.527131
#
# Coordination Sequence:
#
# PCOD9224445 Si02
#       8
#     8   8   8   8   8   8   8   8
#     4  10  23  42  66  91 116 154 209 260 305 361
#     4  12  25  40  61  88 123 159 197 245 305 368
#     4   9  19  35  58  86 116 157 203 246 296 353
#     4   9  18  34  57  84 117 155 201 253 306 356
#     4  11  22  37  60  92 129 162 198 244 301 366
#     4  10  20  34  57  85 118 156 201 250 301 361
#     4  10  21  39  62  86 118 159 205 253 301 358
#     4  11  24  42  65  91 120 156 203 253 304 363
#
# _framework density 9.8765429999999999
#
# number of rings (size 3 to 8) (size 9 to 14) (size 15 to 20)
#    0.000    1.750    0.000    4.125    1.750    6.250 
#    0.000    1.875    0.000    0.000    0.000    0.000 
#    0.000    0.000    0.000    0.000    0.000    0.000 
#
# Total GULP energy -178686.971282 kJ/mol
# GULP energy per Si atom -5583.967853 kJ/mol
# Density = 0.985406 g / cm^3
# Si number density = 9.876543 Si / 1000 Ang^3
#
#
#
# Elastic Constant Matrix: (Units=GPa)
#
#
# Indices 1 2 3 4 5 6 
#
# 1 92.9131 35.3785 56.8856 0.0000 13.7645 0.0000
# 2 35.3785 64.1285 30.7497 0.0000 8.6526 0.0000
# 3 56.8856 30.7497 96.7308 0.0000 17.2645 0.0000
# 4 0.0000 0.0000 0.0000 27.1344 0.0000 -0.7636
# 5 13.7645 8.6526 17.2645 0.0000 35.9553 0.0000
# 6 0.0000 0.0000 0.0000 -0.7636 0.0000 24.6801
#
#
#
# Elastic Compliance Matrix: (Units=1/GPa)
#
#
# Indices 1 2 3 4 5 6 
#
# 1 0.018605 -0.005834 -0.008822 0.000000 -0.001482 0.000000
# 2 -0.005834 0.020331 -0.002797 0.000000 -0.001316 0.000000
# 3 -0.008822 -0.002797 0.017163 0.000000 -0.004191 0.000000
# 4 0.000000 0.000000 0.000000 0.036886 0.000000 0.001141
# 5 -0.001482 -0.001316 -0.004191 0.000000 0.030709 0.000000
# 6 0.000000 0.000000 0.000000 0.001141 0.000000 0.040554
#
#
# Mechanical properties :
#
#
# Convention : Reuss Voigt Hill
#
# Bulk Modulus (GPa) = 47.18606 55.53333 51.35970
# Shear Modulus (GPa) = 24.24611 26.27119 25.25865
#
# Velocity S-wave (km/s) = 3.50731 3.65084 3.57980
# Velocity P-wave (km/s) = 6.35149 6.77837 6.56840
#
# Compressibility (1/GPa) = 0.02119270
#
# Stress axis : x y z
#
# Youngs Moduli (GPa) = 53.74889 49.18595 58.26366
#
# Poissons Ratio (x) = 0.28694 0.51401
# Poissons Ratio (y) = 0.31356 0.16299
# Poissons Ratio (z) = 0.47418 0.13759
#
# Static dielectric constant tensor:
#      x y z
#    x 1.729710 0.000000 -0.048970 
#    y 0.000000 1.663490 0.000000 
#    z -0.048970 0.000000 1.698710 
# 
# From -- ./inp_files/353464.got.cif
#   From: 2010.05.17/outbox.ucp.g08.bks.cvg/sg12_177_cif.got.tgz:353464.got - 2010.06.11 11:47:21.
