data_PCOD9224072
_publ_section_title
;
Structure prediction by ZEFSAII (Michael W. Deem and Ramdas Pophale) SiO2 
 PCOD9224072
Probable space group: C 2/M
;
_chemical_formula_sum "Si O2"
_cell_formula_units_Z 32
_cell_length_a 18.000000
_cell_length_b 24.000000
_cell_length_c 21.000000
_cell_angle_alpha 90.000000
_cell_angle_beta 20.000000
_cell_angle_gamma 90.000000
_cell_volume 3102.806740
_symmetry_space_group_name_H-M "C 2/M"
_symmetry_group_IT_number 12
_symmetry_cell_setting 'monoclinic'
loop_
_space_group_symop_operation_xyz
x,y,z
-x,y,-z
-x,-y,-z
x,-y,z
1/2+x,1/2+y,z
1/2-x,1/2+y,-z
1/2-x,1/2-y,-z
1/2+x,1/2-y,z
loop_
_atom_site_type_symbol
_atom_site_label
_atom_site_fract_x
_atom_site_fract_y
_atom_site_fract_z
Si Si1 0.521855 0.883710 0.213173
Si Si2 0.844617 0.065210 0.749797
Si Si3 0.610853 0.333039 0.584168
Si Si4 0.891955 0.610370 0.172468
Si Si5 0.457099 0.631147 0.222679
Si Si6 0.721596 0.154331 0.281683
Si Si7 0.332036 0.720475 0.695030
Si Si8 0.981615 0.566073 0.384961
O O1 0.368351 0.831533 0.360180
O O2 0.409867 0.896421 0.234292
O O3 0.504840 0.922784 0.290046
O O4 0.781429 0.879497 0.989238
O O5 0.797256 0.077386 0.713199
O O6 0.028750 0.104216 0.631769
O O7 0.879789 0.000000 0.732408
O O8 0.620725 0.086375 0.962825
O O9 0.575265 0.327365 0.689356
O O10 0.462615 0.297377 0.654296
O O11 0.844852 0.673958 0.185721
O O12 0.398151 0.645642 0.196186
O O13 0.263400 0.585933 0.395873
O O14 0.500000 0.157377 0.500000
O O15 0.752670 0.216380 0.228197
O O16 0.659449 0.105632 0.279905
O O17 0.500000 0.719841 0.500000
O O18 0.010397 0.500000 0.375290
#
# Coordination Sequence:
#
# PCOD9224072 Si02
#       8
#     8   8   8   8   8   8   8   8
#     4  11  22  40  62  95 132 164 214 261 325 392
#     4  10  21  37  58  87 127 174 224 260 306 389
#     4  10  21  39  65  92 129 173 216 263 318 382
#     4  10  19  36  60  88 128 169 211 260 318 379
#     4  10  22  43  66  94 129 163 214 268 325 393
#     4   9  21  44  69  95 125 167 221 271 329 394
#     4  10  19  38  68  96 129 175 219 264 323 387
#     4  10  24  45  68  95 128 170 220 274 329 389
#
# _framework density 10.313243
#
# number of rings (size 3 to 8) (size 9 to 14) (size 15 to 20)
#    0.000    2.000    2.500    0.750    0.000    6.250 
#    2.250    9.375    0.000    0.000    0.000    0.000 
#    0.000    0.000    0.000    0.000    0.000    0.000 
#
# Total GULP energy -178283.750311 kJ/mol
# GULP energy per Si atom -5571.367197 kJ/mol
# Density = 1.028977 g / cm^3
# Si number density = 10.313243 Si / 1000 Ang^3
#
#
#
# Elastic Constant Matrix: (Units=GPa)
#
#
# Indices 1 2 3 4 5 6 
#
# 1 163.4033 55.5634 17.3586 0.0620 -3.9364 -0.0252
# 2 55.5634 130.0217 5.0174 0.0688 1.5070 0.0038
# 3 17.3586 5.0174 87.8397 0.2352 6.7282 -0.0522
# 4 0.0620 0.0688 0.2352 13.9015 0.0002 1.4744
# 5 -3.9364 1.5070 6.7282 0.0002 40.3075 -0.0238
# 6 -0.0252 0.0038 -0.0522 1.4744 -0.0238 23.0320
#
#
#
# Elastic Compliance Matrix: (Units=1/GPa)
#
#
# Indices 1 2 3 4 5 6 
#
# 1 0.007343 -0.003098 -0.001355 0.000005 0.001059 0.000006
# 2 -0.003098 0.009017 0.000148 -0.000033 -0.000664 -0.000003
# 3 -0.001355 0.000148 0.011806 -0.000198 -0.002109 0.000036
# 4 0.000005 -0.000033 -0.000198 0.072430 0.000032 -0.004637
# 5 0.001059 -0.000664 -0.002109 0.000032 0.025290 0.000021
# 6 0.000006 -0.000003 0.000036 -0.004637 0.000021 0.043715
#
#
# Mechanical properties :
#
#
# Convention : Reuss Voigt Hill
#
# Bulk Modulus (GPa) = 51.13658 59.68261 55.40960
# Shear Modulus (GPa) = 27.06680 35.66989 31.36835
#
# Velocity S-wave (km/s) = 3.62641 4.16303 3.90395
# Velocity P-wave (km/s) = 6.50999 7.21841 6.87333
#
# Compressibility (1/GPa) = 0.01955547
#
# Stress axis : x y z
#
# Youngs Moduli (GPa) = 136.19006 110.90368 84.70424
#
# Poissons Ratio (x) = 0.34356 0.11479
# Poissons Ratio (y) = 0.42189 -0.01255
# Poissons Ratio (z) = 0.18457 -0.01643
#
# Static dielectric constant tensor:
#      x y z
#    x 1.771940 -0.000010 0.010260 
#    y -0.000010 1.763930 0.000140 
#    z 0.010260 0.000140 1.788170 
# 
# From -- ./inp_files/318351.got.cif
#   From: 2010.05.17/outbox.ucp.g08.bks.cvg/sg12_160_cif.got.tgz:318351.got - 2010.06.11 11:47:21.
