data_PCOD9224855
_publ_section_title
;
Structure prediction by ZEFSAII (Michael W. Deem and Ramdas Pophale) SiO2 
 PCOD9224855
Probable space group: C 2/M
;
_chemical_formula_sum "Si O2"
_cell_formula_units_Z 28
_cell_length_a 9.000000
_cell_length_b 21.000000
_cell_length_c 15.000000
_cell_angle_alpha 90.000000
_cell_angle_beta 90.000000
_cell_angle_gamma 90.000000
_cell_volume 2835.000000
_symmetry_space_group_name_H-M "C 2/M"
_symmetry_group_IT_number 12
_symmetry_cell_setting 'monoclinic'
loop_
_space_group_symop_operation_xyz
x,y,z
-x,y,-z
-x,-y,-z
x,-y,z
1/2+x,1/2+y,z
1/2-x,1/2+y,-z
1/2-x,1/2-y,-z
1/2+x,1/2-y,z
loop_
_atom_site_type_symbol
_atom_site_label
_atom_site_fract_x
_atom_site_fract_y
_atom_site_fract_z
Si Si1 0.891357 0.570318 0.585350
Si Si2 0.951415 0.185712 0.096735
Si Si3 0.002626 0.253919 0.716640
Si Si4 0.053402 0.605473 0.767711
Si Si5 0.139800 0.369441 0.060095
Si Si6 0.760300 0.793734 0.409668
Si Si7 0.817956 0.928497 0.898206
O O1 0.818254 0.500000 0.583809
O O2 0.787237 0.632715 0.576448
O O3 0.000000 0.573626 0.500000
O O4 0.985030 0.574381 0.678295
O O5 0.997277 0.222530 0.185980
O O6 0.773078 0.177168 0.090780
O O7 0.045024 0.120121 0.103926
O O8 0.000000 0.212009 0.000000
O O9 0.078885 0.321986 0.736173
O O10 0.083051 0.213651 0.639371
O O11 0.847405 0.269425 0.669716
O O12 0.203766 0.581028 0.815188
O O13 0.932353 0.603935 0.848655
O O14 0.224373 0.415354 0.989342
O O15 0.000000 0.346113 0.000000
O O16 0.750000 0.750000 0.500000
O O17 0.873455 0.000000 0.897924
#
# Coordination Sequence:
#
# PCOD9224855 Si02
#       7
#     8   8   8   8   8   8   8
#     4  10  21  37  59  88 119 153 196 244 296 354
#     4  10  21  36  54  82 119 157 190 238 296 349
#     4  11  22  38  62  90 118 152 201 243 296 365
#     4  10  20  37  59  84 112 148 194 246 292 343
#     4   9  20  36  54  79 110 153 201 238 284 342
#     4  11  22  40  65  91 120 156 198 251 305 359
#     4  10  21  36  55  82 116 154 195 239 295 356
#
# _framework density 9.8765429999999999
#
# number of rings (size 3 to 8) (size 9 to 14) (size 15 to 20)
#    0.000    1.857    0.000    5.143    0.000    7.429 
#    0.000    7.857    0.000    1.714    0.000    0.000 
#    0.000    0.000    0.000    0.000    0.000    0.000 
#
# Total GULP energy -156160.285908 kJ/mol
# GULP energy per Si atom -5577.153068 kJ/mol
# Density = 0.985406 g / cm^3
# Si number density = 9.876543 Si / 1000 Ang^3
#
#
#
# Elastic Constant Matrix: (Units=GPa)
#
#
# Indices 1 2 3 4 5 6 
#
# 1 65.0254 18.8407 1.7423 0.0000 3.0561 0.0000
# 2 18.8407 141.6604 31.7168 0.0000 -1.6766 0.0000
# 3 1.7423 31.7168 134.6611 0.0000 8.5653 0.0000
# 4 0.0000 0.0000 0.0000 18.4781 0.0000 2.0343
# 5 3.0561 -1.6766 8.5653 0.0000 29.9994 0.0000
# 6 0.0000 0.0000 0.0000 2.0343 0.0000 9.2414
#
#
#
# Elastic Compliance Matrix: (Units=1/GPa)
#
#
# Indices 1 2 3 4 5 6 
#
# 1 0.016112 -0.002265 0.000446 0.000000 -0.001895 0.000000
# 2 -0.002265 0.007796 -0.001884 0.000000 0.001204 0.000000
# 3 0.000446 -0.001884 0.008019 0.000000 -0.002440 0.000000
# 4 0.000000 0.000000 0.000000 0.055462 0.000000 -0.012209
# 5 -0.001895 0.001204 -0.002440 0.000000 0.034291 0.000000
# 6 0.000000 0.000000 0.000000 -0.012209 0.000000 0.110897
#
#
# Mechanical properties :
#
#
# Convention : Reuss Voigt Hill
#
# Bulk Modulus (GPa) = 40.78076 49.54963 45.16519
# Shear Modulus (GPa) = 20.14848 30.81358 25.48103
#
# Velocity S-wave (km/s) = 3.19724 3.95389 3.59552
# Velocity P-wave (km/s) = 5.85831 6.78110 6.33653
#
# Compressibility (1/GPa) = 0.02452137
#
# Stress axis : x y z
#
# Youngs Moduli (GPa) = 62.06548 128.26496 124.70162
#
# Poissons Ratio (x) = 0.29053 -0.05556
# Poissons Ratio (y) = 0.14058 0.23488
# Poissons Ratio (z) = -0.02765 0.24160
#
# Static dielectric constant tensor:
#      x y z
#    x 1.727120 0.000000 -0.004990 
#    y 0.000000 1.742130 0.000000 
#    z -0.004990 0.000000 1.669300 
# 
# From -- ./inp_files/197511.got.cif
#   From: 2010.05.17/outbox.ucp.g08.bks.cvg/sg12_99_cif.got.tgz:197511.got - 2010.06.11 11:47:21.
