data_PCOD9224615
_publ_section_title
;
Structure prediction by ZEFSAII (Michael W. Deem and Ramdas Pophale) SiO2 
 PCOD9224615
Probable space group: C 2/M
;
_chemical_formula_sum "Si O2"
_cell_formula_units_Z 32
_cell_length_a 30.000000
_cell_length_b 15.000000
_cell_length_c 9.000000
_cell_angle_alpha 90.000000
_cell_angle_beta 50.000000
_cell_angle_gamma 90.000000
_cell_volume 3102.479995
_symmetry_space_group_name_H-M "C 2/M"
_symmetry_group_IT_number 12
_symmetry_cell_setting 'monoclinic'
loop_
_space_group_symop_operation_xyz
x,y,z
-x,y,-z
-x,-y,-z
x,-y,z
1/2+x,1/2+y,z
1/2-x,1/2+y,-z
1/2-x,1/2-y,-z
1/2+x,1/2-y,z
loop_
_atom_site_type_symbol
_atom_site_label
_atom_site_fract_x
_atom_site_fract_y
_atom_site_fract_z
Si Si1 0.965399 0.397302 0.231981
Si Si2 0.811397 0.246646 0.280471
Si Si3 0.357674 0.894749 0.959020
Si Si4 0.854547 0.720660 0.499870
Si Si5 0.887867 0.895793 0.958190
Si Si6 0.152670 0.896219 0.284173
Si Si7 0.774147 0.398656 0.857608
Si Si8 0.035691 0.740934 0.275758
O O1 0.969074 0.500000 0.276803
O O2 0.899418 0.362267 0.390021
O O3 0.996277 0.322645 0.262309
O O4 0.000000 0.395692 0.000000
O O5 0.750000 0.250000 0.500000
O O6 0.853426 0.247688 0.332566
O O7 0.821853 0.336370 0.159045
O O8 0.831857 0.159001 0.143125
O O9 0.322979 0.900752 0.880294
O O10 0.410662 0.827237 0.809449
O O11 0.370513 0.000000 0.976198
O O12 0.864206 0.811581 0.576457
O O13 0.795862 0.674721 0.693064
O O14 0.885130 0.897327 0.784512
O O15 0.941471 0.827102 0.864078
O O16 0.890718 0.000000 0.001338
O O17 0.152532 0.000000 0.345431
O O18 0.216434 0.878106 0.076809
O O19 0.766994 0.500000 0.811044
O O20 0.000000 0.765205 0.500000
#
# Coordination Sequence:
#
# PCOD9224615 Si02
#       8
#     8   8   8   8   8   8   8   8
#     4  11  24  41  59  82 115 152 189 234 288 342
#     4  11  23  37  58  88 121 158 193 232 287 345
#     4  10  21  37  56  83 119 154 192 238 288 348
#     4  12  22  36  60  86 117 150 193 241 284 342
#     4  10  22  41  61  83 115 152 194 240 287 345
#     4  10  21  38  60  85 115 151 189 235 288 342
#     4  10  20  35  58  87 117 151 190 233 286 346
#     4  11  22  38  60  85 112 145 192 243 293 340
#
# _framework density 10.314329000000001
#
# number of rings (size 3 to 8) (size 9 to 14) (size 15 to 20)
#    0.000    1.375    0.000    7.125    0.000    5.250 
#    0.000    0.625    0.000    1.500    0.000    0.000 
#    0.000    0.000    0.000    0.000    0.000    0.000 
#
# Total GULP energy -178312.630891 kJ/mol
# GULP energy per Si atom -5572.269715 kJ/mol
# Density = 1.029085 g / cm^3
# Si number density = 10.314329 Si / 1000 Ang^3
#
#
#
# Elastic Constant Matrix: (Units=GPa)
#
#
# Indices 1 2 3 4 5 6 
#
# 1 9.3762 3.6552 -2.6146 0.0000 4.7238 0.0000
# 2 3.6552 178.6625 53.7900 0.0000 2.6643 0.0000
# 3 -2.6146 53.7900 107.2421 0.0000 -5.9752 0.0000
# 4 0.0000 0.0000 0.0000 -60.8597 0.0000 -58.4374
# 5 4.7238 2.6643 -5.9752 0.0000 34.2955 0.0000
# 6 0.0000 0.0000 0.0000 -58.4374 0.0000 -7.0963
#
#
#
# Elastic Compliance Matrix: (Units=1/GPa)
#
#
# Indices 1 2 3 4 5 6 
#
# 1 0.116576 -0.003251 0.003627 0.000000 -0.015173 0.000000
# 2 -0.003251 0.006725 -0.003490 0.000000 -0.000683 0.000000
# 3 0.003627 -0.003490 0.011260 0.000000 0.001733 0.000000
# 4 0.000000 0.000000 0.000000 0.002379 0.000000 -0.019590
# 5 -0.015173 -0.000683 0.001733 0.000000 0.031603 0.000000
# 6 0.000000 0.000000 0.000000 -0.019590 0.000000 0.020402
#
#
# Mechanical properties :
#
#
# Convention : Reuss Voigt Hill
#
# Bulk Modulus (GPa) = 7.79217 44.99353 26.39285
# Shear Modulus (GPa) = 21.01277 9.29791 15.15534
#
# Velocity S-wave (km/s) = 3.19505 2.12534 2.71343
# Velocity P-wave (km/s) = 4.17093 5.28027 4.75804
#
# Compressibility (1/GPa) = 0.12833391
#
# Stress axis : x y z
#
# Youngs Moduli (GPa) = 8.57807 148.70706 88.80747
#
# Poissons Ratio (x) = 0.48341 -0.32213
# Poissons Ratio (y) = 0.02789 0.30996
# Poissons Ratio (z) = -0.03112 0.51902
#
# Static dielectric constant tensor:
#      x y z
#    x 1.770080 0.000000 0.054440 
#    y 0.000000 1.823320 0.000000 
#    z 0.054440 0.000000 1.635470 
# 
# From -- ./inp_files/111973.got.cif
#   From: 2010.05.17/outbox.ucp.g08.bks.cvg/sg12_56_cif.got.tgz:111973.got - 2010.06.11 11:47:21.
