data_PCOD9224854
_publ_section_title
;
Structure prediction by ZEFSAII (Michael W. Deem and Ramdas Pophale) SiO2 
 PCOD9224854
Probable space group: C 2/M
;
_chemical_formula_sum "Si O2"
_cell_formula_units_Z 32
_cell_length_a 18.000000
_cell_length_b 21.000000
_cell_length_c 18.000000
_cell_angle_alpha 90.000000
_cell_angle_beta 30.000000
_cell_angle_gamma 90.000000
_cell_volume 3402.000000
_symmetry_space_group_name_H-M "C 2/M"
_symmetry_group_IT_number 12
_symmetry_cell_setting 'monoclinic'
loop_
_space_group_symop_operation_xyz
x,y,z
-x,y,-z
-x,-y,-z
x,-y,z
1/2+x,1/2+y,z
1/2-x,1/2+y,-z
1/2-x,1/2-y,-z
1/2+x,1/2-y,z
loop_
_atom_site_type_symbol
_atom_site_label
_atom_site_fract_x
_atom_site_fract_y
_atom_site_fract_z
Si Si1 0.400704 0.665576 0.265104
Si Si2 0.022088 0.069178 0.066924
Si Si3 0.893400 0.570887 0.943823
Si Si4 0.564128 0.810715 0.604899
Si Si5 0.427697 0.321653 0.481893
Si Si6 0.075141 0.306618 0.773049
Si Si7 0.042326 0.924175 0.270177
Si Si8 0.864064 0.573049 0.791078
O O1 0.397682 0.617423 0.200152
O O2 0.237532 0.679284 0.436866
O O3 0.466330 0.732406 0.178081
O O4 0.489841 0.622475 0.248075
O O5 0.007981 0.000000 0.116713
O O6 0.190614 0.091078 0.935179
O O7 0.000000 0.061956 0.000000
O O8 0.947743 0.500000 0.921466
O O9 0.898142 0.569967 0.849634
O O10 0.982565 0.634925 0.888236
O O11 0.721291 0.576563 0.115971
O O12 0.521834 0.742269 0.606774
O O13 0.554365 0.808452 0.702060
O O14 0.466110 0.872055 0.666914
O O15 0.500000 0.319782 0.500000
O O16 0.248643 0.317419 0.640669
O O17 0.475269 0.386297 0.398498
O O18 0.998526 0.000000 0.303461
O O19 0.881995 0.500000 0.746638
#
# Coordination Sequence:
#
# PCOD9224854 Si02
#       8
#     8   8   8   8   8   8   8   8
#     4  11  19  35  59  84 111 144 193 233 271 335
#     4  10  21  36  52  77 117 153 182 228 285 338
#     4   9  19  35  57  86 113 141 187 236 278 331
#     4  10  20  37  59  83 116 146 187 237 283 330
#     4  11  23  40  58  82 117 152 187 236 289 337
#     4  10  20  38  59  86 114 147 187 236 285 333
#     4  11  21  36  59  86 112 147 194 237 278 334
#     4   9  18  32  53  83 114 144 183 229 280 334
#
# _framework density 9.4062319999999993
#
# number of rings (size 3 to 8) (size 9 to 14) (size 15 to 20)
#    0.000    1.875    3.750    1.125    0.000    5.250 
#    0.000    0.625    0.000    4.125    0.000    0.000 
#    0.000    0.000    0.000    0.000    0.000    0.000 
#
# Total GULP energy -178173.128368 kJ/mol
# GULP energy per Si atom -5567.910261 kJ/mol
# Density = 0.938482 g / cm^3
# Si number density = 9.406232 Si / 1000 Ang^3
#
#
#
# Elastic Constant Matrix: (Units=GPa)
#
#
# Indices 1 2 3 4 5 6 
#
# 1 43.1786 26.0874 5.1237 -0.0027 9.4343 -0.0026
# 2 26.0874 147.7164 44.2176 -0.0091 -15.6409 -0.0050
# 3 5.1237 44.2176 27.6409 -0.0068 -10.1636 -0.0095
# 4 -0.0027 -0.0091 -0.0068 -47.4796 0.0094 -117.2255
# 5 9.4343 -15.6409 -10.1636 0.0094 7.3132 0.0099
# 6 -0.0026 -0.0050 -0.0095 -117.2255 0.0099 -115.7793
#
#
#
# Elastic Compliance Matrix: (Units=1/GPa)
#
#
# Indices 1 2 3 4 5 6 
#
# 1 0.322267 -0.066801 -0.323682 0.000001 -1.008443 -0.000064
# 2 -0.066801 0.026855 0.045458 0.000001 0.206787 0.000013
# 3 -0.323682 0.045458 0.435076 -0.000005 1.119432 0.000070
# 4 0.000001 0.000001 -0.000005 0.014043 -0.000004 -0.014218
# 5 -1.008443 0.206787 1.119432 -0.000004 3.435658 0.000219
# 6 -0.000064 0.000013 0.000070 -0.014218 0.000219 0.005759
#
#
# Mechanical properties :
#
#
# Convention : Reuss Voigt Hill
#
# Bulk Modulus (GPa) = 10.62146 41.04371 25.83258
# Shear Modulus (GPa) = 1.00784 -21.64866 -10.32041
#
# Velocity S-wave (km/s) = 0.73273 -3.39597 -2.34475
# Velocity P-wave (km/s) = 2.52470 2.54713 2.53594
#
# Compressibility (1/GPa) = 0.09414903
#
# Stress axis : x y z
#
# Youngs Moduli (GPa) = 3.10301 37.23675 2.29845
#
# Poissons Ratio (x) = 2.48746 0.74397
# Poissons Ratio (y) = 0.20728 -0.10448
# Poissons Ratio (z) = 1.00439 -1.69271
#
# Static dielectric constant tensor:
#      x y z
#    x 1.666980 0.000000 0.028510 
#    y 0.000000 1.722490 0.000000 
#    z 0.028510 0.000000 1.658410 
# 
# From -- ./inp_files/279079.got.cif
#   From: 2010.05.17/outbox.ucp.g08.bks.cvg/sg12_140_cif.got.tgz:279079.got - 2010.06.11 11:47:21.
