data_PCOD9224074
_publ_section_title
;
Structure prediction by ZEFSAII (Michael W. Deem and Ramdas Pophale) SiO2 
 PCOD9224074
Probable space group: C 2/M
;
_chemical_formula_sum "Si O2"
_cell_formula_units_Z 24
_cell_length_a 9.000000
_cell_length_b 18.000000
_cell_length_c 30.000000
_cell_angle_alpha 90.000000
_cell_angle_beta 30.000000
_cell_angle_gamma 90.000000
_cell_volume 2430.000000
_symmetry_space_group_name_H-M "C 2/M"
_symmetry_group_IT_number 12
_symmetry_cell_setting 'monoclinic'
loop_
_space_group_symop_operation_xyz
x,y,z
-x,y,-z
-x,-y,-z
x,-y,z
1/2+x,1/2+y,z
1/2-x,1/2+y,-z
1/2-x,1/2-y,-z
1/2+x,1/2-y,z
loop_
_atom_site_type_symbol
_atom_site_label
_atom_site_fract_x
_atom_site_fract_y
_atom_site_fract_z
Si Si1 0.906706 0.147588 0.644257
Si Si2 0.643611 0.414367 0.918368
Si Si3 0.738359 0.910490 0.210293
Si Si4 0.722599 0.679856 0.710754
Si Si5 0.349799 0.584647 0.750700
Si Si6 0.246390 0.587344 0.527809
O O1 0.613383 0.102643 0.705237
O O2 0.814285 0.233630 0.679589
O O3 0.006041 0.107140 0.663725
O O4 0.141263 0.134758 0.543892
O O5 0.534956 0.500000 0.945274
O O6 0.605702 0.388199 0.877149
O O7 0.997487 0.415374 0.833819
O O8 0.500000 0.378967 0.000000
O O9 0.809405 0.852631 0.231119
O O10 0.787808 0.000000 0.206223
O O11 0.424789 0.652107 0.764015
O O12 0.969065 0.628492 0.622346
O O13 0.430803 0.500000 0.743813
O O14 0.500000 0.588515 0.500000
O O15 0.193036 0.500000 0.530574
#
# Coordination Sequence:
#
# PCOD9224074 Si02
#       6
#     8   8   8   8   8   8
#     4  11  22  38  56  80 112 154 192 229 280 340
#     4   8  16  34  61  88 112 145 188 229 274 340
#     4  10  19  36  61  82 109 152 194 225 276 346
#     4  12  23  36  55  86 117 145 187 244 287 319
#     4  10  21  36  57  83 114 145 185 237 285 329
#     4  11  22  37  59  80 108 151 201 237 270 330
#
# _framework density 9.8765429999999999
#
# number of rings (size 3 to 8) (size 9 to 14) (size 15 to 20)
#    0.000    1.667    1.667    5.500    0.000    0.667 
#    0.000    2.500    0.000   20.000    0.000    0.000 
#    0.000    0.000    0.000    0.000    0.000    0.167 
#
# Total GULP energy -133775.790410 kJ/mol
# GULP energy per Si atom -5573.991267 kJ/mol
# Density = 0.985406 g / cm^3
# Si number density = 9.876543 Si / 1000 Ang^3
#
#
#
# Elastic Constant Matrix: (Units=GPa)
#
#
# Indices 1 2 3 4 5 6 
#
# 1 67.3999 9.2456 29.2190 0.0005 31.2582 -0.0281
# 2 9.2456 120.6095 19.7010 -0.0089 13.1390 -0.0407
# 3 29.2190 19.7010 79.8964 -0.0085 47.5257 0.0990
# 4 0.0005 -0.0089 -0.0085 19.4099 -0.0031 5.6997
# 5 31.2582 13.1390 47.5257 -0.0031 41.0929 -0.0117
# 6 -0.0281 -0.0407 0.0990 5.6997 -0.0117 26.0979
#
#
#
# Elastic Compliance Matrix: (Units=1/GPa)
#
#
# Indices 1 2 3 4 5 6 
#
# 1 0.023985 -0.000105 0.006688 0.000002 -0.025947 -0.000012
# 2 -0.000105 0.008651 -0.001593 -0.000003 -0.000845 0.000020
# 3 0.006688 -0.001593 0.042260 0.000066 -0.053454 -0.000194
# 4 0.000002 -0.000003 0.000066 0.055051 -0.000076 -0.012023
# 5 -0.025947 -0.000845 -0.053454 -0.000076 0.106164 0.000238
# 6 -0.000012 0.000020 -0.000194 -0.012023 0.000238 0.040944
#
#
# Mechanical properties :
#
#
# Convention : Reuss Voigt Hill
#
# Bulk Modulus (GPa) = 11.78153 42.69300 27.23726
# Shear Modulus (GPa) = 16.92822 31.30281 24.11552
#
# Velocity S-wave (km/s) = 2.93062 3.98515 3.49785
# Velocity P-wave (km/s) = 4.17477 6.54488 5.48927
#
# Compressibility (1/GPa) = 0.08487865
#
# Stress axis : x y z
#
# Youngs Moduli (GPa) = 41.69277 115.58809 23.66327
#
# Poissons Ratio (x) = 0.01208 -0.15827
# Poissons Ratio (y) = 0.00436 0.03768
# Poissons Ratio (z) = -0.27886 0.18408
#
# Static dielectric constant tensor:
#      x y z
#    x 1.819670 0.000000 0.015180 
#    y 0.000000 1.667470 0.000010 
#    z 0.015180 0.000010 1.714960 
# 
# From -- ./inp_files/251512.got.cif
#   From: 2010.05.17/outbox.ucp.g08.bks.cvg/sg12_126_cif.got.tgz:251512.got - 2010.06.11 11:47:21.
