data_PCOD9224131
_publ_section_title
;
Structure prediction by ZEFSAII (Michael W. Deem and Ramdas Pophale) SiO2 
 PCOD9224131
Probable space group: C 2/M
;
_chemical_formula_sum "Si O2"
_cell_formula_units_Z 24
_cell_length_a 15.000000
_cell_length_b 18.000000
_cell_length_c 18.000000
_cell_angle_alpha 90.000000
_cell_angle_beta 150.000000
_cell_angle_gamma 90.000000
_cell_volume 2430.000000
_symmetry_space_group_name_H-M "C 2/M"
_symmetry_group_IT_number 12
_symmetry_cell_setting 'monoclinic'
loop_
_space_group_symop_operation_xyz
x,y,z
-x,y,-z
-x,-y,-z
x,-y,z
1/2+x,1/2+y,z
1/2-x,1/2+y,-z
1/2-x,1/2-y,-z
1/2+x,1/2-y,z
loop_
_atom_site_type_symbol
_atom_site_label
_atom_site_fract_x
_atom_site_fract_y
_atom_site_fract_z
Si Si1 0.479294 0.666150 0.073860
Si Si2 0.250355 0.090190 0.519481
Si Si3 0.959874 0.334390 0.884859
Si Si4 0.902149 0.916743 0.352002
Si Si5 0.307259 0.910401 0.390543
Si Si6 0.617674 0.088545 0.867640
O O1 0.504623 0.751259 0.118596
O O2 0.641921 0.619457 0.224740
O O3 0.500000 0.664776 0.000000
O O4 0.289030 0.631600 0.959822
O O5 0.280357 0.112077 0.456390
O O6 0.428441 0.111679 0.693306
O O7 0.056201 0.114513 0.408872
O O8 0.243333 0.000000 0.519721
O O9 0.758229 0.363243 0.741395
O O10 0.085049 0.390275 0.929644
O O11 0.000000 0.333646 0.000000
O O12 0.000000 0.927550 0.500000
O O13 0.841149 0.000000 0.282514
O O14 0.500000 0.884877 0.500000
O O15 0.306550 0.000000 0.386969
O O16 0.641086 0.000000 0.874183
#
# Coordination Sequence:
#
# PCOD9224131 Si02
#       6
#     8   8   8   8   8   8
#     4  11  25  43  61  86 127 168 206 251 308 368
#     4   9  19  36  62  95 122 149 197 259 310 357
#     4  11  25  41  60  89 133 168 201 249 304 372
#     4  10  19  37  63  91 123 160 203 249 303 364
#     4  10  21  39  63  91 120 156 210 263 302 356
#     4  11  22  41  67  92 121 161 207 256 310 362
#
# _framework density 9.8765429999999999
#
# number of rings (size 3 to 8) (size 9 to 14) (size 15 to 20)
#    0.000    1.667    1.667    2.500    2.333    4.667 
#    0.000    0.833    0.000    0.000    0.000    0.000 
#    0.000    0.000    0.000    0.000    0.000    0.000 
#
# Total GULP energy -133874.038882 kJ/mol
# GULP energy per Si atom -5578.084953 kJ/mol
# Density = 0.985406 g / cm^3
# Si number density = 9.876543 Si / 1000 Ang^3
#
#
#
# Elastic Constant Matrix: (Units=GPa)
#
#
# Indices 1 2 3 4 5 6 
#
# 1 128.1593 41.0294 45.8562 0.0194 32.5815 -0.0005
# 2 41.0294 70.7815 43.4561 0.0066 20.0518 -0.0016
# 3 45.8562 43.4561 57.5411 -0.3171 29.8362 -0.0403
# 4 0.0194 0.0066 -0.3171 463.3855 -0.0959 62.9090
# 5 32.5815 20.0518 29.8362 -0.0959 42.3098 -0.0139
# 6 -0.0005 -0.0016 -0.0403 62.9090 -0.0139 36.0471
#
#
#
# Elastic Compliance Matrix: (Units=1/GPa)
#
#
# Indices 1 2 3 4 5 6 
#
# 1 0.011448 -0.002188 -0.005419 -0.000005 -0.003958 0.000002
# 2 -0.002188 0.026920 -0.020249 -0.000014 0.003206 0.000004
# 3 -0.005419 -0.020249 0.047057 0.000030 -0.019414 -0.000008
# 4 -0.000005 -0.000014 0.000030 0.002828 -0.000006 -0.004936
# 5 -0.003958 0.003206 -0.019414 -0.000006 0.038854 0.000003
# 6 0.000002 0.000004 -0.000008 -0.004936 0.000003 0.036355
#
#
# Mechanical properties :
#
#
# Convention : Reuss Voigt Hill
#
# Bulk Modulus (GPa) = 33.65605 57.46282 45.55943
# Shear Modulus (GPa) = 21.82659 116.75782 69.29221
#
# Velocity S-wave (km/s) = 3.32772 7.69656 5.92919
# Velocity P-wave (km/s) = 5.64272 10.39886 8.36590
#
# Compressibility (1/GPa) = 0.02971234
#
# Stress axis : x y z
#
# Youngs Moduli (GPa) = 87.34861 37.14711 21.25099
#
# Poissons Ratio (x) = 0.08128 0.11516
# Poissons Ratio (y) = 0.19112 0.43032
# Poissons Ratio (z) = 0.47334 0.75220
#
# Static dielectric constant tensor:
#      x y z
#    x 1.702410 0.000000 -0.023940 
#    y 0.000000 1.723130 -0.000010 
#    z -0.023940 -0.000010 1.696350 
# 
# From -- ./inp_files/61740.got.cif
#   From: 2010.05.17/outbox.ucp.g08.bks.cvg/sg12_31_cif.got.tgz:61740.got - 2010.06.11 11:47:21.
