data_PCOD9224461
_publ_section_title
;
Structure prediction by ZEFSAII (Michael W. Deem and Ramdas Pophale) SiO2 
 PCOD9224461
Probable space group: C 2/M
;
_chemical_formula_sum "Si O2"
_cell_formula_units_Z 32
_cell_length_a 24.000000
_cell_length_b 9.000000
_cell_length_c 30.000000
_cell_angle_alpha 90.000000
_cell_angle_beta 30.000000
_cell_angle_gamma 90.000000
_cell_volume 3240.000000
_symmetry_space_group_name_H-M "C 2/M"
_symmetry_group_IT_number 12
_symmetry_cell_setting 'monoclinic'
loop_
_space_group_symop_operation_xyz
x,y,z
-x,y,-z
-x,-y,-z
x,-y,z
1/2+x,1/2+y,z
1/2-x,1/2+y,-z
1/2-x,1/2-y,-z
1/2+x,1/2-y,z
loop_
_atom_site_type_symbol
_atom_site_label
_atom_site_fract_x
_atom_site_fract_y
_atom_site_fract_z
Si Si1 0.752515 0.822339 0.892971
Si Si2 0.935068 0.319810 0.905903
Si Si3 0.683679 0.172698 0.745844
Si Si4 0.613255 0.822762 0.446123
Si Si5 0.642584 0.324705 0.598494
Si Si6 0.017376 0.325870 0.609107
Si Si7 0.970017 0.677908 0.779308
Si Si8 0.290382 0.670781 0.767407
O O1 0.868459 0.737506 0.819978
O O2 0.727283 0.801451 0.857856
O O3 0.769041 0.000000 0.888599
O O4 0.659355 0.770345 0.993423
O O5 0.934782 0.500000 0.909835
O O6 0.926566 0.284367 0.859309
O O7 0.059442 0.264140 0.829709
O O8 0.777667 0.250043 0.650664
O O9 0.716171 0.176368 0.774996
O O10 0.679618 0.000000 0.733972
O O11 0.500000 0.769505 0.500000
O O12 0.591525 0.798203 0.513672
O O13 0.620598 0.000000 0.434212
O O14 0.661060 0.500000 0.592343
O O15 0.750000 0.250000 0.500000
O O16 0.551870 0.286258 0.623831
O O17 0.586224 0.252455 0.681930
O O18 0.030901 0.500000 0.612270
O O19 0.888910 0.287376 0.690013
O O20 0.982899 0.500000 0.767130
O O21 0.334799 0.500000 0.739436
#
# Coordination Sequence:
#
# PCOD9224461 Si02
#       8
#     8   8   8   8   8   8   8   8
#     4  10  20  38  62  87 116 155 202 253 303 355
#     4   9  21  39  59  86 120 156 201 252 302 354
#     4  10  21  37  57  86 120 158 201 249 299 353
#     4  10  21  37  56  82 115 155 195 237 291 351
#     4  12  26  43  62  89 123 157 196 241 297 356
#     4  11  22  38  60  85 118 157 198 242 295 353
#     4  11  22  39  62  89 120 158 202 248 298 354
#     4  10  20  34  58  89 119 155 202 248 297 353
#
# _framework density 9.8765429999999999
#
# number of rings (size 3 to 8) (size 9 to 14) (size 15 to 20)
#    0.000    1.625    2.500    2.250    1.750    1.750 
#    0.000    4.375    0.000    0.000    0.000    2.625 
#    0.000    0.000    0.000    0.000    0.000    0.000 
#
# Total GULP energy -178486.168755 kJ/mol
# GULP energy per Si atom -5577.692774 kJ/mol
# Density = 0.985406 g / cm^3
# Si number density = 9.876543 Si / 1000 Ang^3
#
#
#
# Elastic Constant Matrix: (Units=GPa)
#
#
# Indices 1 2 3 4 5 6 
#
# 1 45.1998 13.7137 30.2369 -0.0012 11.6140 -0.0057
# 2 13.7137 59.1002 41.4572 0.0027 11.9218 -0.0078
# 3 30.2369 41.4572 168.8168 0.0027 24.1755 -0.0019
# 4 -0.0012 0.0027 0.0027 28.6164 -0.0004 2.6699
# 5 11.6140 11.9218 24.1755 -0.0004 36.2451 0.0036
# 6 -0.0057 -0.0078 -0.0019 2.6699 0.0036 16.8743
#
#
#
# Elastic Compliance Matrix: (Units=1/GPa)
#
#
# Indices 1 2 3 4 5 6 
#
# 1 0.026559 -0.002754 -0.003308 0.000001 -0.005398 0.000008
# 2 -0.002754 0.021194 -0.004245 -0.000003 -0.003257 0.000009
# 3 -0.003308 -0.004245 0.007968 0.000000 -0.002858 -0.000002
# 4 0.000001 -0.000003 0.000000 0.035469 0.000002 -0.005612
# 5 -0.005398 -0.003257 -0.002858 0.000002 0.032298 -0.000011
# 6 0.000008 0.000009 -0.000002 -0.005612 -0.000011 0.060150
#
#
# Mechanical properties :
#
#
# Convention : Reuss Voigt Hill
#
# Bulk Modulus (GPa) = 28.48306 49.32582 38.90444
# Shear Modulus (GPa) = 23.15319 28.86111 26.00715
#
# Velocity S-wave (km/s) = 3.42735 3.82657 3.63245
# Velocity P-wave (km/s) = 5.48755 6.67450 6.10992
#
# Compressibility (1/GPa) = 0.03510859
#
# Stress axis : x y z
#
# Youngs Moduli (GPa) = 37.65160 47.18249 125.50419
#
# Poissons Ratio (x) = 0.12992 0.41514
# Poissons Ratio (y) = 0.10368 0.53278
# Poissons Ratio (z) = 0.12454 0.20030
#
# Static dielectric constant tensor:
#      x y z
#    x 1.780280 0.000000 -0.010450 
#    y 0.000000 1.677160 0.000000 
#    z -0.010450 0.000000 1.691460 
# 
# From -- ./inp_files/382388.got.cif
#   From: 2010.05.17/outbox.ucp.g08.bks.cvg/sg12_192_cif.got.tgz:382388.got - 2010.06.11 11:47:21.
