data_PCOD9224899
_publ_section_title
;
Structure prediction by ZEFSAII (Michael W. Deem and Ramdas Pophale) SiO2 
 PCOD9224899
Probable space group: C 2/M
;
_chemical_formula_sum "Si O2"
_cell_formula_units_Z 14
_cell_length_a 15.000000
_cell_length_b 18.000000
_cell_length_c 12.000000
_cell_angle_alpha 90.000000
_cell_angle_beta 30.000000
_cell_angle_gamma 90.000000
_cell_volume 1620.000000
_symmetry_space_group_name_H-M "C 2/M"
_symmetry_group_IT_number 12
_symmetry_cell_setting 'monoclinic'
loop_
_space_group_symop_operation_xyz
x,y,z
-x,y,-z
-x,-y,-z
x,-y,z
1/2+x,1/2+y,z
1/2-x,1/2+y,-z
1/2-x,1/2-y,-z
1/2+x,1/2-y,z
loop_
_atom_site_type_symbol
_atom_site_label
_atom_site_fract_x
_atom_site_fract_y
_atom_site_fract_z
Si Si1 0.878636 0.323634 0.384160
Si Si2 0.500000 0.203571 0.500000
Si Si3 0.263055 0.664792 0.839519
Si Si4 0.626035 0.412117 0.508098
O O1 0.750000 0.250000 0.500000
O O2 0.925693 0.331914 0.464984
O O3 0.753941 0.388629 0.470521
O O4 0.071057 0.326677 0.108626
O O5 0.661289 0.255333 0.280066
O O6 0.272709 0.617067 0.713948
O O7 0.431289 0.628396 0.725296
O O8 0.599353 0.500000 0.529686
#
# Coordination Sequence:
#
# PCOD9224899 Si02
#       4
#     8   4   8   8
#     4  12  22  37  60  91 121 158 198 243 302 355
#     4  10  22  36  56  90 118 152 194 246 294 356
#     4  10  20  37  61  88 121 147 199 258 292 341
#     4  10  22  39  62  91 119 157 201 248 300 347
#
# _framework density 8.6419750000000004
#
# number of rings (size 3 to 8) (size 9 to 14) (size 15 to 20)
#    0.000    1.714    5.714    3.429    0.000    3.429 
#    0.000    0.714    0.000    1.714    0.000    0.000 
#    0.000    0.000    0.000    0.000    0.000    0.000 
#
# Total GULP energy -77945.107867 kJ/mol
# GULP energy per Si atom -5567.507705 kJ/mol
# Density = 0.862231 g / cm^3
# Si number density = 8.641975 Si / 1000 Ang^3
#
#
#
# Elastic Constant Matrix: (Units=GPa)
#
#
# Indices 1 2 3 4 5 6 
#
# 1 167.8254 36.0269 45.4257 0.0027 -3.3163 -0.0043
# 2 36.0269 53.3935 33.4046 -0.0010 -2.7721 0.0001
# 3 45.4257 33.4046 142.1205 -0.0022 -20.1039 0.0010
# 4 0.0027 -0.0010 -0.0022 13.0006 -0.0009 2.1488
# 5 -3.3163 -2.7721 -20.1039 -0.0009 23.5595 0.0018
# 6 -0.0043 0.0001 0.0010 2.1488 0.0018 19.6700
#
#
#
# Elastic Compliance Matrix: (Units=1/GPa)
#
#
# Indices 1 2 3 4 5 6 
#
# 1 0.007194 -0.003974 -0.001465 -0.000002 -0.000705 0.000002
# 2 -0.003974 0.024242 -0.004667 0.000002 -0.001689 -0.000001
# 3 -0.001465 -0.004667 0.009661 0.000002 0.007488 -0.000002
# 4 -0.000002 0.000002 0.000002 0.078334 0.000006 -0.008557
# 5 -0.000705 -0.001689 0.007488 0.000006 0.048538 -0.000006
# 6 0.000002 -0.000001 -0.000002 -0.008557 -0.000006 0.051774
#
#
# Mechanical properties :
#
#
# Convention : Reuss Voigt Hill
#
# Bulk Modulus (GPa) = 47.88066 65.89488 56.88777
# Shear Modulus (GPa) = 20.24970 27.81150 24.03060
#
# Velocity S-wave (km/s) = 3.42656 4.01570 3.73277
# Velocity P-wave (km/s) = 6.58921 7.72715 7.18075
#
# Compressibility (1/GPa) = 0.02088526
#
# Stress axis : x y z
#
# Youngs Moduli (GPa) = 138.99743 41.24997 103.51179
#
# Poissons Ratio (x) = 0.16394 0.15166
# Poissons Ratio (y) = 0.55242 0.48306
# Poissons Ratio (z) = 0.20365 0.19250
#
# Static dielectric constant tensor:
#      x y z
#    x 1.648910 0.000000 0.002460 
#    y 0.000000 1.605860 0.000000 
#    z 0.002460 0.000000 1.571620 
# 
# From -- ./inp_files/63953.got.cif
#   From: 2010.05.17/outbox.ucp.g08.bks.cvg/sg12_32_cif.got.tgz:63953.got - 2010.06.11 11:47:21.
