data_PCOD9224185
_publ_section_title
;
Structure prediction by ZEFSAII (Michael W. Deem and Ramdas Pophale) SiO2 
 PCOD9224185
Probable space group: C 2/M
;
_chemical_formula_sum "Si O2"
_cell_formula_units_Z 28
_cell_length_a 30.000000
_cell_length_b 9.000000
_cell_length_c 18.000000
_cell_angle_alpha 90.000000
_cell_angle_beta 40.000000
_cell_angle_gamma 90.000000
_cell_volume 3123.947783
_symmetry_space_group_name_H-M "C 2/M"
_symmetry_group_IT_number 12
_symmetry_cell_setting 'monoclinic'
loop_
_space_group_symop_operation_xyz
x,y,z
-x,y,-z
-x,-y,-z
x,-y,z
1/2+x,1/2+y,z
1/2-x,1/2+y,-z
1/2-x,1/2-y,-z
1/2+x,1/2-y,z
loop_
_atom_site_type_symbol
_atom_site_label
_atom_site_fract_x
_atom_site_fract_y
_atom_site_fract_z
Si Si1 0.383539 0.671530 0.748840
Si Si2 0.535078 0.177605 0.725855
Si Si3 0.102863 0.826925 0.089466
Si Si4 0.749768 0.674658 0.854212
Si Si5 0.033664 0.178576 0.563513
Si Si6 0.329657 0.174292 0.610306
Si Si7 0.686758 0.822309 0.538886
O O1 0.375886 0.500000 0.735690
O O2 0.390728 0.676183 0.829195
O O3 0.315198 0.757586 0.812961
O O4 0.459480 0.725981 0.625313
O O5 0.465047 0.240175 0.850098
O O6 0.536653 0.251356 0.642187
O O7 0.609435 0.216363 0.666502
O O8 0.531651 0.000000 0.722727
O O9 0.095918 0.000000 0.076677
O O10 0.175063 0.761671 0.968666
O O11 0.747582 0.500000 0.876162
O O12 0.765943 0.689940 0.746804
O O13 0.105961 0.234617 0.438835
O O14 0.032547 0.000000 0.568141
O O15 0.312293 0.221503 0.549215
O O16 0.349816 0.000000 0.582404
O O17 0.750000 0.750000 0.500000
O O18 0.693420 0.000000 0.533735
#
# Coordination Sequence:
#
# PCOD9224185 Si02
#       7
#     8   8   8   8   8   8   8
#     4   9  18  30  44  66  94 122 162 208 240 266
#     4   9  17  30  49  73  97 121 151 191 233 274
#     4   9  18  32  48  68  94 127 165 200 230 267
#     4  10  20  32  47  66  93 129 165 198 233 273
#     4   9  17  30  47  67  93 125 159 197 236 278
#     4   9  19  34  48  68  97 125 154 192 236 282
#     4   9  18  32  52  76  97 115 143 185 233 283
#
# _framework density 8.9630179999999999
#
# number of rings (size 3 to 8) (size 9 to 14) (size 15 to 20)
#    0.000    2.857    0.000    3.000    0.000    7.429 
#    0.000    2.857    0.000    0.857    0.000    6.000 
#    0.000    0.000    0.000    0.000    0.000    0.000 
#
# Total GULP energy -155900.970627 kJ/mol
# GULP energy per Si atom -5567.891808 kJ/mol
# Density = 0.894262 g / cm^3
# Si number density = 8.963018 Si / 1000 Ang^3
#
#
#
# Elastic Constant Matrix: (Units=GPa)
#
#
# Indices 1 2 3 4 5 6 
#
# 1 117.8100 41.3005 52.8065 -0.0031 -39.5035 0.0006
# 2 41.3005 29.7898 36.9846 -0.0093 -15.7220 -0.0030
# 3 52.8065 36.9846 93.1087 -0.0100 -40.1911 -0.0007
# 4 -0.0031 -0.0093 -0.0100 19.8650 0.0060 -11.2614
# 5 -39.5035 -15.7220 -40.1911 0.0060 26.5702 -0.0006
# 6 0.0006 -0.0030 -0.0007 -11.2614 -0.0006 24.5640
#
#
#
# Elastic Compliance Matrix: (Units=1/GPa)
#
#
# Indices 1 2 3 4 5 6 
#
# 1 0.034464 -0.047416 0.026783 -0.000034 0.063696 -0.000020
# 2 -0.047416 0.131495 -0.063921 0.000076 -0.089378 0.000048
# 3 0.026783 -0.063921 0.062822 -0.000035 0.097024 -0.000020
# 4 -0.000034 0.000076 -0.000035 0.068017 -0.000072 0.031182
# 5 0.063696 -0.089378 0.097024 -0.000072 0.226212 -0.000037
# 6 -0.000020 0.000048 -0.000020 0.031182 -0.000037 0.055006
#
#
# Mechanical properties :
#
#
# Convention : Reuss Voigt Hill
#
# Bulk Modulus (GPa) = 16.75804 55.87685 36.31744
# Shear Modulus (GPa) = 6.51880 21.50763 14.01321
#
# Velocity S-wave (km/s) = 1.90903 3.46757 2.79897
# Velocity P-wave (km/s) = 3.77199 6.87535 5.54520
#
# Compressibility (1/GPa) = 0.05967285
#
# Stress axis : x y z
#
# Youngs Moduli (GPa) = 29.01594 7.60487 15.91809
#
# Poissons Ratio (x) = 0.36059 -0.42634
# Poissons Ratio (y) = 1.37582 1.01750
# Poissons Ratio (z) = -0.77714 0.48611
#
# Static dielectric constant tensor:
#      x y z
#    x 1.600070 0.000000 0.004350 
#    y 0.000000 1.646580 0.000000 
#    z 0.004350 0.000000 1.701030 
# 
# From -- ./inp_files/287318.got.cif
#   From: 2010.05.17/outbox.ucp.g08.bks.cvg/sg12_144_cif.got.tgz:287318.got - 2010.06.11 11:47:21.
