data_PCOD9224565
_publ_section_title
;
Structure prediction by ZEFSAII (Michael W. Deem and Ramdas Pophale) SiO2 
 PCOD9224565
Probable space group: C 2/M
;
_chemical_formula_sum "Si O2"
_cell_formula_units_Z 32
_cell_length_a 15.000000
_cell_length_b 9.000000
_cell_length_c 30.000000
_cell_angle_alpha 90.000000
_cell_angle_beta 50.000000
_cell_angle_gamma 90.000000
_cell_volume 3102.479995
_symmetry_space_group_name_H-M "C 2/M"
_symmetry_group_IT_number 12
_symmetry_cell_setting 'monoclinic'
loop_
_space_group_symop_operation_xyz
x,y,z
-x,y,-z
-x,-y,-z
x,-y,z
1/2+x,1/2+y,z
1/2-x,1/2+y,-z
1/2-x,1/2-y,-z
1/2+x,1/2-y,z
loop_
_atom_site_type_symbol
_atom_site_label
_atom_site_fract_x
_atom_site_fract_y
_atom_site_fract_z
Si Si1 0.414456 0.166826 0.423369
Si Si2 0.150688 0.832306 0.473247
Si Si3 0.059556 0.177682 0.854918
Si Si4 0.741675 0.821507 0.357263
Si Si5 0.606708 0.172658 0.931394
Si Si6 0.199445 0.178983 0.061030
Si Si7 0.992343 0.825583 0.311063
Si Si8 0.786857 0.678177 0.734826
O O1 0.278407 0.157236 0.454591
O O2 0.422469 0.226948 0.470709
O O3 0.460553 0.281355 0.372035
O O4 0.464259 0.000000 0.402393
O O5 0.173663 0.763430 0.417701
O O6 0.106898 0.000000 0.486474
O O7 0.089431 0.222173 0.895405
O O8 0.161359 0.234432 0.790654
O O9 0.930219 0.233690 0.887905
O O10 0.056495 0.000000 0.851014
O O11 0.698996 0.783370 0.321747
O O12 0.879062 0.783253 0.318773
O O13 0.732914 0.000000 0.366996
O O14 0.719716 0.211813 0.923222
O O15 0.612844 0.000000 0.914753
O O16 0.500000 0.184542 0.000000
O O17 0.199422 0.000000 0.055016
O O18 0.250000 0.250000 0.000000
O O19 0.112890 0.741331 0.265699
O O20 0.010024 0.000000 0.300560
O O21 0.788811 0.500000 0.736931
#
# Coordination Sequence:
#
# PCOD9224565 Si02
#       8
#     8   8   8   8   8   8   8   8
#     4   9  16  28  49  77 110 147 182 223 280 340
#     4   9  16  27  48  79 111 141 180 231 280 331
#     4  10  22  38  57  82 111 148 188 228 270 324
#     4   9  19  36  57  78 106 146 186 226 278 340
#     4  10  20  35  57  86 117 147 179 221 272 323
#     4  10  20  35  57  84 115 148 181 219 268 324
#     4  10  20  35  57  83 108 142 187 233 282 331
#     4  10  22  40  57  77 109 146 188 230 274 328
#
# _framework density 10.314329000000001
#
# number of rings (size 3 to 8) (size 9 to 14) (size 15 to 20)
#    0.000    2.375    1.250    1.125    0.000    6.250 
#    0.000    3.125    0.000    3.750    0.000    0.000 
#    0.000    0.000    0.000    0.000    0.000    0.000 
#
# Total GULP energy -178553.351224 kJ/mol
# GULP energy per Si atom -5579.792226 kJ/mol
# Density = 1.029085 g / cm^3
# Si number density = 10.314329 Si / 1000 Ang^3
#
#
#
# Elastic Constant Matrix: (Units=GPa)
#
#
# Indices 1 2 3 4 5 6 
#
# 1 114.2581 12.0892 11.2245 0.0000 -25.8131 0.0000
# 2 12.0892 1.5978 -14.6703 0.0000 0.7120 -0.0001
# 3 11.2245 -14.6703 -11.1930 0.0000 -3.9673 0.0000
# 4 0.0000 0.0000 0.0000 13.5360 0.0000 -11.9830
# 5 -25.8131 0.7120 -3.9673 0.0000 15.8145 0.0000
# 6 0.0000 -0.0001 0.0000 -11.9830 0.0000 -5.5423
#
#
#
# Elastic Compliance Matrix: (Units=1/GPa)
#
#
# Indices 1 2 3 4 5 6 
#
# 1 0.014105 -0.005707 0.012281 0.000000 0.026360 0.000000
# 2 -0.005707 0.055511 -0.068226 0.000000 -0.028930 0.000000
# 3 0.012281 -0.068226 0.003858 0.000000 0.024085 0.000000
# 4 0.000000 0.000000 0.000000 0.025352 0.000000 -0.054814
# 5 0.026360 -0.028930 0.024085 0.000000 0.113604 0.000000
# 6 0.000000 0.000000 0.000000 -0.054814 0.000000 -0.061918
#
#
# Mechanical properties :
#
#
# Convention : Reuss Voigt Hill
#
# Bulk Modulus (GPa) = -20.06860 13.54996 -3.25932
# Shear Modulus (GPa) = 19.43967 11.16294 15.30130
#
# Velocity S-wave (km/s) = 3.07312 2.32876 2.72646
# Velocity P-wave (km/s) = 1.68597 3.71667 2.88583
#
# Compressibility (1/GPa) = -0.04982909
#
# Stress axis : x y z
#
# Youngs Moduli (GPa) = 70.89809 18.01439 259.17528
#
# Poissons Ratio (x) = 0.10281 -3.18291
# Poissons Ratio (y) = 0.40461 17.68243
# Poissons Ratio (z) = -0.87069 1.22905
#
# Static dielectric constant tensor:
#      x y z
#    x 1.692140 0.000000 -0.043890 
#    y 0.000000 1.706780 0.000000 
#    z -0.043890 0.000000 1.729480 
# 
# From -- ./inp_files/375474.got.cif
#   From: 2010.05.17/outbox.ucp.g08.bks.cvg/sg12_188_cif.got.tgz:375474.got - 2010.06.11 11:47:21.
