data_PCOD9224666
_publ_section_title
;
Structure prediction by ZEFSAII (Michael W. Deem and Ramdas Pophale) SiO2 
 PCOD9224666
Probable space group: C 2/M
;
_chemical_formula_sum "Si O2"
_cell_formula_units_Z 28
_cell_length_a 15.000000
_cell_length_b 9.000000
_cell_length_c 30.000000
_cell_angle_alpha 90.000000
_cell_angle_beta 130.000000
_cell_angle_gamma 90.000000
_cell_volume 3102.479995
_symmetry_space_group_name_H-M "C 2/M"
_symmetry_group_IT_number 12
_symmetry_cell_setting 'monoclinic'
loop_
_space_group_symop_operation_xyz
x,y,z
-x,y,-z
-x,-y,-z
x,-y,z
1/2+x,1/2+y,z
1/2-x,1/2+y,-z
1/2-x,1/2-y,-z
1/2+x,1/2-y,z
loop_
_atom_site_type_symbol
_atom_site_label
_atom_site_fract_x
_atom_site_fract_y
_atom_site_fract_z
Si Si1 0.783601 0.828934 0.226235
Si Si2 0.099600 0.827113 0.068063
Si Si3 0.951710 0.178492 0.848738
Si Si4 0.836750 0.821379 0.144139
Si Si5 0.464440 0.328917 0.363061
Si Si6 0.298639 0.175546 0.559924
Si Si7 0.608986 0.680077 0.564512
O O1 0.673856 0.734715 0.206864
O O2 0.836631 0.775569 0.196206
O O3 0.880415 0.827150 0.294606
O O4 0.744632 0.000000 0.206984
O O5 0.049104 0.775091 0.099511
O O6 0.211329 0.735715 0.088616
O O7 0.134765 0.000000 0.084814
O O8 0.000000 0.818370 0.000000
O O9 0.057434 0.234845 0.852275
O O10 0.956249 0.000000 0.849086
O O11 0.840730 0.000000 0.144053
O O12 0.505997 0.500000 0.383291
O O13 0.570811 0.221390 0.390743
O O14 0.401334 0.279312 0.387806
O O15 0.250000 0.250000 0.500000
O O16 0.223987 0.231871 0.577407
O O17 0.284854 0.000000 0.551159
O O18 0.500000 0.731452 0.500000
O O19 0.607891 0.500000 0.562763
#
# Coordination Sequence:
#
# PCOD9224666 Si02
#       7
#     8   8   8   8   8   8   8
#     4   9  19  34  52  73  98 128 165 206 245 292
#     4   9  18  32  49  73 103 134 170 208 244 288
#     4   9  18  33  52  71  99 135 165 203 251 293
#     4   9  18  33  51  73 101 134 167 203 252 296
#     4  10  20  36  54  73  99 130 162 201 247 293
#     4  11  21  34  53  75  98 127 161 197 241 294
#     4   9  17  32  52  70  94 128 157 186 236 296
#
# _framework density 9.0250380000000003
#
# number of rings (size 3 to 8) (size 9 to 14) (size 15 to 20)
#    0.000    2.571    1.429    0.429    0.000    3.143 
#    0.000    2.143    0.000    0.000    0.000    0.000 
#    0.000    0.000    0.000    0.000    0.000    0.000 
#
# Total GULP energy -155883.480561 kJ/mol
# GULP energy per Si atom -5567.267163 kJ/mol
# Density = 0.900450 g / cm^3
# Si number density = 9.025038 Si / 1000 Ang^3
#
#
#
# Elastic Constant Matrix: (Units=GPa)
#
#
# Indices 1 2 3 4 5 6 
#
# 1 155.6236 31.4036 27.9130 0.0000 15.4946 0.0000
# 2 31.4036 2.9890 16.3283 0.0000 3.3563 0.0000
# 3 27.9130 16.3283 36.9344 0.0000 9.3364 0.0000
# 4 0.0000 0.0000 0.0000 27.4609 0.0000 5.8157
# 5 15.4946 3.3563 9.3364 0.0000 -0.4793 0.0000
# 6 0.0000 0.0000 0.0000 5.8157 0.0000 21.8968
#
#
#
# Elastic Compliance Matrix: (Units=1/GPa)
#
#
# Indices 1 2 3 4 5 6 
#
# 1 0.004356 0.018172 -0.013350 0.000000 0.008010 0.000000
# 2 0.018172 -0.172936 0.037195 0.000000 0.100976 0.000000
# 3 -0.013350 0.037195 0.010800 0.000000 0.039247 0.000000
# 4 0.000000 0.000000 0.000000 0.038586 0.000000 -0.010248
# 5 0.008010 0.100976 0.039247 0.000000 -0.355803 0.000000
# 6 0.000000 0.000000 0.000000 -0.010248 0.000000 0.048391
#
#
# Mechanical properties :
#
#
# Convention : Reuss Voigt Hill
#
# Bulk Modulus (GPa) = -13.55983 38.53742 12.48879
# Shear Modulus (GPa) = -9.34192 17.76916 4.21362
#
# Velocity S-wave (km/s) = -2.27745 3.14098 1.52953
# Velocity P-wave (km/s) = 3.80057 5.87801 3.17069
#
# Compressibility (1/GPa) = -0.07374724
#
# Stress axis : x y z
#
# Youngs Moduli (GPa) = 229.57883 -5.78248 92.59220
#
# Poissons Ratio (x) = 0.10508 1.23614
# Poissons Ratio (y) = -4.17196 -3.44394
# Poissons Ratio (z) = 3.06496 0.21508
#
# Static dielectric constant tensor:
#      x y z
#    x 1.623170 0.000000 -0.008780 
#    y 0.000000 1.612480 0.000000 
#    z -0.008780 0.000000 1.609890 
# 
# From -- ./inp_files/337876.got.cif
#   From: 2010.05.17/outbox.ucp.g08.bks.cvg/sg12_169_cif.got.tgz:337876.got - 2010.06.11 11:47:21.
