data_PCOD9224594
_publ_section_title
;
Structure prediction by ZEFSAII (Michael W. Deem and Ramdas Pophale) SiO2 
 PCOD9224594
Probable space group: C 2/M
;
_chemical_formula_sum "Si O2"
_cell_formula_units_Z 28
_cell_length_a 9.000000
_cell_length_b 30.000000
_cell_length_c 21.000000
_cell_angle_alpha 90.000000
_cell_angle_beta 150.000000
_cell_angle_gamma 90.000000
_cell_volume 2835.000000
_symmetry_space_group_name_H-M "C 2/M"
_symmetry_group_IT_number 12
_symmetry_cell_setting 'monoclinic'
loop_
_space_group_symop_operation_xyz
x,y,z
-x,y,-z
-x,-y,-z
x,-y,z
1/2+x,1/2+y,z
1/2-x,1/2+y,-z
1/2-x,1/2-y,-z
1/2+x,1/2-y,z
loop_
_atom_site_type_symbol
_atom_site_label
_atom_site_fract_x
_atom_site_fract_y
_atom_site_fract_z
Si Si1 0.287624 0.592305 0.861297
Si Si2 0.353453 0.226298 0.641079
Si Si3 0.271045 0.853747 0.278841
Si Si4 0.862740 0.681258 0.135668
Si Si5 0.005815 0.500000 0.290908
Si Si6 0.134791 0.000000 0.453896
Si Si7 0.419137 0.675061 0.272977
Si Si8 0.239714 0.599043 0.533335
O O1 0.401131 0.619834 0.841325
O O2 0.085804 0.631959 0.815336
O O3 0.155148 0.545477 0.789719
O O4 0.500000 0.582671 0.000000
O O5 0.559821 0.191877 0.678003
O O6 0.474680 0.216155 0.757348
O O7 0.423247 0.277878 0.652492
O O8 0.000000 0.218016 0.500000
O O9 0.544992 0.886582 0.399929
O O10 0.049308 0.841947 0.254003
O O11 0.062652 0.681958 0.146107
O O12 0.500000 0.687664 0.000000
O O13 0.326474 0.500000 0.376904
O O14 0.080794 0.500000 0.393543
O O15 0.144572 0.048357 0.424175
O O16 0.524454 0.637431 0.362520
O O17 0.000000 0.601790 0.500000
#
# Coordination Sequence:
#
# PCOD9224594 Si02
#       8
#     8   8   8   8   4   4   8   8
#     4  10  21  41  61  85 119 160 207 256 305 360
#     4  11  22  38  63  93 127 166 210 259 308 364
#     4  10  21  37  60  92 124 161 208 257 307 366
#     4  10  23  41  60  87 126 167 208 255 312 370
#     4  11  21  34  62  87 116 157 206 249 304 371
#     4  11  21  34  56  91 123 158 197 248 311 372
#     4  11  22  38  62  92 127 165 208 255 310 372
#     4  10  20  35  57  89 128 161 195 249 315 370
#
# _framework density 9.8765429999999999
#
# number of rings (size 3 to 8) (size 9 to 14) (size 15 to 20)
#    0.000    1.571    1.429    4.286    0.000    3.429 
#    0.000    7.857    0.000    2.571    0.000    7.000 
#    0.000    0.000    0.000    0.000    0.000    0.000 
#
# Total GULP energy -156020.920525 kJ/mol
# GULP energy per Si atom -5572.175733 kJ/mol
# Density = 0.985406 g / cm^3
# Si number density = 9.876543 Si / 1000 Ang^3
#
#
#
# Elastic Constant Matrix: (Units=GPa)
#
#
# Indices 1 2 3 4 5 6 
#
# 1 87.7163 15.4442 56.6791 0.0004 18.2002 -0.0004
# 2 15.4442 141.7290 53.0251 -0.0016 0.8762 -0.0029
# 3 56.6791 53.0251 107.3822 -0.0035 4.6350 -0.0114
# 4 0.0004 -0.0016 -0.0035 31.5480 -0.0007 -4.8704
# 5 18.2002 0.8762 4.6350 -0.0007 31.7640 -0.0004
# 6 -0.0004 -0.0029 -0.0114 -4.8704 -0.0004 13.5676
#
#
#
# Elastic Compliance Matrix: (Units=1/GPa)
#
#
# Indices 1 2 3 4 5 6 
#
# 1 0.020524 0.002104 -0.011434 -0.000003 -0.010150 -0.000010
# 2 0.002104 0.008875 -0.005465 -0.000001 -0.000653 -0.000003
# 3 -0.011434 -0.005465 0.017870 0.000004 0.004095 0.000015
# 4 -0.000003 -0.000001 0.000004 0.033558 0.000002 0.012046
# 5 -0.010150 -0.000653 0.004095 0.000002 0.036718 0.000005
# 6 -0.000010 -0.000003 0.000015 0.012046 0.000005 0.078029
#
#
# Mechanical properties :
#
#
# Convention : Reuss Voigt Hill
#
# Bulk Modulus (GPa) = 56.56440 65.23602 60.90021
# Shear Modulus (GPa) = 21.63976 29.48787 25.56381
#
# Velocity S-wave (km/s) = 3.31344 3.86790 3.60136
# Velocity P-wave (km/s) = 6.58304 7.28320 6.94195
#
# Compressibility (1/GPa) = 0.01767896
#
# Stress axis : x y z
#
# Youngs Moduli (GPa) = 48.72313 112.67541 55.96124
#
# Poissons Ratio (x) = -0.23708 0.63986
# Poissons Ratio (y) = -0.10252 0.30582
# Poissons Ratio (z) = 0.55710 0.61576
#
# Static dielectric constant tensor:
#      x y z
#    x 1.770800 0.000000 -0.048210 
#    y 0.000000 1.705820 0.000000 
#    z -0.048210 0.000000 1.740210 
# 
# From -- ./inp_files/303101.got.cif
#   From: 2010.05.17/outbox.ucp.g08.bks.cvg/sg12_152_cif.got.tgz:303101.got - 2010.06.11 11:47:21.
