data_PCOD9224307
_publ_section_title
;
Structure prediction by ZEFSAII (Michael W. Deem and Ramdas Pophale) SiO2 
 PCOD9224307
Probable space group: C 2/M
;
_chemical_formula_sum "Si O2"
_cell_formula_units_Z 32
_cell_length_a 24.000000
_cell_length_b 9.000000
_cell_length_c 30.000000
_cell_angle_alpha 90.000000
_cell_angle_beta 30.000000
_cell_angle_gamma 90.000000
_cell_volume 3240.000000
_symmetry_space_group_name_H-M "C 2/M"
_symmetry_group_IT_number 12
_symmetry_cell_setting 'monoclinic'
loop_
_space_group_symop_operation_xyz
x,y,z
-x,y,-z
-x,-y,-z
x,-y,z
1/2+x,1/2+y,z
1/2-x,1/2+y,-z
1/2-x,1/2-y,-z
1/2+x,1/2-y,z
loop_
_atom_site_type_symbol
_atom_site_label
_atom_site_fract_x
_atom_site_fract_y
_atom_site_fract_z
Si Si1 0.262414 0.822663 0.753589
Si Si2 0.406664 0.818699 0.334229
Si Si3 0.468299 0.179257 0.663864
Si Si4 0.667186 0.674588 0.477391
Si Si5 0.408446 0.178400 0.858270
Si Si6 0.326145 0.321531 0.006206
Si Si7 0.131451 0.830764 0.401247
Si Si8 0.483520 0.680826 0.062193
O O1 0.345251 0.768649 0.735307
O O2 0.321914 0.782323 0.666559
O O3 0.137146 0.763279 0.839372
O O4 0.254684 0.000000 0.764216
O O5 0.480116 0.770142 0.325195
O O6 0.279101 0.768902 0.423669
O O7 0.474846 0.773028 0.243217
O O8 0.403218 0.000000 0.336573
O O9 0.557915 0.235386 0.565927
O O10 0.466592 0.000000 0.665614
O O11 0.648801 0.500000 0.500676
O O12 0.687462 0.683902 0.410585
O O13 0.304252 0.212687 0.897763
O O14 0.411735 0.000000 0.862127
O O15 0.373374 0.256211 0.927779
O O16 0.332247 0.500000 0.999832
O O17 0.409743 0.264566 0.985297
O O18 0.000000 0.811842 0.500000
O O19 0.148514 0.000000 0.372986
O O20 0.483224 0.500000 0.066353
O O21 0.500000 0.718177 0.000000
#
# Coordination Sequence:
#
# PCOD9224307 Si02
#       8
#     8   8   8   8   8   8   8   8
#     4  10  21  34  53  80 105 134 173 216 259 303
#     4   9  19  33  52  76 100 130 171 211 250 300
#     4  10  20  34  52  75 103 132 168 213 255 297
#     4  10  20  35  53  73 101 136 172 206 250 306
#     4   9  18  33  54  76  99 133 169 206 252 300
#     4   9  18  33  53  76 103 131 165 208 252 299
#     4  10  20  35  54  75 102 139 177 211 253 309
#     4   9  19  34  54  80 108 137 170 211 260 311
#
# _framework density 9.8765429999999999
#
# number of rings (size 3 to 8) (size 9 to 14) (size 15 to 20)
#    0.000    2.500    1.250    0.375    3.500    0.750 
#    0.000    1.250    0.000    1.500    0.000    0.000 
#    0.000    0.000    0.000    0.000    0.000    0.000 
#
# Total GULP energy -178279.682239 kJ/mol
# GULP energy per Si atom -5571.240070 kJ/mol
# Density = 0.985406 g / cm^3
# Si number density = 9.876543 Si / 1000 Ang^3
#
#
#
# Elastic Constant Matrix: (Units=GPa)
#
#
# Indices 1 2 3 4 5 6 
#
# 1 74.9905 3.0764 10.4751 -0.0046 -14.6837 0.0017
# 2 3.0764 -20.6738 -5.4261 -0.0050 -10.9643 0.0021
# 3 10.4751 -5.4261 30.5749 0.0057 -15.8436 0.0007
# 4 -0.0046 -0.0050 0.0057 34.3460 0.0021 25.5515
# 5 -14.6837 -10.9643 -15.8436 0.0021 11.4268 0.0013
# 6 0.0017 0.0021 0.0007 25.5515 0.0013 42.0584
#
#
#
# Elastic Compliance Matrix: (Units=1/GPa)
#
#
# Indices 1 2 3 4 5 6 
#
# 1 0.016749 -0.007208 0.001958 0.000001 0.017322 -0.000001
# 2 -0.007208 -0.009300 -0.030566 0.000007 -0.060566 -0.000001
# 3 0.001958 -0.030566 0.045176 -0.000025 0.035826 0.000015
# 4 0.000001 0.000007 -0.000025 0.053127 -0.000032 -0.032276
# 5 0.017322 -0.060566 0.035826 -0.000032 0.101332 0.000018
# 6 -0.000001 -0.000001 0.000015 -0.032276 0.000018 0.043385
#
#
# Mechanical properties :
#
#
# Convention : Reuss Voigt Hill
#
# Bulk Modulus (GPa) = -52.61600 11.23805 -20.68898
# Shear Modulus (GPa) = 15.83458 22.68398 19.25928
#
# Velocity S-wave (km/s) = 2.83437 3.39245 3.12589
# Velocity P-wave (km/s) = 3.99789 4.58765 1.59113
#
# Compressibility (1/GPa) = -0.01900562
#
# Stress axis : x y z
#
# Youngs Moduli (GPa) = 59.70553 -107.53098 22.13568
#
# Poissons Ratio (x) = -0.77510 -0.04335
# Poissons Ratio (y) = 0.43037 0.67659
# Poissons Ratio (z) = -0.11693 -3.28676
#
# Static dielectric constant tensor:
#      x y z
#    x 1.749750 0.000000 -0.013640 
#    y 0.000000 1.669640 0.000000 
#    z -0.013640 0.000000 1.666820 
# 
# From -- ./inp_files/382233.got.cif
#   From: 2010.05.17/outbox.ucp.g08.bks.cvg/sg12_192_cif.got.tgz:382233.got - 2010.06.11 11:47:21.
