data_PCOD9224110
_publ_section_title
;
Structure prediction by ZEFSAII (Michael W. Deem and Ramdas Pophale) SiO2 
 PCOD9224110
Probable space group: C 2/M
;
_chemical_formula_sum "Si O2"
_cell_formula_units_Z 24
_cell_length_a 15.000000
_cell_length_b 21.000000
_cell_length_c 24.000000
_cell_angle_alpha 90.000000
_cell_angle_beta 160.000000
_cell_angle_gamma 90.000000
_cell_volume 2585.672284
_symmetry_space_group_name_H-M "C 2/M"
_symmetry_group_IT_number 12
_symmetry_cell_setting 'monoclinic'
loop_
_space_group_symop_operation_xyz
x,y,z
-x,y,-z
-x,-y,-z
x,-y,z
1/2+x,1/2+y,z
1/2-x,1/2+y,-z
1/2-x,1/2-y,-z
1/2+x,1/2-y,z
loop_
_atom_site_type_symbol
_atom_site_label
_atom_site_fract_x
_atom_site_fract_y
_atom_site_fract_z
Si Si1 0.233576 0.187933 0.218597
Si Si2 0.376918 0.426962 0.216826
Si Si3 0.017911 0.363274 0.932581
Si Si4 0.481222 0.924889 0.554716
Si Si5 0.214394 0.269461 0.877183
Si Si6 0.749435 0.703212 0.680600
O O1 0.349243 0.122347 0.308546
O O2 0.316841 0.210104 0.205281
O O3 0.309494 0.242762 0.307655
O O4 0.919894 0.183878 0.028497
O O5 0.331930 0.500000 0.205401
O O6 0.680607 0.414316 0.394185
O O7 0.224263 0.384164 0.171403
O O8 0.244608 0.413514 0.079122
O O9 0.906091 0.350995 0.806046
O O10 0.142841 0.297601 0.028257
O O11 0.500000 0.910018 0.500000
O O12 0.543564 0.000000 0.598494
O O13 0.944841 0.267127 0.750546
O O14 0.500000 0.681023 0.500000
#
# Coordination Sequence:
#
# PCOD9224110 Si02
#       6
#     8   8   8   8   8   8
#     4  10  20  39  60  81 118 155 181 240 281 341
#     4  10  21  37  63  87 108 150 200 240 287 331
#     4  10  19  37  60  82 119 147 183 240 282 340
#     4  10  23  38  58  88 114 148 198 243 284 333
#     4  10  23  39  57  90 118 150 192 225 292 353
#     4  11  24  36  57  91 118 152 188 228 292 351
#
# _framework density 9.2819190000000003
#
# number of rings (size 3 to 8) (size 9 to 14) (size 15 to 20)
#    0.000    1.833    0.000    7.500    9.333    0.667 
#    0.000    1.667    0.000    4.000    0.000    0.000 
#    0.000    0.000    0.000    0.000    0.000    0.000 
#
# Total GULP energy -133824.394037 kJ/mol
# GULP energy per Si atom -5576.016418 kJ/mol
# Density = 0.926079 g / cm^3
# Si number density = 9.281919 Si / 1000 Ang^3
#
#
#
# Elastic Constant Matrix: (Units=GPa)
#
#
# Indices 1 2 3 4 5 6 
#
# 1 66.8604 32.8635 43.3768 -0.0344 -10.5578 0.0611
# 2 32.8635 56.3050 37.1630 -0.0508 6.0833 0.0159
# 3 43.3768 37.1630 70.7113 -0.0928 -7.0492 0.0945
# 4 -0.0344 -0.0508 -0.0928 36.2499 0.0039 -2.6578
# 5 -10.5578 6.0833 -7.0492 0.0039 26.0043 0.0485
# 6 0.0611 0.0159 0.0945 -2.6578 0.0485 12.2642
#
#
#
# Elastic Compliance Matrix: (Units=1/GPa)
#
#
# Indices 1 2 3 4 5 6 
#
# 1 0.029416 -0.011127 -0.011045 -0.000024 0.011552 -0.000098
# 2 -0.011127 0.034524 -0.012924 0.000020 -0.016098 0.000178
# 3 -0.011045 -0.012924 0.028330 0.000031 0.006219 -0.000164
# 4 -0.000024 0.000020 0.000031 0.028032 -0.000022 0.006075
# 5 0.011552 -0.016098 0.006219 -0.000022 0.048597 -0.000281
# 6 -0.000098 0.000178 -0.000164 0.006075 -0.000281 0.082857
#
#
# Mechanical properties :
#
#
# Convention : Reuss Voigt Hill
#
# Bulk Modulus (GPa) = 45.29385 46.74258 46.01822
# Shear Modulus (GPa) = 15.18343 20.26858 17.72600
#
# Velocity S-wave (km/s) = 2.86300 3.30787 3.09345
# Velocity P-wave (km/s) = 5.94819 6.31058 6.13206
#
# Compressibility (1/GPa) = 0.02207805
#
# Stress axis : x y z
#
# Youngs Moduli (GPa) = 33.99565 28.96517 35.29861
#
# Poissons Ratio (x) = 0.32230 0.38987
# Poissons Ratio (y) = 0.37827 0.45619
# Poissons Ratio (z) = 0.37548 0.37434
#
# Static dielectric constant tensor:
#      x y z
#    x 1.668880 -0.000010 0.025660 
#    y -0.000010 1.655580 -0.000030 
#    z 0.025660 -0.000030 1.672300 
# 
# From -- ./inp_files/341243.got.cif
#   From: 2010.05.17/outbox.ucp.g08.bks.cvg/sg12_171_cif.got.tgz:341243.got - 2010.06.11 11:47:21.
