data_PCOD9224415
_publ_section_title
;
Structure prediction by ZEFSAII (Michael W. Deem and Ramdas Pophale) SiO2 
 PCOD9224415
Probable space group: C 2/M
;
_chemical_formula_sum "Si O2"
_cell_formula_units_Z 32
_cell_length_a 30.000000
_cell_length_b 9.000000
_cell_length_c 24.000000
_cell_angle_alpha 90.000000
_cell_angle_beta 30.000000
_cell_angle_gamma 90.000000
_cell_volume 3240.000000
_symmetry_space_group_name_H-M "C 2/M"
_symmetry_group_IT_number 12
_symmetry_cell_setting 'monoclinic'
loop_
_space_group_symop_operation_xyz
x,y,z
-x,y,-z
-x,-y,-z
x,-y,z
1/2+x,1/2+y,z
1/2-x,1/2+y,-z
1/2-x,1/2-y,-z
1/2+x,1/2-y,z
loop_
_atom_site_type_symbol
_atom_site_label
_atom_site_fract_x
_atom_site_fract_y
_atom_site_fract_z
Si Si1 0.089398 0.176495 0.577231
Si Si2 0.652549 0.822352 0.615789
Si Si3 0.075682 0.821531 0.811311
Si Si4 0.873578 0.174312 0.015519
Si Si5 0.258951 0.173408 0.317939
Si Si6 0.080606 0.173944 0.314259
Si Si7 0.192822 0.673044 0.283141
Si Si8 0.761319 0.328059 0.046125
O O1 0.090133 0.273955 0.631858
O O2 0.187866 0.197122 0.444429
O O3 0.009772 0.215431 0.620566
O O4 0.079127 0.000000 0.601133
O O5 0.750000 0.750000 0.500000
O O6 0.609246 0.753747 0.717988
O O7 0.661214 0.000000 0.610803
O O8 0.149531 0.764820 0.775215
O O9 0.971121 0.781033 0.932976
O O10 0.081461 0.000000 0.801901
O O11 0.880458 0.000000 0.994443
O O12 0.788648 0.190722 0.148227
O O13 0.841400 0.260180 0.995664
O O14 0.203428 0.223826 0.324723
O O15 0.281212 0.000000 0.291892
O O16 0.111243 0.273109 0.333080
O O17 0.166848 0.186158 0.180562
O O18 0.072381 0.000000 0.339618
O O19 0.182834 0.500000 0.308396
O O20 0.779409 0.500000 0.018297
O O21 0.750000 0.250000 0.000000
#
# Coordination Sequence:
#
# PCOD9224415 Si02
#       8
#     8   8   8   8   8   8   8   8
#     4  10  22  40  61  86 118 157 199 241 290 350
#     4  12  24  39  60  87 121 158 196 241 295 348
#     4  11  23  40  62  87 118 155 198 245 294 351
#     4   9  21  40  60  83 114 155 196 239 295 353
#     4  11  23  39  61  87 117 154 198 244 295 354
#     4   9  20  39  60  83 114 154 196 239 292 349
#     4  10  21  40  63  86 117 153 195 247 297 348
#     4  10  20  34  55  83 115 151 193 241 291 348
#
# _framework density 9.8765429999999999
#
# number of rings (size 3 to 8) (size 9 to 14) (size 15 to 20)
#    0.000    1.750    1.250    2.625    1.750    4.000 
#    0.000    5.000    0.000    0.000    0.000    0.000 
#    0.000    0.000    0.000    0.000    0.000    0.000 
#
# Total GULP energy -178683.141150 kJ/mol
# GULP energy per Si atom -5583.848161 kJ/mol
# Density = 0.985406 g / cm^3
# Si number density = 9.876543 Si / 1000 Ang^3
#
#
#
# Elastic Constant Matrix: (Units=GPa)
#
#
# Indices 1 2 3 4 5 6 
#
# 1 90.6722 29.8490 5.0852 0.0079 -21.4397 -0.0014
# 2 29.8490 39.9251 18.9699 0.0086 2.8024 -0.0017
# 3 5.0852 18.9699 19.6878 0.0157 -24.0423 -0.0059
# 4 0.0079 0.0086 0.0157 23.9306 -0.0063 -5.7257
# 5 -21.4397 2.8024 -24.0423 -0.0063 32.9461 0.0015
# 6 -0.0014 -0.0017 -0.0059 -5.7257 0.0015 40.8897
#
#
#
# Elastic Compliance Matrix: (Units=1/GPa)
#
#
# Indices 1 2 3 4 5 6 
#
# 1 0.007430 0.006039 -0.022602 0.000007 -0.012173 -0.000001
# 2 0.006039 -0.001102 0.040565 -0.000019 0.033626 0.000002
# 3 -0.022602 0.040565 -0.042542 0.000007 -0.049204 -0.000002
# 4 0.000007 -0.000019 0.000007 0.043236 0.000019 0.006054
# 5 -0.012173 0.033626 -0.049204 0.000019 -0.016335 -0.000003
# 6 -0.000001 0.000002 -0.000002 0.006054 -0.000003 0.025304
#
#
# Mechanical properties :
#
#
# Convention : Reuss Voigt Hill
#
# Bulk Modulus (GPa) = 84.82467 28.67703 56.75085
# Shear Modulus (GPa) = -178.04725 25.97867 -76.03429
#
# Velocity S-wave (km/s) = -9.50432 3.63046 -6.21095
# Velocity P-wave (km/s) = 8.79813 5.66771 4.75837
#
# Compressibility (1/GPa) = 0.01178902
#
# Stress axis : x y z
#
# Youngs Moduli (GPa) = 134.58534 -907.37831 -23.50620
#
# Poissons Ratio (x) = 5.47936 -0.53130
# Poissons Ratio (y) = -0.81272 0.95353
# Poissons Ratio (z) = 3.04196 36.80801
#
# Static dielectric constant tensor:
#      x y z
#    x 1.707080 0.000000 0.032340 
#    y 0.000000 1.657510 0.000000 
#    z 0.032340 0.000000 1.706300 
# 
# From -- ./inp_files/249764.got.cif
#   From: 2010.05.17/outbox.ucp.g08.bks.cvg/sg12_125_cif.got.tgz:249764.got - 2010.06.11 11:47:21.
