data_PCOD9224549
_publ_section_title
;
Structure prediction by ZEFSAII (Michael W. Deem and Ramdas Pophale) SiO2 
 PCOD9224549
Probable space group: C 2/M
;
_chemical_formula_sum "Si O2"
_cell_formula_units_Z 32
_cell_length_a 30.000000
_cell_length_b 9.000000
_cell_length_c 15.000000
_cell_angle_alpha 90.000000
_cell_angle_beta 50.000000
_cell_angle_gamma 90.000000
_cell_volume 3102.479995
_symmetry_space_group_name_H-M "C 2/M"
_symmetry_group_IT_number 12
_symmetry_cell_setting 'monoclinic'
loop_
_space_group_symop_operation_xyz
x,y,z
-x,y,-z
-x,-y,-z
x,-y,z
1/2+x,1/2+y,z
1/2-x,1/2+y,-z
1/2-x,1/2-y,-z
1/2+x,1/2-y,z
loop_
_atom_site_type_symbol
_atom_site_label
_atom_site_fract_x
_atom_site_fract_y
_atom_site_fract_z
Si Si1 0.146091 0.674881 0.283670
Si Si2 0.242199 0.676958 0.913705
Si Si3 0.158124 0.321965 0.871575
Si Si4 0.582131 0.319718 0.715916
Si Si5 0.543907 0.326075 0.070788
Si Si6 0.564203 0.324831 0.257202
Si Si7 0.798296 0.678966 0.372768
Si Si8 0.945036 0.678054 0.439763
O O1 0.159647 0.500000 0.262276
O O2 0.203607 0.772150 0.216313
O O3 0.115979 0.729346 0.231381
O O4 0.101216 0.700234 0.422057
O O5 0.241125 0.500000 0.925293
O O6 0.186194 0.726208 0.929326
O O7 0.250000 0.750000 0.000000
O O8 0.153829 0.500000 0.876913
O O9 0.200848 0.283010 0.734152
O O10 0.093335 0.256541 0.951789
O O11 0.585494 0.500000 0.708610
O O12 0.523720 0.279780 0.846497
O O13 0.639614 0.244929 0.679056
O O14 0.575856 0.253814 0.624674
O O15 0.547151 0.500000 0.044214
O O16 0.557650 0.309201 0.159182
O O17 0.571000 0.500000 0.268205
O O18 0.506439 0.257946 0.377173
O O19 0.795930 0.500000 0.384879
O O20 0.750000 0.750000 0.500000
O O21 0.953552 0.500000 0.417987
#
# Coordination Sequence:
#
# PCOD9224549 Si02
#       8
#     8   8   8   8   8   8   8   8
#     4  11  23  36  54  83 118 159 208 261 313 373
#     4  11  24  42  62  88 122 163 207 258 315 377
#     4  10  24  43  64  92 125 163 208 257 317 377
#     4  10  22  41  64  93 126 163 206 257 313 373
#     4   9  20  38  62  91 123 159 204 253 308 371
#     4  10  20  35  56  86 122 164 207 254 313 372
#     4  11  25  45  67  95 127 165 210 260 316 376
#     4  10  21  36  56  86 122 161 206 258 312 372
#
# _framework density 10.314329000000001
#
# number of rings (size 3 to 8) (size 9 to 14) (size 15 to 20)
#    0.000    1.750    0.000    4.125    1.750   11.000 
#    0.000    2.500    0.000    0.000    0.000    0.000 
#    0.000    0.000    0.000    0.000    0.000    0.000 
#
# Total GULP energy -178763.568219 kJ/mol
# GULP energy per Si atom -5586.361507 kJ/mol
# Density = 1.029085 g / cm^3
# Si number density = 10.314329 Si / 1000 Ang^3
#
#
#
# Elastic Constant Matrix: (Units=GPa)
#
#
# Indices 1 2 3 4 5 6 
#
# 1 96.6582 17.1217 36.3368 0.0000 -4.5056 0.0000
# 2 17.1217 44.0211 36.6010 0.0000 5.5791 -0.0001
# 3 36.3368 36.6010 126.5801 0.0000 -9.2294 0.0000
# 4 0.0000 0.0000 0.0000 40.8501 0.0000 -3.8484
# 5 -4.5056 5.5791 -9.2294 0.0000 26.3740 0.0000
# 6 0.0000 -0.0001 0.0000 -3.8484 0.0000 22.7787
#
#
#
# Elastic Compliance Matrix: (Units=1/GPa)
#
#
# Indices 1 2 3 4 5 6 
#
# 1 0.011848 -0.002774 -0.002472 0.000000 0.001746 0.000000
# 2 -0.002774 0.033127 -0.009572 0.000000 -0.010831 0.000000
# 3 -0.002472 -0.009572 0.011795 0.000000 0.005730 0.000000
# 4 0.000000 0.000000 0.000000 0.024876 0.000000 0.004203
# 5 0.001746 -0.010831 0.005730 0.000000 0.042511 0.000000
# 6 0.000000 0.000000 0.000000 0.004203 0.000000 0.044611
#
#
# Mechanical properties :
#
#
# Convention : Reuss Voigt Hill
#
# Bulk Modulus (GPa) = 36.85445 49.70872 43.28158
# Shear Modulus (GPa) = 24.10251 29.81389 26.95820
#
# Velocity S-wave (km/s) = 3.42189 3.80579 3.61894
# Velocity P-wave (km/s) = 5.78938 6.59252 6.20396
#
# Compressibility (1/GPa) = 0.02713377
#
# Stress axis : x y z
#
# Youngs Moduli (GPa) = 84.40463 30.18711 84.78023
#
# Poissons Ratio (x) = 0.08375 0.20954
# Poissons Ratio (y) = 0.23417 0.81151
# Poissons Ratio (z) = 0.20861 0.28895
#
# Static dielectric constant tensor:
#      x y z
#    x 2.109760 0.000000 -0.041410 
#    y 0.000000 1.678850 0.000000 
#    z -0.041410 0.000000 1.744400 
# 
# From -- ./inp_files/249846.got.cif
#   From: 2010.05.17/outbox.ucp.g08.bks.cvg/sg12_125_cif.got.tgz:249846.got - 2010.06.11 11:47:21.
