data_PCOD9225944
_publ_section_title
;
Structure prediction by ZEFSAII (Michael W. Deem and Ramdas Pophale) SiO2 
 PCOD9225944
Probable space group: C 2/M
;
_chemical_formula_sum "Si O2"
_cell_formula_units_Z 24
_cell_length_a 24.000000
_cell_length_b 9.000000
_cell_length_c 12.000000
_cell_angle_alpha 90.000000
_cell_angle_beta 70.000000
_cell_angle_gamma 90.000000
_cell_volume 2435.683273
_symmetry_space_group_name_H-M "C 2/M"
_symmetry_group_IT_number 12
_symmetry_cell_setting 'monoclinic'
loop_
_space_group_symop_operation_xyz
x,y,z
-x,y,-z
-x,-y,-z
x,-y,z
1/2+x,1/2+y,z
1/2-x,1/2+y,-z
1/2-x,1/2-y,-z
1/2+x,1/2-y,z
loop_
_atom_site_type_symbol
_atom_site_label
_atom_site_fract_x
_atom_site_fract_y
_atom_site_fract_z
Si Si1 0.504350 0.168798 0.364055
Si Si2 0.111181 0.824633 0.617396
Si Si3 0.808918 0.672263 0.274458
Si Si4 0.375412 0.322950 0.785264
Si Si5 0.689019 0.822643 0.370711
Si Si6 0.808366 0.673156 0.009164
O O1 0.500000 0.163280 0.500000
O O2 0.456736 0.284203 0.352148
O O3 0.567397 0.233844 0.291089
O O4 0.495105 0.000000 0.328786
O O5 0.133430 0.746658 0.713880
O O6 0.145328 0.742215 0.493452
O O7 0.122340 0.000000 0.606793
O O8 0.802318 0.500000 0.314313
O O9 0.755000 0.772213 0.355429
O O10 0.809495 0.677025 0.141018
O O11 0.379933 0.500000 0.772390
O O12 0.325747 0.261352 0.734357
O O13 0.360076 0.269583 0.919217
O O14 0.683072 0.000000 0.364461
O O15 0.811144 0.500000 0.972131
O O16 0.750000 0.750000 0.000000
#
# Coordination Sequence:
#
# PCOD9225944 Si02
#       6
#     8   8   8   8   8   8
#     4  11  23  41  66  92 123 164 208 255 307 367
#     4  12  25  41  63  92 128 166 206 256 314 372
#     4  11  24  42  63  91 127 167 209 255 311 371
#     4  12  24  39  63  95 128 161 206 259 310 367
#     4  12  23  38  62  92 128 165 206 256 311 371
#     4  11  23  40  65  92 125 165 209 257 307 366
#
# _framework density 9.8534980000000001
#
# number of rings (size 3 to 8) (size 9 to 14) (size 15 to 20)
#    0.000    0.500    3.333    6.500    0.000    2.667 
#    0.000    0.833    0.000    5.000    0.000    0.000 
#    0.000    0.000    0.000    0.000    0.000    0.000 
#
# Total GULP energy -134129.499253 kJ/mol
# GULP energy per Si atom -5588.729136 kJ/mol
# Density = 0.983107 g / cm^3
# Si number density = 9.853498 Si / 1000 Ang^3
#
#
#
# Elastic Constant Matrix: (Units=GPa)
#
#
# Indices 1 2 3 4 5 6 
#
# 1 21.2419 -63.4719 8.2478 0.0000 -2.3559 0.0000
# 2 -63.4719 33.8769 15.6342 0.0000 -7.6414 0.0000
# 3 8.2478 15.6342 56.0092 0.0000 -11.3397 0.0000
# 4 0.0000 0.0000 0.0000 34.1533 0.0000 -5.2713
# 5 -2.3559 -7.6414 -11.3397 0.0000 25.5913 0.0000
# 6 0.0000 0.0000 0.0000 -5.2713 0.0000 31.5203
#
#
#
# Elastic Compliance Matrix: (Units=1/GPa)
#
#
# Indices 1 2 3 4 5 6 
#
# 1 -0.007600 -0.017480 0.005273 0.000000 -0.003582 0.000000
# 2 -0.017480 -0.005306 0.003745 0.000000 -0.001534 0.000000
# 3 0.005273 0.003745 0.017969 0.000000 0.009566 0.000000
# 4 0.000000 0.000000 0.000000 0.030056 0.000000 0.005026
# 5 -0.003582 -0.001534 0.009566 0.000000 0.042527 0.000000
# 6 0.000000 0.000000 0.000000 0.005026 0.000000 0.032566
#
#
# Mechanical properties :
#
#
# Convention : Reuss Voigt Hill
#
# Bulk Modulus (GPa) = -84.30585 3.54981 -40.37802
# Shear Modulus (GPa) = 40.59026 28.30084 34.44555
#
# Velocity S-wave (km/s) = 4.54330 3.79368 4.18531
# Velocity P-wave (km/s) = 3.91796 4.58198 1.67990
#
# Compressibility (1/GPa) = -0.01186157
#
# Stress axis : x y z
#
# Youngs Moduli (GPa) = -131.58696 -188.44966 55.65100
#
# Poissons Ratio (x) = -3.29413 -0.29345
# Poissons Ratio (y) = -2.30016 -0.20839
# Poissons Ratio (z) = 0.69387 0.70568
#
# Static dielectric constant tensor:
#      x y z
#    x 1.775900 0.000000 0.036620 
#    y 0.000000 1.640910 0.000000 
#    z 0.036620 0.000000 1.684940 
# 
# From -- ./inp_files/172876.got.cif
#   From: 2010.05.17/outbox.ucp.g08.bks.cvg/sg12_87_cif.got.tgz:172876.got - 2010.06.11 11:47:21.
