data_PCOD9225764
_publ_section_title
;
Structure prediction by ZEFSAII (Michael W. Deem and Ramdas Pophale) SiO2 
 PCOD9225764
Probable space group: C 2/M
;
_chemical_formula_sum "Si O2"
_cell_formula_units_Z 20
_cell_length_a 18.000000
_cell_length_b 15.000000
_cell_length_c 21.000000
_cell_angle_alpha 90.000000
_cell_angle_beta 20.000000
_cell_angle_gamma 90.000000
_cell_volume 1939.254213
_symmetry_space_group_name_H-M "C 2/M"
_symmetry_group_IT_number 12
_symmetry_cell_setting 'monoclinic'
loop_
_space_group_symop_operation_xyz
x,y,z
-x,y,-z
-x,-y,-z
x,-y,z
1/2+x,1/2+y,z
1/2-x,1/2+y,-z
1/2-x,1/2-y,-z
1/2+x,1/2-y,z
loop_
_atom_site_type_symbol
_atom_site_label
_atom_site_fract_x
_atom_site_fract_y
_atom_site_fract_z
Si Si1 0.183191 0.894376 0.531542
Si Si2 0.315983 0.893111 0.094861
Si Si3 0.288062 0.152372 0.593425
Si Si4 0.274837 0.601693 0.214707
Si Si5 0.469229 0.807238 0.841049
O O1 0.201874 0.876724 0.592859
O O2 0.400672 0.854438 0.322352
O O3 0.943342 0.862616 0.697623
O O4 0.189114 0.000000 0.516663
O O5 0.305355 0.000000 0.110389
O O6 0.500000 0.862853 0.000000
O O7 0.402869 0.868620 0.954216
O O8 0.550893 0.153286 0.379083
O O9 0.220867 0.098452 0.711447
O O10 0.162519 0.243244 0.708754
O O11 0.242627 0.500000 0.217242
O O12 0.500000 0.633659 0.000000
O O13 0.250000 0.750000 0.000000
#
# Coordination Sequence:
#
# PCOD9225764 Si02
#       5
#     8   8   8   8   8
#     4  11  24  44  70  95 131 177 225 276 334 408
#     4  10  24  46  71  98 133 178 228 278 336 406
#     4  11  23  40  65  97 134 172 219 274 328 397
#     4  10  23  42  65  97 135 174 218 266 329 406
#     4  12  26  43  66 101 135 171 222 283 340 394
#
# _framework density 10.313243
#
# number of rings (size 3 to 8) (size 9 to 14) (size 15 to 20)
#    0.000    1.200    2.000    3.600    2.800    4.800 
#    0.000    3.000    0.000    0.000    0.000    0.000 
#    0.000    0.000    0.000    0.000    0.000    0.000 
#
# Total GULP energy -111477.305142 kJ/mol
# GULP energy per Si atom -5573.865257 kJ/mol
# Density = 1.028977 g / cm^3
# Si number density = 10.313243 Si / 1000 Ang^3
#
#
#
# Elastic Constant Matrix: (Units=GPa)
#
#
# Indices 1 2 3 4 5 6 
#
# 1 136.4948 4.1308 60.1193 -0.0068 -6.5266 0.0049
# 2 4.1308 41.9160 22.6967 -0.0635 -1.3630 0.0707
# 3 60.1193 22.6967 210.1590 -0.0063 -5.4331 0.0869
# 4 -0.0068 -0.0635 -0.0063 53.6251 0.0428 -16.8857
# 5 -6.5266 -1.3630 -5.4331 0.0428 42.0467 -0.0978
# 6 0.0049 0.0707 0.0869 -16.8857 -0.0978 77.1125
#
#
#
# Elastic Compliance Matrix: (Units=1/GPa)
#
#
# Indices 1 2 3 4 5 6 
#
# 1 0.008435 0.000525 -0.002444 0.000002 0.001011 0.000003
# 2 0.000525 0.025381 -0.002877 0.000025 0.000532 -0.000014
# 3 -0.002444 -0.002877 0.005775 -0.000005 0.000274 -0.000004
# 4 0.000002 0.000025 -0.000005 0.020029 -0.000010 0.004386
# 5 0.001011 0.000532 0.000274 -0.000010 0.023993 0.000027
# 6 0.000003 -0.000014 -0.000004 0.004386 0.000027 0.013928
#
#
# Mechanical properties :
#
#
# Convention : Reuss Voigt Hill
#
# Bulk Modulus (GPa) = 33.33485 62.49594 47.91539
# Shear Modulus (GPa) = 42.68644 54.66507 48.67575
#
# Velocity S-wave (km/s) = 4.55411 5.15363 4.86312
# Velocity P-wave (km/s) = 6.62189 8.11035 7.40362
#
# Compressibility (1/GPa) = 0.02999864
#
# Stress axis : x y z
#
# Youngs Moduli (GPa) = 118.55399 39.39963 173.15609
#
# Poissons Ratio (x) = -0.02067 0.42311
# Poissons Ratio (y) = -0.06221 0.49824
# Poissons Ratio (z) = 0.28969 0.11337
#
# Static dielectric constant tensor:
#      x y z
#    x 1.764000 -0.000020 0.003570 
#    y -0.000020 1.821070 0.000060 
#    z 0.003570 0.000060 1.739890 
# 
# From -- ./inp_files/316617.got.cif
#   From: 2010.05.17/outbox.ucp.g08.bks.cvg/sg12_159_cif.got.tgz:316617.got - 2010.06.11 11:47:21.
