data_PCOD9225189
_publ_section_title
;
Structure prediction by ZEFSAII (Michael W. Deem and Ramdas Pophale) SiO2 
 PCOD9225189
Probable space group: C 2/M
;
_chemical_formula_sum "Si O2"
_cell_formula_units_Z 32
_cell_length_a 30.000000
_cell_length_b 9.000000
_cell_length_c 18.000000
_cell_angle_alpha 90.000000
_cell_angle_beta 40.000000
_cell_angle_gamma 90.000000
_cell_volume 3123.947783
_symmetry_space_group_name_H-M "C 2/M"
_symmetry_group_IT_number 12
_symmetry_cell_setting 'monoclinic'
loop_
_space_group_symop_operation_xyz
x,y,z
-x,y,-z
-x,-y,-z
x,-y,z
1/2+x,1/2+y,z
1/2-x,1/2+y,-z
1/2-x,1/2-y,-z
1/2+x,1/2-y,z
loop_
_atom_site_type_symbol
_atom_site_label
_atom_site_fract_x
_atom_site_fract_y
_atom_site_fract_z
Si Si1 0.461646 0.321074 0.473527
Si Si2 0.782761 0.822116 0.181171
Si Si3 0.334948 0.821957 0.560536
Si Si4 0.081122 0.173643 0.212341
Si Si5 0.046416 0.325130 0.868631
Si Si6 0.327588 0.819140 0.399797
Si Si7 0.590451 0.827425 0.044701
Si Si8 0.220430 0.825035 0.112722
O O1 0.500000 0.272770 0.500000
O O2 0.455111 0.500000 0.485297
O O3 0.388351 0.248966 0.550184
O O4 0.509523 0.282567 0.341691
O O5 0.741028 0.781338 0.309404
O O6 0.745381 0.754517 0.155623
O O7 0.784074 0.000000 0.173261
O O8 0.860127 0.758459 0.075878
O O9 0.351483 0.779886 0.454069
O O10 0.339980 0.000000 0.557778
O O11 0.100181 0.265565 0.115160
O O12 0.138244 0.186388 0.204209
O O13 0.079130 0.000000 0.192900
O O14 0.059293 0.500000 0.869817
O O15 0.118549 0.271177 0.735628
O O16 0.989367 0.312961 0.876285
O O17 0.000000 0.268159 0.000000
O O18 0.250000 0.750000 0.500000
O O19 0.323231 0.000000 0.401142
O O20 0.609137 0.000000 0.017847
O O21 0.238621 0.000000 0.091724
O O22 0.250000 0.750000 0.000000
#
# Coordination Sequence:
#
# PCOD9225189 Si02
#       8
#     8   8   8   8   8   8   8   8
#     4  10  21  38  60  87 117 155 203 255 305 361
#     4  11  23  38  56  82 122 163 202 253 308 359
#     4  10  23  41  60  86 123 165 206 255 311 370
#     4  10  21  36  56  81 117 154 188 244 308 356
#     4   9  20  39  63  92 123 154 195 252 308 366
#     4  10  22  42  67  94 127 163 206 256 315 377
#     4  11  22  36  60  88 114 153 204 248 300 363
#     4  11  21  35  55  82 117 158 203 248 302 360
#
# _framework density 10.243449
#
# number of rings (size 3 to 8) (size 9 to 14) (size 15 to 20)
#    0.000    1.750    1.250    2.625    1.750    4.750 
#    0.000    1.250    0.000    1.875    0.000    0.000 
#    0.000    0.000    0.000    0.000    0.000    0.000 
#
# Total GULP energy -178519.774567 kJ/mol
# GULP energy per Si atom -5578.742955 kJ/mol
# Density = 1.022013 g / cm^3
# Si number density = 10.243449 Si / 1000 Ang^3
#
#
#
# Elastic Constant Matrix: (Units=GPa)
#
#
# Indices 1 2 3 4 5 6 
#
# 1 65.9719 6.3296 26.9585 -0.0002 -2.0919 0.0002
# 2 6.3296 37.9303 33.0038 0.0025 -1.6467 -0.0006
# 3 26.9585 33.0038 150.5637 -0.0015 -0.3574 0.0005
# 4 -0.0002 0.0025 -0.0015 25.4438 0.0009 -6.1379
# 5 -2.0919 -1.6467 -0.3574 0.0009 35.7951 -0.0006
# 6 0.0002 -0.0006 0.0005 -6.1379 -0.0006 18.8194
#
#
#
# Elastic Compliance Matrix: (Units=1/GPa)
#
#
# Indices 1 2 3 4 5 6 
#
# 1 0.016386 -0.000177 -0.002893 0.000000 0.000921 0.000000
# 2 -0.000177 0.032653 -0.007122 -0.000004 0.001421 0.000000
# 3 -0.002893 -0.007122 0.008720 0.000001 -0.000410 0.000000
# 4 0.000000 -0.000004 0.000001 0.042659 -0.000001 0.013913
# 5 0.000921 0.001421 -0.000410 -0.000001 0.028052 0.000001
# 6 0.000000 0.000000 0.000000 0.013913 0.000001 0.057674
#
#
# Mechanical properties :
#
#
# Convention : Reuss Voigt Hill
#
# Bulk Modulus (GPa) = 26.75676 43.00553 34.88115
# Shear Modulus (GPa) = 22.83242 28.55660 25.69451
#
# Velocity S-wave (km/s) = 3.34202 3.73754 3.54530
# Velocity P-wave (km/s) = 5.28970 6.29785 5.81566
#
# Compressibility (1/GPa) = 0.03737373
#
# Stress axis : x y z
#
# Youngs Moduli (GPa) = 61.02645 30.62528 114.67931
#
# Poissons Ratio (x) = 0.00543 0.33176
# Poissons Ratio (y) = 0.01082 0.81680
# Poissons Ratio (z) = 0.17655 0.21813
#
# Static dielectric constant tensor:
#      x y z
#    x 1.746900 0.000000 -0.030840 
#    y 0.000000 1.690390 0.000010 
#    z -0.030840 0.000010 1.768180 
# 
# From -- ./inp_files/295555.got.cif
#   From: 2010.05.17/outbox.ucp.g08.bks.cvg/sg12_148_cif.got.tgz:295555.got - 2010.06.11 11:47:21.
