data_PCOD9225510
_publ_section_title
;
Structure prediction by ZEFSAII (Michael W. Deem and Ramdas Pophale) SiO2 
 PCOD9225510
Probable space group: C 2/M
;
_chemical_formula_sum "Si O2"
_cell_formula_units_Z 30
_cell_length_a 9.000000
_cell_length_b 24.000000
_cell_length_c 15.000000
_cell_angle_alpha 90.000000
_cell_angle_beta 110.000000
_cell_angle_gamma 90.000000
_cell_volume 3044.604091
_symmetry_space_group_name_H-M "C 2/M"
_symmetry_group_IT_number 12
_symmetry_cell_setting 'monoclinic'
loop_
_space_group_symop_operation_xyz
x,y,z
-x,y,-z
-x,-y,-z
x,-y,z
1/2+x,1/2+y,z
1/2-x,1/2+y,-z
1/2-x,1/2-y,-z
1/2+x,1/2-y,z
loop_
_atom_site_type_symbol
_atom_site_label
_atom_site_fract_x
_atom_site_fract_y
_atom_site_fract_z
Si Si1 0.530934 0.062073 0.111195
Si Si2 0.558976 0.343963 0.295970
Si Si3 0.179002 0.671094 0.540568
Si Si4 0.521676 0.183793 0.182977
Si Si5 0.897701 0.062220 0.152159
Si Si6 0.500000 0.372460 0.000000
Si Si7 0.697328 0.297464 0.620919
Si Si8 0.675839 0.282068 0.145542
O O1 0.484852 0.119448 0.151284
O O2 0.719552 0.059438 0.149994
O O3 0.468224 0.000000 0.126380
O O4 0.500000 0.068443 0.000000
O O5 0.719796 0.365007 0.372150
O O6 0.475489 0.395908 0.236281
O O7 0.453854 0.314524 0.350892
O O8 0.605063 0.303372 0.224536
O O9 0.265980 0.671540 0.463724
O O10 0.182194 0.733465 0.585025
O O11 0.000000 0.653698 0.500000
O O12 0.653557 0.188341 0.286447
O O13 0.602649 0.220328 0.119797
O O14 0.363821 0.215266 0.182127
O O15 0.964082 0.000000 0.163225
O O16 0.920683 0.089914 0.059720
O O17 0.624975 0.329011 0.065702
#
# Coordination Sequence:
#
# PCOD9225510 Si02
#       8
#     8   8   8   8   8   4   8   8
#     4  10  22  40  64  89 120 167 219 265 311 365
#     4  11  21  39  58  91 126 162 207 257 312 379
#     4  11  22  35  58  90 125 166 201 246 312 384
#     4  12  23  39  59  90 130 167 206 263 317 383
#     4  10  21  40  65  89 121 166 217 266 311 370
#     4  10  23  40  58  92 125 168 218 254 318 374
#     4  11  21  35  59  87 127 162 200 248 312 383
#     4  11  25  36  59  89 131 168 208 256 326 375
#
# _framework density 9.8534980000000001
#
# number of rings (size 3 to 8) (size 9 to 14) (size 15 to 20)
#    0.000    1.200    2.667    4.600    2.800    0.533 
#    0.000    2.667    0.000    2.800    0.000    0.000 
#    0.000    0.000    0.000    0.000    0.000    0.000 
#
# Total GULP energy -167287.881718 kJ/mol
# GULP energy per Si atom -5576.262724 kJ/mol
# Density = 0.983107 g / cm^3
# Si number density = 9.853498 Si / 1000 Ang^3
#
#
#
# Elastic Constant Matrix: (Units=GPa)
#
#
# Indices 1 2 3 4 5 6 
#
# 1 99.2732 29.8751 37.4675 0.0000 13.7930 0.0000
# 2 29.8751 99.2429 25.4580 0.0000 -11.4433 0.0000
# 3 37.4675 25.4580 68.4841 0.0000 2.6028 0.0000
# 4 0.0000 0.0000 0.0000 15.3596 0.0000 0.8961
# 5 13.7930 -11.4433 2.6028 0.0000 16.1583 0.0000
# 6 0.0000 0.0000 0.0000 0.8961 0.0000 18.6962
#
#
#
# Elastic Compliance Matrix: (Units=1/GPa)
#
#
# Indices 1 2 3 4 5 6 
#
# 1 0.016357 -0.005203 -0.006383 0.000000 -0.016619 0.000000
# 2 -0.005203 0.014126 -0.002972 0.000000 0.014924 0.000000
# 3 -0.006383 -0.002972 0.019189 0.000000 0.000253 0.000000
# 4 0.000000 0.000000 0.000000 0.065288 0.000000 -0.003129
# 5 -0.016619 0.014924 0.000253 0.000000 0.086603 0.000000
# 6 0.000000 0.000000 0.000000 -0.003129 0.000000 0.053637
#
#
# Mechanical properties :
#
#
# Convention : Reuss Voigt Hill
#
# Bulk Modulus (GPa) = 48.64665 50.28903 49.46784
# Shear Modulus (GPa) = 17.17223 21.65612 19.41418
#
# Velocity S-wave (km/s) = 2.95511 3.31857 3.14210
# Velocity P-wave (km/s) = 6.03176 6.34489 6.19031
#
# Compressibility (1/GPa) = 0.02055640
#
# Stress axis : x y z
#
# Youngs Moduli (GPa) = 61.13514 70.79340 52.11244
#
# Poissons Ratio (x) = 0.36833 0.33265
# Poissons Ratio (y) = 0.31808 0.15486
# Poissons Ratio (z) = 0.39024 0.21038
#
# Static dielectric constant tensor:
#      x y z
#    x 1.707880 0.000000 0.019160 
#    y 0.000000 1.751300 0.000000 
#    z 0.019160 0.000000 1.723050 
# 
# From -- ./inp_files/198934.got.cif
#   From: 2010.05.17/outbox.ucp.g08.bks.cvg/sg12_100_cif.got.tgz:198934.got - 2010.06.11 11:47:21.
