data_PCOD9225170
_publ_section_title
;
Structure prediction by ZEFSAII (Michael W. Deem and Ramdas Pophale) SiO2 
 PCOD9225170
Probable space group: C 2/M
;
_chemical_formula_sum "Si O2"
_cell_formula_units_Z 28
_cell_length_a 21.000000
_cell_length_b 9.000000
_cell_length_c 30.000000
_cell_angle_alpha 90.000000
_cell_angle_beta 150.000000
_cell_angle_gamma 90.000000
_cell_volume 2835.000000
_symmetry_space_group_name_H-M "C 2/M"
_symmetry_group_IT_number 12
_symmetry_cell_setting 'monoclinic'
loop_
_space_group_symop_operation_xyz
x,y,z
-x,y,-z
-x,-y,-z
x,-y,z
1/2+x,1/2+y,z
1/2-x,1/2+y,-z
1/2-x,1/2-y,-z
1/2+x,1/2-y,z
loop_
_atom_site_type_symbol
_atom_site_label
_atom_site_fract_x
_atom_site_fract_y
_atom_site_fract_z
Si Si1 0.815857 0.328629 0.363777
Si Si2 0.240509 0.675925 0.408880
Si Si3 0.473957 0.322080 0.236452
Si Si4 0.887633 0.173800 0.840581
Si Si5 0.484582 0.823502 0.589972
Si Si6 0.111366 0.179655 0.914713
Si Si7 0.311555 0.677123 0.220286
O O1 0.815642 0.500000 0.380241
O O2 0.781197 0.221887 0.383139
O O3 0.709495 0.318203 0.260441
O O4 0.947007 0.300610 0.416838
O O5 0.243076 0.500000 0.416126
O O6 0.345383 0.753560 0.503631
O O7 0.099293 0.739763 0.329891
O O8 0.495906 0.500000 0.251753
O O9 0.450263 0.282018 0.170589
O O10 0.353063 0.288365 0.194759
O O11 0.820134 0.258096 0.840268
O O12 0.020995 0.228374 0.900905
O O13 0.899131 0.000000 0.859359
O O14 0.576504 0.746302 0.681343
O O15 0.481222 0.000000 0.595809
O O16 0.118609 0.000000 0.920852
O O17 0.250000 0.250000 0.000000
O O18 0.310352 0.500000 0.224944
#
# Coordination Sequence:
#
# PCOD9225170 Si02
#       7
#     8   8   8   8   8   8   8
#     4   9  17  33  54  76 108 154 196 229 282 346
#     4  12  23  32  51  83 115 147 195 251 286 322
#     4  10  22  42  61  80 115 158 190 227 289 354
#     4   9  18  36  61  84 115 156 188 225 285 350
#     4  10  21  36  54  76 112 160 197 232 284 343
#     4  10  21  40  65  91 116 147 187 230 283 344
#     4  10  21  37  60  86 114 150 196 243 279 326
#
# _framework density 9.8765429999999999
#
# number of rings (size 3 to 8) (size 9 to 14) (size 15 to 20)
#    0.000    2.000    1.429    3.429    0.000    7.429 
#    0.000    0.714    0.000    4.286    0.000    0.000 
#    0.000    0.000    0.000    0.000    0.000    0.000 
#
# Total GULP energy -156433.170229 kJ/mol
# GULP energy per Si atom -5586.898937 kJ/mol
# Density = 0.985406 g / cm^3
# Si number density = 9.876543 Si / 1000 Ang^3
#
#
#
# Elastic Constant Matrix: (Units=GPa)
#
#
# Indices 1 2 3 4 5 6 
#
# 1 116.7608 44.9659 21.6399 0.0000 32.2601 0.0000
# 2 44.9659 56.9047 14.2039 0.0000 16.9241 0.0002
# 3 21.6399 14.2039 45.9704 0.0000 36.8377 0.0000
# 4 0.0000 0.0000 0.0000 27.3839 0.0000 7.1825
# 5 32.2601 16.9241 36.8377 0.0000 32.2997 0.0000
# 6 0.0000 0.0002 0.0000 7.1825 0.0000 30.0819
#
#
#
# Elastic Compliance Matrix: (Units=1/GPa)
#
#
# Indices 1 2 3 4 5 6 
#
# 1 0.040388 -0.008319 0.143933 0.000000 -0.200135 0.000000
# 2 -0.008319 0.025828 0.001419 0.000000 -0.006843 0.000000
# 3 0.143933 0.001419 0.805671 -0.000001 -1.063365 0.000001
# 4 0.000000 0.000000 -0.000001 0.038958 0.000001 -0.009302
# 5 -0.200135 -0.006843 -1.063365 0.000001 1.447199 -0.000001
# 6 0.000000 0.000000 0.000001 -0.009302 -0.000001 0.035464
#
#
# Mechanical properties :
#
#
# Convention : Reuss Voigt Hill
#
# Bulk Modulus (GPa) = 0.87264 42.36171 21.61717
# Shear Modulus (GPa) = 1.99886 27.20817 14.60352
#
# Velocity S-wave (km/s) = 1.00704 3.71538 2.72196
# Velocity P-wave (km/s) = 1.33974 6.31645 4.56577
#
# Compressibility (1/GPa) = 1.14595323
#
# Stress axis : x y z
#
# Youngs Moduli (GPa) = 24.75992 38.71803 1.24120
#
# Poissons Ratio (x) = 0.32209 -0.17865
# Poissons Ratio (y) = 0.20598 -0.00176
# Poissons Ratio (z) = -3.56377 -0.05495
#
# Static dielectric constant tensor:
#      x y z
#    x 1.722210 0.000000 0.008000 
#    y 0.000000 1.654890 0.000000 
#    z 0.008000 0.000000 1.693800 
# 
# From -- ./inp_files/380793.got.cif
#   From: 2010.05.17/outbox.ucp.g08.bks.cvg/sg12_191_cif.got.tgz:380793.got - 2010.06.11 11:47:21.
