data_PCOD9225476
_publ_section_title
;
Structure prediction by ZEFSAII (Michael W. Deem and Ramdas Pophale) SiO2 
 PCOD9225476
Probable space group: C 2/M
;
_chemical_formula_sum "Si O2"
_cell_formula_units_Z 28
_cell_length_a 30.000000
_cell_length_b 9.000000
_cell_length_c 12.000000
_cell_angle_alpha 90.000000
_cell_angle_beta 60.000000
_cell_angle_gamma 90.000000
_cell_volume 2805.922308
_symmetry_space_group_name_H-M "C 2/M"
_symmetry_group_IT_number 12
_symmetry_cell_setting 'monoclinic'
loop_
_space_group_symop_operation_xyz
x,y,z
-x,y,-z
-x,-y,-z
x,-y,z
1/2+x,1/2+y,z
1/2-x,1/2+y,-z
1/2-x,1/2-y,-z
1/2+x,1/2-y,z
loop_
_atom_site_type_symbol
_atom_site_label
_atom_site_fract_x
_atom_site_fract_y
_atom_site_fract_z
Si Si1 0.147081 0.829262 0.474817
Si Si2 0.247961 0.675488 0.380148
Si Si3 0.501678 0.829035 0.132085
Si Si4 0.901467 0.168162 0.230803
Si Si5 0.941487 0.820171 0.579655
Si Si6 0.837738 0.323565 0.127615
Si Si7 0.598422 0.321479 0.128304
O O1 0.192692 0.715745 0.398209
O O2 0.138231 0.834136 0.618307
O O3 0.095358 0.781749 0.476592
O O4 0.159681 0.000000 0.424267
O O5 0.256441 0.500000 0.379078
O O6 0.250000 0.750000 0.500000
O O7 0.288946 0.750594 0.247443
O O8 0.453274 0.727404 0.221013
O O9 0.550989 0.749101 0.120140
O O10 0.498301 0.000000 0.174360
O O11 0.500000 0.830652 0.000000
O O12 0.882660 0.278420 0.158898
O O13 0.907400 0.000000 0.179303
O O14 0.912582 0.780618 0.730101
O O15 0.000000 0.762057 0.500000
O O16 0.945397 0.000000 0.574218
O O17 0.833935 0.500000 0.123398
O O18 0.851855 0.249085 0.992488
O O19 0.599261 0.500000 0.117031
#
# Coordination Sequence:
#
# PCOD9225476 Si02
#       7
#     8   8   8   8   8   8   8
#     4  10  21  39  64  93 125 160 206 259 314 368
#     4  12  24  40  63  93 127 164 209 256 313 373
#     4  11  22  34  51  80 120 160 199 246 307 368
#     4  11  21  34  58  88 119 157 202 249 307 374
#     4   9  19  39  66  95 125 163 209 258 307 368
#     4  12  24  39  59  87 125 161 200 252 314 370
#     4  11  22  38  62  89 121 162 210 258 311 374
#
# _framework density 9.9788940000000004
#
# number of rings (size 3 to 8) (size 9 to 14) (size 15 to 20)
#    0.000    1.143    2.857    4.714    0.000    3.429 
#    0.000    2.143    0.000    3.000    0.000    0.000 
#    0.000    0.000    0.000    0.000    0.000    0.000 
#
# Total GULP energy -156309.850035 kJ/mol
# GULP energy per Si atom -5582.494644 kJ/mol
# Density = 0.995618 g / cm^3
# Si number density = 9.978894 Si / 1000 Ang^3
#
#
#
# Elastic Constant Matrix: (Units=GPa)
#
#
# Indices 1 2 3 4 5 6 
#
# 1 65.3236 17.8720 39.0451 0.0000 -6.4326 0.0000
# 2 17.8720 96.3063 13.9389 0.0000 -10.3933 0.0000
# 3 39.0451 13.9389 89.0011 0.0000 -9.2975 0.0000
# 4 0.0000 0.0000 0.0000 20.4002 0.0000 -7.6325
# 5 -6.4326 -10.3933 -9.2975 0.0000 31.2387 0.0000
# 6 0.0000 0.0000 0.0000 -7.6325 0.0000 24.8998
#
#
#
# Elastic Compliance Matrix: (Units=1/GPa)
#
#
# Indices 1 2 3 4 5 6 
#
# 1 0.021425 -0.002591 -0.008899 0.000000 0.000901 0.000000
# 2 -0.002591 0.011244 -0.000299 0.000000 0.003119 0.000000
# 3 -0.008899 -0.000299 0.015466 0.000000 0.002671 0.000000
# 4 0.000000 0.000000 0.000000 0.055369 0.000000 0.016972
# 5 0.000901 0.003119 0.002671 0.000000 0.034030 0.000000
# 6 0.000000 0.000000 0.000000 0.016972 0.000000 0.045363
#
#
# Mechanical properties :
#
#
# Convention : Reuss Voigt Hill
#
# Bulk Modulus (GPa) = 40.72055 43.59368 42.15712
# Shear Modulus (GPa) = 23.29256 27.29275 25.29265
#
# Velocity S-wave (km/s) = 3.41998 3.70202 3.56379
# Velocity P-wave (km/s) = 6.00355 6.33748 6.17277
#
# Compressibility (1/GPa) = 0.02455762
#
# Stress axis : x y z
#
# Youngs Moduli (GPa) = 46.67370 88.93559 64.65847
#
# Poissons Ratio (x) = 0.23040 0.57543
# Poissons Ratio (y) = 0.12092 0.01931
# Poissons Ratio (z) = 0.41537 0.02656
#
# Static dielectric constant tensor:
#      x y z
#    x 1.168270 0.000000 0.263650 
#    y 0.000000 1.668720 0.000000 
#    z 0.263650 0.000000 1.574890 
# 
# From -- ./inp_files/187155.got.cif
#   From: 2010.05.17/outbox.ucp.g08.bks.cvg/sg12_94_cif.got.tgz:187155.got - 2010.06.11 11:47:21.
