data_PCOD9225040
_publ_section_title
;
Structure prediction by ZEFSAII (Michael W. Deem and Ramdas Pophale) SiO2 
 PCOD9225040
Probable space group: C 2/M
;
_chemical_formula_sum "Si O2"
_cell_formula_units_Z 28
_cell_length_a 27.000000
_cell_length_b 18.000000
_cell_length_c 18.000000
_cell_angle_alpha 90.000000
_cell_angle_beta 20.000000
_cell_angle_gamma 90.000000
_cell_volume 2991.992214
_symmetry_space_group_name_H-M "C 2/M"
_symmetry_group_IT_number 12
_symmetry_cell_setting 'monoclinic'
loop_
_space_group_symop_operation_xyz
x,y,z
-x,y,-z
-x,-y,-z
x,-y,z
1/2+x,1/2+y,z
1/2-x,1/2+y,-z
1/2-x,1/2-y,-z
1/2+x,1/2-y,z
loop_
_atom_site_type_symbol
_atom_site_label
_atom_site_fract_x
_atom_site_fract_y
_atom_site_fract_z
Si Si1 0.336135 0.671335 0.006050
Si Si2 0.323363 0.325122 0.433108
Si Si3 0.165241 0.410845 0.121935
Si Si4 0.667165 0.916810 0.540664
Si Si5 0.336362 0.854114 0.604089
Si Si6 0.662474 0.204487 0.804414
Si Si7 0.135463 0.340492 0.012439
O O1 0.505582 0.673909 0.790882
O O2 0.309336 0.759954 0.037702
O O3 0.288496 0.626362 0.999970
O O4 0.237332 0.638518 0.211914
O O5 0.250000 0.250000 0.500000
O O6 0.291506 0.389865 0.419644
O O7 0.239408 0.338300 0.628652
O O8 0.150043 0.500000 0.155721
O O9 0.196336 0.396318 0.990101
O O10 0.011411 0.368332 0.358779
O O11 0.712231 0.910840 0.391497
O O12 0.535452 0.858737 0.738081
O O13 0.616922 0.000000 0.628147
O O14 0.267541 0.775783 0.671488
O O15 0.500000 0.223091 0.000000
O O16 0.657006 0.162308 0.892125
#
# Coordination Sequence:
#
# PCOD9225040 Si02
#       7
#     8   8   8   8   8   8   8
#     4  11  23  37  66  92 122 169 220 262 311 384
#     4  12  20  40  63  92 130 166 206 269 319 376
#     4  11  24  44  64  88 133 177 212 263 325 384
#     4  11  22  37  60  92 131 169 202 253 327 387
#     4  10  21  36  61  92 125 166 212 259 317 381
#     4  11  20  36  67  99 123 164 217 270 319 371
#     4  10  20  39  62  92 122 165 219 261 312 371
#
# _framework density 9.3583130000000008
#
# number of rings (size 3 to 8) (size 9 to 14) (size 15 to 20)
#    0.000    1.143    4.286    4.286    0.000    2.286 
#    0.000    5.000    0.000    0.857    0.000    0.000 
#    0.000    0.000    0.000    0.000    0.000    0.000 
#
# Total GULP energy -155914.298865 kJ/mol
# GULP energy per Si atom -5568.367817 kJ/mol
# Density = 0.933701 g / cm^3
# Si number density = 9.358313 Si / 1000 Ang^3
#
#
#
# Elastic Constant Matrix: (Units=GPa)
#
#
# Indices 1 2 3 4 5 6 
#
# 1 136.5073 40.7317 33.0163 0.0001 -5.5571 0.0000
# 2 40.7317 74.1237 31.9320 -0.0013 0.3000 0.0003
# 3 33.0163 31.9320 71.4245 -0.0011 -3.9403 0.0001
# 4 0.0001 -0.0013 -0.0011 17.4925 0.0008 1.6606
# 5 -5.5571 0.3000 -3.9403 0.0008 35.8330 -0.0001
# 6 0.0000 0.0003 0.0001 1.6606 -0.0001 24.0766
#
#
#
# Elastic Compliance Matrix: (Units=1/GPa)
#
#
# Indices 1 2 3 4 5 6 
#
# 1 0.009143 -0.004009 -0.002369 -0.000001 0.001191 0.000000
# 2 -0.004009 0.018500 -0.006500 0.000001 -0.001491 0.000000
# 3 -0.002369 -0.006500 0.018094 0.000001 0.001677 0.000000
# 4 -0.000001 0.000001 0.000001 0.057544 -0.000001 -0.003969
# 5 0.001191 -0.001491 0.001677 -0.000001 0.028289 0.000000
# 6 0.000000 0.000000 0.000000 -0.003969 0.000000 0.041808
#
#
# Mechanical properties :
#
#
# Convention : Reuss Voigt Hill
#
# Bulk Modulus (GPa) = 50.04349 54.82396 52.43373
# Shear Modulus (GPa) = 24.29619 27.23879 25.76749
#
# Velocity S-wave (km/s) = 3.60683 3.81901 3.71444
# Velocity P-wave (km/s) = 6.64388 6.98582 6.81699
#
# Compressibility (1/GPa) = 0.01998262
#
# Stress axis : x y z
#
# Youngs Moduli (GPa) = 109.37212 54.05396 55.26631
#
# Poissons Ratio (x) = 0.21669 0.13090
# Poissons Ratio (y) = 0.43844 0.35924
# Poissons Ratio (z) = 0.25905 0.35136
#
# Static dielectric constant tensor:
#      x y z
#    x 1.694670 0.000000 0.005580 
#    y 0.000000 1.658780 0.000000 
#    z 0.005580 0.000000 1.662950 
# 
# From -- ./inp_files/293866.got.cif
#   From: 2010.05.17/outbox.ucp.g08.bks.cvg/sg12_147_cif.got.tgz:293866.got - 2010.06.11 11:47:21.
