data_PCOD9225578
_publ_section_title
;
Structure prediction by ZEFSAII (Michael W. Deem and Ramdas Pophale) SiO2 
 PCOD9225578
Probable space group: C 2/M
;
_chemical_formula_sum "Si O2"
_cell_formula_units_Z 32
_cell_length_a 15.000000
_cell_length_b 24.000000
_cell_length_c 18.000000
_cell_angle_alpha 90.000000
_cell_angle_beta 30.000000
_cell_angle_gamma 90.000000
_cell_volume 3240.000000
_symmetry_space_group_name_H-M "C 2/M"
_symmetry_group_IT_number 12
_symmetry_cell_setting 'monoclinic'
loop_
_space_group_symop_operation_xyz
x,y,z
-x,y,-z
-x,-y,-z
x,-y,z
1/2+x,1/2+y,z
1/2-x,1/2+y,-z
1/2-x,1/2-y,-z
1/2+x,1/2-y,z
loop_
_atom_site_type_symbol
_atom_site_label
_atom_site_fract_x
_atom_site_fract_y
_atom_site_fract_z
Si Si1 0.684339 0.848165 0.738362
Si Si2 0.484420 0.285581 0.247193
Si Si3 0.699915 0.777225 0.324982
Si Si4 0.405342 0.438809 0.650113
Si Si5 0.341317 0.171192 0.915468
Si Si6 0.973574 0.565694 0.431234
Si Si7 0.192704 0.127606 0.521618
Si Si8 0.710705 0.628068 0.857405
O O1 0.752416 0.788125 0.717789
O O2 0.758128 0.892779 0.742054
O O3 0.474063 0.852907 0.880508
O O4 0.746402 0.858807 0.607318
O O5 0.339046 0.295373 0.287889
O O6 0.539130 0.220484 0.209718
O O7 0.401209 0.316813 0.377764
O O8 0.669768 0.309710 0.084506
O O9 0.500000 0.782140 0.500000
O O10 0.732619 0.816204 0.230063
O O11 0.500000 0.440814 0.500000
O O12 0.336166 0.500000 0.716303
O O13 0.543432 0.419127 0.613195
O O14 0.267916 0.135245 0.901190
O O15 0.925139 0.500000 0.461623
O O16 0.838695 0.602781 0.475638
O O17 0.000000 0.580901 0.500000
O O18 0.170672 0.577759 0.258228
O O19 0.500000 0.621150 0.000000
#
# Coordination Sequence:
#
# PCOD9225578 Si02
#       8
#     8   8   8   8   8   8   8   8
#     4  10  22  38  59  91 124 157 206 250 304 364
#     4  10  22  37  56  85 129 159 198 241 301 370
#     4  11  22  35  57  91 127 156 199 248 305 369
#     4   9  19  36  60  89 118 151 200 255 302 356
#     4  10  22  39  54  88 124 167 196 242 301 369
#     4  11  25  44  65  91 123 160 208 261 313 365
#     4  11  20  38  65  93 118 161 201 254 307 363
#     4  12  23  39  63  88 121 161 208 251 306 374
#
# _framework density 9.8765429999999999
#
# number of rings (size 3 to 8) (size 9 to 14) (size 15 to 20)
#    0.000    1.500    2.500    3.375    3.500    1.750 
#    0.000    0.625    0.000    2.250    0.000    0.000 
#    0.000    0.000    0.000    0.000    0.000    0.000 
#
# Total GULP energy -178420.699559 kJ/mol
# GULP energy per Si atom -5575.646861 kJ/mol
# Density = 0.985406 g / cm^3
# Si number density = 9.876543 Si / 1000 Ang^3
#
#
#
# Elastic Constant Matrix: (Units=GPa)
#
#
# Indices 1 2 3 4 5 6 
#
# 1 83.5712 17.3642 28.1573 0.0021 -29.8146 0.0097
# 2 17.3642 56.3148 10.4781 -0.0311 -15.6109 0.0191
# 3 28.1573 10.4781 66.1704 -0.1007 -35.8069 0.0233
# 4 0.0021 -0.0311 -0.1007 6.7696 0.0493 -6.3805
# 5 -29.8146 -15.6109 -35.8069 0.0493 29.3922 -0.0266
# 6 0.0097 0.0191 0.0233 -6.3805 -0.0266 26.3382
#
#
#
# Elastic Compliance Matrix: (Units=1/GPa)
#
#
# Indices 1 2 3 4 5 6 
#
# 1 0.019874 0.000693 0.007458 -0.000120 0.029613 -0.000014
# 2 0.000693 0.022351 0.008716 0.000081 0.023192 0.000019
# 3 0.007458 0.008716 0.050350 0.000352 0.073532 0.000106
# 4 -0.000120 0.000081 0.000352 0.191435 0.000071 0.046375
# 5 0.029613 0.023192 0.073532 0.000071 0.165960 0.000092
# 6 -0.000014 0.000019 0.000106 0.046375 0.000092 0.049202
#
#
# Mechanical properties :
#
#
# Convention : Reuss Voigt Hill
#
# Bulk Modulus (GPa) = 7.91709 35.33951 21.62830
# Shear Modulus (GPa) = 9.85146 22.50379 16.17763
#
# Velocity S-wave (km/s) = 2.23565 3.37895 2.86491
# Velocity P-wave (km/s) = 3.26816 5.75782 4.68153
#
# Compressibility (1/GPa) = 0.12630904
#
# Stress axis : x y z
#
# Youngs Moduli (GPa) = 50.31756 44.74086 19.86106
#
# Poissons Ratio (x) = -0.03102 -0.14812
# Poissons Ratio (y) = -0.03489 -0.17311
# Poissons Ratio (z) = -0.37526 -0.38996
#
# Static dielectric constant tensor:
#      x y z
#    x 1.694880 0.000000 -0.005640 
#    y 0.000000 1.738420 0.000020 
#    z -0.005640 0.000020 1.714340 
# 
# From -- ./inp_files/272836.got.cif
#   From: 2010.05.17/outbox.ucp.g08.bks.cvg/sg12_137_cif.got.tgz:272836.got - 2010.06.11 11:47:21.
