data_PCOD9225079
_publ_section_title
;
Structure prediction by ZEFSAII (Michael W. Deem and Ramdas Pophale) SiO2 
 PCOD9225079
Probable space group: C 2/M
;
_chemical_formula_sum "Si O2"
_cell_formula_units_Z 24
_cell_length_a 27.000000
_cell_length_b 9.000000
_cell_length_c 15.000000
_cell_angle_alpha 90.000000
_cell_angle_beta 140.000000
_cell_angle_gamma 90.000000
_cell_volume 2342.960837
_symmetry_space_group_name_H-M "C 2/M"
_symmetry_group_IT_number 12
_symmetry_cell_setting 'monoclinic'
loop_
_space_group_symop_operation_xyz
x,y,z
-x,y,-z
-x,-y,-z
x,-y,z
1/2+x,1/2+y,z
1/2-x,1/2+y,-z
1/2-x,1/2-y,-z
1/2+x,1/2-y,z
loop_
_atom_site_type_symbol
_atom_site_label
_atom_site_fract_x
_atom_site_fract_y
_atom_site_fract_z
Si Si1 0.083632 0.168966 0.579293
Si Si2 0.128092 0.325642 0.984760
Si Si3 0.486399 0.667764 0.876571
Si Si4 0.686653 0.675724 0.352675
Si Si5 0.231429 0.675176 0.723625
Si Si6 0.168973 0.831968 0.883348
O O1 0.144468 0.257667 0.600696
O O2 0.135306 0.160484 0.739032
O O3 0.000000 0.225694 0.500000
O O4 0.070336 0.000000 0.526413
O O5 0.137742 0.500000 0.002758
O O6 0.208605 0.251070 0.125538
O O7 0.055122 0.269757 0.938488
O O8 0.112592 0.266834 0.864518
O O9 0.492342 0.500000 0.845252
O O10 0.400004 0.730226 0.747874
O O11 0.500000 0.651670 0.000000
O O12 0.683016 0.500000 0.363478
O O13 0.750000 0.750000 0.500000
O O14 0.719659 0.696105 0.299255
O O15 0.224483 0.500000 0.733038
O O16 0.175146 0.000000 0.926523
O O17 0.250000 0.750000 0.000000
#
# Coordination Sequence:
#
# PCOD9225079 Si02
#       6
#     8   8   8   8   8   8
#     4  10  23  42  63  90 124 161 204 252 305 366
#     4  12  24  37  60  94 126 160 206 258 308 360
#     4  10  20  40  64  87 120 160 205 251 303 362
#     4  10  23  41  63  91 124 163 200 250 309 367
#     4  11  22  40  64  89 120 162 207 251 308 370
#     4  11  22  38  62  91 123 160 203 251 303 361
#
# _framework density 10.243449
#
# number of rings (size 3 to 8) (size 9 to 14) (size 15 to 20)
#    0.000    1.333    3.333    2.500    0.000    4.667 
#    0.000    5.000    0.000    0.000    0.000    0.000 
#    0.000    0.000    0.000    0.000    0.000    0.000 
#
# Total GULP energy -133738.039743 kJ/mol
# GULP energy per Si atom -5572.418323 kJ/mol
# Density = 1.022013 g / cm^3
# Si number density = 10.243449 Si / 1000 Ang^3
#
#
#
# Elastic Constant Matrix: (Units=GPa)
#
#
# Indices 1 2 3 4 5 6 
#
# 1 89.3497 67.9636 24.1322 0.0000 35.0994 0.0000
# 2 67.9636 66.7722 15.1234 0.0000 4.8137 0.0000
# 3 24.1322 15.1234 68.0110 0.0000 26.2024 0.0000
# 4 0.0000 0.0000 0.0000 23.0950 0.0000 16.5198
# 5 35.0994 4.8137 26.2024 0.0000 40.8610 0.0000
# 6 0.0000 0.0000 0.0000 16.5198 0.0000 52.5625
#
#
#
# Elastic Compliance Matrix: (Units=1/GPa)
#
#
# Indices 1 2 3 4 5 6 
#
# 1 -0.228837 0.229093 -0.046589 0.000000 0.199457 0.000000
# 2 0.229093 -0.213570 0.042933 0.000000 -0.199160 0.000000
# 3 -0.046589 0.042933 0.010915 0.000000 0.027963 0.000000
# 4 0.000000 0.000000 0.000000 0.055857 0.000000 -0.017555
# 5 0.199457 -0.199160 0.027963 0.000000 -0.141328 0.000000
# 6 0.000000 0.000000 0.000000 -0.017555 0.000000 0.024542
#
#
# Mechanical properties :
#
#
# Convention : Reuss Voigt Hill
#
# Bulk Modulus (GPa) = 51.60020 48.73013 50.16517
# Shear Modulus (GPa) = -5.33713 31.09793 12.88040
#
# Velocity S-wave (km/s) = -1.61580 3.90030 2.51014
# Velocity P-wave (km/s) = 4.66482 6.64235 5.73940
#
# Compressibility (1/GPa) = 0.01937977
#
# Stress axis : x y z
#
# Youngs Moduli (GPa) = -4.36993 -4.68230 91.62081
#
# Poissons Ratio (x) = 1.07268 4.26855
# Poissons Ratio (y) = 1.00112 -3.93352
# Poissons Ratio (z) = -0.20359 0.20102
#
# Static dielectric constant tensor:
#      x y z
#    x 3.475620 0.000000 -0.277070 
#    y 0.000000 1.766860 0.000000 
#    z -0.277070 0.000000 1.772970 
# 
# From -- ./inp_files/244843.got.cif
#   From: 2010.05.17/outbox.ucp.g08.bks.cvg/sg12_123_cif.got.tgz:244843.got - 2010.06.11 11:47:21.
