data_PCOD9225163
_publ_section_title
;
Structure prediction by ZEFSAII (Michael W. Deem and Ramdas Pophale) SiO2 
 PCOD9225163
Probable space group: C 2/M
;
_chemical_formula_sum "Si O2"
_cell_formula_units_Z 32
_cell_length_a 18.000000
_cell_length_b 21.000000
_cell_length_c 24.000000
_cell_angle_alpha 90.000000
_cell_angle_beta 160.000000
_cell_angle_gamma 90.000000
_cell_volume 3102.806740
_symmetry_space_group_name_H-M "C 2/M"
_symmetry_group_IT_number 12
_symmetry_cell_setting 'monoclinic'
loop_
_space_group_symop_operation_xyz
x,y,z
-x,y,-z
-x,-y,-z
x,-y,z
1/2+x,1/2+y,z
1/2-x,1/2+y,-z
1/2-x,1/2-y,-z
1/2+x,1/2-y,z
loop_
_atom_site_type_symbol
_atom_site_label
_atom_site_fract_x
_atom_site_fract_y
_atom_site_fract_z
Si Si1 0.407924 0.259057 0.510782
Si Si2 0.845433 0.283646 0.769769
Si Si3 0.125438 0.841986 0.940231
Si Si4 0.681893 0.830835 0.081232
Si Si5 0.536716 0.574420 0.768552
Si Si6 0.061417 0.376532 0.433955
Si Si7 0.399985 0.426141 0.872385
Si Si8 0.484286 0.792709 0.271722
O O1 0.665605 0.270509 0.691424
O O2 0.303521 0.298621 0.387214
O O3 0.391328 0.182771 0.491609
O O4 0.234939 0.275850 0.436125
O O5 0.981826 0.221804 0.846424
O O6 0.021651 0.332505 0.914885
O O7 0.099449 0.877913 0.863481
O O8 0.017770 0.890727 0.906603
O O9 0.360362 0.822884 0.130979
O O10 0.828576 0.893761 0.187112
O O11 0.842340 0.770038 0.187059
O O12 0.500000 0.823134 0.000000
O O13 0.585366 0.500000 0.812094
O O14 0.279343 0.583900 0.579044
O O15 0.857142 0.415971 0.310854
O O16 0.987341 0.341714 0.324858
O O17 0.451719 0.500000 0.906214
O O18 0.500000 0.399446 0.000000
#
# Coordination Sequence:
#
# PCOD9225163 Si02
#       8
#     8   8   8   8   8   8   8   8
#     4  11  20  35  58  95 128 156 186 249 321 374
#     4  10  21  35  62  92 127 153 197 250 317 375
#     4  11  21  41  63  90 122 166 205 248 299 376
#     4  11  24  41  64  91 123 163 212 259 314 368
#     4  12  27  44  62  88 125 169 214 255 306 366
#     4  12  22  38  60  93 126 160 202 253 304 369
#     4  11  23  39  58  86 124 166 205 243 294 365
#     4  11  23  37  66  93 126 156 204 256 317 369
#
# _framework density 10.313243
#
# number of rings (size 3 to 8) (size 9 to 14) (size 15 to 20)
#    0.000    0.875    5.000    2.625    3.500    2.750 
#    0.000    1.250    0.000    0.000    0.000    2.625 
#    0.000    0.000    0.000    0.000    0.000    0.000 
#
# Total GULP energy -178411.056839 kJ/mol
# GULP energy per Si atom -5575.345526 kJ/mol
# Density = 1.028977 g / cm^3
# Si number density = 10.313243 Si / 1000 Ang^3
#
#
#
# Elastic Constant Matrix: (Units=GPa)
#
#
# Indices 1 2 3 4 5 6 
#
# 1 81.3704 21.7642 35.1082 0.0397 13.5894 -0.0101
# 2 21.7642 51.7463 42.8106 0.1278 26.9563 -0.0040
# 3 35.1082 42.8106 89.2526 0.1809 2.1312 0.1353
# 4 0.0397 0.1278 0.1809 27.1784 -0.0073 16.4283
# 5 13.5894 26.9563 2.1312 -0.0073 30.7805 0.0547
# 6 -0.0101 -0.0040 0.1353 16.4283 0.0547 44.7166
#
#
#
# Elastic Compliance Matrix: (Units=1/GPa)
#
#
# Indices 1 2 3 4 5 6 
#
# 1 0.017060 0.010680 -0.011449 -0.000050 -0.016093 0.000078
# 2 0.010680 0.113932 -0.056447 -0.000498 -0.100585 0.000489
# 3 -0.011449 -0.056447 0.041551 0.000177 0.051613 -0.000262
# 4 -0.000050 -0.000498 0.000177 0.047300 0.000488 -0.017379
# 5 -0.016093 -0.100585 0.051613 0.000488 0.124109 -0.000500
# 6 0.000078 0.000489 -0.000262 -0.017379 -0.000500 0.028749
#
#
# Mechanical properties :
#
#
# Convention : Reuss Voigt Hill
#
# Bulk Modulus (GPa) = 17.20870 46.85947 32.03408
# Shear Modulus (GPa) = 9.87158 28.71417 19.29287
#
# Velocity S-wave (km/s) = 2.19004 3.73514 3.06166
# Velocity P-wave (km/s) = 3.84137 6.43188 5.29742
#
# Compressibility (1/GPa) = 0.05811015
#
# Stress axis : x y z
#
# Youngs Moduli (GPa) = 58.61508 8.77714 24.06694
#
# Poissons Ratio (x) = -0.09374 0.27555
# Poissons Ratio (y) = -0.62601 1.35851
# Poissons Ratio (z) = 0.67110 0.49545
#
# Static dielectric constant tensor:
#      x y z
#    x 2.353400 -0.000070 -0.285950 
#    y -0.000070 1.673140 0.000000 
#    z -0.285950 0.000000 1.915710 
# 
# From -- ./inp_files/344930.got.cif
#   From: 2010.05.17/outbox.ucp.g08.bks.cvg/sg12_173_cif.got.tgz:344930.got - 2010.06.11 11:47:21.
