data_PCOD9225492
_publ_section_title
;
Structure prediction by ZEFSAII (Michael W. Deem and Ramdas Pophale) SiO2 
 PCOD9225492
Probable space group: C 2/M
;
_chemical_formula_sum "Si O2"
_cell_formula_units_Z 28
_cell_length_a 21.000000
_cell_length_b 15.000000
_cell_length_c 18.000000
_cell_angle_alpha 90.000000
_cell_angle_beta 30.000000
_cell_angle_gamma 90.000000
_cell_volume 2835.000000
_symmetry_space_group_name_H-M "C 2/M"
_symmetry_group_IT_number 12
_symmetry_cell_setting 'monoclinic'
loop_
_space_group_symop_operation_xyz
x,y,z
-x,y,-z
-x,-y,-z
x,-y,z
1/2+x,1/2+y,z
1/2-x,1/2+y,-z
1/2-x,1/2-y,-z
1/2+x,1/2-y,z
loop_
_atom_site_type_symbol
_atom_site_label
_atom_site_fract_x
_atom_site_fract_y
_atom_site_fract_z
Si Si1 0.610314 0.244278 0.103570
Si Si2 0.270946 0.107340 0.680948
Si Si3 0.028947 0.726470 0.610783
Si Si4 0.241193 0.240756 0.192127
Si Si5 0.636667 0.895031 0.828565
Si Si6 0.914837 0.102765 0.263076
Si Si7 0.793388 0.896034 0.536074
O O1 0.520072 0.196640 0.256814
O O2 0.531448 0.335233 0.168918
O O3 0.750000 0.250000 0.000000
O O4 0.653528 0.216660 0.977024
O O5 0.391435 0.153392 0.516628
O O6 0.244241 0.162733 0.783023
O O7 0.149239 0.123652 0.750596
O O8 0.287479 0.000000 0.673229
O O9 0.114013 0.815941 0.532511
O O10 0.899683 0.755226 0.699660
O O11 0.259116 0.165610 0.236266
O O12 0.662592 0.883350 0.714073
O O13 0.653455 0.000000 0.827969
O O14 0.500000 0.869205 0.000000
O O15 0.801407 0.111800 0.438983
O O16 0.955683 0.000000 0.222074
O O17 0.833706 0.000000 0.511293
#
# Coordination Sequence:
#
# PCOD9225492 Si02
#       7
#     8   8   8   8   8   8   8
#     4   9  21  39  60  87 119 158 201 245 307 367
#     4  11  24  39  60  92 124 165 212 257 307 357
#     4  10  21  40  60  87 118 162 209 250 304 364
#     4  11  23  38  59  87 124 162 202 252 308 366
#     4  10  22  37  56  87 122 152 188 243 314 373
#     4   9  20  38  61  88 118 155 205 253 296 357
#     4   9  18  36  62  88 115 149 196 252 306 365
#
# _framework density 9.8765429999999999
#
# number of rings (size 3 to 8) (size 9 to 14) (size 15 to 20)
#    0.000    2.143    1.429    0.429    2.000    5.714 
#    0.000    9.286    0.000    0.000    0.000    0.000 
#    0.000    0.000    0.000    0.000    0.000    0.000 
#
# Total GULP energy -155976.482005 kJ/mol
# GULP energy per Si atom -5570.588643 kJ/mol
# Density = 0.985406 g / cm^3
# Si number density = 9.876543 Si / 1000 Ang^3
#
#
#
# Elastic Constant Matrix: (Units=GPa)
#
#
# Indices 1 2 3 4 5 6 
#
# 1 51.4624 3.7109 7.2218 0.0000 3.9313 0.0000
# 2 3.7109 26.5047 -6.7002 0.0000 -8.8765 0.0000
# 3 7.2218 -6.7002 75.2663 0.0001 6.6403 -0.0001
# 4 0.0000 0.0000 0.0001 28.4449 0.0000 5.6153
# 5 3.9313 -8.8765 6.6403 0.0000 33.4147 0.0000
# 6 0.0000 0.0000 -0.0001 5.6153 0.0000 14.3388
#
#
#
# Elastic Compliance Matrix: (Units=1/GPa)
#
#
# Indices 1 2 3 4 5 6 
#
# 1 0.020280 -0.004415 -0.002061 0.000000 -0.003149 0.000000
# 2 -0.004415 0.042948 0.003251 0.000000 0.011282 0.000000
# 3 -0.002061 0.003251 0.013920 0.000000 -0.001660 0.000000
# 4 0.000000 0.000000 0.000000 0.038101 0.000000 -0.014921
# 5 -0.003149 0.011282 -0.001660 0.000000 0.033624 0.000000
# 6 0.000000 0.000000 0.000000 -0.014921 0.000000 0.075584
#
#
# Mechanical properties :
#
#
# Convention : Reuss Voigt Hill
#
# Bulk Modulus (GPa) = 14.14469 17.96651 16.05560
# Shear Modulus (GPa) = 19.64849 25.17306 22.41078
#
# Velocity S-wave (km/s) = 3.15732 3.57373 3.37196
# Velocity P-wave (km/s) = 4.52414 5.11312 4.82762
#
# Compressibility (1/GPa) = 0.07069791
#
# Stress axis : x y z
#
# Youngs Moduli (GPa) = 49.31007 23.28417 71.84002
#
# Poissons Ratio (x) = 0.10280 0.14807
# Poissons Ratio (y) = 0.21771 -0.23358
# Poissons Ratio (z) = 0.10163 -0.07571
#
# Static dielectric constant tensor:
#      x y z
#    x 1.723020 0.000000 0.050090 
#    y 0.000000 1.667450 0.000000 
#    z 0.050090 0.000000 1.728020 
# 
# From -- ./inp_files/284525.got.cif
#   From: 2010.05.17/outbox.ucp.g08.bks.cvg/sg12_143_cif.got.tgz:284525.got - 2010.06.11 11:47:21.
