data_PCOD9225399
_publ_section_title
;
Structure prediction by ZEFSAII (Michael W. Deem and Ramdas Pophale) SiO2 
 PCOD9225399
Probable space group: C 2/M
;
_chemical_formula_sum "Si O2"
_cell_formula_units_Z 28
_cell_length_a 9.000000
_cell_length_b 15.000000
_cell_length_c 24.000000
_cell_angle_alpha 90.000000
_cell_angle_beta 60.000000
_cell_angle_gamma 90.000000
_cell_volume 2805.922308
_symmetry_space_group_name_H-M "C 2/M"
_symmetry_group_IT_number 12
_symmetry_cell_setting 'monoclinic'
loop_
_space_group_symop_operation_xyz
x,y,z
-x,y,-z
-x,-y,-z
x,-y,z
1/2+x,1/2+y,z
1/2-x,1/2+y,-z
1/2-x,1/2-y,-z
1/2+x,1/2-y,z
loop_
_atom_site_type_symbol
_atom_site_label
_atom_site_fract_x
_atom_site_fract_y
_atom_site_fract_z
Si Si1 0.067825 0.151429 0.571645
Si Si2 0.176810 0.394654 0.002493
Si Si3 0.288086 0.151831 0.429276
Si Si4 0.981460 0.898923 0.293678
Si Si5 0.618627 0.745865 0.105446
Si Si6 0.237509 0.751003 0.200719
Si Si7 0.874852 0.398624 0.700237
O O1 0.209051 0.112709 0.501779
O O2 0.138701 0.250033 0.571467
O O3 0.040436 0.104896 0.635657
O O4 0.881528 0.156636 0.577383
O O5 0.215889 0.500000 0.004861
O O6 0.140010 0.334162 0.063899
O O7 0.327849 0.340655 0.941316
O O8 0.000000 0.391506 0.000000
O O9 0.449035 0.107164 0.368082
O O10 0.793392 0.873615 0.304848
O O11 0.135752 0.835903 0.244218
O O12 0.017462 0.000000 0.269075
O O13 0.440405 0.743108 0.173659
O O14 0.749529 0.748804 0.131868
O O15 0.134432 0.668582 0.246563
O O16 0.853841 0.500000 0.722865
#
# Coordination Sequence:
#
# PCOD9225399 Si02
#       7
#     8   8   8   8   8   8   8
#     4  10  21  38  62  90 122 165 215 269 327 387
#     4  10  22  43  71 102 131 164 209 253 303 369
#     4  10  21  38  62  90 123 164 214 270 330 382
#     4  11  25  42  63  92 126 170 219 266 322 383
#     4  11  24  42  69  98 130 170 206 256 308 365
#     4  12  24  43  64  93 133 171 213 252 314 374
#     4  11  25  42  62  92 128 168 216 270 323 379
#
# _framework density 9.9788940000000004
#
# number of rings (size 3 to 8) (size 9 to 14) (size 15 to 20)
#    0.000    1.286    4.286    0.857    2.000    5.143 
#    0.000    3.571    0.000    0.000    0.000    0.000 
#    0.000    0.000    0.000    0.000    0.000    0.000 
#
# Total GULP energy -156164.952135 kJ/mol
# GULP energy per Si atom -5577.319719 kJ/mol
# Density = 0.995618 g / cm^3
# Si number density = 9.978894 Si / 1000 Ang^3
#
#
#
# Elastic Constant Matrix: (Units=GPa)
#
#
# Indices 1 2 3 4 5 6 
#
# 1 42.0419 16.3719 23.2914 0.0000 -19.0037 0.0000
# 2 16.3719 124.7292 61.2102 0.0000 -11.5206 0.0000
# 3 23.2914 61.2102 125.5675 0.0000 -13.9136 0.0000
# 4 0.0000 0.0000 0.0000 -15.2179 0.0000 -7.2153
# 5 -19.0037 -11.5206 -13.9136 0.0000 43.5374 0.0000
# 6 0.0000 0.0000 0.0000 -7.2153 0.0000 24.2816
#
#
#
# Elastic Compliance Matrix: (Units=1/GPa)
#
#
# Indices 1 2 3 4 5 6 
#
# 1 0.032058 -0.001075 -0.004047 0.000000 0.012415 0.000000
# 2 -0.001075 0.010634 -0.004898 0.000000 0.000779 0.000000
# 3 -0.004047 -0.004898 0.011158 0.000000 0.000503 0.000000
# 4 0.000000 0.000000 0.000000 -0.057597 0.000000 -0.017115
# 5 0.012415 0.000779 0.000503 0.000000 0.028755 0.000000
# 6 0.000000 0.000000 0.000000 -0.017115 0.000000 0.036098
#
#
# Mechanical properties :
#
#
# Convention : Reuss Voigt Hill
#
# Bulk Modulus (GPa) = 29.57666 54.89841 42.23754
# Shear Modulus (GPa) = 54.10326 23.28456 38.69391
#
# Velocity S-wave (km/s) = 5.21226 3.41939 4.40794
# Velocity P-wave (km/s) = 7.14670 6.56937 6.86411
#
# Compressibility (1/GPa) = 0.03381044
#
# Stress axis : x y z
#
# Youngs Moduli (GPa) = 31.19316 94.03647 89.62307
#
# Poissons Ratio (x) = 0.10113 0.36266
# Poissons Ratio (y) = 0.03354 0.43897
# Poissons Ratio (z) = 0.12622 0.46059
#
# Static dielectric constant tensor:
#      x y z
#    x 1.706000 0.000000 0.026450 
#    y 0.000000 1.705350 0.000000 
#    z 0.026450 0.000000 1.688660 
# 
# From -- ./inp_files/300167.got.cif
#   From: 2010.05.17/outbox.ucp.g08.bks.cvg/sg12_151_cif.got.tgz:300167.got - 2010.06.11 11:47:21.
