data_PCOD9225317
_publ_section_title
;
Structure prediction by ZEFSAII (Michael W. Deem and Ramdas Pophale) SiO2 
 PCOD9225317
Probable space group: C 2/M
;
_chemical_formula_sum "Si O2"
_cell_formula_units_Z 20
_cell_length_a 24.000000
_cell_length_b 15.000000
_cell_length_c 9.000000
_cell_angle_alpha 90.000000
_cell_angle_beta 40.000000
_cell_angle_gamma 90.000000
_cell_volume 2082.631855
_symmetry_space_group_name_H-M "C 2/M"
_symmetry_group_IT_number 12
_symmetry_cell_setting 'monoclinic'
loop_
_space_group_symop_operation_xyz
x,y,z
-x,y,-z
-x,-y,-z
x,-y,z
1/2+x,1/2+y,z
1/2-x,1/2+y,-z
1/2-x,1/2-y,-z
1/2+x,1/2-y,z
loop_
_atom_site_type_symbol
_atom_site_label
_atom_site_fract_x
_atom_site_fract_y
_atom_site_fract_z
Si Si1 0.164647 0.392581 0.056414
Si Si2 0.000000 0.727639 0.500000
Si Si3 0.000000 0.819901 0.000000
Si Si4 0.986775 0.101236 0.343065
Si Si5 0.177851 0.743802 0.772414
Si Si6 0.308035 0.600177 0.019643
O O1 0.148727 0.500000 0.081931
O O2 0.248826 0.380701 0.994461
O O3 0.080369 0.335907 0.286858
O O4 0.180519 0.347304 0.863067
O O5 0.037226 0.799208 0.545311
O O6 0.020920 0.882628 0.816770
O O7 0.083391 0.763529 0.889883
O O8 0.950172 0.000000 0.445597
O O9 0.913627 0.096467 0.797749
O O10 0.250000 0.750000 0.500000
O O11 0.202077 0.821849 0.840300
O O12 0.281652 0.500000 0.122654
#
# Coordination Sequence:
#
# PCOD9225317 Si02
#       6
#     8   4   4   8   8   8
#     4  11  24  43  64  92 126 170 220 265 311 376
#     4  12  22  38  64  92 130 166 214 260 318 368
#     4  10  21  42  59  92 130 168 203 256 327 384
#     4  10  21  37  63  94 124 160 205 259 323 383
#     4  11  24  40  66  92 129 169 212 262 324 379
#     4   9  20  40  64  89 121 159 208 264 319 376
#
# _framework density 9.6032340000000005
#
# number of rings (size 3 to 8) (size 9 to 14) (size 15 to 20)
#    0.000    1.600    4.000    1.500    2.800    1.600 
#    0.000    2.500    0.000    0.000    0.000    0.000 
#    0.000    0.000    0.000    0.000    0.000    0.000 
#
# Total GULP energy -111353.089335 kJ/mol
# GULP energy per Si atom -5567.654467 kJ/mol
# Density = 0.958138 g / cm^3
# Si number density = 9.603234 Si / 1000 Ang^3
#
#
#
# Elastic Constant Matrix: (Units=GPa)
#
#
# Indices 1 2 3 4 5 6 
#
# 1 145.6682 55.6259 28.3937 0.0000 10.3148 0.0000
# 2 55.6259 174.8930 53.3824 0.0000 18.2787 0.0000
# 3 28.3937 53.3824 68.1270 0.0000 10.6015 0.0000
# 4 0.0000 0.0000 0.0000 21.5316 0.0000 0.3542
# 5 10.3148 18.2787 10.6015 0.0000 31.8268 0.0000
# 6 0.0000 0.0000 0.0000 0.3542 0.0000 37.8871
#
#
#
# Elastic Compliance Matrix: (Units=1/GPa)
#
#
# Indices 1 2 3 4 5 6 
#
# 1 0.007995 -0.001936 -0.001671 0.000000 -0.000922 0.000000
# 2 -0.001936 0.008175 -0.005237 0.000000 -0.002323 0.000000
# 3 -0.001671 -0.005237 0.019961 0.000000 -0.003100 0.000000
# 4 0.000000 0.000000 0.000000 0.046450 0.000000 -0.000434
# 5 -0.000922 -0.002323 -0.003100 0.000000 0.034086 0.000000
# 6 0.000000 0.000000 0.000000 -0.000434 0.000000 0.026398
#
#
# Mechanical properties :
#
#
# Convention : Reuss Voigt Hill
#
# Bulk Modulus (GPa) = 54.22549 73.72134 63.97342
# Shear Modulus (GPa) = 29.95750 35.00152 32.47951
#
# Velocity S-wave (km/s) = 3.95367 4.27357 4.11673
# Velocity P-wave (km/s) = 7.00972 7.92579 7.48179
#
# Compressibility (1/GPa) = 0.01844151
#
# Stress axis : x y z
#
# Youngs Moduli (GPa) = 125.07041 122.32435 50.09742
#
# Poissons Ratio (x) = 0.23687 0.08374
# Poissons Ratio (y) = 0.24219 0.26237
# Poissons Ratio (z) = 0.20905 0.64063
#
# Static dielectric constant tensor:
#      x y z
#    x 1.657670 0.000000 0.032950 
#    y 0.000000 1.668260 0.000000 
#    z 0.032950 0.000000 1.783970 
# 
# From -- ./inp_files/96092.got.cif
#   From: 2010.05.17/outbox.ucp.g08.bks.cvg/sg12_49_cif.got.tgz:96092.got - 2010.06.11 11:47:21.
