data_PCOD9225590
_publ_section_title
;
Structure prediction by ZEFSAII (Michael W. Deem and Ramdas Pophale) SiO2 
 PCOD9225590
Probable space group: C 2/M
;
_chemical_formula_sum "Si O2"
_cell_formula_units_Z 28
_cell_length_a 18.000000
_cell_length_b 15.000000
_cell_length_c 12.000000
_cell_angle_alpha 90.000000
_cell_angle_beta 60.000000
_cell_angle_gamma 90.000000
_cell_volume 2805.922308
_symmetry_space_group_name_H-M "C 2/M"
_symmetry_group_IT_number 12
_symmetry_cell_setting 'monoclinic'
loop_
_space_group_symop_operation_xyz
x,y,z
-x,y,-z
-x,-y,-z
x,-y,z
1/2+x,1/2+y,z
1/2-x,1/2+y,-z
1/2-x,1/2-y,-z
1/2+x,1/2-y,z
loop_
_atom_site_type_symbol
_atom_site_label
_atom_site_fract_x
_atom_site_fract_y
_atom_site_fract_z
Si Si1 0.835863 0.103984 0.005417
Si Si2 0.214442 0.812523 0.319390
Si Si3 0.182879 0.602900 0.955413
Si Si4 0.584081 0.399370 0.583230
Si Si5 0.960008 0.735177 0.877684
Si Si6 0.361764 0.321807 0.228661
Si Si7 0.957371 0.264073 0.638588
O O1 0.744672 0.121766 0.015146
O O2 0.836363 0.125975 0.136112
O O3 0.857706 0.000000 0.969342
O O4 0.904879 0.173474 0.905202
O O5 0.163824 0.870440 0.447062
O O6 0.285502 0.746013 0.315268
O O7 0.141371 0.754353 0.312671
O O8 0.260094 0.874041 0.194420
O O9 0.158761 0.500000 0.975622
O O10 0.101314 0.666469 0.015008
O O11 0.557262 0.500000 0.582859
O O12 0.614076 0.385164 0.687464
O O13 0.508654 0.329714 0.613057
O O14 0.972606 0.692403 0.745997
O O15 0.051271 0.765061 0.856025
O O16 0.000000 0.310364 0.500000
#
# Coordination Sequence:
#
# PCOD9225590 Si02
#       7
#     8   8   8   8   8   8   8
#     4  11  22  36  60  89 115 151 194 242 298 347
#     4  11  20  38  59  83 116 158 195 235 286 345
#     4  11  23  38  61  88 116 156 201 244 285 339
#     4  10  22  38  58  88 119 149 191 245 296 348
#     4  11  21  39  57  86 123 156 193 240 294 348
#     4  11  23  37  59  83 121 158 193 233 295 353
#     4   9  20  35  60  85 112 152 191 240 294 348
#
# _framework density 9.9788940000000004
#
# number of rings (size 3 to 8) (size 9 to 14) (size 15 to 20)
#    0.000    1.429    2.857    3.000    0.000    6.571 
#    0.000    2.143    0.000    0.429    0.000    0.000 
#    0.000    0.000    0.000    0.000    0.000    0.000 
#
# Total GULP energy -156351.818083 kJ/mol
# GULP energy per Si atom -5583.993503 kJ/mol
# Density = 0.995618 g / cm^3
# Si number density = 9.978894 Si / 1000 Ang^3
#
#
#
# Elastic Constant Matrix: (Units=GPa)
#
#
# Indices 1 2 3 4 5 6 
#
# 1 50.3546 39.5401 3.4680 0.0000 -19.9668 0.0000
# 2 39.5401 47.7741 22.9021 0.0000 -14.1522 0.0000
# 3 3.4680 22.9021 86.3940 0.0000 -6.9179 0.0000
# 4 0.0000 0.0000 0.0000 1.7332 0.0000 7.2654
# 5 -19.9668 -14.1522 -6.9179 0.0000 36.7779 0.0000
# 6 0.0000 0.0000 0.0000 7.2654 0.0000 25.1365
#
#
#
# Elastic Compliance Matrix: (Units=1/GPa)
#
#
# Indices 1 2 3 4 5 6 
#
# 1 0.081008 -0.068940 0.016672 0.000000 0.020587 0.000000
# 2 -0.068940 0.085326 -0.020529 0.000000 -0.008455 0.000000
# 3 0.016672 -0.020529 0.016691 0.000000 0.004291 0.000000
# 4 0.000000 0.000000 0.000000 -2.726258 0.000000 0.787993
# 5 0.020587 -0.008455 0.004291 0.000000 0.035921 0.000000
# 6 0.000000 0.000000 0.000000 0.787993 0.000000 -0.187978
#
#
# Mechanical properties :
#
#
# Convention : Reuss Voigt Hill
#
# Bulk Modulus (GPa) = 26.71496 35.14923 30.93210
# Shear Modulus (GPa) = -1.97066 20.63702 9.33318
#
# Velocity S-wave (km/s) = -0.99477 3.21913 2.16486
# Velocity P-wave (km/s) = 3.47784 5.60955 4.66704
#
# Compressibility (1/GPa) = 0.03743220
#
# Stress axis : x y z
#
# Youngs Moduli (GPa) = 12.34446 11.71979 59.91174
#
# Poissons Ratio (x) = 0.80796 -0.99884
# Poissons Ratio (y) = 0.85102 1.22991
# Poissons Ratio (z) = -0.20581 0.24059
#
# Static dielectric constant tensor:
#      x y z
#    x 1.679470 0.000000 0.042990 
#    y 0.000000 1.664800 0.000000 
#    z 0.042990 0.000000 1.793170 
# 
# From -- ./inp_files/156500.got.cif
#   From: 2010.05.17/outbox.ucp.g08.bks.cvg/sg12_79_cif.got.tgz:156500.got - 2010.06.11 11:47:21.
