data_PCOD9225818
_publ_section_title
;
Structure prediction by ZEFSAII (Michael W. Deem and Ramdas Pophale) SiO2 
 PCOD9225818
Probable space group: C 2/M
;
_chemical_formula_sum "Si O2"
_cell_formula_units_Z 24
_cell_length_a 15.000000
_cell_length_b 21.000000
_cell_length_c 12.000000
_cell_angle_alpha 90.000000
_cell_angle_beta 140.000000
_cell_angle_gamma 90.000000
_cell_volume 2429.737165
_symmetry_space_group_name_H-M "C 2/M"
_symmetry_group_IT_number 12
_symmetry_cell_setting 'monoclinic'
loop_
_space_group_symop_operation_xyz
x,y,z
-x,y,-z
-x,-y,-z
x,-y,z
1/2+x,1/2+y,z
1/2-x,1/2+y,-z
1/2-x,1/2-y,-z
1/2+x,1/2-y,z
loop_
_atom_site_type_symbol
_atom_site_label
_atom_site_fract_x
_atom_site_fract_y
_atom_site_fract_z
Si Si1 0.162463 0.363282 0.662603
Si Si2 0.221341 0.233712 0.842752
Si Si3 0.505777 0.619551 0.632463
Si Si4 0.266638 0.573338 0.983267
Si Si5 0.543832 0.143260 0.928036
Si Si6 0.271310 0.826471 0.524893
O O1 0.172440 0.293503 0.726262
O O2 0.250411 0.402397 0.839908
O O3 0.217653 0.356115 0.589148
O O4 0.000000 0.383693 0.500000
O O5 0.100589 0.182464 0.714226
O O6 0.250000 0.250000 0.000000
O O7 0.366465 0.203625 0.942471
O O8 0.500000 0.591585 0.500000
O O9 0.354761 0.640236 0.530060
O O10 0.588092 0.582838 0.810578
O O11 0.233138 0.500000 0.949616
O O12 0.151903 0.607924 0.950540
O O13 0.412930 0.160978 0.727725
O O14 0.500000 0.107935 0.000000
O O15 0.250000 0.750000 0.500000
#
# Coordination Sequence:
#
# PCOD9225818 Si02
#       6
#     8   8   8   8   8   8
#     4  12  22  41  66  96 132 171 220 272 337 395
#     4  11  19  37  63  93 136 171 202 266 341 413
#     4  11  23  42  65  96 134 170 216 272 338 396
#     4  11  26  47  67  88 130 184 232 277 323 379
#     4  11  22  40  64  99 130 167 220 274 332 395
#     4  12  23  37  65 105 132 165 207 264 342 410
#
# _framework density 9.8776119999999992
#
# number of rings (size 3 to 8) (size 9 to 14) (size 15 to 20)
#    0.000    0.667    5.000    6.500    0.000    1.667 
#    0.000    2.500    0.000    0.000    0.000    0.000 
#    0.000    0.000    0.000    0.000    0.000    0.000 
#
# Total GULP energy -133992.492410 kJ/mol
# GULP energy per Si atom -5583.020517 kJ/mol
# Density = 0.985513 g / cm^3
# Si number density = 9.877612 Si / 1000 Ang^3
#
#
#
# Elastic Constant Matrix: (Units=GPa)
#
#
# Indices 1 2 3 4 5 6 
#
# 1 104.2015 0.0733 19.1330 0.0000 -11.3724 0.0000
# 2 0.0733 52.3016 13.5919 0.0000 -0.6185 0.0000
# 3 19.1330 13.5919 107.6421 0.0000 -8.0718 0.0000
# 4 0.0000 0.0000 0.0000 5.3539 0.0000 -1.2863
# 5 -11.3724 -0.6185 -8.0718 0.0000 50.5682 0.0000
# 6 0.0000 0.0000 0.0000 -1.2863 0.0000 2.7258
#
#
#
# Elastic Compliance Matrix: (Units=1/GPa)
#
#
# Indices 1 2 3 4 5 6 
#
# 1 0.010129 0.000453 -0.001707 0.000000 0.002011 0.000000
# 2 0.000453 0.019790 -0.002585 0.000000 -0.000069 0.000000
# 3 -0.001707 -0.002585 0.010008 0.000000 0.001182 0.000000
# 4 0.000000 0.000000 0.000000 0.210662 0.000000 0.099409
# 5 0.002011 -0.000069 0.001182 0.000000 0.020415 0.000000
# 6 0.000000 0.000000 0.000000 0.099409 0.000000 0.413772
#
#
# Mechanical properties :
#
#
# Convention : Reuss Voigt Hill
#
# Bulk Modulus (GPa) = 31.00647 36.63793 33.82220
# Shear Modulus (GPa) = 7.11031 27.15272 17.13152
#
# Velocity S-wave (km/s) = 1.89922 3.71139 2.94800
# Velocity P-wave (km/s) = 4.53197 6.07882 5.36148
#
# Compressibility (1/GPa) = 0.03225134
#
# Stress axis : x y z
#
# Youngs Moduli (GPa) = 98.72281 50.53029 99.91573
#
# Poissons Ratio (x) = -0.02290 0.17054
# Poissons Ratio (y) = -0.04474 0.25824
# Poissons Ratio (z) = 0.16851 0.13060
#
# Static dielectric constant tensor:
#      x y z
#    x 1.748690 0.000000 -0.016070 
#    y 0.000000 1.720530 0.000000 
#    z -0.016070 0.000000 1.700030 
# 
# From -- ./inp_files/147997.got.cif
#   From: 2010.05.17/outbox.ucp.g08.bks.cvg/sg12_74_cif.got.tgz:147997.got - 2010.06.11 11:47:21.
