data_PCOD9225913
_publ_section_title
;
Structure prediction by ZEFSAII (Michael W. Deem and Ramdas Pophale) SiO2 
 PCOD9225913
Probable space group: C 2/M
;
_chemical_formula_sum "Si O2"
_cell_formula_units_Z 25
_cell_length_a 9.000000
_cell_length_b 27.000000
_cell_length_c 12.000000
_cell_angle_alpha 90.000000
_cell_angle_beta 60.000000
_cell_angle_gamma 90.000000
_cell_volume 2525.330077
_symmetry_space_group_name_H-M "C 2/M"
_symmetry_group_IT_number 12
_symmetry_cell_setting 'monoclinic'
loop_
_space_group_symop_operation_xyz
x,y,z
-x,y,-z
-x,-y,-z
x,-y,z
1/2+x,1/2+y,z
1/2-x,1/2+y,-z
1/2-x,1/2-y,-z
1/2+x,1/2-y,z
loop_
_atom_site_type_symbol
_atom_site_label
_atom_site_fract_x
_atom_site_fract_y
_atom_site_fract_z
Si Si1 0.665488 0.558849 0.306952
Si Si2 0.969097 0.673920 0.830230
Si Si3 0.748429 0.138696 0.885611
Si Si4 0.500000 0.000000 0.500000
Si Si5 0.765125 0.085915 0.474029
Si Si6 0.353552 0.820566 0.630260
Si Si7 0.486026 0.716163 0.139769
O O1 0.692213 0.500000 0.305077
O O2 0.736788 0.583794 0.168156
O O3 0.463403 0.571038 0.380984
O O4 0.746152 0.584970 0.386391
O O5 0.939254 0.659555 0.713521
O O6 0.151911 0.668107 0.822393
O O7 0.926637 0.732248 0.858450
O O8 0.852285 0.642998 0.960169
O O9 0.921601 0.167930 0.845450
O O10 0.642058 0.043260 0.475658
O O11 0.718439 0.135721 0.423014
O O12 0.500000 0.794958 0.500000
O O13 0.201213 0.786402 0.733771
O O14 0.500000 0.713491 0.000000
#
# Coordination Sequence:
#
# PCOD9225913 Si02
#       7
#     8   8   8   2   8   8   8
#     4  11  22  42  66  96 135 179 224 275 339 409
#     4  11  24  42  67  96 131 176 233 276 336 407
#     4  11  22  39  68  97 125 178 230 282 327 403
#     4  12  20  38  68  92 124 172 230 256 330 418
#     4  11  22  39  65  96 133 178 218 268 339 411
#     4  12  25  40  64 101 138 169 225 288 334 390
#     4  12  22  44  71  94 133 190 232 267 341 421
#
# _framework density 9.8996960000000005
#
# number of rings (size 3 to 8) (size 9 to 14) (size 15 to 20)
#    0.000    0.640    7.200    2.880    0.000    0.640 
#    0.000    3.200    1.760    1.440    0.000    0.000 
#    0.000    0.000    0.000    0.000    0.000    0.000 
#
# Total GULP energy -139235.567344 kJ/mol
# GULP energy per Si atom -5569.422694 kJ/mol
# Density = 0.987716 g / cm^3
# Si number density = 9.899696 Si / 1000 Ang^3
#
#
#
# Elastic Constant Matrix: (Units=GPa)
#
#
# Indices 1 2 3 4 5 6 
#
# 1 84.8629 17.4113 41.6578 0.0000 12.8261 0.0000
# 2 17.4113 73.1154 46.6982 0.0000 11.5044 0.0000
# 3 41.6578 46.6982 154.2174 0.0000 12.5325 0.0000
# 4 0.0000 0.0000 0.0000 20.5597 0.0000 4.6855
# 5 12.8261 11.5044 12.5325 0.0000 34.5114 0.0000
# 6 0.0000 0.0000 0.0000 4.6855 0.0000 20.9224
#
#
#
# Elastic Compliance Matrix: (Units=1/GPa)
#
#
# Indices 1 2 3 4 5 6 
#
# 1 0.014119 -0.000648 -0.003306 0.000000 -0.003831 0.000000
# 2 -0.000648 0.017512 -0.004815 0.000000 -0.003848 0.000000
# 3 -0.003306 -0.004815 0.008867 0.000000 -0.000386 0.000000
# 4 0.000000 0.000000 0.000000 0.051255 0.000000 -0.011478
# 5 -0.003831 -0.003848 -0.000386 0.000000 0.031823 0.000000
# 6 0.000000 0.000000 0.000000 -0.011478 0.000000 0.050366
#
#
# Mechanical properties :
#
#
# Convention : Reuss Voigt Hill
#
# Bulk Modulus (GPa) = 43.55523 58.19226 50.87374
# Shear Modulus (GPa) = 25.10893 28.96061 27.03477
#
# Velocity S-wave (km/s) = 3.56500 3.82868 3.69919
# Velocity P-wave (km/s) = 6.24433 6.99998 6.63293
#
# Compressibility (1/GPa) = 0.02295936
#
# Stress axis : x y z
#
# Youngs Moduli (GPa) = 70.82870 57.10319 112.77897
#
# Poissons Ratio (x) = 0.03698 0.37289
# Poissons Ratio (y) = 0.04587 0.54304
# Poissons Ratio (z) = 0.23418 0.27496
#
# Static dielectric constant tensor:
#      x y z
#    x 1.754370 0.000000 -0.061030 
#    y 0.000000 1.663980 0.000000 
#    z -0.061030 0.000000 1.724190 
# 
# From -- ./inp_files/124182.got.cif
#   From: 2010.05.17/outbox.ucp.g08.bks.cvg/sg12_63_cif.got.tgz:124182.got - 2010.06.11 11:47:21.
