data_PCOD9225735
_publ_section_title
;
Structure prediction by ZEFSAII (Michael W. Deem and Ramdas Pophale) SiO2 
 PCOD9225735
Probable space group: C 2/M
;
_chemical_formula_sum "Si O2"
_cell_formula_units_Z 24
_cell_length_a 9.000000
_cell_length_b 30.000000
_cell_length_c 9.000000
_cell_angle_alpha 90.000000
_cell_angle_beta 90.000000
_cell_angle_gamma 90.000000
_cell_volume 2430.000000
_symmetry_space_group_name_H-M "C 2/M"
_symmetry_group_IT_number 12
_symmetry_cell_setting 'monoclinic'
loop_
_space_group_symop_operation_xyz
x,y,z
-x,y,-z
-x,-y,-z
x,-y,z
1/2+x,1/2+y,z
1/2-x,1/2+y,-z
1/2-x,1/2-y,-z
1/2+x,1/2-y,z
loop_
_atom_site_type_symbol
_atom_site_label
_atom_site_fract_x
_atom_site_fract_y
_atom_site_fract_z
Si Si1 0.832488 0.448785 0.554179
Si Si2 0.844082 0.947144 0.751657
Si Si3 0.245835 0.722008 0.845904
Si Si4 0.645239 0.611869 0.762764
Si Si5 0.952262 0.790631 0.330333
Si Si6 0.167705 0.623506 0.943273
O O1 0.833406 0.500000 0.610050
O O2 0.716907 0.446762 0.416981
O O3 0.772852 0.414723 0.675275
O O4 0.000000 0.438791 0.500000
O O5 0.724066 0.917385 0.841294
O O6 0.000475 0.920578 0.766928
O O7 0.855138 0.000000 0.795566
O O8 0.161800 0.753317 0.727517
O O9 0.408930 0.713237 0.781492
O O10 0.174410 0.672938 0.869778
O O11 0.250000 0.750000 0.000000
O O12 0.607382 0.658770 0.684499
O O13 0.712412 0.623753 0.923036
O O14 0.000000 0.782627 0.500000
O O15 0.000000 0.616102 0.000000
#
# Coordination Sequence:
#
# PCOD9225735 Si02
#       6
#     8   8   8   8   8   8
#     4  10  22  43  69 101 141 185 229 283 352 422
#     4  11  24  43  69 101 139 181 231 289 350 419
#     4  12  25  47  72  98 139 188 234 287 359 428
#     4  12  24  42  70 101 139 181 234 289 350 422
#     4  12  26  46  70 106 139 180 236 298 352 421
#     4  12  26  44  66 100 135 184 237 287 352 424
#
# _framework density 9.8765429999999999
#
# number of rings (size 3 to 8) (size 9 to 14) (size 15 to 20)
#    0.000    0.500    3.333    5.500    0.000    3.667 
#    0.000    0.000    0.000    0.000    0.000    0.000 
#    0.000    0.000    0.000    0.000    0.000    0.000 
#
# Total GULP energy -134256.557781 kJ/mol
# GULP energy per Si atom -5594.023241 kJ/mol
# Density = 0.985406 g / cm^3
# Si number density = 9.876543 Si / 1000 Ang^3
#
#
#
# Elastic Constant Matrix: (Units=GPa)
#
#
# Indices 1 2 3 4 5 6 
#
# 1 83.6985 40.2850 -12.5410 0.0000 -12.3294 0.0000
# 2 40.2850 174.3747 31.1538 0.0000 -8.4084 0.0000
# 3 -12.5410 31.1538 61.4382 0.0000 8.9771 0.0000
# 4 0.0000 0.0000 0.0000 32.0736 0.0000 -3.0965
# 5 -12.3294 -8.4084 8.9771 0.0000 43.2213 0.0000
# 6 0.0000 0.0000 0.0000 -3.0965 0.0000 38.1547
#
#
#
# Elastic Compliance Matrix: (Units=1/GPa)
#
#
# Indices 1 2 3 4 5 6 
#
# 1 0.015077 -0.004233 0.004864 0.000000 0.002467 0.000000
# 2 -0.004233 0.007658 -0.004938 0.000000 0.001308 0.000000
# 3 0.004864 -0.004938 0.020328 0.000000 -0.003795 0.000000
# 4 0.000000 0.000000 0.000000 0.031425 0.000000 0.002550
# 5 0.002467 0.001308 -0.003795 0.000000 0.024883 0.000000
# 6 0.000000 0.000000 0.000000 0.002550 0.000000 0.026416
#
#
# Mechanical properties :
#
#
# Convention : Reuss Voigt Hill
#
# Bulk Modulus (GPa) = 29.02963 48.58967 38.80965
# Shear Modulus (GPa) = 34.27334 40.06416 37.16875
#
# Velocity S-wave (km/s) = 4.16996 4.50849 4.34253
# Velocity P-wave (km/s) = 6.15734 7.19402 6.69578
#
# Compressibility (1/GPa) = 0.03444756
#
# Stress axis : x y z
#
# Youngs Moduli (GPa) = 66.32465 130.57999 49.19307
#
# Poissons Ratio (x) = 0.55278 -0.23926
# Poissons Ratio (y) = 0.28077 0.24294
# Poissons Ratio (z) = -0.32258 0.64487
#
# Static dielectric constant tensor:
#      x y z
#    x 1.688560 0.000000 -0.000740 
#    y 0.000000 1.675900 0.000000 
#    z -0.000740 0.000000 1.700360 
# 
# From -- ./inp_files/42162.got.cif
#   From: 2010.05.17/outbox.ucp.g08.bks.cvg/sg12_22_cif.got.tgz:42162.got - 2010.06.11 11:47:21.
