data_PCOD9225323
_publ_section_title
;
Structure prediction by ZEFSAII (Michael W. Deem and Ramdas Pophale) SiO2 
 PCOD9225323
Probable space group: C 2/M
;
_chemical_formula_sum "Si O2"
_cell_formula_units_Z 24
_cell_length_a 15.000000
_cell_length_b 9.000000
_cell_length_c 21.000000
_cell_angle_alpha 90.000000
_cell_angle_beta 110.000000
_cell_angle_gamma 90.000000
_cell_volume 2664.028580
_symmetry_space_group_name_H-M "C 2/M"
_symmetry_group_IT_number 12
_symmetry_cell_setting 'monoclinic'
loop_
_space_group_symop_operation_xyz
x,y,z
-x,y,-z
-x,-y,-z
x,-y,z
1/2+x,1/2+y,z
1/2-x,1/2+y,-z
1/2-x,1/2-y,-z
1/2+x,1/2-y,z
loop_
_atom_site_type_symbol
_atom_site_label
_atom_site_fract_x
_atom_site_fract_y
_atom_site_fract_z
Si Si1 0.943132 0.674727 0.396987
Si Si2 0.338736 0.679523 0.829497
Si Si3 0.970863 0.678455 0.182101
Si Si4 0.355442 0.325786 0.262630
Si Si5 0.648979 0.171941 0.485086
Si Si6 0.266852 0.176299 0.070720
O O1 0.937477 0.500000 0.374667
O O2 0.886436 0.789727 0.340947
O O3 0.892998 0.678663 0.453594
O O4 0.054342 0.719826 0.423741
O O5 0.343414 0.500000 0.825232
O O6 0.434831 0.751863 0.825950
O O7 0.244193 0.741420 0.772346
O O8 0.311937 0.720322 0.896029
O O9 0.981501 0.500000 0.191021
O O10 0.939426 0.753523 0.240603
O O11 0.874492 0.709420 0.118715
O O12 0.345338 0.500000 0.246020
O O13 0.750000 0.250000 0.500000
O O14 0.664700 0.000000 0.473079
O O15 0.260220 0.000000 0.063824
O O16 0.250000 0.250000 0.000000
#
# Coordination Sequence:
#
# PCOD9225323 Si02
#       6
#     8   8   8   8   8   8
#     4   9  19  37  55  75 107 144 176 215 266 320
#     4  10  21  38  57  80 109 143 181 224 269 318
#     4  10  21  38  57  80 109 143 181 224 269 318
#     4  11  22  36  56  82 109 143 181 222 271 322
#     4   9  19  35  56  78 104 139 177 217 265 314
#     4   9  20  36  55  79 109 142 178 220 267 316
#
# _framework density 9.0089120000000005
#
# number of rings (size 3 to 8) (size 9 to 14) (size 15 to 20)
#    0.000    2.333    0.000    4.500    0.000    7.333 
#    0.000    8.333    0.000    0.000    0.000    0.000 
#    0.000    0.000    0.000    0.000    0.000    0.000 
#
# Total GULP energy -133659.031547 kJ/mol
# GULP energy per Si atom -5569.126314 kJ/mol
# Density = 0.898841 g / cm^3
# Si number density = 9.008912 Si / 1000 Ang^3
#
#
#
# Elastic Constant Matrix: (Units=GPa)
#
#
# Indices 1 2 3 4 5 6 
#
# 1 122.3846 38.9891 -11.0137 0.0000 -6.3190 0.0000
# 2 38.9891 54.9341 13.7157 0.0000 -2.7433 0.0000
# 3 -11.0137 13.7157 26.9851 0.0000 -2.6921 0.0000
# 4 0.0000 0.0000 0.0000 26.5475 0.0000 -0.5378
# 5 -6.3190 -2.7433 -2.6921 0.0000 4.0947 0.0000
# 6 0.0000 0.0000 0.0000 -0.5378 0.0000 41.9316
#
#
#
# Elastic Compliance Matrix: (Units=1/GPa)
#
#
# Indices 1 2 3 4 5 6 
#
# 1 0.015041 -0.013283 0.015323 0.000000 0.024386 0.000000
# 2 -0.013283 0.032797 -0.023484 0.000000 -0.013966 0.000000
# 3 0.015323 -0.023484 0.059971 0.000000 0.047341 0.000000
# 4 0.000000 0.000000 0.000000 0.037678 0.000000 0.000483
# 5 0.024386 -0.013966 0.047341 0.000000 0.303619 0.000000
# 6 0.000000 0.000000 0.000000 0.000483 0.000000 0.023855
#
#
# Mechanical properties :
#
#
# Convention : Reuss Voigt Hill
#
# Bulk Modulus (GPa) = 15.40363 31.96509 23.68436
# Shear Modulus (GPa) = 9.30251 25.35563 17.32907
#
# Velocity S-wave (km/s) = 2.27468 3.75541 3.10461
# Velocity P-wave (km/s) = 3.93275 6.04842 5.10147
#
# Compressibility (1/GPa) = 0.06491978
#
# Stress axis : x y z
#
# Youngs Moduli (GPa) = 66.48616 30.49038 16.67477
#
# Poissons Ratio (x) = 0.40500 -0.25551
# Poissons Ratio (y) = 0.88314 0.39160
# Poissons Ratio (z) = -1.01876 0.71605
#
# Static dielectric constant tensor:
#      x y z
#    x 1.570860 0.000000 -0.003760 
#    y 0.000000 1.616420 0.000000 
#    z -0.003760 0.000000 1.746350 
# 
# From -- ./inp_files/308299.got.cif
#   From: 2010.05.17/outbox.ucp.g08.bks.cvg/sg12_155_cif.got.tgz:308299.got - 2010.06.11 11:47:21.
