data_PCOD9225516
_publ_section_title
;
Structure prediction by ZEFSAII (Michael W. Deem and Ramdas Pophale) SiO2 
 PCOD9225516
Probable space group: C 2/M
;
_chemical_formula_sum "Si O2"
_cell_formula_units_Z 32
_cell_length_a 30.000000
_cell_length_b 9.000000
_cell_length_c 18.000000
_cell_angle_alpha 90.000000
_cell_angle_beta 140.000000
_cell_angle_gamma 90.000000
_cell_volume 3123.947783
_symmetry_space_group_name_H-M "C 2/M"
_symmetry_group_IT_number 12
_symmetry_cell_setting 'monoclinic'
loop_
_space_group_symop_operation_xyz
x,y,z
-x,y,-z
-x,-y,-z
x,-y,z
1/2+x,1/2+y,z
1/2-x,1/2+y,-z
1/2-x,1/2-y,-z
1/2+x,1/2-y,z
loop_
_atom_site_type_symbol
_atom_site_label
_atom_site_fract_x
_atom_site_fract_y
_atom_site_fract_z
Si Si1 0.362335 0.172493 0.487742
Si Si2 0.426129 0.676155 0.867408
Si Si3 0.283618 0.674662 0.772150
Si Si4 0.054794 0.673946 0.262868
Si Si5 0.921951 0.831516 0.430566
Si Si6 0.920847 0.822415 0.163398
Si Si7 0.780703 0.323770 0.923867
Si Si8 0.858961 0.325833 0.219294
O O1 0.281345 0.194466 0.366138
O O2 0.383341 0.193862 0.599446
O O3 0.409024 0.282898 0.498165
O O4 0.379262 0.000000 0.490405
O O5 0.426154 0.500000 0.850230
O O6 0.358678 0.703735 0.831950
O O7 0.422906 0.769124 0.788519
O O8 0.500000 0.709696 0.000000
O O9 0.282784 0.500000 0.795482
O O10 0.271951 0.782146 0.826450
O O11 0.035982 0.500000 0.236956
O O12 0.988411 0.764814 0.207369
O O13 0.881262 0.709103 0.331334
O O14 0.000000 0.829033 0.500000
O O15 0.895347 0.000000 0.384004
O O16 0.914628 0.755240 0.238045
O O17 0.918545 0.000000 0.161637
O O18 0.852175 0.754130 0.038275
O O19 0.783032 0.500000 0.938933
O O20 0.715592 0.251316 0.883024
O O21 0.855834 0.500000 0.199813
#
# Coordination Sequence:
#
# PCOD9225516 Si02
#       8
#     8   8   8   8   8   8   8   8
#     4  10  22  40  62  89 126 169 212 261 318 380
#     4  10  22  41  66  95 127 166 213 263 321 385
#     4  10  21  40  65  93 127 171 216 260 317 383
#     4  11  24  42  64  94 128 164 211 264 321 379
#     4  11  23  38  59  89 124 166 218 269 314 372
#     4  12  25  42  63  89 124 167 212 263 323 383
#     4  12  24  40  63  94 128 164 211 264 318 379
#     4  12  24  40  61  89 126 167 212 261 317 379
#
# _framework density 10.243449
#
# number of rings (size 3 to 8) (size 9 to 14) (size 15 to 20)
#    0.000    1.000    1.250    6.000    0.000    6.250 
#    0.000    0.000    0.000    0.000    0.000    0.000 
#    0.000    0.000    0.000    0.000    0.000    0.000 
#
# Total GULP energy -178958.688414 kJ/mol
# GULP energy per Si atom -5592.459013 kJ/mol
# Density = 1.022013 g / cm^3
# Si number density = 10.243449 Si / 1000 Ang^3
#
#
#
# Elastic Constant Matrix: (Units=GPa)
#
#
# Indices 1 2 3 4 5 6 
#
# 1 60.2048 37.3223 9.8162 0.0000 10.5142 0.0000
# 2 37.3223 116.9403 31.9366 0.0000 -1.0565 0.0000
# 3 9.8162 31.9366 64.6433 0.0000 -0.4334 0.0000
# 4 0.0000 0.0000 0.0000 20.5720 0.0000 -4.0095
# 5 10.5142 -1.0565 -0.4334 0.0000 32.1447 0.0000
# 6 0.0000 0.0000 0.0000 -4.0095 0.0000 35.3175
#
#
#
# Elastic Compliance Matrix: (Units=1/GPa)
#
#
# Indices 1 2 3 4 5 6 
#
# 1 0.022408 -0.007256 0.000131 0.000000 -0.007566 0.000000
# 2 -0.007256 0.012237 -0.004926 0.000000 0.002709 0.000000
# 3 0.000131 -0.004926 0.017883 0.000000 0.000036 0.000000
# 4 0.000000 0.000000 0.000000 0.049710 0.000000 0.005643
# 5 -0.007566 0.002709 0.000036 0.000000 0.033674 0.000000
# 6 0.000000 0.000000 0.000000 0.005643 0.000000 0.028955
#
#
# Mechanical properties :
#
#
# Convention : Reuss Voigt Hill
#
# Bulk Modulus (GPa) = 35.17680 44.43761 39.80721
# Shear Modulus (GPa) = 25.19618 28.45439 26.82528
#
# Velocity S-wave (km/s) = 3.51075 3.73085 3.62247
# Velocity P-wave (km/s) = 5.80013 6.34798 6.08023
#
# Compressibility (1/GPa) = 0.02842782
#
# Stress axis : x y z
#
# Youngs Moduli (GPa) = 44.62693 81.72081 55.91830
#
# Poissons Ratio (x) = 0.59296 -0.00734
# Poissons Ratio (y) = 0.32381 0.27543
# Poissons Ratio (z) = -0.00586 0.40252
#
# Static dielectric constant tensor:
#      x y z
#    x 1.714450 0.000000 -0.040520 
#    y 0.000000 1.689180 0.000000 
#    z -0.040520 0.000000 1.793610 
# 
# From -- ./inp_files/295712.got.cif
#   From: 2010.05.17/outbox.ucp.g08.bks.cvg/sg12_148_cif.got.tgz:295712.got - 2010.06.11 11:47:21.
