data_PCOD9225432
_publ_section_title
;
Structure prediction by ZEFSAII (Michael W. Deem and Ramdas Pophale) SiO2 
 PCOD9225432
Probable space group: C 2/M
;
_chemical_formula_sum "Si O2"
_cell_formula_units_Z 28
_cell_length_a 9.000000
_cell_length_b 21.000000
_cell_length_c 30.000000
_cell_angle_alpha 90.000000
_cell_angle_beta 30.000000
_cell_angle_gamma 90.000000
_cell_volume 2835.000000
_symmetry_space_group_name_H-M "C 2/M"
_symmetry_group_IT_number 12
_symmetry_cell_setting 'monoclinic'
loop_
_space_group_symop_operation_xyz
x,y,z
-x,y,-z
-x,-y,-z
x,-y,z
1/2+x,1/2+y,z
1/2-x,1/2+y,-z
1/2-x,1/2-y,-z
1/2+x,1/2-y,z
loop_
_atom_site_type_symbol
_atom_site_label
_atom_site_fract_x
_atom_site_fract_y
_atom_site_fract_z
Si Si1 0.319868 0.073391 0.239322
Si Si2 0.143342 0.203194 0.798279
Si Si3 0.776552 0.841463 0.399227
Si Si4 0.111250 0.571194 0.022211
Si Si5 0.642923 0.170886 0.088733
Si Si6 0.177570 0.930987 0.825630
Si Si7 0.243663 0.750254 0.326878
O O1 0.493219 0.125049 0.164406
O O2 0.489571 0.074168 0.242668
O O3 0.990843 0.101259 0.329334
O O4 0.330355 0.000000 0.220806
O O5 0.073850 0.130105 0.825654
O O6 0.490669 0.209949 0.720292
O O7 0.113246 0.219146 0.754382
O O8 0.973249 0.257185 0.871564
O O9 0.500000 0.863010 0.500000
O O10 0.669832 0.802412 0.383245
O O11 0.976566 0.793415 0.377733
O O12 0.020283 0.500000 0.062817
O O13 0.468000 0.568645 0.923732
O O14 0.051449 0.633762 0.067055
O O15 0.000000 0.575402 0.000000
O O16 0.000000 0.171690 0.000000
O O17 0.136751 0.000000 0.813932
#
# Coordination Sequence:
#
# PCOD9225432 Si02
#       7
#     8   8   8   8   8   8   8
#     4  11  22  40  64  92 126 166 207 257 312 375
#     4  11  22  39  61  91 126 157 211 258 309 372
#     4  11  22  41  67  96 122 160 205 256 318 381
#     4  10  23  38  54  85 123 162 214 260 304 360
#     4  12  23  39  62  90 122 171 214 262 302 364
#     4  10  21  39  61  83 121 169 207 253 316 375
#     4  10  21  40  63  91 126 158 197 260 316 372
#
# _framework density 9.8765429999999999
#
# number of rings (size 3 to 8) (size 9 to 14) (size 15 to 20)
#    0.000    1.286    5.714    0.857    2.000    2.000 
#    0.000    0.714    0.000    0.000    0.000    2.000 
#    0.000    0.000    0.000    0.000    0.000    0.000 
#
# Total GULP energy -156187.145426 kJ/mol
# GULP energy per Si atom -5578.112337 kJ/mol
# Density = 0.985406 g / cm^3
# Si number density = 9.876543 Si / 1000 Ang^3
#
#
#
# Elastic Constant Matrix: (Units=GPa)
#
#
# Indices 1 2 3 4 5 6 
#
# 1 69.5020 16.4634 5.7262 -0.0076 3.9119 0.0006
# 2 16.4634 135.0761 31.3762 0.1760 6.2395 -0.2396
# 3 5.7262 31.3762 83.4577 -0.4293 -1.7820 0.2012
# 4 -0.0076 0.1760 -0.4293 12.0311 0.1772 10.7209
# 5 3.9119 6.2395 -1.7820 0.1772 17.7055 -0.1156
# 6 0.0006 -0.2396 0.2012 10.7209 -0.1156 -14.5535
#
#
#
# Elastic Compliance Matrix: (Units=1/GPa)
#
#
# Indices 1 2 3 4 5 6 
#
# 1 0.014960 -0.001580 -0.000492 0.000011 -0.002798 0.000050
# 2 -0.001580 0.008460 -0.003135 -0.000031 -0.002949 -0.000182
# 3 -0.000492 -0.003135 0.013249 0.000175 0.002548 0.000343
# 4 0.000011 -0.000031 0.000175 0.050182 -0.000235 0.036972
# 5 -0.002798 -0.002949 0.002548 -0.000235 0.058392 -0.000553
# 6 0.000050 -0.000182 0.000343 0.036972 -0.000553 -0.041464
#
#
# Mechanical properties :
#
#
# Convention : Reuss Voigt Hill
#
# Bulk Modulus (GPa) = 38.08754 43.90751 40.99752
# Shear Modulus (GPa) = 40.66869 18.66796 29.66833
#
# Velocity S-wave (km/s) = 4.54238 3.07753 3.87972
# Velocity P-wave (km/s) = 6.84358 5.90802 6.39294
#
# Compressibility (1/GPa) = 0.02625531
#
# Stress axis : x y z
#
# Youngs Moduli (GPa) = 66.84348 118.20511 75.47794
#
# Poissons Ratio (x) = 0.18673 0.03716
# Poissons Ratio (y) = 0.10559 0.23661
# Poissons Ratio (z) = 0.03291 0.37055
#
# Static dielectric constant tensor:
#      x y z
#    x 1.716130 0.000010 -0.010130 
#    y 0.000010 1.721750 -0.000020 
#    z -0.010130 -0.000020 1.717850 
# 
# From -- ./inp_files/257023.got.cif
#   From: 2010.05.17/outbox.ucp.g08.bks.cvg/sg12_129_cif.got.tgz:257023.got - 2010.06.11 11:47:21.
