data_PCOD9225640
_publ_section_title
;
Structure prediction by ZEFSAII (Michael W. Deem and Ramdas Pophale) SiO2 
 PCOD9225640
Probable space group: C 2/M
;
_chemical_formula_sum "Si O2"
_cell_formula_units_Z 32
_cell_length_a 24.000000
_cell_length_b 21.000000
_cell_length_c 9.000000
_cell_angle_alpha 90.000000
_cell_angle_beta 130.000000
_cell_angle_gamma 90.000000
_cell_volume 3474.777594
_symmetry_space_group_name_H-M "C 2/M"
_symmetry_group_IT_number 12
_symmetry_cell_setting 'monoclinic'
loop_
_space_group_symop_operation_xyz
x,y,z
-x,y,-z
-x,-y,-z
x,-y,z
1/2+x,1/2+y,z
1/2-x,1/2+y,-z
1/2-x,1/2-y,-z
1/2+x,1/2-y,z
loop_
_atom_site_type_symbol
_atom_site_label
_atom_site_fract_x
_atom_site_fract_y
_atom_site_fract_z
Si Si1 0.448207 0.682246 0.784873
Si Si2 0.841474 0.072962 0.000356
Si Si3 0.683927 0.072446 0.887634
Si Si4 0.058123 0.186155 0.709411
Si Si5 0.077654 0.678871 0.215823
Si Si6 0.179724 0.426951 0.237587
Si Si7 0.920302 0.680147 0.420189
Si Si8 0.657784 0.572367 0.356665
O O1 0.505186 0.705144 0.756202
O O2 0.408153 0.745106 0.780093
O O3 0.391512 0.626757 0.652018
O O4 0.500000 0.653933 0.000000
O O5 0.886477 0.132530 0.142061
O O6 0.869664 0.000000 0.075379
O O7 0.762793 0.075378 0.944648
O O8 0.838902 0.081050 0.816771
O O9 0.636451 0.129331 0.739600
O O10 0.655802 0.000000 0.810576
O O11 0.685245 0.080608 0.068621
O O12 0.089184 0.248682 0.673510
O O13 0.000000 0.154459 0.500000
O O14 0.131627 0.628063 0.232373
O O15 0.080151 0.674390 0.400620
O O16 0.000000 0.668400 0.000000
O O17 0.152714 0.500000 0.220441
O O18 0.260704 0.423003 0.442120
O O19 0.000000 0.661415 0.500000
O O20 0.631075 0.500000 0.339811
#
# Coordination Sequence:
#
# PCOD9225640 Si02
#       8
#     8   8   8   8   8   8   8   8
#     4  11  22  39  62  90 122 159 199 249 299 353
#     4  10  22  41  62  88 122 162 203 247 298 355
#     4  10  23  41  63  91 124 158 198 246 301 359
#     4  11  23  40  60  89 125 157 201 251 299 355
#     4  11  23  40  66  89 121 158 200 249 298 355
#     4  10  23  41  62  92 122 155 201 250 298 356
#     4  11  22  41  64  89 122 159 198 245 302 358
#     4  10  22  40  63  89 122 161 204 248 295 354
#
# _framework density 9.2092220000000005
#
# number of rings (size 3 to 8) (size 9 to 14) (size 15 to 20)
#    0.000    1.500    3.750    1.500    3.500    4.000 
#    0.000    0.000    0.000    0.000    0.000    0.000 
#    0.000    0.000    0.000    0.000    0.000    0.000 
#
# Total GULP energy -178323.705157 kJ/mol
# GULP energy per Si atom -5572.615786 kJ/mol
# Density = 0.918826 g / cm^3
# Si number density = 9.209222 Si / 1000 Ang^3
#
#
#
# Elastic Constant Matrix: (Units=GPa)
#
#
# Indices 1 2 3 4 5 6 
#
# 1 73.0958 57.8360 21.6600 0.0000 -7.7660 0.0000
# 2 57.8360 156.9311 66.9294 0.0000 15.1006 0.0000
# 3 21.6600 66.9294 109.3623 0.0000 -5.5425 0.0000
# 4 0.0000 0.0000 0.0000 30.9197 0.0000 6.5377
# 5 -7.7660 15.1006 -5.5425 0.0000 27.3221 0.0000
# 6 0.0000 0.0000 0.0000 6.5377 0.0000 36.9258
#
#
#
# Elastic Compliance Matrix: (Units=1/GPa)
#
#
# Indices 1 2 3 4 5 6 
#
# 1 0.022836 -0.010861 0.002786 0.000000 0.013058 0.000000
# 2 -0.010861 0.014844 -0.007583 0.000000 -0.012829 0.000000
# 3 0.002786 -0.007583 0.013626 0.000000 0.007747 0.000000
# 4 0.000000 0.000000 0.000000 0.033600 0.000000 -0.005949
# 5 0.013058 -0.012829 0.007747 0.000000 0.048974 0.000000
# 6 0.000000 0.000000 0.000000 -0.005949 0.000000 0.028135
#
#
# Mechanical properties :
#
#
# Convention : Reuss Voigt Hill
#
# Bulk Modulus (GPa) = 50.02848 70.24891 60.13870
# Shear Modulus (GPa) = 25.00083 31.89777 28.44930
#
# Velocity S-wave (km/s) = 3.68826 4.16605 3.93442
# Velocity P-wave (km/s) = 6.73490 7.83356 7.30491
#
# Compressibility (1/GPa) = 0.01998862
#
# Stress axis : x y z
#
# Youngs Moduli (GPa) = 43.79066 67.36925 73.39001
#
# Poissons Ratio (x) = 0.73167 -0.20444
# Poissons Ratio (y) = 0.47560 0.55654
# Poissons Ratio (z) = -0.12199 0.51089
#
# Static dielectric constant tensor:
#      x y z
#    x 1.645610 0.000000 -0.030100 
#    y 0.000000 1.644880 0.000000 
#    z -0.030100 0.000000 1.662810 
# 
# From -- ./inp_files/99132.got.cif
#   From: 2010.05.17/outbox.ucp.g08.bks.cvg/sg12_50_cif.got.tgz:99132.got - 2010.06.11 11:47:21.
