data_PCOD9225249
_publ_section_title
;
Structure prediction by ZEFSAII (Michael W. Deem and Ramdas Pophale) SiO2 
 PCOD9225249
Probable space group: C 2/M
;
_chemical_formula_sum "Si O2"
_cell_formula_units_Z 24
_cell_length_a 12.000000
_cell_length_b 15.000000
_cell_length_c 27.000000
_cell_angle_alpha 90.000000
_cell_angle_beta 30.000000
_cell_angle_gamma 90.000000
_cell_volume 2430.000000
_symmetry_space_group_name_H-M "C 2/M"
_symmetry_group_IT_number 12
_symmetry_cell_setting 'monoclinic'
loop_
_space_group_symop_operation_xyz
x,y,z
-x,y,-z
-x,-y,-z
x,-y,z
1/2+x,1/2+y,z
1/2-x,1/2+y,-z
1/2-x,1/2-y,-z
1/2+x,1/2-y,z
loop_
_atom_site_type_symbol
_atom_site_label
_atom_site_fract_x
_atom_site_fract_y
_atom_site_fract_z
Si Si1 0.282565 0.304918 0.611555
Si Si2 0.172629 0.395508 0.979576
Si Si3 0.023751 0.104133 0.604324
Si Si4 0.560124 0.341132 0.766318
Si Si5 0.546998 0.895291 0.611763
Si Si6 0.737854 0.103860 0.803674
O O1 0.500000 0.262589 0.500000
O O2 0.397274 0.380737 0.601360
O O3 0.145200 0.244539 0.702861
O O4 0.117089 0.343215 0.634070
O O5 0.237903 0.500000 0.963427
O O6 0.388275 0.339801 0.878992
O O7 0.000000 0.397265 0.000000
O O8 0.006607 0.360218 0.086727
O O9 0.871708 0.145753 0.706061
O O10 0.276045 0.137020 0.498424
O O11 0.042863 0.000000 0.609151
O O12 0.411468 0.392374 0.782467
O O13 0.792085 0.384068 0.694297
O O14 0.591453 0.000000 0.602504
O O15 0.692547 0.000000 0.810204
#
# Coordination Sequence:
#
# PCOD9225249 Si02
#       6
#     8   8   8   8   8   8
#     4  10  23  36  53  75 114 153 176 210 272 330
#     4   8  15  32  54  77 105 141 177 213 268 327
#     4   9  19  36  57  78 104 142 187 219 255 322
#     4  11  21  31  56  83 110 135 176 227 273 316
#     4  10  21  37  57  80 108 146 186 220 261 321
#     4   9  18  33  58  82 105 138 178 224 269 319
#
# _framework density 9.8765429999999999
#
# number of rings (size 3 to 8) (size 9 to 14) (size 15 to 20)
#    0.000    2.500    0.000    3.000    4.667    3.333 
#    0.000    3.333    3.667    0.000    0.000    4.667 
#    0.000    0.000    0.000    0.000    0.000    0.000 
#
# Total GULP energy -133626.898963 kJ/mol
# GULP energy per Si atom -5567.787457 kJ/mol
# Density = 0.985406 g / cm^3
# Si number density = 9.876543 Si / 1000 Ang^3
#
#
#
# Elastic Constant Matrix: (Units=GPa)
#
#
# Indices 1 2 3 4 5 6 
#
# 1 61.5632 15.2829 59.6293 0.0031 11.0789 -0.0013
# 2 15.2829 43.4413 29.0277 -0.0009 -9.0947 -0.0012
# 3 59.6293 29.0277 221.3997 -0.0026 -10.1273 -0.0034
# 4 0.0031 -0.0009 -0.0026 14.7424 -0.0065 5.4917
# 5 11.0789 -9.0947 -10.1273 -0.0065 4.5836 0.0009
# 6 -0.0013 -0.0012 -0.0034 5.4917 0.0009 22.6258
#
#
#
# Elastic Compliance Matrix: (Units=1/GPa)
#
#
# Indices 1 2 3 4 5 6 
#
# 1 -0.021915 0.029363 0.007943 0.000073 0.128782 -0.000022
# 2 0.029363 0.000665 -0.012439 -0.000058 -0.097136 0.000018
# 3 0.007943 -0.012439 0.002226 -0.000022 -0.038962 0.000007
# 4 0.000073 -0.000058 -0.000022 0.074574 -0.000230 -0.018101
# 5 0.128782 -0.097136 -0.038962 -0.000230 -0.371922 0.000068
# 6 -0.000022 0.000018 0.000007 -0.018101 0.000068 0.048591
#
#
# Mechanical properties :
#
#
# Convention : Reuss Voigt Hill
#
# Bulk Modulus (GPa) = 32.56079 59.36488 45.96283
# Shear Modulus (GPa) = -16.27179 23.22131 3.47476
#
# Velocity S-wave (km/s) = -2.87323 3.43239 1.32775
# Velocity P-wave (km/s) = 2.34785 6.76957 5.06653
#
# Compressibility (1/GPa) = 0.03071179
#
# Stress axis : x y z
#
# Youngs Moduli (GPa) = -45.63012 1503.45132 449.23495
#
# Poissons Ratio (x) = -44.14653 -3.56843
# Poissons Ratio (y) = 1.33986 5.58795
# Poissons Ratio (z) = 0.36246 18.70115
#
# Static dielectric constant tensor:
#      x y z
#    x 1.673190 0.000000 0.054710 
#    y 0.000000 1.718310 0.000000 
#    z 0.054710 0.000000 1.767060 
# 
# From -- ./inp_files/131018.got.cif
#   From: 2010.05.17/outbox.ucp.g08.bks.cvg/sg12_66_cif.got.tgz:131018.got - 2010.06.11 11:47:21.
