data_PCOD9225515
_publ_section_title
;
Structure prediction by ZEFSAII (Michael W. Deem and Ramdas Pophale) SiO2 
 PCOD9225515
Probable space group: C 2/M
;
_chemical_formula_sum "Si O2"
_cell_formula_units_Z 28
_cell_length_a 21.000000
_cell_length_b 9.000000
_cell_length_c 30.000000
_cell_angle_alpha 90.000000
_cell_angle_beta 30.000000
_cell_angle_gamma 90.000000
_cell_volume 2835.000000
_symmetry_space_group_name_H-M "C 2/M"
_symmetry_group_IT_number 12
_symmetry_cell_setting 'monoclinic'
loop_
_space_group_symop_operation_xyz
x,y,z
-x,y,-z
-x,-y,-z
x,-y,z
1/2+x,1/2+y,z
1/2-x,1/2+y,-z
1/2-x,1/2-y,-z
1/2+x,1/2-y,z
loop_
_atom_site_type_symbol
_atom_site_label
_atom_site_fract_x
_atom_site_fract_y
_atom_site_fract_z
Si Si1 0.748291 0.677617 0.695563
Si Si2 0.192053 0.679353 0.444808
Si Si3 0.452174 0.321028 0.636155
Si Si4 0.953307 0.821596 0.886228
Si Si5 0.600788 0.680354 0.978589
Si Si6 0.142063 0.180117 0.150835
Si Si7 0.559550 0.820071 0.662781
O O1 0.762647 0.500000 0.695206
O O2 0.789856 0.704986 0.619178
O O3 0.598978 0.715169 0.786637
O O4 0.825093 0.762945 0.687855
O O5 0.186416 0.500000 0.455150
O O6 0.063939 0.761710 0.536462
O O7 0.302934 0.748358 0.408996
O O8 0.450261 0.500000 0.641736
O O9 0.490556 0.246233 0.660394
O O10 0.864423 0.774749 0.898032
O O11 0.940443 0.000000 0.894792
O O12 0.937613 0.775677 0.947344
O O13 0.616791 0.500000 0.967052
O O14 0.736285 0.762917 0.894899
O O15 0.500000 0.717805 0.000000
O O16 0.024470 0.262333 0.245032
O O17 0.131488 0.000000 0.159841
O O18 0.566627 0.000000 0.655731
#
# Coordination Sequence:
#
# PCOD9225515 Si02
#       7
#     8   8   8   8   8   8   8
#     4  10  21  40  65  91 125 171 214 256 314 375
#     4  11  22  42  67  92 124 166 214 262 316 375
#     4  12  26  41  60  92 131 167 209 263 318 374
#     4   9  19  39  64  90 125 167 208 252 308 370
#     4  10  22  39  63  96 129 165 207 253 307 373
#     4  11  22  41  65  91 125 166 210 260 313 370
#     4  12  25  42  65  92 124 165 213 264 319 379
#
# _framework density 9.8765429999999999
#
# number of rings (size 3 to 8) (size 9 to 14) (size 15 to 20)
#    0.000    1.286    1.429    4.714    2.000    3.143 
#    0.000    1.429    0.000    0.000    0.000    0.000 
#    0.000    0.000    0.000    0.000    0.000    0.000 
#
# Total GULP energy -156266.175072 kJ/mol
# GULP energy per Si atom -5580.934824 kJ/mol
# Density = 0.985406 g / cm^3
# Si number density = 9.876543 Si / 1000 Ang^3
#
#
#
# Elastic Constant Matrix: (Units=GPa)
#
#
# Indices 1 2 3 4 5 6 
#
# 1 137.6194 31.8364 -11.5840 0.0000 -16.2519 -0.0002
# 2 31.8364 99.4657 -0.6423 0.0000 -2.7649 0.0003
# 3 -11.5840 -0.6423 27.2723 -0.0004 -0.0720 -0.0002
# 4 0.0000 0.0000 -0.0004 26.0126 0.0000 -4.0601
# 5 -16.2519 -2.7649 -0.0720 0.0000 31.9585 0.0001
# 6 -0.0002 0.0003 -0.0002 -4.0601 0.0001 41.6102
#
#
#
# Elastic Compliance Matrix: (Units=1/GPa)
#
#
# Indices 1 2 3 4 5 6 
#
# 1 0.008678 -0.002637 0.003635 0.000000 0.004193 0.000000
# 2 -0.002637 0.010881 -0.000865 0.000000 -0.000402 0.000000
# 3 0.003635 -0.000865 0.038196 0.000001 0.001860 0.000000
# 4 0.000000 0.000000 0.000001 0.039037 0.000000 0.003809
# 5 0.004193 -0.000402 0.001860 0.000000 0.033392 0.000000
# 6 0.000000 0.000000 0.000000 0.003809 0.000000 0.024404
#
#
# Mechanical properties :
#
#
# Convention : Reuss Voigt Hill
#
# Bulk Modulus (GPa) = 17.23574 33.73085 25.48329
# Shear Modulus (GPa) = 28.79133 36.23275 32.51204
#
# Velocity S-wave (km/s) = 3.82194 4.28750 4.06140
# Velocity P-wave (km/s) = 5.31233 6.45163 5.90950
#
# Compressibility (1/GPa) = 0.05801899
#
# Stress axis : x y z
#
# Youngs Moduli (GPa) = 115.23839 91.90205 26.18102
#
# Poissons Ratio (x) = 0.24239 -0.09516
# Poissons Ratio (y) = 0.30394 0.02265
# Poissons Ratio (z) = -0.41887 0.07950
#
# Static dielectric constant tensor:
#      x y z
#    x 1.672780 0.000000 0.016590 
#    y 0.000000 1.656550 0.000000 
#    z 0.016590 0.000000 1.799840 
# 
# From -- ./inp_files/380586.got.cif
#   From: 2010.05.17/outbox.ucp.g08.bks.cvg/sg12_191_cif.got.tgz:380586.got - 2010.06.11 11:47:21.
