data_PCOD9225676
_publ_section_title
;
Structure prediction by ZEFSAII (Michael W. Deem and Ramdas Pophale) SiO2 
 PCOD9225676
Probable space group: C 2/M
;
_chemical_formula_sum "Si O2"
_cell_formula_units_Z 20
_cell_length_a 30.000000
_cell_length_b 9.000000
_cell_length_c 15.000000
_cell_angle_alpha 90.000000
_cell_angle_beta 30.000000
_cell_angle_gamma 90.000000
_cell_volume 2025.000000
_symmetry_space_group_name_H-M "C 2/M"
_symmetry_group_IT_number 12
_symmetry_cell_setting 'monoclinic'
loop_
_space_group_symop_operation_xyz
x,y,z
-x,y,-z
-x,-y,-z
x,-y,z
1/2+x,1/2+y,z
1/2-x,1/2+y,-z
1/2-x,1/2-y,-z
1/2+x,1/2-y,z
loop_
_atom_site_type_symbol
_atom_site_label
_atom_site_fract_x
_atom_site_fract_y
_atom_site_fract_z
Si Si1 0.506651 0.825567 0.382392
Si Si2 0.807045 0.175365 0.978582
Si Si3 0.985785 0.677886 0.923508
Si Si4 0.895242 0.826524 0.430875
Si Si5 0.708751 0.173445 0.813153
O O1 0.500000 0.809510 0.500000
O O2 0.593751 0.739463 0.199679
O O3 0.425963 0.755364 0.467711
O O4 0.514531 0.000000 0.347636
O O5 0.805444 0.000000 0.970906
O O6 0.750000 0.250000 0.000000
O O7 0.773029 0.225018 0.133603
O O8 0.998680 0.500000 0.896207
O O9 0.052596 0.755794 0.740703
O O10 0.885710 0.710175 0.065481
O O11 0.000000 0.725753 0.000000
O O12 0.789528 0.811175 0.604937
O O13 0.917321 0.000000 0.401081
O O14 0.706804 0.000000 0.845913
#
# Coordination Sequence:
#
# PCOD9225676 Si02
#       5
#     8   8   8   8   8
#     4  11  23  39  60  88 124 166 210 258 313 375
#     4  12  24  38  60  90 125 166 211 257 311 371
#     4  10  22  42  67  92 124 170 216 262 319 378
#     4  11  23  39  62  93 126 165 210 263 317 371
#     4  10  22  41  63  90 129 167 207 260 317 374
#
# _framework density 9.8765429999999999
#
# number of rings (size 3 to 8) (size 9 to 14) (size 15 to 20)
#    0.000    1.200    2.000    4.200    0.000    7.600 
#    0.000    0.000    0.000    0.000    0.000    0.000 
#    0.000    0.000    0.000    0.000    0.000    0.000 
#
# Total GULP energy -111783.174541 kJ/mol
# GULP energy per Si atom -5589.158727 kJ/mol
# Density = 0.985406 g / cm^3
# Si number density = 9.876543 Si / 1000 Ang^3
#
#
#
# Elastic Constant Matrix: (Units=GPa)
#
#
# Indices 1 2 3 4 5 6 
#
# 1 73.4428 66.2762 49.6570 0.0000 29.9279 0.0000
# 2 66.2762 68.5926 76.5976 0.0000 13.7290 0.0000
# 3 49.6570 76.5976 129.3194 0.0000 -1.0802 0.0000
# 4 0.0000 0.0000 0.0000 26.1386 0.0000 13.7517
# 5 29.9279 13.7290 -1.0802 0.0000 5.4126 0.0000
# 6 0.0000 0.0000 0.0000 13.7517 0.0000 35.5924
#
#
#
# Elastic Compliance Matrix: (Units=1/GPa)
#
#
# Indices 1 2 3 4 5 6 
#
# 1 0.082408 -0.240976 0.112577 0.000000 0.178044 0.000000
# 2 -0.240976 0.637932 -0.288191 0.000001 -0.343193 -0.000001
# 3 0.112577 -0.288191 0.136338 0.000000 0.135729 0.000000
# 4 0.000000 0.000001 0.000000 0.048018 -0.000001 -0.018553
# 5 0.178044 -0.343193 0.135729 -0.000001 0.097887 0.000000
# 6 0.000000 -0.000001 0.000000 -0.018553 0.000000 0.035264
#
#
# Mechanical properties :
#
#
# Convention : Reuss Voigt Hill
#
# Bulk Modulus (GPa) = 42.55706 72.93516 57.74611
# Shear Modulus (GPa) = 2.66119 18.68365 10.67242
#
# Velocity S-wave (km/s) = 1.16196 3.07882 2.32694
# Velocity P-wave (km/s) = 4.83647 7.04574 6.04293
#
# Compressibility (1/GPa) = 0.02349786
#
# Stress axis : x y z
#
# Youngs Moduli (GPa) = 12.13479 1.56756 7.33473
#
# Poissons Ratio (x) = 0.37775 -0.82572
# Poissons Ratio (y) = 2.92420 2.11380
# Poissons Ratio (z) = -1.36610 0.45176
#
# Static dielectric constant tensor:
#      x y z
#    x 1.668370 0.000000 0.066330 
#    y 0.000000 1.680010 0.000000 
#    z 0.066330 0.000000 1.514040 
# 
# From -- ./inp_files/211194.got.cif
#   From: 2010.05.17/outbox.ucp.g08.bks.cvg/sg12_106_cif.got.tgz:211194.got - 2010.06.11 11:47:21.
