data_PCOD9225807
_publ_section_title
;
Structure prediction by ZEFSAII (Michael W. Deem and Ramdas Pophale) SiO2 
 PCOD9225807
Probable space group: C 2/M
;
_chemical_formula_sum "Si O2"
_cell_formula_units_Z 32
_cell_length_a 15.000000
_cell_length_b 27.000000
_cell_length_c 12.000000
_cell_angle_alpha 90.000000
_cell_angle_beta 40.000000
_cell_angle_gamma 90.000000
_cell_volume 3123.947783
_symmetry_space_group_name_H-M "C 2/M"
_symmetry_group_IT_number 12
_symmetry_cell_setting 'monoclinic'
loop_
_space_group_symop_operation_xyz
x,y,z
-x,y,-z
-x,-y,-z
x,-y,z
1/2+x,1/2+y,z
1/2-x,1/2+y,-z
1/2-x,1/2-y,-z
1/2+x,1/2-y,z
loop_
_atom_site_type_symbol
_atom_site_label
_atom_site_fract_x
_atom_site_fract_y
_atom_site_fract_z
Si Si1 0.585253 0.728737 0.300816
Si Si2 0.001770 0.440994 0.872040
Si Si3 0.270247 0.440214 0.005807
Si Si4 0.878736 0.283681 0.341413
Si Si5 0.273700 0.890030 0.486134
Si Si6 0.981801 0.884812 0.646806
Si Si7 0.168180 0.884275 0.825010
Si Si8 0.159165 0.229923 0.839125
O O1 0.500000 0.738025 0.500000
O O2 0.507872 0.756458 0.274635
O O3 0.586097 0.669777 0.284347
O O4 0.739142 0.749491 0.165764
O O5 0.992612 0.500000 0.890101
O O6 0.138020 0.427558 0.672287
O O7 0.868555 0.425547 0.928010
O O8 0.000000 0.420220 0.000000
O O9 0.274338 0.500000 0.018642
O O10 0.275904 0.410845 0.117396
O O11 0.395098 0.422486 0.805810
O O12 0.750000 0.250000 0.500000
O O13 0.862107 0.339200 0.398765
O O14 0.858686 0.276068 0.229412
O O15 0.228663 0.907270 0.652655
O O16 0.131811 0.878174 0.557969
O O17 0.000000 0.899809 0.500000
O O18 0.213699 0.826362 0.766062
O O19 0.000000 0.888398 0.000000
O O20 0.000000 0.216884 0.000000
#
# Coordination Sequence:
#
# PCOD9225807 Si02
#       8
#     8   8   8   8   8   8   8   8
#     4  11  21  38  63  92 131 174 214 269 332 390
#     4  10  25  49  72  99 136 173 223 291 352 407
#     4  11  26  46  68  97 137 175 224 293 346 402
#     4  12  21  40  62  94 137 173 219 271 325 394
#     4  12  23  41  72 100 134 183 225 275 338 414
#     4  11  22  40  69  99 130 176 229 283 340 403
#     4  11  23  44  66  97 140 179 224 277 337 406
#     4  11  25  41  63  96 135 181 226 273 328 398
#
# _framework density 10.243449
#
# number of rings (size 3 to 8) (size 9 to 14) (size 15 to 20)
#    0.000    0.875    5.000    1.500    3.500    4.000 
#    0.000    1.250    0.000    0.000    0.000    0.000 
#    0.000    0.000    0.000    0.000    0.000    0.000 
#
# Total GULP energy -178428.052105 kJ/mol
# GULP energy per Si atom -5575.876628 kJ/mol
# Density = 1.022013 g / cm^3
# Si number density = 10.243449 Si / 1000 Ang^3
#
#
#
# Elastic Constant Matrix: (Units=GPa)
#
#
# Indices 1 2 3 4 5 6 
#
# 1 149.6313 44.8291 49.1876 0.0000 10.9682 0.0000
# 2 44.8291 20.3968 15.3052 0.0000 2.2792 0.0000
# 3 49.1876 15.3052 82.3945 0.0000 19.0126 0.0000
# 4 0.0000 0.0000 0.0000 22.2993 0.0000 -2.3238
# 5 10.9682 2.2792 19.0126 0.0000 36.1729 0.0000
# 6 0.0000 0.0000 0.0000 -2.3238 0.0000 33.0503
#
#
#
# Elastic Compliance Matrix: (Units=1/GPa)
#
#
# Indices 1 2 3 4 5 6 
#
# 1 0.021032 -0.042867 -0.004261 0.000000 -0.001436 0.000000
# 2 -0.042867 0.144499 -0.002446 0.000000 0.005179 0.000000
# 3 -0.004261 -0.002446 0.016844 0.000000 -0.007407 0.000000
# 4 0.000000 0.000000 0.000000 0.045175 0.000000 0.003176
# 5 -0.001436 0.005179 -0.007407 0.000000 0.031647 0.000000
# 6 0.000000 0.000000 0.000000 0.003176 0.000000 0.030480
#
#
# Mechanical properties :
#
#
# Convention : Reuss Voigt Hill
#
# Bulk Modulus (GPa) = 12.01535 52.34070 32.17803
# Shear Modulus (GPa) = 12.00279 27.84456 19.92367
#
# Velocity S-wave (km/s) = 2.42311 3.69065 3.12189
# Velocity P-wave (km/s) = 3.70220 6.61552 5.36057
#
# Compressibility (1/GPa) = 0.08322689
#
# Stress axis : x y z
#
# Youngs Moduli (GPa) = 47.54639 6.92044 59.36747
#
# Poissons Ratio (x) = 0.29666 0.25299
# Poissons Ratio (y) = 2.03818 0.14520
# Poissons Ratio (z) = 0.20261 0.01693
#
# Static dielectric constant tensor:
#      x y z
#    x 1.703010 0.000000 -0.005450 
#    y 0.000000 1.656930 0.000000 
#    z -0.005450 0.000000 1.781310 
# 
# From -- ./inp_files/149735.got.cif
#   From: 2010.05.17/outbox.ucp.g08.bks.cvg/sg12_75_cif.got.tgz:149735.got - 2010.06.11 11:47:21.
