data_PCOD9225615
_publ_section_title
;
Structure prediction by ZEFSAII (Michael W. Deem and Ramdas Pophale) SiO2 
 PCOD9225615
Probable space group: C 2/M
;
_chemical_formula_sum "Si O2"
_cell_formula_units_Z 32
_cell_length_a 30.000000
_cell_length_b 9.000000
_cell_length_c 18.000000
_cell_angle_alpha 90.000000
_cell_angle_beta 40.000000
_cell_angle_gamma 90.000000
_cell_volume 3123.947783
_symmetry_space_group_name_H-M "C 2/M"
_symmetry_group_IT_number 12
_symmetry_cell_setting 'monoclinic'
loop_
_space_group_symop_operation_xyz
x,y,z
-x,y,-z
-x,-y,-z
x,-y,z
1/2+x,1/2+y,z
1/2-x,1/2+y,-z
1/2-x,1/2-y,-z
1/2+x,1/2-y,z
loop_
_atom_site_type_symbol
_atom_site_label
_atom_site_fract_x
_atom_site_fract_y
_atom_site_fract_z
Si Si1 0.549369 0.677060 0.867199
Si Si2 0.202160 0.331364 0.002959
Si Si3 0.185382 0.670466 0.752266
Si Si4 0.049764 0.323125 0.711357
Si Si5 0.922601 0.180427 0.618737
Si Si6 0.720764 0.672504 0.249210
Si Si7 0.803802 0.168771 0.484141
Si Si8 0.428553 0.323297 0.783431
O O1 0.548955 0.500000 0.856524
O O2 0.626343 0.735583 0.788066
O O3 0.527031 0.759102 0.820572
O O4 0.500000 0.712037 0.000000
O O5 0.184923 0.500000 0.046916
O O6 0.131304 0.240663 0.087723
O O7 0.250000 0.250000 0.000000
O O8 0.249805 0.335576 0.870470
O O9 0.158865 0.500000 0.794624
O O10 0.214504 0.742490 0.789855
O O11 0.257877 0.662592 0.616101
O O12 0.048805 0.500000 0.713627
O O13 0.126679 0.261694 0.599221
O O14 0.999475 0.255895 0.714143
O O15 0.857016 0.236536 0.654382
O O16 0.909862 0.210509 0.721821
O O17 0.000000 0.232740 0.500000
O O18 0.922588 0.000000 0.610217
O O19 0.715241 0.500000 0.281859
O O20 0.750000 0.250000 0.500000
O O21 0.819835 0.000000 0.439831
O O22 0.435281 0.500000 0.782408
#
# Coordination Sequence:
#
# PCOD9225615 Si02
#       8
#     8   8   8   8   8   8   8   8
#     4  11  25  44  64  90 125 161 203 259 315 368
#     4  11  21  38  62  89 122 162 206 256 307 364
#     4  10  22  39  64  93 122 161 207 252 305 370
#     4  12  26  43  64  91 124 167 211 254 310 377
#     4   9  18  34  60  89 120 159 202 249 300 360
#     4   9  19  36  58  89 120 156 206 249 292 359
#     4  11  22  39  65  94 123 160 205 259 312 365
#     4  11  23  40  63  92 123 159 207 261 314 369
#
# _framework density 10.243449
#
# number of rings (size 3 to 8) (size 9 to 14) (size 15 to 20)
#    0.000    1.500    2.500    2.625    3.500    1.500 
#    0.000    0.625    0.000    1.500    0.000    0.000 
#    0.000    0.000    0.000    0.000    0.000    0.000 
#
# Total GULP energy -178430.022517 kJ/mol
# GULP energy per Si atom -5575.938204 kJ/mol
# Density = 1.022013 g / cm^3
# Si number density = 10.243449 Si / 1000 Ang^3
#
#
#
# Elastic Constant Matrix: (Units=GPa)
#
#
# Indices 1 2 3 4 5 6 
#
# 1 60.1871 25.8591 -8.5225 0.0015 -3.7145 -0.0031
# 2 25.8591 91.8182 15.2109 0.0030 -2.0278 0.0012
# 3 -8.5225 15.2109 63.8697 -0.0024 -9.3879 0.0004
# 4 0.0015 0.0030 -0.0024 25.1762 0.0000 -3.4460
# 5 -3.7145 -2.0278 -9.3879 0.0000 30.8272 0.0004
# 6 -0.0031 0.0012 0.0004 -3.4460 0.0004 26.7799
#
#
#
# Elastic Compliance Matrix: (Units=1/GPa)
#
#
# Indices 1 2 3 4 5 6 
#
# 1 0.020255 -0.006413 0.004739 0.000000 0.003462 0.000003
# 2 -0.006413 0.013369 -0.004213 -0.000002 -0.001176 -0.000001
# 3 0.004739 -0.004213 0.018148 0.000002 0.005821 0.000001
# 4 0.000000 -0.000002 0.000002 0.040432 0.000000 0.005203
# 5 0.003462 -0.001176 0.005821 0.000000 0.034551 0.000000
# 6 0.000003 -0.000001 0.000001 0.005203 0.000000 0.038011
#
#
# Mechanical properties :
#
#
# Convention : Reuss Voigt Hill
#
# Bulk Modulus (GPa) = 25.00089 31.21888 28.10988
# Shear Modulus (GPa) = 26.33345 28.77850 27.55597
#
# Velocity S-wave (km/s) = 3.58911 3.75204 3.67148
# Velocity P-wave (km/s) = 5.42268 5.83454 5.63238
#
# Compressibility (1/GPa) = 0.03999858
#
# Stress axis : x y z
#
# Youngs Moduli (GPa) = 49.37075 74.79926 55.10250
#
# Poissons Ratio (x) = 0.47969 -0.26112
# Poissons Ratio (y) = 0.31662 0.23212
# Poissons Ratio (z) = -0.23396 0.31509
#
# Static dielectric constant tensor:
#      x y z
#    x 1.011620 0.000030 -0.488320 
#    y 0.000030 1.713260 0.000020 
#    z -0.488320 0.000020 1.406870 
# 
# From -- ./inp_files/295614.got.cif
#   From: 2010.05.17/outbox.ucp.g08.bks.cvg/sg12_148_cif.got.tgz:295614.got - 2010.06.11 11:47:21.
