data_PCOD9225712
_publ_section_title
;
Structure prediction by ZEFSAII (Michael W. Deem and Ramdas Pophale) SiO2 
 PCOD9225712
Probable space group: C 2/M
;
_chemical_formula_sum "Si O2"
_cell_formula_units_Z 20
_cell_length_a 24.000000
_cell_length_b 9.000000
_cell_length_c 9.000000
_cell_angle_alpha 90.000000
_cell_angle_beta 80.000000
_cell_angle_gamma 90.000000
_cell_volume 1914.466272
_symmetry_space_group_name_H-M "C 2/M"
_symmetry_group_IT_number 12
_symmetry_cell_setting 'monoclinic'
loop_
_space_group_symop_operation_xyz
x,y,z
-x,y,-z
-x,-y,-z
x,-y,z
1/2+x,1/2+y,z
1/2-x,1/2+y,-z
1/2-x,1/2-y,-z
1/2+x,1/2-y,z
loop_
_atom_site_type_symbol
_atom_site_label
_atom_site_fract_x
_atom_site_fract_y
_atom_site_fract_z
Si Si1 0.388220 0.821760 0.732626
Si Si2 0.979560 0.168140 0.841593
Si Si3 0.739541 0.822948 0.160332
Si Si4 0.429698 0.174145 0.405923
Si Si5 0.701404 0.826046 0.620806
O O1 0.421618 0.760601 0.856891
O O2 0.322905 0.774821 0.753227
O O3 0.427519 0.772667 0.576899
O O4 0.387776 0.000000 0.730844
O O5 0.029580 0.237472 0.720045
O O6 0.968058 0.000000 0.798622
O O7 0.000000 0.168441 0.000000
O O8 0.790565 0.761351 0.232461
O O9 0.739539 0.000000 0.157092
O O10 0.750000 0.750000 0.000000
O O11 0.363246 0.184325 0.397641
O O12 0.446068 0.000000 0.392989
O O13 0.750000 0.750000 0.500000
O O14 0.715045 0.000000 0.626456
#
# Coordination Sequence:
#
# PCOD9225712 Si02
#       5
#     8   8   8   8   8
#     4  10  22  43  66  89 121 163 208 252 305 372
#     4  11  26  43  60  91 126 158 203 260 314 362
#     4  11  24  42  63  94 131 168 209 257 311 371
#     4  10  22  42  66  91 121 162 208 251 304 372
#     4  11  22  40  65  96 129 166 208 254 309 371
#
# _framework density 10.446776
#
# number of rings (size 3 to 8) (size 9 to 14) (size 15 to 20)
#    0.000    1.400    2.000    2.400    2.800    8.000 
#    0.000    0.000    0.000    0.000    0.000    0.000 
#    0.000    0.000    0.000    0.000    0.000    0.000 
#
# Total GULP energy -111569.436869 kJ/mol
# GULP energy per Si atom -5578.471843 kJ/mol
# Density = 1.042300 g / cm^3
# Si number density = 10.446776 Si / 1000 Ang^3
#
#
#
# Elastic Constant Matrix: (Units=GPa)
#
#
# Indices 1 2 3 4 5 6 
#
# 1 53.5910 28.1756 22.2221 0.0000 -6.2724 0.0000
# 2 28.1756 39.1770 32.2301 0.0000 -8.5287 0.0000
# 3 22.2221 32.2301 61.3405 0.0000 4.6589 0.0000
# 4 0.0000 0.0000 0.0000 26.5913 0.0000 -0.4145
# 5 -6.2724 -8.5287 4.6589 0.0000 27.8652 0.0000
# 6 0.0000 0.0000 0.0000 -0.4145 0.0000 26.4154
#
#
#
# Elastic Compliance Matrix: (Units=1/GPa)
#
#
# Indices 1 2 3 4 5 6 
#
# 1 0.030030 -0.022399 0.000909 0.000000 -0.000248 0.000000
# 2 -0.022399 0.072689 -0.031789 0.000000 0.022521 0.000000
# 3 0.000909 -0.031789 0.033829 0.000000 -0.015181 0.000000
# 4 0.000000 0.000000 0.000000 0.037616 0.000000 0.000590
# 5 -0.000248 0.022521 -0.015181 0.000000 0.045262 0.000000
# 6 0.000000 0.000000 0.000000 0.000590 0.000000 0.037866
#
#
# Mechanical properties :
#
#
# Convention : Reuss Voigt Hill
#
# Bulk Modulus (GPa) = 33.34433 35.48493 34.41463
# Shear Modulus (GPa) = 13.37445 20.93976 17.15710
#
# Velocity S-wave (km/s) = 2.53281 3.16921 2.86871
# Velocity P-wave (km/s) = 4.95452 5.51474 5.24212
#
# Compressibility (1/GPa) = 0.02999010
#
# Stress axis : x y z
#
# Youngs Moduli (GPa) = 33.29962 13.75725 29.56035
#
# Poissons Ratio (x) = 0.30815 -0.02686
# Poissons Ratio (y) = 0.74588 0.93969
# Poissons Ratio (z) = -0.03026 0.43733
#
# Static dielectric constant tensor:
#      x y z
#    x 1.804540 0.000000 0.153120 
#    y 0.000000 1.696310 0.000000 
#    z 0.153120 0.000000 1.925580 
# 
# From -- ./inp_files/92742.got.cif
#   From: 2010.05.17/outbox.ucp.g08.bks.cvg/sg12_47_cif.got.tgz:92742.got - 2010.06.11 11:47:21.
