data_PCOD9225440
_publ_section_title
;
Structure prediction by ZEFSAII (Michael W. Deem and Ramdas Pophale) SiO2 
 PCOD9225440
Probable space group: C 2/M
;
_chemical_formula_sum "Si O2"
_cell_formula_units_Z 28
_cell_length_a 27.000000
_cell_length_b 9.000000
_cell_length_c 12.000000
_cell_angle_alpha 90.000000
_cell_angle_beta 110.000000
_cell_angle_gamma 90.000000
_cell_volume 2740.143682
_symmetry_space_group_name_H-M "C 2/M"
_symmetry_group_IT_number 12
_symmetry_cell_setting 'monoclinic'
loop_
_space_group_symop_operation_xyz
x,y,z
-x,y,-z
-x,-y,-z
x,-y,z
1/2+x,1/2+y,z
1/2-x,1/2+y,-z
1/2-x,1/2-y,-z
1/2+x,1/2-y,z
loop_
_atom_site_type_symbol
_atom_site_label
_atom_site_fract_x
_atom_site_fract_y
_atom_site_fract_z
Si Si1 0.134527 0.327888 0.982183
Si Si2 0.320532 0.827529 0.740513
Si Si3 0.217914 0.328978 0.659138
Si Si4 0.015638 0.826308 0.387464
Si Si5 0.118358 0.670031 0.424271
Si Si6 0.972637 0.175648 0.102285
Si Si7 0.707934 0.326663 0.885868
O O1 0.144354 0.500000 0.962015
O O2 0.164734 0.294496 0.120966
O O3 0.074221 0.291294 0.950956
O O4 0.153495 0.220621 0.899387
O O5 0.274753 0.722377 0.661400
O O6 0.369940 0.812887 0.697386
O O7 0.303387 0.000000 0.720602
O O8 0.219646 0.500000 0.695271
O O9 0.172556 0.313135 0.533482
O O10 0.208952 0.231974 0.761880
O O11 0.077199 0.790196 0.431119
O O12 0.000000 0.763358 0.500000
O O13 0.996638 0.782466 0.245125
O O14 0.003009 0.000000 0.382803
O O15 0.099414 0.500000 0.429137
O O16 0.957538 0.000000 0.101583
O O17 0.000000 0.181463 0.000000
O O18 0.717341 0.500000 0.894795
O O19 0.750000 0.250000 0.000000
#
# Coordination Sequence:
#
# PCOD9225440 Si02
#       7
#     8   8   8   8   8   8   8
#     4  11  23  38  62  93 124 160 204 251 309 369
#     4  10  21  39  61  89 126 163 200 248 302 362
#     4  11  23  38  60  91 125 161 206 249 299 367
#     4  10  23  42  62  88 120 159 209 260 316 375
#     4  10  23  41  62  90 122 159 206 253 303 366
#     4  10  22  41  64  91 123 161 209 261 313 372
#     4  12  24  40  61  87 123 163 205 252 305 363
#
# _framework density 10.218442
#
# number of rings (size 3 to 8) (size 9 to 14) (size 15 to 20)
#    0.000    1.429    1.429    3.429    2.000    3.429 
#    0.000    0.000    0.000    0.000    0.000    0.000 
#    0.000    0.000    0.000    0.000    0.000    0.000 
#
# Total GULP energy -155981.232127 kJ/mol
# GULP energy per Si atom -5570.758290 kJ/mol
# Density = 1.019518 g / cm^3
# Si number density = 10.218442 Si / 1000 Ang^3
#
#
#
# Elastic Constant Matrix: (Units=GPa)
#
#
# Indices 1 2 3 4 5 6 
#
# 1 46.2233 26.2469 19.5721 0.0000 -12.2238 0.0000
# 2 26.2469 45.2558 29.0391 0.0000 -7.6247 0.0000
# 3 19.5721 29.0391 80.3719 0.0000 -18.9863 0.0000
# 4 0.0000 0.0000 0.0000 22.8886 0.0000 0.5972
# 5 -12.2238 -7.6247 -18.9863 0.0000 32.4833 0.0000
# 6 0.0000 0.0000 0.0000 0.5972 0.0000 26.6995
#
#
#
# Elastic Compliance Matrix: (Units=1/GPa)
#
#
# Indices 1 2 3 4 5 6 
#
# 1 0.034437 -0.018801 0.000494 0.000000 0.008834 0.000000
# 2 -0.018801 0.039047 -0.010483 0.000000 -0.004037 0.000000
# 3 0.000494 -0.010483 0.018067 0.000000 0.008285 0.000000
# 4 0.000000 0.000000 0.000000 0.043715 0.000000 -0.000978
# 5 0.008834 -0.004037 0.008285 0.000000 0.038004 0.000000
# 6 0.000000 0.000000 0.000000 -0.000978 0.000000 0.037476
#
#
# Mechanical properties :
#
#
# Convention : Reuss Voigt Hill
#
# Bulk Modulus (GPa) = 29.43752 35.72968 32.58360
# Shear Modulus (GPa) = 17.87946 22.88049 20.37997
#
# Velocity S-wave (km/s) = 2.96102 3.34962 3.16130
# Velocity P-wave (km/s) = 5.11131 5.69920 5.41324
#
# Compressibility (1/GPa) = 0.03397025
#
# Stress axis : x y z
#
# Youngs Moduli (GPa) = 29.03858 25.61007 55.35005
#
# Poissons Ratio (x) = 0.48149 -0.02733
# Poissons Ratio (y) = 0.54595 0.58025
# Poissons Ratio (z) = -0.01434 0.26848
#
# Static dielectric constant tensor:
#      x y z
#    x 1.826320 0.000000 -0.025800 
#    y 0.000000 1.699950 0.000000 
#    z -0.025800 0.000000 1.731220 
# 
# From -- ./inp_files/180650.got.cif
#   From: 2010.05.17/outbox.ucp.g08.bks.cvg/sg12_91_cif.got.tgz:180650.got - 2010.06.11 11:47:21.
