data_PCOD9225173
_publ_section_title
;
Structure prediction by ZEFSAII (Michael W. Deem and Ramdas Pophale) SiO2 
 PCOD9225173
Probable space group: C 2/M
;
_chemical_formula_sum "Si O2"
_cell_formula_units_Z 24
_cell_length_a 24.000000
_cell_length_b 9.000000
_cell_length_c 12.000000
_cell_angle_alpha 90.000000
_cell_angle_beta 90.000000
_cell_angle_gamma 90.000000
_cell_volume 2592.000000
_symmetry_space_group_name_H-M "C 2/M"
_symmetry_group_IT_number 12
_symmetry_cell_setting 'monoclinic'
loop_
_space_group_symop_operation_xyz
x,y,z
-x,y,-z
-x,-y,-z
x,-y,z
1/2+x,1/2+y,z
1/2-x,1/2+y,-z
1/2-x,1/2-y,-z
1/2+x,1/2-y,z
loop_
_atom_site_type_symbol
_atom_site_label
_atom_site_fract_x
_atom_site_fract_y
_atom_site_fract_z
Si Si1 0.454111 0.822154 0.156123
Si Si2 0.837895 0.170222 0.748734
Si Si3 0.422243 0.176408 0.909862
Si Si4 0.310596 0.320294 0.507049
Si Si5 0.226861 0.671105 0.888587
Si Si6 0.361255 0.676373 0.270258
O O1 0.519348 0.792257 0.149941
O O2 0.423039 0.734849 0.251293
O O3 0.446006 0.000000 0.166020
O O4 0.428929 0.771982 0.036858
O O5 0.873384 0.256457 0.838895
O O6 0.838795 0.229449 0.622794
O O7 0.775282 0.171885 0.795608
O O8 0.857404 0.000000 0.747066
O O9 0.415870 0.000000 0.915660
O O10 0.306188 0.500000 0.512906
O O11 0.250000 0.250000 0.500000
O O12 0.341166 0.279967 0.393060
O O13 0.212613 0.500000 0.915475
O O14 0.176064 0.750995 0.827057
O O15 0.250000 0.750000 0.000000
O O16 0.357194 0.500000 0.260326
#
# Coordination Sequence:
#
# PCOD9225173 Si02
#       6
#     8   8   8   8   8   8
#     4   9  19  37  58  80 110 144 180 223 273 326
#     4  10  21  36  54  78 108 142 180 223 272 322
#     4   9  19  36  58  82 107 142 183 223 270 325
#     4  10  21  38  56  77 107 145 187 226 268 322
#     4  11  22  35  53  79 112 144 177 221 274 328
#     4  11  22  35  55  82 109 141 184 226 271 326
#
# _framework density 9.2592590000000001
#
# number of rings (size 3 to 8) (size 9 to 14) (size 15 to 20)
#    0.000    2.000    1.667    3.000    0.000    6.667 
#    0.000    2.500    0.000    5.000    0.000    0.000 
#    0.000    0.000    0.000    0.000    0.000    0.000 
#
# Total GULP energy -133874.994952 kJ/mol
# GULP energy per Si atom -5578.124790 kJ/mol
# Density = 0.923818 g / cm^3
# Si number density = 9.259259 Si / 1000 Ang^3
#
#
#
# Elastic Constant Matrix: (Units=GPa)
#
#
# Indices 1 2 3 4 5 6 
#
# 1 52.5376 21.9676 -2.4868 0.0000 -13.0640 0.0000
# 2 21.9676 1.2710 -8.1557 0.0000 -24.9479 0.0000
# 3 -2.4868 -8.1557 -17.4341 0.0000 -33.0469 0.0000
# 4 0.0000 0.0000 0.0000 21.0518 0.0000 -1.0952
# 5 -13.0640 -24.9479 -33.0469 0.0000 23.2107 0.0000
# 6 0.0000 0.0000 0.0000 -1.0952 0.0000 26.0057
#
#
#
# Elastic Compliance Matrix: (Units=1/GPa)
#
#
# Indices 1 2 3 4 5 6 
#
# 1 -0.014272 0.078497 -0.048499 0.000000 0.007287 0.000000
# 2 0.078497 -0.184084 0.099011 0.000000 -0.012710 0.000000
# 3 -0.048499 0.099011 -0.066708 0.000000 -0.015854 0.000000
# 4 0.000000 0.000000 0.000000 0.047606 0.000000 0.002005
# 5 0.007287 -0.012710 -0.015854 0.000000 0.010952 0.000000
# 6 0.000000 0.000000 0.000000 0.002005 0.000000 0.038537
#
#
# Mechanical properties :
#
#
# Convention : Reuss Voigt Hill
#
# Bulk Modulus (GPa) = -141.93348 6.55831 -67.68758
# Shear Modulus (GPa) = -11.67315 15.72363 2.02524
#
# Velocity S-wave (km/s) = -2.51340 2.91705 1.04690
# Velocity P-wave (km/s) = 9.23219 3.85937 5.93037
#
# Compressibility (1/GPa) = -0.00704555
#
# Stress axis : x y z
#
# Youngs Moduli (GPa) = -70.06930 -5.43232 -14.99076
#
# Poissons Ratio (x) = 0.42642 -0.72704
# Poissons Ratio (y) = 5.50023 1.48425
# Poissons Ratio (z) = -3.39829 0.53786
#
# Static dielectric constant tensor:
#      x y z
#    x 1.645990 0.000000 -0.032720 
#    y 0.000000 1.635070 0.000000 
#    z -0.032720 0.000000 1.635910 
# 
# From -- ./inp_files/172044.got.cif
#   From: 2010.05.17/outbox.ucp.g08.bks.cvg/sg12_87_cif.got.tgz:172044.got - 2010.06.11 11:47:21.
