data_PCOD9225934
_publ_section_title
;
Structure prediction by ZEFSAII (Michael W. Deem and Ramdas Pophale) SiO2 
 PCOD9225934
Probable space group: C 2/M
;
_chemical_formula_sum "Si O2"
_cell_formula_units_Z 22
_cell_length_a 21.000000
_cell_length_b 18.000000
_cell_length_c 18.000000
_cell_angle_alpha 90.000000
_cell_angle_beta 160.000000
_cell_angle_gamma 90.000000
_cell_volume 2327.105055
_symmetry_space_group_name_H-M "C 2/M"
_symmetry_group_IT_number 12
_symmetry_cell_setting 'monoclinic'
loop_
_space_group_symop_operation_xyz
x,y,z
-x,y,-z
-x,-y,-z
x,-y,z
1/2+x,1/2+y,z
1/2-x,1/2+y,-z
1/2-x,1/2-y,-z
1/2+x,1/2-y,z
loop_
_atom_site_type_symbol
_atom_site_label
_atom_site_fract_x
_atom_site_fract_y
_atom_site_fract_z
Si Si1 0.813060 0.079143 0.249218
Si Si2 0.606805 0.704898 0.776428
Si Si3 0.410700 0.329649 0.085802
Si Si4 0.000000 0.657047 0.000000
Si Si5 0.269967 0.287325 0.669523
Si Si6 0.276062 0.086378 0.255617
O O1 0.870786 0.147956 0.263974
O O2 0.635657 0.105295 0.101567
O O3 0.000000 0.069170 0.500000
O O4 0.770177 0.000000 0.164548
O O5 0.574765 0.651015 0.812147
O O6 0.436703 0.762224 0.579368
O O7 0.793259 0.754081 0.971076
O O8 0.609976 0.314078 0.268587
O O9 0.304362 0.382421 0.910706
O O10 0.128254 0.714008 0.187387
O O11 0.275914 0.353215 0.737732
O O12 0.500000 0.086683 0.500000
O O13 0.217325 0.000000 0.203927
#
# Coordination Sequence:
#
# PCOD9225934 Si02
#       6
#     8   8   8   4   8   8
#     4  11  23  39  61  87 119 159 197 247 302 354
#     4  11  23  40  61  89 124 155 207 249 296 369
#     4  11  23  39  63  90 119 163 198 250 308 351
#     4  12  21  36  65  90 116 150 204 256 291 354
#     4  12  21  38  66  92 118 160 208 252 297 358
#     4  11  23  40  64  93 126 162 205 255 308 366
#
# _framework density 9.4538060000000002
#
# number of rings (size 3 to 8) (size 9 to 14) (size 15 to 20)
#    0.000    0.727    7.273    0.818    0.000    2.182 
#    0.000    0.000    0.000    0.000    0.000    0.000 
#    0.000    0.000    0.000    0.000    0.000    0.000 
#
# Total GULP energy -122496.255130 kJ/mol
# GULP energy per Si atom -5568.011597 kJ/mol
# Density = 0.943229 g / cm^3
# Si number density = 9.453806 Si / 1000 Ang^3
#
#
#
# Elastic Constant Matrix: (Units=GPa)
#
#
# Indices 1 2 3 4 5 6 
#
# 1 86.5485 25.1944 45.9309 0.0031 19.1558 0.0052
# 2 25.1944 59.9923 1.0792 0.0111 21.1018 0.0207
# 3 45.9309 1.0792 39.8650 -0.0007 25.0199 -0.0024
# 4 0.0031 0.0111 -0.0007 42.0948 -0.0066 44.8426
# 5 19.1558 21.1018 25.0199 -0.0066 21.5622 -0.0090
# 6 0.0052 0.0207 -0.0024 44.8426 -0.0090 40.8928
#
#
#
# Elastic Compliance Matrix: (Units=1/GPa)
#
#
# Indices 1 2 3 4 5 6 
#
# 1 0.003188 0.016366 0.028385 -0.000044 -0.051785 0.000030
# 2 0.016366 -0.005014 -0.046642 0.000010 0.044490 -0.000003
# 3 0.028385 -0.046642 -0.070576 0.000094 0.102323 -0.000065
# 4 -0.000044 0.000010 0.000094 -0.141262 -0.000058 0.154906
# 5 -0.051785 0.044490 0.102323 -0.000058 -0.069889 0.000038
# 6 0.000030 -0.000003 -0.000065 0.154906 0.000038 -0.145414
#
#
# Mechanical properties :
#
#
# Convention : Reuss Voigt Hill
#
# Bulk Modulus (GPa) = -13.12575 36.75722 11.81574
# Shear Modulus (GPa) = -11.09683 28.52339 8.71328
#
# Velocity S-wave (km/s) = -2.42522 3.88824 2.14903
# Velocity P-wave (km/s) = 3.84700 6.29607 3.52428
#
# Compressibility (1/GPa) = -0.07618612
#
# Stress axis : x y z
#
# Youngs Moduli (GPa) = 313.67317 -199.44535 -14.16902
#
# Poissons Ratio (x) = 3.26403 0.40219
# Poissons Ratio (y) = -5.13343 -0.66088
# Poissons Ratio (z) = -8.90361 -9.30261
#
# Static dielectric constant tensor:
#      x y z
#    x 1.700950 0.000000 -0.033430 
#    y 0.000000 1.660200 0.000000 
#    z -0.033430 0.000000 1.659150 
# 
# From -- ./inp_files/285286.got.cif
#   From: 2010.05.17/outbox.ucp.g08.bks.cvg/sg12_143_cif.got.tgz:285286.got - 2010.06.11 11:47:21.
