data_PCOD9225381
_publ_section_title
;
Structure prediction by ZEFSAII (Michael W. Deem and Ramdas Pophale) SiO2 
 PCOD9225381
Probable space group: C 2/M
;
_chemical_formula_sum "Si O2"
_cell_formula_units_Z 28
_cell_length_a 18.000000
_cell_length_b 9.000000
_cell_length_c 18.000000
_cell_angle_alpha 90.000000
_cell_angle_beta 70.000000
_cell_angle_gamma 90.000000
_cell_volume 2740.143682
_symmetry_space_group_name_H-M "C 2/M"
_symmetry_group_IT_number 12
_symmetry_cell_setting 'monoclinic'
loop_
_space_group_symop_operation_xyz
x,y,z
-x,y,-z
-x,-y,-z
x,-y,z
1/2+x,1/2+y,z
1/2-x,1/2+y,-z
1/2-x,1/2-y,-z
1/2+x,1/2-y,z
loop_
_atom_site_type_symbol
_atom_site_label
_atom_site_fract_x
_atom_site_fract_y
_atom_site_fract_z
Si Si1 0.419773 0.166384 0.982947
Si Si2 0.926155 0.679032 0.474980
Si Si3 0.272778 0.324745 0.070919
Si Si4 0.792574 0.178211 0.616117
Si Si5 0.981778 0.171816 0.816863
Si Si6 0.332490 0.327081 0.769108
Si Si7 0.107338 0.678041 0.679255
O O1 0.440167 0.238745 0.897151
O O2 0.386455 0.000000 0.984653
O O3 0.500000 0.155247 0.000000
O O4 0.361693 0.268585 0.049912
O O5 0.923354 0.500000 0.479020
O O6 0.846024 0.742758 0.536984
O O7 0.930988 0.720569 0.386821
O O8 0.000000 0.729982 0.500000
O O9 0.268588 0.500000 0.066563
O O10 0.219789 0.265814 0.155840
O O11 0.250000 0.250000 0.000000
O O12 0.823004 0.221529 0.687703
O O13 0.699994 0.214365 0.643304
O O14 0.800784 0.000000 0.605351
O O15 0.063226 0.242315 0.761706
O O16 0.921542 0.180232 0.768188
O O17 0.990495 0.000000 0.835563
O O18 0.306670 0.500000 0.782383
O O19 0.099758 0.500000 0.691354
#
# Coordination Sequence:
#
# PCOD9225381 Si02
#       7
#     8   8   8   8   8   8   8
#     4  11  25  43  64  88 121 164 205 253 313 369
#     4  10  21  38  61  89 121 157 198 246 298 355
#     4  12  24  40  64  92 122 161 207 256 309 365
#     4  10  22  39  61  88 119 157 199 245 300 361
#     4  11  23  39  61  88 119 157 202 253 301 360
#     4  10  22  40  60  86 120 158 202 252 305 362
#     4  10  22  39  59  86 122 160 198 246 304 364
#
# _framework density 10.218442
#
# number of rings (size 3 to 8) (size 9 to 14) (size 15 to 20)
#    0.000    1.429    1.429    3.429    2.000    3.714 
#    0.000    0.000    0.000    0.000    0.000    0.000 
#    0.000    0.000    0.000    0.000    0.000    0.000 
#
# Total GULP energy -156492.504896 kJ/mol
# GULP energy per Si atom -5589.018032 kJ/mol
# Density = 1.019518 g / cm^3
# Si number density = 10.218442 Si / 1000 Ang^3
#
#
#
# Elastic Constant Matrix: (Units=GPa)
#
#
# Indices 1 2 3 4 5 6 
#
# 1 47.2407 13.3605 -4.4143 0.0000 -7.1436 0.0000
# 2 13.3605 65.9474 35.9492 0.0000 -8.4520 0.0000
# 3 -4.4143 35.9492 69.4270 0.0000 -17.1371 0.0000
# 4 0.0000 0.0000 0.0000 76.4330 0.0000 -65.8757
# 5 -7.1436 -8.4520 -17.1371 0.0000 37.1611 0.0000
# 6 0.0000 0.0000 0.0000 -65.8757 0.0000 94.4896
#
#
#
# Elastic Compliance Matrix: (Units=1/GPa)
#
#
# Indices 1 2 3 4 5 6 
#
# 1 0.025215 -0.008392 0.007531 0.000000 0.006411 0.000000
# 2 -0.008392 0.023922 -0.013514 0.000000 -0.002404 0.000000
# 3 0.007531 -0.013514 0.024238 0.000000 0.009551 0.000000
# 4 0.000000 0.000000 0.000000 0.032780 0.000000 0.022854
# 5 0.006411 -0.002404 0.009551 0.000000 0.032000 0.000000
# 6 0.000000 0.000000 0.000000 0.022854 0.000000 0.026516
#
#
# Mechanical properties :
#
#
# Convention : Reuss Voigt Hill
#
# Bulk Modulus (GPa) = 22.40889 30.26731 26.33810
# Shear Modulus (GPa) = 24.00428 50.79805 37.40117
#
# Velocity S-wave (km/s) = 3.43090 4.99099 4.28259
# Velocity P-wave (km/s) = 5.16561 6.93222 6.11307
#
# Compressibility (1/GPa) = 0.04462514
#
# Stress axis : x y z
#
# Youngs Moduli (GPa) = 39.65912 41.80192 41.25812
#
# Poissons Ratio (x) = 0.35080 -0.31072
# Poissons Ratio (y) = 0.33282 0.55756
# Poissons Ratio (z) = -0.29868 0.56491
#
# Static dielectric constant tensor:
#      x y z
#    x 1.798620 0.000000 0.013500 
#    y 0.000000 1.712020 0.000000 
#    z 0.013500 0.000000 1.672030 
# 
# From -- ./inp_files/275129.got.cif
#   From: 2010.05.17/outbox.ucp.g08.bks.cvg/sg12_138_cif.got.tgz:275129.got - 2010.06.11 11:47:21.
