data_PCOD9225360
_publ_section_title
;
Structure prediction by ZEFSAII (Michael W. Deem and Ramdas Pophale) SiO2 
 PCOD9225360
Probable space group: C 2/M
;
_chemical_formula_sum "Si O2"
_cell_formula_units_Z 32
_cell_length_a 15.000000
_cell_length_b 9.000000
_cell_length_c 24.000000
_cell_angle_alpha 90.000000
_cell_angle_beta 90.000000
_cell_angle_gamma 90.000000
_cell_volume 3240.000000
_symmetry_space_group_name_H-M "C 2/M"
_symmetry_group_IT_number 12
_symmetry_cell_setting 'monoclinic'
loop_
_space_group_symop_operation_xyz
x,y,z
-x,y,-z
-x,-y,-z
x,-y,z
1/2+x,1/2+y,z
1/2-x,1/2+y,-z
1/2-x,1/2-y,-z
1/2+x,1/2-y,z
loop_
_atom_site_type_symbol
_atom_site_label
_atom_site_fract_x
_atom_site_fract_y
_atom_site_fract_z
Si Si1 0.835322 0.824304 0.360510
Si Si2 0.342556 0.673931 0.641356
Si Si3 0.028216 0.178206 0.939761
Si Si4 0.321656 0.170937 0.122720
Si Si5 0.079717 0.325668 0.250550
Si Si6 0.625994 0.672935 0.144853
Si Si7 0.610703 0.325548 0.766880
Si Si8 0.997957 0.821204 0.438044
O O1 0.754075 0.722591 0.377175
O O2 0.847079 0.808327 0.294131
O O3 0.921113 0.774578 0.395380
O O4 0.819308 0.000000 0.370891
O O5 0.348135 0.500000 0.655841
O O6 0.372671 0.768781 0.694291
O O7 0.409587 0.706434 0.591777
O O8 0.122756 0.237475 0.921335
O O9 0.957099 0.220531 0.892384
O O10 0.028578 0.000000 0.941113
O O11 0.000000 0.234512 0.000000
O O12 0.217131 0.177462 0.110982
O O13 0.342483 0.236200 0.183886
O O14 0.350659 0.000000 0.122247
O O15 0.063106 0.500000 0.253180
O O16 0.136861 0.280091 0.197134
O O17 0.988719 0.236012 0.240921
O O18 0.613621 0.500000 0.162950
O O19 0.609105 0.500000 0.781232
O O20 0.000000 0.758239 0.500000
O O21 0.987008 0.000000 0.442278
#
# Coordination Sequence:
#
# PCOD9225360 Si02
#       8
#     8   8   8   8   8   8   8   8
#     4  10  21  38  60  88 119 155 197 241 293 353
#     4  11  22  38  60  88 119 156 195 239 296 351
#     4  10  22  41  63  85 115 161 206 244 292 348
#     4  11  23  38  59  90 120 154 196 244 295 345
#     4  12  23  36  60  91 120 153 194 240 292 352
#     4  10  22  40  61  87 123 158 192 240 295 351
#     4  11  21  37  60  86 119 157 191 235 296 356
#     4   9  19  38  61  83 114 158 202 243 293 352
#
# _framework density 9.8765429999999999
#
# number of rings (size 3 to 8) (size 9 to 14) (size 15 to 20)
#    0.000    1.500    2.500    3.000    0.000    5.250 
#    0.000    0.000    0.000    2.625    0.000    0.000 
#    0.000    0.000    0.000    0.000    0.000    0.000 
#
# Total GULP energy -178636.923604 kJ/mol
# GULP energy per Si atom -5582.403863 kJ/mol
# Density = 0.985406 g / cm^3
# Si number density = 9.876543 Si / 1000 Ang^3
#
#
#
# Elastic Constant Matrix: (Units=GPa)
#
#
# Indices 1 2 3 4 5 6 
#
# 1 40.8778 -20.9997 -14.0602 0.0000 -30.1789 0.0000
# 2 -20.9997 -52.4526 13.1886 0.0000 -0.0814 0.0000
# 3 -14.0602 13.1886 57.2764 0.0000 -40.2988 0.0000
# 4 0.0000 0.0000 0.0000 -10.0902 0.0000 4.2414
# 5 -30.1789 -0.0814 -40.2988 0.0000 -7.0419 0.0000
# 6 0.0000 0.0000 0.0000 4.2414 0.0000 12.4714
#
#
#
# Elastic Compliance Matrix: (Units=1/GPa)
#
#
# Indices 1 2 3 4 5 6 
#
# 1 0.010231 -0.005429 -0.005380 0.000000 -0.012993 0.000000
# 2 -0.005429 -0.015952 0.003748 0.000000 0.002001 0.000000
# 3 -0.005380 0.003748 0.006261 0.000000 -0.012813 0.000000
# 4 0.000000 0.000000 0.000000 -0.086710 0.000000 0.029489
# 5 -0.012993 0.002001 -0.012813 0.000000 -0.013022 0.000000
# 6 0.000000 0.000000 0.000000 0.029489 0.000000 0.070154
#
#
# Mechanical properties :
#
#
# Convention : Reuss Voigt Hill
#
# Bulk Modulus (GPa) = -73.62419 0.21768 -36.70325
# Shear Modulus (GPa) = -257.14418 3.57272 -126.78573
#
# Velocity S-wave (km/s) = -11.42199 1.34633 -8.02026
# Velocity P-wave (km/s) = 14.53624 1.58974 10.21702
#
# Compressibility (1/GPa) = -0.01358249
#
# Stress axis : x y z
#
# Youngs Moduli (GPa) = 97.74147 -62.68768 159.72918
#
# Poissons Ratio (x) = -0.34032 0.85940
# Poissons Ratio (y) = 0.53061 -0.59868
# Poissons Ratio (z) = 0.52589 0.23496
#
# Static dielectric constant tensor:
#      x y z
#    x 1.735600 0.000000 -0.049080 
#    y 0.000000 1.662570 0.000000 
#    z -0.049080 0.000000 1.685530 
# 
# From -- ./inp_files/338773.got.cif
#   From: 2010.05.17/outbox.ucp.g08.bks.cvg/sg12_170_cif.got.tgz:338773.got - 2010.06.11 11:47:21.
