data_PCOD9225143
_publ_section_title
;
Structure prediction by ZEFSAII (Michael W. Deem and Ramdas Pophale) SiO2 
 PCOD9225143
Probable space group: C 2/M
;
_chemical_formula_sum "Si O2"
_cell_formula_units_Z 22
_cell_length_a 15.000000
_cell_length_b 27.000000
_cell_length_c 12.000000
_cell_angle_alpha 90.000000
_cell_angle_beta 30.000000
_cell_angle_gamma 90.000000
_cell_volume 2430.000000
_symmetry_space_group_name_H-M "C 2/M"
_symmetry_group_IT_number 12
_symmetry_cell_setting 'monoclinic'
loop_
_space_group_symop_operation_xyz
x,y,z
-x,y,-z
-x,-y,-z
x,-y,z
1/2+x,1/2+y,z
1/2-x,1/2+y,-z
1/2-x,1/2-y,-z
1/2+x,1/2-y,z
loop_
_atom_site_type_symbol
_atom_site_label
_atom_site_fract_x
_atom_site_fract_y
_atom_site_fract_z
Si Si1 0.331350 0.200477 0.469958
Si Si2 0.697065 0.190985 0.953899
Si Si3 0.683416 0.703268 0.864051
Si Si4 0.633864 0.441041 0.460836
Si Si5 0.494821 0.639144 0.764309
Si Si6 0.500000 0.884433 0.000000
O O1 0.250000 0.250000 0.500000
O O2 0.535246 0.193071 0.217174
O O3 0.318638 0.197861 0.616702
O O4 0.191371 0.160171 0.575872
O O5 0.726216 0.247461 0.885941
O O6 0.885383 0.169169 0.789071
O O7 0.609829 0.153443 0.959732
O O8 0.500000 0.717338 0.000000
O O9 0.627614 0.654807 0.996273
O O10 0.500000 0.432156 0.500000
O O11 0.651072 0.500000 0.455766
O O12 0.532774 0.415076 0.674698
O O13 0.834208 0.417685 0.227497
#
# Coordination Sequence:
#
# PCOD9225143 Si02
#       6
#     8   8   8   8   8   4
#     4  11  21  37  55  82 124 158 190 236 278 345
#     4  12  21  36  56  88 118 159 190 230 290 350
#     4  10  21  35  54  85 123 156 194 229 277 347
#     4  11  24  41  62  87 113 149 198 251 299 344
#     4  11  23  38  56  84 115 154 195 238 288 344
#     4  12  21  38  62  88 120 148 191 240 300 350
#
# _framework density 9.0534979999999994
#
# number of rings (size 3 to 8) (size 9 to 14) (size 15 to 20)
#    0.000    0.909    8.182    0.818    0.000    0.727 
#    0.000    0.000    0.000    4.909    0.000    1.273 
#    0.000    0.000    0.000    0.000    0.000    0.000 
#
# Total GULP energy -122580.541277 kJ/mol
# GULP energy per Si atom -5571.842785 kJ/mol
# Density = 0.903289 g / cm^3
# Si number density = 9.053498 Si / 1000 Ang^3
#
#
#
# Elastic Constant Matrix: (Units=GPa)
#
#
# Indices 1 2 3 4 5 6 
#
# 1 83.1714 34.1072 37.8662 0.0001 -2.3558 0.0000
# 2 34.1072 96.2499 63.3592 0.0000 24.0857 0.0000
# 3 37.8662 63.3592 87.6884 -0.0002 7.3527 -0.0001
# 4 0.0001 0.0000 -0.0002 11.6867 0.0000 4.1309
# 5 -2.3558 24.0857 7.3527 0.0000 31.1136 0.0000
# 6 0.0000 0.0000 -0.0001 4.1309 0.0000 25.5619
#
#
#
# Elastic Compliance Matrix: (Units=1/GPa)
#
#
# Indices 1 2 3 4 5 6 
#
# 1 0.015831 -0.004130 -0.004306 0.000000 0.005413 0.000000
# 2 -0.004130 0.026775 -0.016118 0.000000 -0.017231 0.000000
# 3 -0.004306 -0.016118 0.024374 0.000000 0.006392 0.000000
# 4 0.000000 0.000000 0.000000 0.090751 0.000000 -0.014666
# 5 0.005413 -0.017231 0.006392 0.000000 0.044379 0.000000
# 6 0.000000 0.000000 0.000000 -0.014666 0.000000 0.041491
#
#
# Mechanical properties :
#
#
# Convention : Reuss Voigt Hill
#
# Bulk Modulus (GPa) = 55.95490 59.75278 57.85384
# Shear Modulus (GPa) = 16.74112 22.45758 19.59935
#
# Velocity S-wave (km/s) = 3.04397 3.52557 3.29358
# Velocity P-wave (km/s) = 6.58208 7.04587 6.81792
#
# Compressibility (1/GPa) = 0.01787154
#
# Stress axis : x y z
#
# Youngs Moduli (GPa) = 63.16840 37.34777 41.02762
#
# Poissons Ratio (x) = 0.15424 0.17666
# Poissons Ratio (y) = 0.26088 0.66130
# Poissons Ratio (z) = 0.27200 0.60198
#
# Static dielectric constant tensor:
#      x y z
#    x 1.706400 0.000000 0.126850 
#    y 0.000000 1.591260 0.000000 
#    z 0.126850 0.000000 0.916100 
# 
# From -- ./inp_files/149385.got.cif
#   From: 2010.05.17/outbox.ucp.g08.bks.cvg/sg12_75_cif.got.tgz:149385.got - 2010.06.11 11:47:21.
