data_PCOD9225673
_publ_section_title
;
Structure prediction by ZEFSAII (Michael W. Deem and Ramdas Pophale) SiO2 
 PCOD9225673
Probable space group: C 2/M
;
_chemical_formula_sum "Si O2"
_cell_formula_units_Z 24
_cell_length_a 30.000000
_cell_length_b 9.000000
_cell_length_c 15.000000
_cell_angle_alpha 90.000000
_cell_angle_beta 40.000000
_cell_angle_gamma 90.000000
_cell_volume 2603.289819
_symmetry_space_group_name_H-M "C 2/M"
_symmetry_group_IT_number 12
_symmetry_cell_setting 'monoclinic'
loop_
_space_group_symop_operation_xyz
x,y,z
-x,y,-z
-x,-y,-z
x,-y,z
1/2+x,1/2+y,z
1/2-x,1/2+y,-z
1/2-x,1/2-y,-z
1/2+x,1/2-y,z
loop_
_atom_site_type_symbol
_atom_site_label
_atom_site_fract_x
_atom_site_fract_y
_atom_site_fract_z
Si Si1 0.319527 0.326101 0.649335
Si Si2 0.570055 0.177707 0.950194
Si Si3 0.221031 0.320589 0.635453
Si Si4 0.788451 0.674404 0.022862
Si Si5 0.066378 0.178278 0.150658
Si Si6 0.967725 0.678492 0.451795
O O1 0.339743 0.500000 0.609282
O O2 0.276948 0.281204 0.626379
O O3 0.263487 0.316100 0.814123
O O4 0.388270 0.232990 0.565199
O O5 0.642433 0.221645 0.788739
O O6 0.576453 0.000000 0.958276
O O7 0.500000 0.200597 0.000000
O O8 0.559806 0.261474 0.059587
O O9 0.220091 0.500000 0.628022
O O10 0.250000 0.250000 0.500000
O O11 0.803625 0.500000 0.983410
O O12 0.750000 0.750000 0.000000
O O13 0.858766 0.762413 0.933195
O O14 0.010950 0.246361 0.305173
O O15 0.062623 0.000000 0.158080
O O16 0.971381 0.500000 0.437535
O O17 0.000000 0.717735 0.500000
#
# Coordination Sequence:
#
# PCOD9225673 Si02
#       6
#     8   8   8   8   8   8
#     4  10  22  41  63  89 127 165 202 255 315 374
#     4  10  22  43  68  93 125 167 211 259 318 378
#     4  10  22  41  63  93 127 163 204 255 314 373
#     4  11  22  40  65  93 127 165 208 258 314 375
#     4  12  25  41  64  94 129 168 211 261 317 377
#     4  11  25  43  64  91 125 167 215 264 314 375
#
# _framework density 9.2191039999999997
#
# number of rings (size 3 to 8) (size 9 to 14) (size 15 to 20)
#    0.000    1.333    1.667    3.500    2.333    7.000 
#    0.000    0.000    0.000    0.000    0.000    0.000 
#    0.000    0.000    0.000    0.000    0.000    0.000 
#
# Total GULP energy -134111.293935 kJ/mol
# GULP energy per Si atom -5587.970581 kJ/mol
# Density = 0.919812 g / cm^3
# Si number density = 9.219104 Si / 1000 Ang^3
#
#
#
# Elastic Constant Matrix: (Units=GPa)
#
#
# Indices 1 2 3 4 5 6 
#
# 1 87.9485 25.2681 7.1444 0.0000 -0.2730 0.0000
# 2 25.2681 70.8829 20.6055 -0.0004 0.6549 0.0001
# 3 7.1444 20.6055 73.9522 -0.0001 -4.0379 0.0000
# 4 0.0000 -0.0004 -0.0001 39.3586 0.0000 1.4057
# 5 -0.2730 0.6549 -4.0379 0.0000 42.5947 0.0000
# 6 0.0000 0.0001 0.0000 1.4057 0.0000 29.9131
#
#
#
# Elastic Compliance Matrix: (Units=1/GPa)
#
#
# Indices 1 2 3 4 5 6 
#
# 1 0.012669 -0.004531 0.000047 0.000000 0.000155 0.000000
# 2 -0.004531 0.016990 -0.004334 0.000000 -0.000701 0.000000
# 3 0.000047 -0.004334 0.014806 0.000000 0.001470 0.000000
# 4 0.000000 0.000000 0.000000 0.025450 0.000000 -0.001196
# 5 0.000155 -0.000701 0.001470 0.000000 0.023628 0.000000
# 6 0.000000 0.000000 0.000000 -0.001196 0.000000 0.033486
#
#
# Mechanical properties :
#
#
# Convention : Reuss Voigt Hill
#
# Bulk Modulus (GPa) = 37.27585 37.64661 37.46123
# Shear Modulus (GPa) = 32.55037 34.35766 33.45402
#
# Velocity S-wave (km/s) = 4.20620 4.32139 4.26418
# Velocity P-wave (km/s) = 6.62193 6.73508 6.67874
#
# Compressibility (1/GPa) = 0.02682702
#
# Stress axis : x y z
#
# Youngs Moduli (GPa) = 78.93404 58.85978 67.54163
#
# Poissons Ratio (x) = 0.26671 -0.00318
# Poissons Ratio (y) = 0.35767 0.29275
# Poissons Ratio (z) = -0.00372 0.25512
#
# Static dielectric constant tensor:
#      x y z
#    x 1.659440 0.000000 0.010720 
#    y 0.000000 1.623750 0.000000 
#    z 0.010720 0.000000 1.599910 
# 
# From -- ./inp_files/248781.got.cif
#   From: 2010.05.17/outbox.ucp.g08.bks.cvg/sg12_125_cif.got.tgz:248781.got - 2010.06.11 11:47:21.
