data_PCOD9225650
_publ_section_title
;
Structure prediction by ZEFSAII (Michael W. Deem and Ramdas Pophale) SiO2 
 PCOD9225650
Probable space group: C 2/M
;
_chemical_formula_sum "Si O2"
_cell_formula_units_Z 24
_cell_length_a 18.000000
_cell_length_b 15.000000
_cell_length_c 9.000000
_cell_angle_alpha 90.000000
_cell_angle_beta 90.000000
_cell_angle_gamma 90.000000
_cell_volume 2430.000000
_symmetry_space_group_name_H-M "C 2/M"
_symmetry_group_IT_number 12
_symmetry_cell_setting 'monoclinic'
loop_
_space_group_symop_operation_xyz
x,y,z
-x,y,-z
-x,-y,-z
x,-y,z
1/2+x,1/2+y,z
1/2-x,1/2+y,-z
1/2-x,1/2-y,-z
1/2+x,1/2-y,z
loop_
_atom_site_type_symbol
_atom_site_label
_atom_site_fract_x
_atom_site_fract_y
_atom_site_fract_z
Si Si1 0.545528 0.231051 0.789886
Si Si2 0.092788 0.395858 0.228935
Si Si3 0.961365 0.901380 0.656802
Si Si4 0.801011 0.101606 0.708803
Si Si5 0.166101 0.249279 0.050622
Si Si6 0.138656 0.605610 0.575590
O O1 0.482797 0.155379 0.814710
O O2 0.499011 0.319476 0.745147
O O3 0.593479 0.181846 0.662182
O O4 0.602742 0.253317 0.923356
O O5 0.088465 0.500000 0.193532
O O6 0.153301 0.341328 0.137735
O O7 0.114788 0.387231 0.403113
O O8 0.874792 0.892813 0.610944
O O9 0.000000 0.902822 0.500000
O O10 0.969521 0.000000 0.730257
O O11 0.830133 0.165258 0.839631
O O12 0.725089 0.122351 0.620585
O O13 0.791465 0.000000 0.763270
O O14 0.250000 0.250000 0.000000
O O15 0.122698 0.500000 0.616714
#
# Coordination Sequence:
#
# PCOD9225650 Si02
#       6
#     8   8   8   8   8   8
#     4  12  23  40  68  96 133 167 209 264 322 388
#     4  11  25  43  66  98 131 166 214 268 322 380
#     4  10  22  40  65  97 128 165 216 268 319 374
#     4  10  22  43  67  91 128 170 214 265 316 377
#     4  12  26  43  61  95 130 171 215 255 318 386
#     4  10  22  42  70  98 126 167 214 264 324 380
#
# _framework density 9.8765429999999999
#
# number of rings (size 3 to 8) (size 9 to 14) (size 15 to 20)
#    0.000    1.167    3.333    2.500    0.000    6.667 
#    0.000    3.333    0.000    0.000    0.000    0.000 
#    0.000    0.000    0.000    0.000    0.000    0.000 
#
# Total GULP energy -133690.327484 kJ/mol
# GULP energy per Si atom -5570.430312 kJ/mol
# Density = 0.985406 g / cm^3
# Si number density = 9.876543 Si / 1000 Ang^3
#
#
#
# Elastic Constant Matrix: (Units=GPa)
#
#
# Indices 1 2 3 4 5 6 
#
# 1 151.1417 62.6829 33.7682 0.0000 4.3526 0.0000
# 2 62.6829 108.4955 15.2058 0.0000 5.0422 0.0000
# 3 33.7682 15.2058 31.4180 0.0000 12.4381 0.0000
# 4 0.0000 0.0000 0.0000 50.6729 0.0000 -10.0400
# 5 4.3526 5.0422 12.4381 0.0000 38.8572 0.0000
# 6 0.0000 0.0000 0.0000 -10.0400 0.0000 45.4749
#
#
#
# Elastic Compliance Matrix: (Units=1/GPa)
#
#
# Indices 1 2 3 4 5 6 
#
# 1 0.010935 -0.004984 -0.010434 0.000000 0.002762 0.000000
# 2 -0.004984 0.012162 -0.000144 0.000000 -0.000974 0.000000
# 3 -0.010434 -0.000144 0.048831 0.000000 -0.014443 0.000000
# 4 0.000000 0.000000 0.000000 0.020637 0.000000 0.004556
# 5 0.002762 -0.000974 -0.014443 0.000000 0.030175 0.000000
# 6 0.000000 0.000000 0.000000 0.004556 0.000000 0.022996
#
#
# Mechanical properties :
#
#
# Convention : Reuss Voigt Hill
#
# Bulk Modulus (GPa) = 24.50742 57.15209 40.82976
# Shear Modulus (GPa) = 26.25197 38.96089 32.60643
#
# Velocity S-wave (km/s) = 3.64951 4.44598 4.06729
# Velocity P-wave (km/s) = 5.49476 7.43988 6.54003
#
# Compressibility (1/GPa) = 0.04080397
#
# Stress axis : x y z
#
# Youngs Moduli (GPa) = 91.45115 82.22569 20.47861
#
# Poissons Ratio (x) = 0.40977 0.21368
# Poissons Ratio (y) = 0.45575 0.00295
# Poissons Ratio (z) = 0.95422 0.01186
#
# Static dielectric constant tensor:
#      x y z
#    x 1.665900 0.000000 -0.010200 
#    y 0.000000 -0.316880 0.000000 
#    z -0.010200 0.000000 1.661070 
# 
# From -- ./inp_files/73628.got.cif
#   From: 2010.05.17/outbox.ucp.g08.bks.cvg/sg12_37_cif.got.tgz:73628.got - 2010.06.11 11:47:21.
