data_PCOD9225065
_publ_section_title
;
Structure prediction by ZEFSAII (Michael W. Deem and Ramdas Pophale) SiO2 
 PCOD9225065
Probable space group: C 2/M
;
_chemical_formula_sum "Si O2"
_cell_formula_units_Z 32
_cell_length_a 30.000000
_cell_length_b 18.000000
_cell_length_c 9.000000
_cell_angle_alpha 90.000000
_cell_angle_beta 140.000000
_cell_angle_gamma 90.000000
_cell_volume 3123.947783
_symmetry_space_group_name_H-M "C 2/M"
_symmetry_group_IT_number 12
_symmetry_cell_setting 'monoclinic'
loop_
_space_group_symop_operation_xyz
x,y,z
-x,y,-z
-x,-y,-z
x,-y,z
1/2+x,1/2+y,z
1/2-x,1/2+y,-z
1/2-x,1/2-y,-z
1/2+x,1/2-y,z
loop_
_atom_site_type_symbol
_atom_site_label
_atom_site_fract_x
_atom_site_fract_y
_atom_site_fract_z
Si Si1 0.439762 0.172996 0.078590
Si Si2 0.792062 0.088199 0.920859
Si Si3 0.931031 0.414776 0.489541
Si Si4 0.550573 0.418376 0.769627
Si Si5 0.351124 0.912453 0.598740
Si Si6 0.969967 0.188501 0.773142
Si Si7 0.315964 0.681152 0.268745
Si Si8 0.163640 0.304951 0.932693
O O1 0.491568 0.118749 0.301688
O O2 0.496313 0.229808 0.155301
O O3 0.386007 0.212510 0.054978
O O4 0.391797 0.132476 0.831884
O O5 0.725675 0.115675 0.653648
O O6 0.783273 0.000000 0.901421
O O7 0.869654 0.103538 0.058264
O O8 0.795867 0.116373 0.100346
O O9 0.935167 0.500000 0.458327
O O10 0.898482 0.409459 0.572367
O O11 0.875752 0.374384 0.242202
O O12 0.500000 0.426700 0.500000
O O13 0.553323 0.500000 0.850231
O O14 0.509219 0.356761 0.749432
O O15 0.344890 0.000000 0.627021
O O16 0.887316 0.178715 0.543617
O O17 0.000000 0.156014 0.000000
O O18 0.332040 0.747050 0.192447
O O19 0.245149 0.688643 0.182369
#
# Coordination Sequence:
#
# PCOD9225065 Si02
#       8
#     8   8   8   8   8   8   8   8
#     4  12  25  40  62  96 134 172 211 269 323 384
#     4  10  20  39  69  96 123 168 219 265 316 386
#     4  11  22  40  66  95 128 173 222 263 318 391
#     4  10  21  39  67  96 123 164 214 268 322 376
#     4  10  22  41  65  95 133 174 213 260 323 393
#     4  12  26  41  65  95 131 170 213 264 329 385
#     4  11  23  43  64  89 129 168 216 269 320 384
#     4  11  25  40  64  91 125 172 216 269 323 376
#
# _framework density 10.243449
#
# number of rings (size 3 to 8) (size 9 to 14) (size 15 to 20)
#    0.000    1.125    3.750    2.625    0.000    3.750 
#    0.000    1.875    0.000    0.000    0.000    0.000 
#    0.000    0.000    0.000    0.000    0.000    0.000 
#
# Total GULP energy -178378.814831 kJ/mol
# GULP energy per Si atom -5574.337963 kJ/mol
# Density = 1.022013 g / cm^3
# Si number density = 10.243449 Si / 1000 Ang^3
#
#
#
# Elastic Constant Matrix: (Units=GPa)
#
#
# Indices 1 2 3 4 5 6 
#
# 1 71.3684 24.0813 43.6769 0.0000 29.6575 0.0000
# 2 24.0813 63.1602 35.8833 0.0000 3.3402 0.0000
# 3 43.6769 35.8833 182.9972 0.0000 38.5676 0.0000
# 4 0.0000 0.0000 0.0000 40.8392 0.0000 8.6506
# 5 29.6575 3.3402 38.5676 0.0000 42.1653 0.0000
# 6 0.0000 0.0000 0.0000 8.6506 0.0000 30.6691
#
#
#
# Elastic Compliance Matrix: (Units=1/GPa)
#
#
# Indices 1 2 3 4 5 6 
#
# 1 0.023369 -0.007588 -0.000932 0.000000 -0.014983 0.000000
# 2 -0.007588 0.020450 -0.003694 0.000000 0.007096 0.000000
# 3 -0.000932 -0.003694 0.007695 0.000000 -0.006090 0.000000
# 4 0.000000 0.000000 0.000000 0.026042 0.000000 -0.007346
# 5 -0.014983 0.007096 -0.006090 0.000000 0.039263 0.000000
# 6 0.000000 0.000000 0.000000 -0.007346 0.000000 0.034678
#
#
# Mechanical properties :
#
#
# Convention : Reuss Voigt Hill
#
# Bulk Modulus (GPa) = 36.92125 58.31210 47.61667
# Shear Modulus (GPa) = 27.03376 36.99367 32.01371
#
# Velocity S-wave (km/s) = 3.63652 4.25399 3.95732
# Velocity P-wave (km/s) = 5.97439 7.25627 6.64631
#
# Compressibility (1/GPa) = 0.02708467
#
# Stress axis : x y z
#
# Youngs Moduli (GPa) = 42.79197 48.90093 129.95536
#
# Poissons Ratio (x) = 0.37107 0.12110
# Poissons Ratio (y) = 0.32471 0.48011
# Poissons Ratio (z) = 0.03987 0.18066
#
# Static dielectric constant tensor:
#      x y z
#    x 1.751020 0.000000 0.031240 
#    y 0.000000 1.834320 0.000000 
#    z 0.031240 0.000000 1.646360 
# 
# From -- ./inp_files/112920.got.cif
#   From: 2010.05.17/outbox.ucp.g08.bks.cvg/sg12_57_cif.got.tgz:112920.got - 2010.06.11 11:47:21.
