data_PCOD9225974
_publ_section_title
;
Structure prediction by ZEFSAII (Michael W. Deem and Ramdas Pophale) SiO2 
 PCOD9225974
Probable space group: C 2/M
;
_chemical_formula_sum "Si O2"
_cell_formula_units_Z 22
_cell_length_a 12.000000
_cell_length_b 27.000000
_cell_length_c 15.000000
_cell_angle_alpha 90.000000
_cell_angle_beta 150.000000
_cell_angle_gamma 90.000000
_cell_volume 2430.000000
_symmetry_space_group_name_H-M "C 2/M"
_symmetry_group_IT_number 12
_symmetry_cell_setting 'monoclinic'
loop_
_space_group_symop_operation_xyz
x,y,z
-x,y,-z
-x,-y,-z
x,-y,z
1/2+x,1/2+y,z
1/2-x,1/2+y,-z
1/2-x,1/2-y,-z
1/2+x,1/2-y,z
loop_
_atom_site_type_symbol
_atom_site_label
_atom_site_fract_x
_atom_site_fract_y
_atom_site_fract_z
Si Si1 0.805777 0.058134 0.938812
Si Si2 0.441857 0.139151 0.629095
Si Si3 0.735243 0.799744 0.324574
Si Si4 0.000000 0.356492 0.000000
Si Si5 0.649882 0.690746 0.193249
Si Si6 0.542579 0.616463 0.794125
O O1 0.593677 0.094250 0.774314
O O2 0.747613 0.000000 0.890160
O O3 0.000000 0.069157 0.000000
O O4 0.907408 0.069715 0.106871
O O5 0.367912 0.178906 0.654353
O O6 0.617429 0.164872 0.680270
O O7 0.202205 0.118853 0.424503
O O8 0.704363 0.741422 0.283407
O O9 0.000000 0.810897 0.500000
O O10 0.603632 0.826371 0.153594
O O11 0.765466 0.378814 0.884532
O O12 0.499800 0.658924 0.158967
O O13 0.500000 0.699107 0.000000
#
# Coordination Sequence:
#
# PCOD9225974 Si02
#       6
#     8   8   8   4   8   8
#     4  11  24  45  72 102 132 165 218 281 337 390
#     4  12  24  43  69  97 136 174 221 274 329 390
#     4  12  25  40  64  98 136 179 224 266 321 393
#     4  12  24  40  65  90 128 182 219 262 322 386
#     4  12  24  41  65  96 135 180 223 271 322 389
#     4  12  24  43  67  94 134 175 219 274 330 389
#
# _framework density 9.0534979999999994
#
# number of rings (size 3 to 8) (size 9 to 14) (size 15 to 20)
#    0.000    0.182    8.182    1.636    2.545    3.636 
#    0.000    2.273    0.000    1.636    0.000    0.000 
#    0.000    0.000    0.000    0.000    0.000    0.000 
#
# Total GULP energy -122653.291508 kJ/mol
# GULP energy per Si atom -5575.149614 kJ/mol
# Density = 0.903289 g / cm^3
# Si number density = 9.053498 Si / 1000 Ang^3
#
#
#
# Elastic Constant Matrix: (Units=GPa)
#
#
# Indices 1 2 3 4 5 6 
#
# 1 133.2448 39.4039 28.5294 -0.0001 20.7589 0.0000
# 2 39.4039 94.3631 38.3697 0.0000 7.2811 0.0000
# 3 28.5294 38.3697 145.4936 0.0000 11.1131 0.0001
# 4 -0.0001 0.0000 0.0000 26.1141 0.0000 -2.3910
# 5 20.7589 7.2811 11.1131 0.0000 45.7726 0.0000
# 6 0.0000 0.0000 0.0001 -2.3910 0.0000 28.8457
#
#
#
# Elastic Compliance Matrix: (Units=1/GPa)
#
#
# Indices 1 2 3 4 5 6 
#
# 1 0.009160 -0.003287 -0.000664 0.000000 -0.003470 0.000000
# 2 -0.003287 0.013110 -0.002820 0.000000 0.000090 0.000000
# 3 -0.000664 -0.002820 0.007835 0.000000 -0.001153 0.000000
# 4 0.000000 0.000000 0.000000 0.038586 0.000000 0.003198
# 5 -0.003470 0.000090 -0.001153 0.000000 0.023686 0.000000
# 6 0.000000 0.000000 0.000000 0.003198 0.000000 0.034932
#
#
# Mechanical properties :
#
#
# Convention : Reuss Voigt Hill
#
# Bulk Modulus (GPa) = 60.37688 65.07861 62.72774
# Shear Modulus (GPa) = 34.15953 37.93307 36.04630
#
# Velocity S-wave (km/s) = 4.34814 4.58202 4.46661
# Velocity P-wave (km/s) = 7.65672 8.00077 7.83063
#
# Compressibility (1/GPa) = 0.01656263
#
# Stress axis : x y z
#
# Youngs Moduli (GPa) = 109.17141 76.28035 127.63234
#
# Poissons Ratio (x) = 0.25074 0.08477
# Poissons Ratio (y) = 0.35886 0.35987
# Poissons Ratio (z) = 0.07251 0.21508
#
# Static dielectric constant tensor:
#      x y z
#    x 1.633650 0.000000 -0.011770 
#    y 0.000000 1.644030 0.000000 
#    z -0.011770 0.000000 1.654200 
# 
# From -- ./inp_files/209212.got.cif
#   From: 2010.05.17/outbox.ucp.g08.bks.cvg/sg12_105_cif.got.tgz:209212.got - 2010.06.11 11:47:21.
