data_PCOD9225276
_publ_section_title
;
Structure prediction by ZEFSAII (Michael W. Deem and Ramdas Pophale) SiO2 
 PCOD9225276
Probable space group: C 2/M
;
_chemical_formula_sum "Si O2"
_cell_formula_units_Z 28
_cell_length_a 21.000000
_cell_length_b 9.000000
_cell_length_c 30.000000
_cell_angle_alpha 90.000000
_cell_angle_beta 30.000000
_cell_angle_gamma 90.000000
_cell_volume 2835.000000
_symmetry_space_group_name_H-M "C 2/M"
_symmetry_group_IT_number 12
_symmetry_cell_setting 'monoclinic'
loop_
_space_group_symop_operation_xyz
x,y,z
-x,y,-z
-x,-y,-z
x,-y,z
1/2+x,1/2+y,z
1/2-x,1/2+y,-z
1/2-x,1/2-y,-z
1/2+x,1/2-y,z
loop_
_atom_site_type_symbol
_atom_site_label
_atom_site_fract_x
_atom_site_fract_y
_atom_site_fract_z
Si Si1 0.074044 0.674362 0.909495
Si Si2 0.133100 0.826126 0.287649
Si Si3 0.496010 0.825316 0.290652
Si Si4 0.245765 0.323949 0.454042
Si Si5 0.483276 0.822440 0.561690
Si Si6 0.652314 0.327739 0.122243
Si Si7 0.589879 0.672829 0.061653
O O1 0.045109 0.500000 0.918192
O O2 0.226026 0.688440 0.818527
O O3 0.025467 0.776145 0.898898
O O4 0.000000 0.713989 0.000000
O O5 0.040416 0.734574 0.311667
O O6 0.120298 0.762508 0.345385
O O7 0.098595 0.000000 0.308251
O O8 0.366956 0.742578 0.355374
O O9 0.601545 0.777573 0.191311
O O10 0.477035 0.000000 0.304114
O O11 0.258730 0.500000 0.451172
O O12 0.250000 0.250000 0.500000
O O13 0.116831 0.293544 0.505665
O O14 0.500000 0.778216 0.500000
O O15 0.457704 0.000000 0.578362
O O16 0.649868 0.500000 0.138034
O O17 0.571564 0.311177 0.125704
O O18 0.793717 0.278171 0.023233
O O19 0.622934 0.500000 0.033825
#
# Coordination Sequence:
#
# PCOD9225276 Si02
#       7
#     8   8   8   8   8   8   8
#     4  10  22  39  59  85 121 163 201 244 303 367
#     4  11  23  39  62  90 121 160 205 256 310 368
#     4  12  24  38  61  91 121 156 203 254 304 362
#     4  11  22  39  64  91 122 160 201 248 304 364
#     4  10  23  43  65  90 124 166 208 255 314 376
#     4  10  21  38  59  85 119 157 198 248 303 362
#     4  10  21  37  59  86 117 156 200 248 302 359
#
# _framework density 9.8765429999999999
#
# number of rings (size 3 to 8) (size 9 to 14) (size 15 to 20)
#    0.000    1.429    1.429    3.857    0.000    6.286 
#    0.000    4.286    0.000    0.000    0.000    0.000 
#    0.000    0.000    0.000    0.000    0.000    0.000 
#
# Total GULP energy -156427.143042 kJ/mol
# GULP energy per Si atom -5586.683680 kJ/mol
# Density = 0.985406 g / cm^3
# Si number density = 9.876543 Si / 1000 Ang^3
#
#
#
# Elastic Constant Matrix: (Units=GPa)
#
#
# Indices 1 2 3 4 5 6 
#
# 1 77.5228 54.2399 26.3131 -0.0002 7.0540 0.0008
# 2 54.2399 61.1566 22.8923 -0.0004 -0.6142 0.0018
# 3 26.3131 22.8923 74.1884 -0.0001 16.3153 0.0002
# 4 -0.0002 -0.0004 -0.0001 31.2973 0.0000 4.0720
# 5 7.0540 -0.6142 16.3153 0.0000 20.9525 -0.0001
# 6 0.0008 0.0018 0.0002 4.0720 -0.0001 25.8461
#
#
#
# Elastic Compliance Matrix: (Units=1/GPa)
#
#
# Indices 1 2 3 4 5 6 
#
# 1 0.037508 -0.033401 -0.000005 0.000000 -0.013603 0.000001
# 2 -0.033401 0.048880 -0.007269 0.000001 0.018338 -0.000002
# 3 -0.000005 -0.007269 0.019029 0.000000 -0.015029 0.000000
# 4 0.000000 0.000001 0.000000 0.032620 0.000000 -0.005139
# 5 -0.013603 0.018338 -0.015029 0.000000 0.064547 -0.000001
# 6 0.000001 -0.000002 0.000000 -0.005139 -0.000001 0.039500
#
#
# Mechanical properties :
#
#
# Convention : Reuss Voigt Hill
#
# Bulk Modulus (GPa) = 41.55123 46.63981 44.09552
# Shear Modulus (GPa) = 15.08484 22.91401 18.99943
#
# Velocity S-wave (km/s) = 2.76646 3.40960 3.10473
# Velocity P-wave (km/s) = 5.59333 6.25805 5.93500
#
# Compressibility (1/GPa) = 0.02406668
#
# Stress axis : x y z
#
# Youngs Moduli (GPa) = 26.66066 20.45829 52.55042
#
# Poissons Ratio (x) = 0.68332 0.00029
# Poissons Ratio (y) = 0.89049 0.38200
# Poissons Ratio (z) = 0.00015 0.14871
#
# Static dielectric constant tensor:
#      x y z
#    x 1.700170 0.000000 -0.012900 
#    y 0.000000 1.657580 0.000000 
#    z -0.012900 0.000000 1.764580 
# 
# From -- ./inp_files/380664.got.cif
#   From: 2010.05.17/outbox.ucp.g08.bks.cvg/sg12_191_cif.got.tgz:380664.got - 2010.06.11 11:47:21.
