data_PCOD9225592
_publ_section_title
;
Structure prediction by ZEFSAII (Michael W. Deem and Ramdas Pophale) SiO2 
 PCOD9225592
Probable space group: C 2/M
;
_chemical_formula_sum "Si O2"
_cell_formula_units_Z 24
_cell_length_a 21.000000
_cell_length_b 15.000000
_cell_length_c 24.000000
_cell_angle_alpha 90.000000
_cell_angle_beta 160.000000
_cell_angle_gamma 90.000000
_cell_volume 2585.672284
_symmetry_space_group_name_H-M "C 2/M"
_symmetry_group_IT_number 12
_symmetry_cell_setting 'monoclinic'
loop_
_space_group_symop_operation_xyz
x,y,z
-x,y,-z
-x,-y,-z
x,-y,z
1/2+x,1/2+y,z
1/2-x,1/2+y,-z
1/2-x,1/2-y,-z
1/2+x,1/2-y,z
loop_
_atom_site_type_symbol
_atom_site_label
_atom_site_fract_x
_atom_site_fract_y
_atom_site_fract_z
Si Si1 0.952443 0.098881 0.189618
Si Si2 0.501884 0.897669 0.832422
Si Si3 0.490612 0.711293 0.114898
Si Si4 0.278006 0.145483 0.533732
Si Si5 0.196577 0.396350 0.690164
Si Si6 0.660493 0.898444 0.792942
O O1 0.016262 0.173442 0.198531
O O2 0.077374 0.106813 0.348593
O O3 0.991874 0.000000 0.199248
O O4 0.727208 0.106763 0.007460
O O5 0.477713 0.816925 0.855907
O O6 0.368432 0.877809 0.668781
O O7 0.464051 0.000000 0.818601
O O8 0.640287 0.664500 0.198849
O O9 0.288163 0.675027 0.928680
O O10 0.250000 0.250000 0.500000
O O11 0.443974 0.112325 0.629918
O O12 0.236014 0.500000 0.709021
O O13 0.184295 0.389039 0.746544
O O14 0.000000 0.373229 0.500000
O O15 0.717485 0.000000 0.856106
#
# Coordination Sequence:
#
# PCOD9225592 Si02
#       6
#     8   8   8   8   8   8
#     4  11  21  35  58  86 120 157 193 239 297 357
#     4  11  24  41  58  86 124 159 203 250 290 344
#     4  12  21  37  59  85 117 159 198 239 296 355
#     4  12  22  37  59  89 123 162 196 238 293 355
#     4  10  22  38  58  88 120 152 192 240 300 365
#     4  11  22  37  60  91 124 154 192 245 303 360
#
# _framework density 9.2819190000000003
#
# number of rings (size 3 to 8) (size 9 to 14) (size 15 to 20)
#    0.000    0.833    3.333    6.000    0.000    2.667 
#    0.000    0.000    0.000    2.500    0.000    0.000 
#    0.000    0.000    0.000    0.000    0.000    0.000 
#
# Total GULP energy -133965.006696 kJ/mol
# GULP energy per Si atom -5581.875279 kJ/mol
# Density = 0.926079 g / cm^3
# Si number density = 9.281919 Si / 1000 Ang^3
#
#
#
# Elastic Constant Matrix: (Units=GPa)
#
#
# Indices 1 2 3 4 5 6 
#
# 1 33.0505 10.2744 16.4471 0.0034 -3.4581 -0.0022
# 2 10.2744 109.0799 20.6933 0.0091 -7.4090 0.0081
# 3 16.4471 20.6933 118.0736 0.0303 -24.0596 0.0073
# 4 0.0034 0.0091 0.0303 33.7354 0.0146 1.4418
# 5 -3.4581 -7.4090 -24.0596 0.0146 26.3943 -0.0013
# 6 -0.0022 0.0081 0.0073 1.4418 -0.0013 -1.7776
#
#
#
# Elastic Compliance Matrix: (Units=1/GPa)
#
#
# Indices 1 2 3 4 5 6 
#
# 1 0.033068 -0.002323 -0.004236 0.000004 -0.000181 -0.000066
# 2 -0.002323 0.009689 -0.001084 -0.000004 0.001428 0.000038
# 3 -0.004236 -0.001084 0.011144 -0.000014 0.009299 0.000027
# 4 0.000004 -0.000004 -0.000014 0.028649 -0.000028 0.023237
# 5 -0.000181 0.001428 0.009299 -0.000028 0.046741 -0.000013
# 6 -0.000066 0.000038 0.000027 0.023237 -0.000013 -0.543699
#
#
# Mechanical properties :
#
#
# Convention : Reuss Voigt Hill
#
# Bulk Modulus (GPa) = 25.89639 39.44819 32.67229
# Shear Modulus (GPa) = -12.94498 25.85635 6.45568
#
# Velocity S-wave (km/s) = -2.64355 3.73612 1.86684
# Velocity P-wave (km/s) = 2.15925 6.31725 4.72070
#
# Compressibility (1/GPa) = 0.03861542
#
# Stress axis : x y z
#
# Youngs Moduli (GPa) = 30.24072 103.21028 89.73349
#
# Poissons Ratio (x) = 0.23980 0.38010
# Poissons Ratio (y) = 0.07026 0.09723
# Poissons Ratio (z) = 0.12810 0.11183
#
# Static dielectric constant tensor:
#      x y z
#    x 1.630860 0.000000 -0.017500 
#    y 0.000000 1.677000 0.000000 
#    z -0.017500 0.000000 1.666110 
# 
# From -- ./inp_files/95670.got.cif
#   From: 2010.05.17/outbox.ucp.g08.bks.cvg/sg12_48_cif.got.tgz:95670.got - 2010.06.11 11:47:21.
