data_PCOD9225660
_publ_section_title
;
Structure prediction by ZEFSAII (Michael W. Deem and Ramdas Pophale) SiO2 
 PCOD9225660
Probable space group: C 2/M
;
_chemical_formula_sum "Si O2"
_cell_formula_units_Z 32
_cell_length_a 12.000000
_cell_length_b 15.000000
_cell_length_c 27.000000
_cell_angle_alpha 90.000000
_cell_angle_beta 40.000000
_cell_angle_gamma 90.000000
_cell_volume 3123.947783
_symmetry_space_group_name_H-M "C 2/M"
_symmetry_group_IT_number 12
_symmetry_cell_setting 'monoclinic'
loop_
_space_group_symop_operation_xyz
x,y,z
-x,y,-z
-x,-y,-z
x,-y,z
1/2+x,1/2+y,z
1/2-x,1/2+y,-z
1/2-x,1/2-y,-z
1/2+x,1/2-y,z
loop_
_atom_site_type_symbol
_atom_site_label
_atom_site_fract_x
_atom_site_fract_y
_atom_site_fract_z
Si Si1 0.435636 0.895680 0.863233
Si Si2 0.041558 0.900616 0.570998
Si Si3 0.404611 0.704657 0.188319
Si Si4 0.893841 0.897089 0.794874
Si Si5 0.097936 0.895553 0.915073
Si Si6 0.984040 0.600959 0.952534
Si Si7 0.972889 0.239319 0.679605
Si Si8 0.219628 0.401380 0.605543
O O1 0.553472 0.809149 0.816372
O O2 0.295595 0.892751 0.867365
O O3 0.372544 0.875802 0.941782
O O4 0.500318 0.000000 0.842450
O O5 0.034164 0.819981 0.612102
O O6 0.194166 0.894909 0.478400
O O7 0.869207 0.899312 0.595954
O O8 0.050511 0.000000 0.591706
O O9 0.524884 0.644696 0.182808
O O10 0.426575 0.668945 0.123972
O O11 0.202190 0.704305 0.270655
O O12 0.943494 0.831769 0.733427
O O13 0.684331 0.898727 0.867612
O O14 0.950480 0.000000 0.769633
O O15 0.055256 0.000000 0.917322
O O16 0.000000 0.872862 0.000000
O O17 0.921898 0.500000 0.984580
O O18 0.000000 0.650001 0.000000
O O19 0.105793 0.314698 0.650970
O O20 0.134668 0.500000 0.638307
#
# Coordination Sequence:
#
# PCOD9225660 Si02
#       8
#     8   8   8   8   8   8   8   8
#     4  10  22  41  61  85 115 150 201 257 305 361
#     4   9  19  38  65  93 120 154 198 245 288 339
#     4  12  25  40  59  89 122 163 202 246 307 367
#     4  11  24  41  59  86 123 159 202 250 303 364
#     4  10  24  44  64  86 116 157 206 263 318 365
#     4   9  19  37  62  85 110 152 201 254 307 353
#     4  12  22  38  60  91 123 161 199 239 294 355
#     4   9  20  39  63  92 123 156 196 242 291 344
#
# _framework density 10.243449
#
# number of rings (size 3 to 8) (size 9 to 14) (size 15 to 20)
#    0.000    1.750    1.250    3.375    1.750    2.500 
#    0.000    3.125    0.000    0.000    0.000    7.875 
#    0.000    0.000    0.000    0.000    0.000    0.000 
#
# Total GULP energy -178466.781494 kJ/mol
# GULP energy per Si atom -5577.086922 kJ/mol
# Density = 1.022013 g / cm^3
# Si number density = 10.243449 Si / 1000 Ang^3
#
#
#
# Elastic Constant Matrix: (Units=GPa)
#
#
# Indices 1 2 3 4 5 6 
#
# 1 79.6115 24.2338 -2.5055 0.0000 14.3128 0.0000
# 2 24.2338 125.2698 23.8233 0.0001 -4.6990 0.0001
# 3 -2.5055 23.8233 10.6106 0.0003 1.4947 0.0005
# 4 0.0000 0.0001 0.0003 25.4808 0.0000 6.6174
# 5 14.3128 -4.6990 1.4947 0.0000 26.1473 0.0000
# 6 0.0000 0.0001 0.0005 6.6174 0.0000 35.5390
#
#
#
# Elastic Compliance Matrix: (Units=1/GPa)
#
#
# Indices 1 2 3 4 5 6 
#
# 1 0.018645 -0.009262 0.027089 0.000000 -0.013419 0.000000
# 2 -0.009262 0.019035 -0.046497 0.000000 0.011149 0.000001
# 3 0.027089 -0.046497 0.209996 -0.000002 -0.035189 -0.000003
# 4 0.000000 0.000000 -0.000002 0.041240 0.000000 -0.007679
# 5 -0.013419 0.011149 -0.035189 0.000000 0.049606 0.000000
# 6 0.000000 0.000001 -0.000003 -0.007679 0.000000 0.029568
#
#
# Mechanical properties :
#
#
# Convention : Reuss Voigt Hill
#
# Bulk Modulus (GPa) = 5.25385 34.06614 19.65999
# Shear Modulus (GPa) = 10.22757 28.76276 19.49516
#
# Velocity S-wave (km/s) = 2.23676 3.75101 3.08813
# Velocity P-wave (km/s) = 3.03988 5.95184 4.72574
#
# Compressibility (1/GPa) = 0.19033673
#
# Stress axis : x y z
#
# Youngs Moduli (GPa) = 53.63231 52.53402 4.76200
#
# Poissons Ratio (x) = 0.48657 -0.12900
# Poissons Ratio (y) = 0.49674 0.22142
# Poissons Ratio (z) = -1.45283 2.44265
#
# Static dielectric constant tensor:
#      x y z
#    x 1.740910 0.000000 -0.013290 
#    y 0.000000 1.732800 0.000000 
#    z -0.013290 0.000000 1.790090 
# 
# From -- ./inp_files/358419.got.cif
#   From: 2010.05.17/outbox.ucp.g08.bks.cvg/sg12_180_cif.got.tgz:358419.got - 2010.06.11 11:47:21.
