data_PCOD9225602
_publ_section_title
;
Structure prediction by ZEFSAII (Michael W. Deem and Ramdas Pophale) SiO2 
 PCOD9225602
Probable space group: C 2/M
;
_chemical_formula_sum "Si O2"
_cell_formula_units_Z 28
_cell_length_a 30.000000
_cell_length_b 9.000000
_cell_length_c 21.000000
_cell_angle_alpha 90.000000
_cell_angle_beta 150.000000
_cell_angle_gamma 90.000000
_cell_volume 2835.000000
_symmetry_space_group_name_H-M "C 2/M"
_symmetry_group_IT_number 12
_symmetry_cell_setting 'monoclinic'
loop_
_space_group_symop_operation_xyz
x,y,z
-x,y,-z
-x,-y,-z
x,-y,z
1/2+x,1/2+y,z
1/2-x,1/2+y,-z
1/2-x,1/2-y,-z
1/2+x,1/2-y,z
loop_
_atom_site_type_symbol
_atom_site_label
_atom_site_fract_x
_atom_site_fract_y
_atom_site_fract_z
Si Si1 0.539041 0.322352 0.827545
Si Si2 0.473400 0.172902 0.619430
Si Si3 0.355049 0.678567 0.844397
Si Si4 0.458261 0.678650 0.853402
Si Si5 0.781745 0.669357 0.975189
Si Si6 0.671716 0.673765 0.632530
Si Si7 0.404979 0.333393 0.325800
O O1 0.545467 0.500000 0.838282
O O2 0.508204 0.268728 0.720990
O O3 0.469903 0.269027 0.795877
O O4 0.637095 0.254353 0.957165
O O5 0.375824 0.229268 0.479930
O O6 0.539667 0.211753 0.643364
O O7 0.474728 0.000000 0.635441
O O8 0.339904 0.500000 0.826850
O O9 0.380468 0.730650 0.804087
O O10 0.269941 0.763208 0.765226
O O11 0.445417 0.707139 0.995430
O O12 0.448530 0.500000 0.840430
O O13 0.809404 0.500000 0.023858
O O14 0.695088 0.665972 0.824535
O O15 0.750000 0.750000 0.000000
O O16 0.675653 0.500000 0.621504
O O17 0.609194 0.689445 0.617260
O O18 0.442413 0.500000 0.359770
#
# Coordination Sequence:
#
# PCOD9225602 Si02
#       7
#     8   8   8   8   8   8   8
#     4  11  21  36  57  83 116 152 187 228 281 334
#     4  12  25  39  56  79 109 149 195 237 276 331
#     4   9  17  36  62  89 116 143 183 229 275 330
#     4   8  17  34  61  90 116 147 180 224 280 334
#     4  11  21  34  54  82 114 149 184 225 274 329
#     4  11  23  39  58  82 112 148 187 231 284 333
#     4  10  22  39  58  80 112 150 186 229 282 333
#
# _framework density 9.8765429999999999
#
# number of rings (size 3 to 8) (size 9 to 14) (size 15 to 20)
#    0.000    1.714    1.429    4.714    0.000    3.429 
#    0.000    4.286    0.000    0.000    0.000    0.000 
#    0.000    0.000    0.000    0.000    0.000    0.000 
#
# Total GULP energy -156265.196792 kJ/mol
# GULP energy per Si atom -5580.899885 kJ/mol
# Density = 0.985406 g / cm^3
# Si number density = 9.876543 Si / 1000 Ang^3
#
#
#
# Elastic Constant Matrix: (Units=GPa)
#
#
# Indices 1 2 3 4 5 6 
#
# 1 64.7113 26.4578 -4.0196 0.0000 3.3427 0.0000
# 2 26.4578 62.0622 -5.1292 0.0000 -9.7290 0.0000
# 3 -4.0196 -5.1292 29.8478 0.0000 -17.8697 0.0000
# 4 0.0000 0.0000 0.0000 20.6272 0.0000 10.8063
# 5 3.3427 -9.7290 -17.8697 0.0000 6.0799 0.0000
# 6 0.0000 0.0000 0.0000 10.8063 0.0000 12.6345
#
#
#
# Elastic Compliance Matrix: (Units=1/GPa)
#
#
# Indices 1 2 3 4 5 6 
#
# 1 0.017006 -0.004077 0.010418 0.000000 0.014746 0.000000
# 2 -0.004077 0.011324 -0.017886 0.000000 -0.032209 0.000000
# 3 0.010418 -0.017886 -0.014834 0.000000 -0.077947 0.000000
# 4 0.000000 0.000000 0.000000 0.087839 0.000000 -0.075129
# 5 0.014746 -0.032209 -0.077947 0.000000 -0.124267 0.000000
# 6 0.000000 0.000000 0.000000 -0.075129 0.000000 0.143407
#
#
# Mechanical properties :
#
#
# Convention : Reuss Voigt Hill
#
# Bulk Modulus (GPa) = -104.22007 21.24882 -41.48563
# Shear Modulus (GPa) = 35.62096 17.15581 26.38839
#
# Velocity S-wave (km/s) = 4.25115 2.95025 3.65898
# Velocity P-wave (km/s) = 5.36466 4.73137 1.78798
#
# Compressibility (1/GPa) = -0.00959508
#
# Stress axis : x y z
#
# Youngs Moduli (GPa) = 58.80434 88.31129 -67.41487
#
# Poissons Ratio (x) = 0.36004 0.70233
# Poissons Ratio (y) = 0.23974 -1.20580
# Poissons Ratio (z) = -0.61262 1.57956
#
# Static dielectric constant tensor:
#      x y z
#    x 1.718830 0.000000 -0.041870 
#    y 0.000000 1.650430 0.000000 
#    z -0.041870 0.000000 1.739260 
# 
# From -- ./inp_files/249309.got.cif
#   From: 2010.05.17/outbox.ucp.g08.bks.cvg/sg12_125_cif.got.tgz:249309.got - 2010.06.11 11:47:21.
