data_PCOD9225863
_publ_section_title
;
Structure prediction by ZEFSAII (Michael W. Deem and Ramdas Pophale) SiO2 
 PCOD9225863
Probable space group: C 2/M
;
_chemical_formula_sum "Si O2"
_cell_formula_units_Z 32
_cell_length_a 30.000000
_cell_length_b 9.000000
_cell_length_c 18.000000
_cell_angle_alpha 90.000000
_cell_angle_beta 40.000000
_cell_angle_gamma 90.000000
_cell_volume 3123.947783
_symmetry_space_group_name_H-M "C 2/M"
_symmetry_group_IT_number 12
_symmetry_cell_setting 'monoclinic'
loop_
_space_group_symop_operation_xyz
x,y,z
-x,y,-z
-x,-y,-z
x,-y,z
1/2+x,1/2+y,z
1/2-x,1/2+y,-z
1/2-x,1/2-y,-z
1/2+x,1/2-y,z
loop_
_atom_site_type_symbol
_atom_site_label
_atom_site_fract_x
_atom_site_fract_y
_atom_site_fract_z
Si Si1 0.897988 0.677834 0.314739
Si Si2 0.703903 0.822893 0.948985
Si Si3 0.161656 0.322202 0.153209
Si Si4 0.649514 0.175345 0.869028
Si Si5 0.705302 0.321572 0.657009
Si Si6 0.077020 0.680078 0.405772
Si Si7 0.015534 0.170408 0.068170
Si Si8 0.145910 0.679079 0.469860
O O1 0.904851 0.500000 0.294083
O O2 0.823928 0.731674 0.376032
O O3 0.902861 0.707970 0.396626
O O4 0.952652 0.773163 0.198595
O O5 0.647956 0.782147 0.084543
O O6 0.701287 0.000000 0.944144
O O7 0.773571 0.768481 0.898018
O O8 0.699785 0.766972 0.870254
O O9 0.177008 0.500000 0.134750
O O10 0.105824 0.293083 0.287070
O O11 0.655453 0.275464 0.788863
O O12 0.658401 0.000000 0.840496
O O13 0.575633 0.208102 0.000302
O O14 0.705258 0.500000 0.644114
O O15 0.778892 0.270814 0.597169
O O16 0.074669 0.500000 0.417747
O O17 0.119782 0.735388 0.423297
O O18 0.000000 0.740345 0.500000
O O19 0.034962 0.000000 0.062748
O O20 0.000000 0.170896 0.000000
O O21 0.151630 0.500000 0.456486
#
# Coordination Sequence:
#
# PCOD9225863 Si02
#       8
#     8   8   8   8   8   8   8   8
#     4  11  22  37  58  82 112 148 187 230 279 329
#     4   9  19  33  51  81 113 141 179 227 274 323
#     4   9  17  32  55  80 108 144 182 223 273 324
#     4  11  22  35  55  83 114 148 187 229 277 329
#     4  11  21  36  57  81 114 149 187 231 276 330
#     4   9  17  31  54  81 109 141 181 225 269 321
#     4  11  23  39  57  78 108 145 183 225 272 326
#     4   9  20  35  53  82 113 145 185 230 277 326
#
# _framework density 10.243449
#
# number of rings (size 3 to 8) (size 9 to 14) (size 15 to 20)
#    0.000    2.000    1.250    2.625    0.000    3.500 
#    0.000    5.625    0.000    1.875    0.000    0.000 
#    0.000    0.000    0.000    0.000    0.000    0.000 
#
# Total GULP energy -178199.481838 kJ/mol
# GULP energy per Si atom -5568.733807 kJ/mol
# Density = 1.022013 g / cm^3
# Si number density = 10.243449 Si / 1000 Ang^3
#
#
#
# Elastic Constant Matrix: (Units=GPa)
#
#
# Indices 1 2 3 4 5 6 
#
# 1 19.6476 -6.6621 13.3501 -0.0010 8.8589 0.0003
# 2 -6.6621 23.0884 -12.9601 -0.0016 9.8273 -0.0006
# 3 13.3501 -12.9601 29.1155 0.0003 8.0796 -0.0014
# 4 -0.0010 -0.0016 0.0003 10.3888 0.0006 0.6200
# 5 8.8589 9.8273 8.0796 0.0006 22.2859 -0.0004
# 6 0.0003 -0.0006 -0.0014 0.6200 -0.0004 16.5940
#
#
#
# Elastic Compliance Matrix: (Units=1/GPa)
#
#
# Indices 1 2 3 4 5 6 
#
# 1 0.098895 0.049528 -0.007038 0.000021 -0.058601 -0.000003
# 2 0.049528 0.144863 0.072229 0.000031 -0.109754 0.000006
# 3 -0.007038 0.072229 0.086488 0.000012 -0.060409 0.000008
# 4 0.000021 0.000031 0.000012 0.096473 -0.000029 -0.003604
# 5 -0.058601 -0.109754 -0.060409 -0.000029 0.138464 -0.000003
# 6 -0.000003 0.000006 0.000008 -0.003604 -0.000003 0.060397
#
#
# Mechanical properties :
#
#
# Convention : Reuss Voigt Hill
#
# Bulk Modulus (GPa) = 1.78672 6.58970 4.18821
# Shear Modulus (GPa) = 8.58073 15.06198 11.82135
#
# Velocity S-wave (km/s) = 2.04878 2.71440 2.40473
# Velocity P-wave (km/s) = 2.54375 3.61213 3.12395
#
# Compressibility (1/GPa) = 0.55968498
#
# Stress axis : x y z
#
# Youngs Moduli (GPa) = 10.11175 6.90309 11.56234
#
# Poissons Ratio (x) = -0.34190 0.08137
# Poissons Ratio (y) = -0.50082 -0.83514
# Poissons Ratio (z) = 0.07116 -0.49861
#
# Static dielectric constant tensor:
#      x y z
#    x 1.753700 0.000000 -0.036300 
#    y 0.000000 1.667500 0.000000 
#    z -0.036300 0.000000 1.887540 
# 
# From -- ./inp_files/295590.got.cif
#   From: 2010.05.17/outbox.ucp.g08.bks.cvg/sg12_148_cif.got.tgz:295590.got - 2010.06.11 11:47:21.
