data_PCOD9225689
_publ_section_title
;
Structure prediction by ZEFSAII (Michael W. Deem and Ramdas Pophale) SiO2 
 PCOD9225689
Probable space group: C 2/M
;
_chemical_formula_sum "Si O2"
_cell_formula_units_Z 28
_cell_length_a 12.000000
_cell_length_b 18.000000
_cell_length_c 15.000000
_cell_angle_alpha 90.000000
_cell_angle_beta 120.000000
_cell_angle_gamma 90.000000
_cell_volume 2805.922308
_symmetry_space_group_name_H-M "C 2/M"
_symmetry_group_IT_number 12
_symmetry_cell_setting 'monoclinic'
loop_
_space_group_symop_operation_xyz
x,y,z
-x,y,-z
-x,-y,-z
x,-y,z
1/2+x,1/2+y,z
1/2-x,1/2+y,-z
1/2-x,1/2-y,-z
1/2+x,1/2-y,z
loop_
_atom_site_type_symbol
_atom_site_label
_atom_site_fract_x
_atom_site_fract_y
_atom_site_fract_z
Si Si1 0.585018 0.913346 0.313761
Si Si2 0.122106 0.915949 0.787334
Si Si3 0.414485 0.086754 0.888716
Si Si4 0.748844 0.664348 0.468570
Si Si5 0.533873 0.688689 0.618171
Si Si6 0.934032 0.909516 0.876148
Si Si7 0.661944 0.848422 0.696244
O O1 0.580049 0.882055 0.210258
O O2 0.687895 0.877677 0.423000
O O3 0.446401 0.901271 0.304956
O O4 0.616320 0.000000 0.319496
O O5 0.271701 0.914406 0.871971
O O6 0.126475 0.873037 0.694698
O O7 0.034386 0.890503 0.835805
O O8 0.081169 0.000000 0.752341
O O9 0.456506 0.000000 0.895152
O O10 0.500000 0.123284 0.000000
O O11 0.750000 0.750000 0.500000
O O12 0.597665 0.656852 0.391789
O O13 0.817758 0.645032 0.403015
O O14 0.500000 0.693689 0.500000
O O15 0.594631 0.766355 0.675815
O O16 0.798986 0.866660 0.799281
O O17 0.911289 0.000000 0.864534
O O18 0.000000 0.893814 0.000000
#
# Coordination Sequence:
#
# PCOD9225689 Si02
#       7
#     8   8   8   8   8   8   8
#     4  11  24  40  66 101 131 164 217 276 324 383
#     4  10  22  41  65  95 126 166 221 268 316 385
#     4   9  20  39  64  94 128 166 211 266 325 382
#     4  12  23  42  62  91 132 173 211 254 324 389
#     4  12  23  39  66  89 130 177 207 256 320 386
#     4  10  23  43  68  95 129 170 214 268 327 384
#     4  12  24  41  67  96 129 171 217 264 326 394
#
# _framework density 9.9788940000000004
#
# number of rings (size 3 to 8) (size 9 to 14) (size 15 to 20)
#    0.000    1.143    4.286    1.714    2.000    2.571 
#    0.000    1.429    0.000    0.000    0.000    0.000 
#    0.000    0.000    0.000    0.000    0.000    0.000 
#
# Total GULP energy -155933.350548 kJ/mol
# GULP energy per Si atom -5569.048234 kJ/mol
# Density = 0.995618 g / cm^3
# Si number density = 9.978894 Si / 1000 Ang^3
#
#
#
# Elastic Constant Matrix: (Units=GPa)
#
#
# Indices 1 2 3 4 5 6 
#
# 1 95.7988 11.4901 47.5648 0.0000 -6.5792 0.0000
# 2 11.4901 49.7230 50.4071 0.0000 2.8985 0.0000
# 3 47.5648 50.4071 173.1515 0.0000 -4.2183 0.0000
# 4 0.0000 0.0000 0.0000 29.2368 0.0000 4.8292
# 5 -6.5792 2.8985 -4.2183 0.0000 32.3184 0.0000
# 6 0.0000 0.0000 0.0000 4.8292 0.0000 21.9887
#
#
#
# Elastic Compliance Matrix: (Units=1/GPa)
#
#
# Indices 1 2 3 4 5 6 
#
# 1 0.012234 0.000589 -0.003484 0.000000 0.001983 0.000000
# 2 0.000589 0.028997 -0.008691 0.000000 -0.003615 0.000000
# 3 -0.003484 -0.008691 0.009294 0.000000 0.001283 0.000000
# 4 0.000000 0.000000 0.000000 0.035491 0.000000 -0.007795
# 5 0.001983 -0.003615 0.001283 0.000000 0.031838 0.000000
# 6 0.000000 0.000000 0.000000 -0.007795 0.000000 0.047190
#
#
# Mechanical properties :
#
#
# Convention : Reuss Voigt Hill
#
# Bulk Modulus (GPa) = 36.55982 59.73303 48.14642
# Shear Modulus (GPa) = 25.33794 30.65619 27.99707
#
# Velocity S-wave (km/s) = 3.56698 3.92350 3.74948
# Velocity P-wave (km/s) = 5.94330 7.10773 6.55143
#
# Compressibility (1/GPa) = 0.02735243
#
# Stress axis : x y z
#
# Youngs Moduli (GPa) = 81.74063 34.48632 107.59900
#
# Poissons Ratio (x) = -0.02032 0.37486
# Poissons Ratio (y) = -0.04816 0.93519
# Poissons Ratio (z) = 0.28477 0.29973
#
# Static dielectric constant tensor:
#      x y z
#    x 4.473180 0.000000 2.646250 
#    y 0.000000 1.707660 0.000000 
#    z 2.646250 0.000000 4.262190 
# 
# From -- ./inp_files/206745.got.cif
#   From: 2010.05.17/outbox.ucp.g08.bks.cvg/sg12_104_cif.got.tgz:206745.got - 2010.06.11 11:47:21.
