data_PCOD9225447
_publ_section_title
;
Structure prediction by ZEFSAII (Michael W. Deem and Ramdas Pophale) SiO2 
 PCOD9225447
Probable space group: C 2/M
;
_chemical_formula_sum "Si O2"
_cell_formula_units_Z 32
_cell_length_a 18.000000
_cell_length_b 9.000000
_cell_length_c 30.000000
_cell_angle_alpha 90.000000
_cell_angle_beta 140.000000
_cell_angle_gamma 90.000000
_cell_volume 3123.947783
_symmetry_space_group_name_H-M "C 2/M"
_symmetry_group_IT_number 12
_symmetry_cell_setting 'monoclinic'
loop_
_space_group_symop_operation_xyz
x,y,z
-x,y,-z
-x,-y,-z
x,-y,z
1/2+x,1/2+y,z
1/2-x,1/2+y,-z
1/2-x,1/2-y,-z
1/2+x,1/2-y,z
loop_
_atom_site_type_symbol
_atom_site_label
_atom_site_fract_x
_atom_site_fract_y
_atom_site_fract_z
Si Si1 0.315301 0.170409 0.433502
Si Si2 0.455008 0.678595 0.050046
Si Si3 0.964114 0.180410 0.818329
Si Si4 0.028982 0.174599 0.429355
Si Si5 0.797700 0.670603 0.318466
Si Si6 0.397870 0.824796 0.622962
Si Si7 0.314337 0.321186 0.901901
Si Si8 0.927621 0.821135 0.227606
O O1 0.432049 0.229881 0.509960
O O2 0.302825 0.167007 0.374594
O O3 0.219577 0.285916 0.405790
O O4 0.294831 0.000000 0.439281
O O5 0.441189 0.500000 0.046245
O O6 0.468643 0.735657 0.106780
O O7 0.575873 0.703973 0.079820
O O8 0.354213 0.729136 0.969989
O O9 0.828335 0.220161 0.755834
O O10 0.019200 0.221595 0.796342
O O11 0.965762 0.000000 0.820484
O O12 0.106783 0.232412 0.424734
O O13 0.901080 0.219966 0.354365
O O14 0.038301 0.000000 0.441922
O O15 0.818546 0.500000 0.312420
O O16 0.500003 0.761151 0.700982
O O17 0.410925 0.000000 0.620814
O O18 0.292885 0.500000 0.892552
O O19 0.203782 0.233790 0.833918
O O20 0.937205 0.000000 0.237274
#
# Coordination Sequence:
#
# PCOD9225447 Si02
#       8
#     8   8   8   8   8   8   8   8
#     4  11  22  42  66  89 120 157 198 246 300 358
#     4   8  16  33  58  86 118 154 199 242 287 346
#     4   9  18  35  58  83 115 159 200 238 291 353
#     4  12  26  41  60  90 123 155 198 249 299 355
#     4  10  21  39  62  88 119 160 204 244 295 358
#     4  12  25  42  63  87 117 157 201 248 303 361
#     4   9  18  34  58  89 118 153 199 247 286 342
#     4  11  22  38  58  85 119 157 196 245 302 355
#
# _framework density 10.243449
#
# number of rings (size 3 to 8) (size 9 to 14) (size 15 to 20)
#    0.000    1.750    1.250    4.500    1.750    3.000 
#    0.000    1.250    0.000    3.000    0.000    0.000 
#    0.000    0.000    0.000    0.000    0.000    0.000 
#
# Total GULP energy -178707.947246 kJ/mol
# GULP energy per Si atom -5584.623351 kJ/mol
# Density = 1.022013 g / cm^3
# Si number density = 10.243449 Si / 1000 Ang^3
#
#
#
# Elastic Constant Matrix: (Units=GPa)
#
#
# Indices 1 2 3 4 5 6 
#
# 1 30.4088 -3.9064 -2.7085 0.0000 -7.4237 0.0000
# 2 -3.9064 52.0656 -1.4245 0.0000 0.2490 0.0000
# 3 -2.7085 -1.4245 65.4132 0.0000 -6.9940 0.0000
# 4 0.0000 0.0000 0.0000 27.9542 0.0000 5.9020
# 5 -7.4237 0.2490 -6.9940 0.0000 35.7421 0.0000
# 6 0.0000 0.0000 0.0000 5.9020 0.0000 18.8777
#
#
#
# Elastic Compliance Matrix: (Units=1/GPa)
#
#
# Indices 1 2 3 4 5 6 
#
# 1 0.035339 0.002679 0.002354 0.000000 0.007782 0.000000
# 2 0.002679 0.019421 0.000591 0.000000 0.000537 0.000000
# 3 0.002354 0.000591 0.015780 0.000000 0.003573 0.000000
# 4 0.000000 0.000000 0.000000 0.038301 0.000000 -0.011975
# 5 0.007782 0.000537 0.003573 0.000000 0.030290 0.000000
# 6 0.000000 0.000000 0.000000 -0.011975 0.000000 0.056716
#
#
# Mechanical properties :
#
#
# Convention : Reuss Voigt Hill
#
# Bulk Modulus (GPa) = 12.22696 14.64542 13.43619
# Shear Modulus (GPa) = 23.60028 26.90994 25.25511
#
# Velocity S-wave (km/s) = 3.39775 3.62818 3.51486
# Velocity P-wave (km/s) = 4.62321 4.97150 4.80052
#
# Compressibility (1/GPa) = 0.08178647
#
# Stress axis : x y z
#
# Youngs Moduli (GPa) = 28.29756 51.49030 63.37235
#
# Poissons Ratio (x) = -0.13792 -0.14915
# Poissons Ratio (y) = -0.07580 -0.03747
# Poissons Ratio (z) = -0.06660 -0.03044
#
# Static dielectric constant tensor:
#      x y z
#    x 1.780850 0.000000 -0.005490 
#    y 0.000000 1.682130 0.000000 
#    z -0.005490 0.000000 1.732300 
# 
# From -- ./inp_files/378379.got.cif
#   From: 2010.05.17/outbox.ucp.g08.bks.cvg/sg12_190_cif.got.tgz:378379.got - 2010.06.11 11:47:21.
