data_PCOD9225167
_publ_section_title
;
Structure prediction by ZEFSAII (Michael W. Deem and Ramdas Pophale) SiO2 
 PCOD9225167
Probable space group: C 2/M
;
_chemical_formula_sum "Si O2"
_cell_formula_units_Z 32
_cell_length_a 24.000000
_cell_length_b 9.000000
_cell_length_c 21.000000
_cell_angle_alpha 90.000000
_cell_angle_beta 120.000000
_cell_angle_gamma 90.000000
_cell_volume 3928.291232
_symmetry_space_group_name_H-M "C 2/M"
_symmetry_group_IT_number 12
_symmetry_cell_setting 'monoclinic'
loop_
_space_group_symop_operation_xyz
x,y,z
-x,y,-z
-x,-y,-z
x,-y,z
1/2+x,1/2+y,z
1/2-x,1/2+y,-z
1/2-x,1/2-y,-z
1/2+x,1/2-y,z
loop_
_atom_site_type_symbol
_atom_site_label
_atom_site_fract_x
_atom_site_fract_y
_atom_site_fract_z
Si Si1 0.785356 0.178830 0.081557
Si Si2 0.187062 0.821032 0.119231
Si Si3 0.679047 0.321938 0.263048
Si Si4 0.436809 0.678431 0.709657
Si Si5 0.064466 0.821500 0.853990
Si Si6 0.059648 0.322295 0.987206
Si Si7 0.267863 0.329521 0.412164
Si Si8 0.646918 0.170653 0.441434
O O1 0.748990 0.247617 0.121467
O O2 0.861753 0.212486 0.122765
O O3 0.777840 0.000000 0.075816
O O4 0.750000 0.250000 0.000000
O O5 0.180388 0.781706 0.189828
O O6 0.123939 0.758196 0.048338
O O7 0.189671 0.000000 0.114137
O O8 0.682676 0.500000 0.269579
O O9 0.613316 0.277322 0.262397
O O10 0.739219 0.253504 0.334925
O O11 0.432708 0.500000 0.701000
O O12 0.509333 0.717101 0.771270
O O13 0.410062 0.751288 0.630042
O O14 0.060773 0.000000 0.862530
O O15 0.047548 0.738235 0.909601
O O16 0.069163 0.500000 0.991857
O O17 0.000000 0.288863 0.000000
O O18 0.282330 0.500000 0.406013
O O19 0.327768 0.252733 0.481235
O O20 0.208355 0.326347 0.428490
O O21 0.631562 0.000000 0.446074
#
# Coordination Sequence:
#
# PCOD9225167 Si02
#       8
#     8   8   8   8   8   8   8   8
#     4  11  22  37  56  76  97 127 170 218 260 300
#     4  11  22  36  54  74  98 133 171 209 256 304
#     4   9  18  31  48  71 100 131 164 203 247 297
#     4   9  17  31  49  71  99 130 165 204 245 297
#     4  10  21  36  54  73  96 131 170 208 254 304
#     4  11  23  35  50  74 102 131 164 205 252 303
#     4   9  16  26  43  67  97 133 167 198 236 286
#     4   9  16  26  42  67  99 133 165 197 237 288
#
# _framework density 8.1460360000000005
#
# number of rings (size 3 to 8) (size 9 to 14) (size 15 to 20)
#    0.000    2.125    1.250    2.625    0.000    7.000 
#    0.000    2.500    0.000    0.000    0.000    0.875 
#    0.000    7.000    0.000    0.000    0.000    0.000 
#
# Total GULP energy -178500.094834 kJ/mol
# GULP energy per Si atom -5578.127964 kJ/mol
# Density = 0.812749 g / cm^3
# Si number density = 8.146036 Si / 1000 Ang^3
#
#
#
# Elastic Constant Matrix: (Units=GPa)
#
#
# Indices 1 2 3 4 5 6 
#
# 1 72.4515 28.2972 29.5673 0.0000 22.9091 0.0000
# 2 28.2972 38.0975 33.5697 0.0000 14.8466 0.0000
# 3 29.5673 33.5697 108.1815 0.0000 34.0900 0.0000
# 4 0.0000 0.0000 0.0000 29.4820 0.0000 0.0825
# 5 22.9091 14.8466 34.0900 0.0000 20.6586 0.0000
# 6 0.0000 0.0000 0.0000 0.0825 0.0000 21.0194
#
#
#
# Elastic Compliance Matrix: (Units=1/GPa)
#
#
# Indices 1 2 3 4 5 6 
#
# 1 0.025691 -0.013194 0.006379 0.000000 -0.029535 0.000000
# 2 -0.013194 0.045470 -0.010035 0.000000 -0.001487 0.000000
# 3 0.006379 -0.010035 0.022022 0.000000 -0.036203 0.000000
# 4 0.000000 0.000000 0.000000 0.033919 0.000000 -0.000133
# 5 -0.029535 -0.001487 -0.036203 0.000000 0.141967 0.000000
# 6 0.000000 0.000000 0.000000 -0.000133 0.000000 0.047576
#
#
# Mechanical properties :
#
#
# Convention : Reuss Voigt Hill
#
# Bulk Modulus (GPa) = 16.81105 44.62211 30.71658
# Shear Modulus (GPa) = 13.50721 22.71840 18.11281
#
# Velocity S-wave (km/s) = 2.88247 3.73828 3.33792
# Velocity P-wave (km/s) = 4.62808 6.78832 5.80949
#
# Compressibility (1/GPa) = 0.05948468
#
# Stress axis : x y z
#
# Youngs Moduli (GPa) = 38.92442 21.99241 45.40853
#
# Poissons Ratio (x) = 0.29016 -0.28968
# Poissons Ratio (y) = 0.51355 0.45568
# Poissons Ratio (z) = -0.24832 0.22070
#
# Static dielectric constant tensor:
#      x y z
#    x 1.527830 0.000000 0.004140 
#    y 0.000000 1.547390 0.000000 
#    z 0.004140 0.000000 1.537320 
# 
# From -- ./inp_files/323688.got.cif
#   From: 2010.05.17/outbox.ucp.g08.bks.cvg/sg12_162_cif.got.tgz:323688.got - 2010.06.11 11:47:21.
