data_PCOD9225751
_publ_section_title
;
Structure prediction by ZEFSAII (Michael W. Deem and Ramdas Pophale) SiO2 
 PCOD9225751
Probable space group: C 2/M
;
_chemical_formula_sum "Si O2"
_cell_formula_units_Z 24
_cell_length_a 24.000000
_cell_length_b 9.000000
_cell_length_c 12.000000
_cell_angle_alpha 90.000000
_cell_angle_beta 110.000000
_cell_angle_gamma 90.000000
_cell_volume 2435.683273
_symmetry_space_group_name_H-M "C 2/M"
_symmetry_group_IT_number 12
_symmetry_cell_setting 'monoclinic'
loop_
_space_group_symop_operation_xyz
x,y,z
-x,y,-z
-x,-y,-z
x,-y,z
1/2+x,1/2+y,z
1/2-x,1/2+y,-z
1/2-x,1/2-y,-z
1/2+x,1/2-y,z
loop_
_atom_site_type_symbol
_atom_site_label
_atom_site_fract_x
_atom_site_fract_y
_atom_site_fract_z
Si Si1 0.224908 0.322511 0.280825
Si Si2 0.305342 0.321782 0.973350
Si Si3 0.524546 0.173724 0.138495
Si Si4 0.366254 0.322792 0.390565
Si Si5 0.372802 0.322045 0.649235
Si Si6 0.095882 0.327043 0.808719
O O1 0.216493 0.500000 0.268566
O O2 0.198146 0.244072 0.152979
O O3 0.295360 0.294093 0.334953
O O4 0.188810 0.255237 0.359087
O O5 0.301733 0.500000 0.969672
O O6 0.250000 0.250000 0.000000
O O7 0.362603 0.267551 0.080317
O O8 0.578092 0.264778 0.229716
O O9 0.470106 0.181345 0.187606
O O10 0.542727 0.000000 0.138225
O O11 0.500000 0.222598 0.000000
O O12 0.374834 0.500000 0.379909
O O13 0.387270 0.284679 0.530130
O O14 0.397173 0.235649 0.311156
O O15 0.366914 0.500000 0.652251
O O16 0.114807 0.500000 0.824625
#
# Coordination Sequence:
#
# PCOD9225751 Si02
#       6
#     8   8   8   8   8   8
#     4  11  22  39  63  90 125 168 208 254 311 367
#     4  12  23  37  60  92 127 161 203 252 306 365
#     4  10  23  44  66  89 121 161 206 257 313 374
#     4  10  23  41  61  89 127 167 206 253 312 375
#     4  11  24  41  63  92 123 163 211 257 312 370
#     4  11  23  39  64  94 124 164 211 258 310 366
#
# _framework density 9.8534980000000001
#
# number of rings (size 3 to 8) (size 9 to 14) (size 15 to 20)
#    0.000    1.167    1.667    4.500    0.000    5.667 
#    0.000    3.333    0.000    0.000    0.000    0.000 
#    0.000    0.000    0.000    0.000    0.000    0.000 
#
# Total GULP energy -134241.127578 kJ/mol
# GULP energy per Si atom -5593.380316 kJ/mol
# Density = 0.983107 g / cm^3
# Si number density = 9.853498 Si / 1000 Ang^3
#
#
#
# Elastic Constant Matrix: (Units=GPa)
#
#
# Indices 1 2 3 4 5 6 
#
# 1 67.3807 36.3406 28.6241 0.0000 -12.8293 0.0000
# 2 36.3406 106.8255 49.6727 0.0000 -6.9348 0.0000
# 3 28.6241 49.6727 130.8249 0.0000 -17.5839 0.0000
# 4 0.0000 0.0000 0.0000 35.8724 0.0000 -4.9903
# 5 -12.8293 -6.9348 -17.5839 0.0000 30.1497 0.0000
# 6 0.0000 0.0000 0.0000 -4.9903 0.0000 27.8526
#
#
#
# Elastic Compliance Matrix: (Units=1/GPa)
#
#
# Indices 1 2 3 4 5 6 
#
# 1 0.019652 -0.005672 -0.001299 0.000000 0.006300 0.000000
# 2 -0.005672 0.013006 -0.003927 0.000000 -0.001713 0.000000
# 3 -0.001299 -0.003927 0.010008 0.000000 0.004381 0.000000
# 4 0.000000 0.000000 0.000000 0.028589 0.000000 0.005122
# 5 0.006300 -0.001713 0.004381 0.000000 0.038009 0.000000
# 6 0.000000 0.000000 0.000000 0.005122 0.000000 0.036821
#
#
# Mechanical properties :
#
#
# Convention : Reuss Voigt Hill
#
# Bulk Modulus (GPa) = 47.92046 59.36731 53.64388
# Shear Modulus (GPa) = 28.59787 31.46784 30.03286
#
# Velocity S-wave (km/s) = 3.81353 4.00031 3.90804
# Velocity P-wave (km/s) = 6.61513 7.17824 6.90243
#
# Compressibility (1/GPa) = 0.02086791
#
# Stress axis : x y z
#
# Youngs Moduli (GPa) = 50.88633 76.89018 99.91987
#
# Poissons Ratio (x) = 0.43613 0.12983
# Poissons Ratio (y) = 0.28863 0.39241
# Poissons Ratio (z) = 0.06612 0.30196
#
# Static dielectric constant tensor:
#      x y z
#    x 1.697540 0.000000 -0.008390 
#    y 0.000000 1.662260 0.000000 
#    z -0.008390 0.000000 1.692660 
# 
# From -- ./inp_files/173078.got.cif
#   From: 2010.05.17/outbox.ucp.g08.bks.cvg/sg12_87_cif.got.tgz:173078.got - 2010.06.11 11:47:21.
