data_PCOD9225046
_publ_section_title
;
Structure prediction by ZEFSAII (Michael W. Deem and Ramdas Pophale) SiO2 
 PCOD9225046
Probable space group: C 2/M
;
_chemical_formula_sum "Si O2"
_cell_formula_units_Z 24
_cell_length_a 9.000000
_cell_length_b 24.000000
_cell_length_c 12.000000
_cell_angle_alpha 90.000000
_cell_angle_beta 70.000000
_cell_angle_gamma 90.000000
_cell_volume 2435.683273
_symmetry_space_group_name_H-M "C 2/M"
_symmetry_group_IT_number 12
_symmetry_cell_setting 'monoclinic'
loop_
_space_group_symop_operation_xyz
x,y,z
-x,y,-z
-x,-y,-z
x,-y,z
1/2+x,1/2+y,z
1/2-x,1/2+y,-z
1/2-x,1/2-y,-z
1/2+x,1/2-y,z
loop_
_atom_site_type_symbol
_atom_site_label
_atom_site_fract_x
_atom_site_fract_y
_atom_site_fract_z
Si Si1 0.673854 0.908977 0.401375
Si Si2 0.675655 0.000000 0.796092
Si Si3 0.338966 0.792631 0.836110
Si Si4 0.601419 0.919012 0.169803
Si Si5 0.822608 0.283548 0.586523
Si Si6 0.328716 0.500000 0.987682
Si Si7 0.320991 0.500000 0.515395
Si Si8 0.000000 0.226413 0.000000
O O1 0.500000 0.908118 0.500000
O O2 0.651045 0.933528 0.283803
O O3 0.743030 0.846374 0.383494
O O4 0.777322 0.947204 0.452841
O O5 0.558824 0.947066 0.832812
O O6 0.806523 0.000000 0.859419
O O7 0.733375 0.000000 0.655274
O O8 0.418840 0.852995 0.814797
O O9 0.331592 0.763885 0.714777
O O10 0.430970 0.759618 0.909828
O O11 0.156998 0.803871 0.917116
O O12 0.735386 0.945503 0.057023
O O13 0.750000 0.250000 0.500000
O O14 0.000000 0.289551 0.500000
O O15 0.500000 0.500000 0.000000
O O16 0.500000 0.500000 0.500000
#
# Coordination Sequence:
#
# PCOD9225046 Si02
#       8
#     8   4   8   8   8   4   4   4
#     4  10  20  39  63  87 116 162 198 241 305 363
#     4  11  23  41  62  92 120 164 205 243 305 381
#     4  10  22  39  63  91 120 163 202 254 311 362
#     4  10  21  40  65  84 120 161 204 242 301 373
#     4  10  21  38  63  89 121 155 202 249 304 367
#     4  11  26  39  57  91 121 156 200 255 305 352
#     4  12  24  37  60  92 126 150 202 258 305 370
#     4  10  22  40  60  90 124 158 208 254 306 366
#
# _framework density 9.8534980000000001
#
# number of rings (size 3 to 8) (size 9 to 14) (size 15 to 20)
#    0.000    1.667    1.667    3.250    5.833    0.667 
#    0.000    0.000    0.000    0.000    0.000    0.000 
#    0.000    0.000    0.000    0.000    0.000    0.000 
#
# Total GULP energy -133653.590548 kJ/mol
# GULP energy per Si atom -5568.899606 kJ/mol
# Density = 0.983107 g / cm^3
# Si number density = 9.853498 Si / 1000 Ang^3
#
#
#
# Elastic Constant Matrix: (Units=GPa)
#
#
# Indices 1 2 3 4 5 6 
#
# 1 112.5108 29.5727 17.0279 0.0000 28.2799 0.0000
# 2 29.5727 59.8758 12.8269 0.0000 23.3770 0.0000
# 3 17.0279 12.8269 94.8508 0.0000 38.2203 0.0000
# 4 0.0000 0.0000 0.0000 48.4241 0.0000 32.6031
# 5 28.2799 23.3770 38.2203 0.0000 46.3437 0.0000
# 6 0.0000 0.0000 0.0000 32.6031 0.0000 22.8851
#
#
#
# Elastic Compliance Matrix: (Units=1/GPa)
#
#
# Indices 1 2 3 4 5 6 
#
# 1 0.011100 -0.003432 0.000754 0.000000 -0.005663 0.000000
# 2 -0.003432 0.022147 0.001915 0.000000 -0.010656 0.000000
# 3 0.000754 0.001915 0.016060 0.000000 -0.014671 0.000000
# 4 0.000000 0.000000 0.000000 0.506025 0.000000 -0.720905
# 5 -0.005663 -0.010656 -0.014671 0.000000 0.042509 0.000000
# 6 0.000000 0.000000 0.000000 -0.720905 0.000000 1.070730
#
#
# Mechanical properties :
#
#
# Convention : Reuss Voigt Hill
#
# Bulk Modulus (GPa) = 20.92946 42.89914 31.91430
# Shear Modulus (GPa) = 2.96556 37.38457 20.17506
#
# Velocity S-wave (km/s) = 1.22804 4.36020 3.20308
# Velocity P-wave (km/s) = 3.55727 6.86762 5.46893
#
# Compressibility (1/GPa) = 0.04777954
#
# Stress axis : x y z
#
# Youngs Moduli (GPa) = 90.09268 45.15336 62.26512
#
# Poissons Ratio (x) = 0.15499 -0.04692
# Poissons Ratio (y) = 0.30924 -0.11925
# Poissons Ratio (z) = -0.06789 -0.08648
#
# Static dielectric constant tensor:
#      x y z
#    x 1.660750 0.000000 -0.015420 
#    y 0.000000 1.727760 0.000000 
#    z -0.015420 0.000000 1.680110 
# 
# From -- ./inp_files/122518.got.cif
#   From: 2010.05.17/outbox.ucp.g08.bks.cvg/sg12_62_cif.got.tgz:122518.got - 2010.06.11 11:47:21.
