data_PCOD9225174
_publ_section_title
;
Structure prediction by ZEFSAII (Michael W. Deem and Ramdas Pophale) SiO2 
 PCOD9225174
Probable space group: C 2/M
;
_chemical_formula_sum "Si O2"
_cell_formula_units_Z 32
_cell_length_a 30.000000
_cell_length_b 9.000000
_cell_length_c 24.000000
_cell_angle_alpha 90.000000
_cell_angle_beta 150.000000
_cell_angle_gamma 90.000000
_cell_volume 3240.000000
_symmetry_space_group_name_H-M "C 2/M"
_symmetry_group_IT_number 12
_symmetry_cell_setting 'monoclinic'
loop_
_space_group_symop_operation_xyz
x,y,z
-x,y,-z
-x,-y,-z
x,-y,z
1/2+x,1/2+y,z
1/2-x,1/2+y,-z
1/2-x,1/2-y,-z
1/2+x,1/2-y,z
loop_
_atom_site_type_symbol
_atom_site_label
_atom_site_fract_x
_atom_site_fract_y
_atom_site_fract_z
Si Si1 0.153083 0.163252 0.952818
Si Si2 0.462865 0.663323 0.898739
Si Si3 0.502325 0.174876 0.164663
Si Si4 0.860527 0.668877 0.379308
Si Si5 0.721964 0.827250 0.297105
Si Si6 0.319737 0.337236 0.149560
Si Si7 0.047752 0.668320 0.640574
Si Si8 0.793796 0.323218 0.599661
O O1 0.069356 0.268084 0.869992
O O2 0.174715 0.155709 0.910986
O O3 0.130771 0.000000 0.949595
O O4 0.240408 0.225163 0.077824
O O5 0.456255 0.500000 0.866321
O O6 0.521832 0.763048 0.922078
O O7 0.367066 0.734621 0.802712
O O8 0.500000 0.654069 0.000000
O O9 0.603306 0.227349 0.284560
O O10 0.503742 0.000000 0.165275
O O11 0.827119 0.500000 0.350711
O O12 0.788270 0.784441 0.320531
O O13 0.894374 0.683773 0.353140
O O14 0.946853 0.687912 0.511947
O O15 0.756882 0.791289 0.397223
O O16 0.699466 0.000000 0.272141
O O17 0.297556 0.500000 0.147358
O O18 0.413413 0.282632 0.273995
O O19 0.058645 0.500000 0.673451
O O20 0.794731 0.500000 0.593645
O O21 0.750000 0.250000 0.500000
#
# Coordination Sequence:
#
# PCOD9225174 Si02
#       8
#     8   8   8   8   8   8   8   8
#     4  10  21  37  56  78 106 141 179 218 262 316
#     4  10  21  37  57  80 106 139 178 217 261 316
#     4  10  21  37  56  80 109 139 175 219 265 312
#     4   9  19  36  56  78 105 141 181 217 260 315
#     4  10  21  36  54  79 109 139 175 220 266 312
#     4  10  21  36  55  80 108 139 177 221 267 313
#     4   9  19  36  56  78 107 141 178 220 263 313
#     4   9  20  36  53  76 105 137 173 213 258 309
#
# _framework density 9.8765429999999999
#
# number of rings (size 3 to 8) (size 9 to 14) (size 15 to 20)
#    0.000    2.375    0.000    3.375    0.000    8.500 
#    0.000    7.500    0.000    0.000    0.000    0.000 
#    0.000    0.000    0.000    0.000    0.000    0.000 
#
# Total GULP energy -178214.289186 kJ/mol
# GULP energy per Si atom -5569.196537 kJ/mol
# Density = 0.985406 g / cm^3
# Si number density = 9.876543 Si / 1000 Ang^3
#
#
#
# Elastic Constant Matrix: (Units=GPa)
#
#
# Indices 1 2 3 4 5 6 
#
# 1 11.6579 20.3743 8.0404 0.0000 15.7911 0.0000
# 2 20.3743 57.7117 34.6588 0.0000 -2.2565 0.0000
# 3 8.0404 34.6588 18.0406 0.0000 -11.6873 0.0000
# 4 0.0000 0.0000 0.0000 13.1955 0.0000 -7.3329
# 5 15.7911 -2.2565 -11.6873 0.0000 15.9286 0.0000
# 6 0.0000 0.0000 0.0000 -7.3329 0.0000 30.5109
#
#
#
# Elastic Compliance Matrix: (Units=1/GPa)
#
#
# Indices 1 2 3 4 5 6 
#
# 1 -0.120589 0.095797 -0.083970 0.000000 0.071508 0.000000
# 2 0.095797 -0.093438 0.127154 0.000000 -0.014909 0.000000
# 3 -0.083970 0.127154 -0.163590 0.000000 -0.018772 0.000000
# 4 0.000000 0.000000 0.000000 0.087465 0.000000 0.021021
# 5 0.071508 -0.014909 -0.018772 0.000000 -0.023996 0.000000
# 6 0.000000 0.000000 0.000000 0.021021 0.000000 0.037827
#
#
# Mechanical properties :
#
#
# Convention : Reuss Voigt Hill
#
# Bulk Modulus (GPa) = -10.03464 23.72858 6.84697
# Shear Modulus (GPa) = -8.51063 13.54945 2.51941
#
# Velocity S-wave (km/s) = -2.07795 2.62189 1.13058
# Velocity P-wave (km/s) = 3.29366 4.60482 2.27554
#
# Compressibility (1/GPa) = -0.09965482
#
# Stress axis : x y z
#
# Youngs Moduli (GPa) = -8.29262 -10.70231 -6.11285
#
# Poissons Ratio (x) = 1.02524 -0.51330
# Poissons Ratio (y) = 0.79440 0.77728
# Poissons Ratio (z) = -0.69633 1.36085
#
# Static dielectric constant tensor:
#      x y z
#    x 1.731330 0.000000 0.028630 
#    y 0.000000 1.770600 0.000000 
#    z 0.028630 0.000000 1.803670 
# 
# From -- ./inp_files/353560.got.cif
#   From: 2010.05.17/outbox.ucp.g08.bks.cvg/sg12_177_cif.got.tgz:353560.got - 2010.06.11 11:47:21.
