data_PCOD9225928
_publ_section_title
;
Structure prediction by ZEFSAII (Michael W. Deem and Ramdas Pophale) SiO2 
 PCOD9225928
Probable space group: C 2/M
;
_chemical_formula_sum "Si O2"
_cell_formula_units_Z 24
_cell_length_a 18.000000
_cell_length_b 9.000000
_cell_length_c 30.000000
_cell_angle_alpha 90.000000
_cell_angle_beta 150.000000
_cell_angle_gamma 90.000000
_cell_volume 2430.000000
_symmetry_space_group_name_H-M "C 2/M"
_symmetry_group_IT_number 12
_symmetry_cell_setting 'monoclinic'
loop_
_space_group_symop_operation_xyz
x,y,z
-x,y,-z
-x,-y,-z
x,-y,z
1/2+x,1/2+y,z
1/2-x,1/2+y,-z
1/2-x,1/2-y,-z
1/2+x,1/2-y,z
loop_
_atom_site_type_symbol
_atom_site_label
_atom_site_fract_x
_atom_site_fract_y
_atom_site_fract_z
Si Si1 0.261572 0.676834 0.725179
Si Si2 0.569065 0.821863 0.445244
Si Si3 0.301400 0.176355 0.937674
Si Si4 0.133793 0.323107 0.132268
Si Si5 0.866500 0.321485 0.622901
Si Si6 0.500997 0.177063 0.785731
O O1 0.279775 0.500000 0.732786
O O2 0.283255 0.731132 0.787113
O O3 0.379988 0.756338 0.755773
O O4 0.094823 0.713924 0.623325
O O5 0.700894 0.742868 0.539779
O O6 0.577821 0.776234 0.397406
O O7 0.590304 0.000000 0.458117
O O8 0.319267 0.209342 0.894117
O O9 0.162640 0.266222 0.883113
O O10 0.275562 0.000000 0.928211
O O11 0.457621 0.209654 0.042247
O O12 0.154026 0.500000 0.150111
O O13 0.862733 0.500000 0.621411
O O14 0.963292 0.272498 0.715423
O O15 0.495625 0.000000 0.784244
#
# Coordination Sequence:
#
# PCOD9225928 Si02
#       6
#     8   8   8   8   8   8
#     4  11  23  37  54  79 112 147 183 223 268 320
#     4   9  19  36  57  80 105 136 177 223 269 319
#     4   9  19  37  60  84 109 139 178 223 270 322
#     4   9  19  37  60  84 109 139 178 223 270 322
#     4   9  19  36  57  80 105 136 177 223 269 319
#     4  11  23  37  54  79 112 147 183 223 268 320
#
# _framework density 9.8765429999999999
#
# number of rings (size 3 to 8) (size 9 to 14) (size 15 to 20)
#    0.000    2.333    0.000    3.000    0.000    6.667 
#    0.000    8.333    0.000    0.000    0.000    0.000 
#    0.000    0.000    0.000    0.000    0.000    0.000 
#
# Total GULP energy -134006.907699 kJ/mol
# GULP energy per Si atom -5583.621154 kJ/mol
# Density = 0.985406 g / cm^3
# Si number density = 9.876543 Si / 1000 Ang^3
#
#
#
# Elastic Constant Matrix: (Units=GPa)
#
#
# Indices 1 2 3 4 5 6 
#
# 1 12.7712 11.3325 6.2460 0.0000 27.1851 0.0000
# 2 11.3325 5.0489 23.4101 0.0000 16.5227 0.0000
# 3 6.2460 23.4101 62.6863 0.0000 24.7430 0.0000
# 4 0.0000 0.0000 0.0000 29.5141 0.0000 -2.8774
# 5 27.1851 16.5227 24.7430 0.0000 32.0641 0.0000
# 6 0.0000 0.0000 0.0000 -2.8774 0.0000 17.0914
#
#
#
# Elastic Compliance Matrix: (Units=1/GPa)
#
#
# Indices 1 2 3 4 5 6 
#
# 1 -0.066161 -0.010095 -0.019890 0.000000 0.076645 0.000000
# 2 -0.010095 -0.166231 0.037238 0.000000 0.065483 0.000000
# 3 -0.019890 0.037238 0.007112 0.000000 -0.007813 0.000000
# 4 0.000000 0.000000 0.000000 0.034447 0.000000 0.005799
# 5 0.076645 0.065483 -0.007813 0.000000 -0.061509 0.000000
# 6 0.000000 0.000000 0.000000 0.005799 0.000000 0.059485
#
#
# Mechanical properties :
#
#
# Convention : Reuss Voigt Hill
#
# Bulk Modulus (GPa) = -4.74438 18.05373 6.65468
# Shear Modulus (GPa) = -18.01025 18.36846 0.17910
#
# Velocity S-wave (km/s) = -3.02283 3.05274 0.30144
# Velocity P-wave (km/s) = 3.81973 4.64598 1.87013
#
# Compressibility (1/GPa) = -0.21077589
#
# Stress axis : x y z
#
# Youngs Moduli (GPa) = -15.11463 -6.01572 140.61244
#
# Poissons Ratio (x) = -0.06073 2.79681
# Poissons Ratio (y) = -0.15259 -5.23610
# Poissons Ratio (z) = -0.30063 0.22401
#
# Static dielectric constant tensor:
#      x y z
#    x 1.705270 0.000000 0.005060 
#    y 0.000000 1.649740 0.000000 
#    z 0.005060 0.000000 1.687910 
# 
# From -- ./inp_files/123867.got.cif
#   From: 2010.05.17/outbox.ucp.g08.bks.cvg/sg12_62_cif.got.tgz:123867.got - 2010.06.11 11:47:21.
