data_PCOD9225322
_publ_section_title
;
Structure prediction by ZEFSAII (Michael W. Deem and Ramdas Pophale) SiO2 
 PCOD9225322
Probable space group: C 2/M
;
_chemical_formula_sum "Si O2"
_cell_formula_units_Z 32
_cell_length_a 18.000000
_cell_length_b 9.000000
_cell_length_c 30.000000
_cell_angle_alpha 90.000000
_cell_angle_beta 40.000000
_cell_angle_gamma 90.000000
_cell_volume 3123.947783
_symmetry_space_group_name_H-M "C 2/M"
_symmetry_group_IT_number 12
_symmetry_cell_setting 'monoclinic'
loop_
_space_group_symop_operation_xyz
x,y,z
-x,y,-z
-x,-y,-z
x,-y,z
1/2+x,1/2+y,z
1/2-x,1/2+y,-z
1/2-x,1/2-y,-z
1/2+x,1/2-y,z
loop_
_atom_site_type_symbol
_atom_site_label
_atom_site_fract_x
_atom_site_fract_y
_atom_site_fract_z
Si Si1 0.265859 0.676394 0.714309
Si Si2 0.871612 0.173755 0.073033
Si Si3 0.036939 0.679929 0.795467
Si Si4 0.540401 0.827029 0.697338
Si Si5 0.792855 0.325511 0.936111
Si Si6 0.630679 0.323508 0.567610
Si Si7 0.541304 0.318869 0.433505
Si Si8 0.684639 0.671213 0.209449
O O1 0.253325 0.500000 0.711279
O O2 0.337476 0.739930 0.640569
O O3 0.332097 0.685006 0.730013
O O4 0.137677 0.732904 0.781296
O O5 0.795067 0.188367 0.063964
O O6 0.811286 0.280105 0.136380
O O7 0.869919 0.000000 0.088111
O O8 0.000000 0.214733 0.000000
O O9 0.022163 0.500000 0.802236
O O10 0.914478 0.742579 0.864792
O O11 0.089011 0.714103 0.723059
O O12 0.588137 0.735187 0.634580
O O13 0.405772 0.789832 0.767471
O O14 0.558232 0.000000 0.680152
O O15 0.806347 0.500000 0.939327
O O16 0.750000 0.250000 0.000000
O O17 0.639609 0.500000 0.565307
O O18 0.750000 0.250000 0.500000
O O19 0.545866 0.284580 0.566115
O O20 0.500000 0.262886 0.500000
O O21 0.547911 0.500000 0.433530
O O22 0.660975 0.500000 0.207640
#
# Coordination Sequence:
#
# PCOD9225322 Si02
#       8
#     8   8   8   8   8   8   8   8
#     4   9  18  33  54  83 113 143 184 237 282 326
#     4  10  22  40  59  81 115 156 194 234 285 347
#     4   9  19  35  57  82 111 147 191 233 279 340
#     4  11  21  38  63  86 114 154 193 235 288 343
#     4  10  21  38  56  81 114 150 190 234 283 340
#     4  11  23  39  59  88 118 150 193 240 287 338
#     4   9  18  33  55  82 113 147 188 231 275 332
#     4  11  21  36  60  87 115 146 188 244 290 334
#
# _framework density 10.243449
#
# number of rings (size 3 to 8) (size 9 to 14) (size 15 to 20)
#    0.000    2.000    2.500    1.125    3.500    0.750 
#    0.000    0.000    0.000    6.000    0.000    0.000 
#    0.000    0.000    0.000    0.000    0.000    0.000 
#
# Total GULP energy -178154.573027 kJ/mol
# GULP energy per Si atom -5567.330407 kJ/mol
# Density = 1.022013 g / cm^3
# Si number density = 10.243449 Si / 1000 Ang^3
#
#
#
# Elastic Constant Matrix: (Units=GPa)
#
#
# Indices 1 2 3 4 5 6 
#
# 1 51.7945 28.5248 56.9090 0.0000 -3.6198 0.0003
# 2 28.5248 6.5811 22.9955 0.0001 3.0762 0.0001
# 3 56.9090 22.9955 135.8502 0.0000 3.2663 0.0000
# 4 0.0000 0.0001 0.0000 28.8496 0.0000 4.7345
# 5 -3.6198 3.0762 3.2663 0.0000 31.4216 0.0000
# 6 0.0003 0.0001 0.0000 4.7345 0.0000 9.2128
#
#
#
# Elastic Compliance Matrix: (Units=1/GPa)
#
#
# Indices 1 2 3 4 5 6 
#
# 1 -0.008157 0.063314 -0.007147 0.000000 -0.006395 0.000000
# 2 0.063314 -0.089132 -0.011850 0.000000 0.017252 -0.000001
# 3 -0.007147 -0.011850 0.012384 0.000000 -0.000950 0.000000
# 4 0.000000 0.000000 0.000000 0.037855 0.000000 -0.019454
# 5 -0.006395 0.017252 -0.000950 0.000000 0.029498 0.000000
# 6 0.000000 -0.000001 0.000000 -0.019454 0.000000 0.118542
#
#
# Mechanical properties :
#
#
# Convention : Reuss Voigt Hill
#
# Bulk Modulus (GPa) = 268.15794 45.67606 156.91700
# Shear Modulus (GPa) = 367.69783 19.61657 193.65720
#
# Velocity S-wave (km/s) = 13.41153 3.09774 9.73306
# Velocity P-wave (km/s) = 19.26141 5.92775 14.25027
#
# Compressibility (1/GPa) = 0.00372915
#
# Stress axis : x y z
#
# Youngs Moduli (GPa) = -122.60030 -11.21926 80.75214
#
# Poissons Ratio (x) = 0.71034 0.57710
# Poissons Ratio (y) = 7.76232 0.95692
# Poissons Ratio (z) = -0.87618 -0.13295
#
# Static dielectric constant tensor:
#      x y z
#    x 1.818950 0.000000 -0.039630 
#    y 0.000000 1.513060 0.000000 
#    z -0.039630 0.000000 1.733910 
# 
# From -- ./inp_files/378147.got.cif
#   From: 2010.05.17/outbox.ucp.g08.bks.cvg/sg12_190_cif.got.tgz:378147.got - 2010.06.11 11:47:21.
