data_PCOD9225182
_publ_section_title
;
Structure prediction by ZEFSAII (Michael W. Deem and Ramdas Pophale) SiO2 
 PCOD9225182
Probable space group: C 2/M
;
_chemical_formula_sum "Si O2"
_cell_formula_units_Z 24
_cell_length_a 15.000000
_cell_length_b 24.000000
_cell_length_c 21.000000
_cell_angle_alpha 90.000000
_cell_angle_beta 20.000000
_cell_angle_gamma 90.000000
_cell_volume 2585.672284
_symmetry_space_group_name_H-M "C 2/M"
_symmetry_group_IT_number 12
_symmetry_cell_setting 'monoclinic'
loop_
_space_group_symop_operation_xyz
x,y,z
-x,y,-z
-x,-y,-z
x,-y,z
1/2+x,1/2+y,z
1/2-x,1/2+y,-z
1/2-x,1/2-y,-z
1/2+x,1/2-y,z
loop_
_atom_site_type_symbol
_atom_site_label
_atom_site_fract_x
_atom_site_fract_y
_atom_site_fract_z
Si Si1 0.101168 0.434166 0.743795
Si Si2 0.499222 0.642984 0.273524
Si Si3 0.714349 0.241304 0.168942
Si Si4 0.564020 0.160902 0.384295
Si Si5 0.856935 0.854445 0.971763
Si Si6 0.372621 0.433527 0.692388
O O1 0.048757 0.500000 0.781588
O O2 0.170024 0.417313 0.771272
O O3 0.352551 0.426151 0.529601
O O4 0.862617 0.401128 0.873276
O O5 0.535362 0.705861 0.274749
O O6 0.617940 0.648038 0.122257
O O7 0.619854 0.601791 0.246777
O O8 0.193683 0.628184 0.466181
O O9 0.604480 0.207237 0.302927
O O10 0.761096 0.200214 0.076295
O O11 0.000000 0.261576 0.000000
O O12 0.500000 0.181007 0.500000
O O13 0.850506 0.132811 0.198629
O O14 0.338826 0.500000 0.728271
#
# Coordination Sequence:
#
# PCOD9225182 Si02
#       6
#     8   8   8   8   8   8
#     4   9  19  38  60  83 113 150 188 230 284 335
#     4  11  21  35  57  82 113 151 191 226 284 336
#     4  10  21  36  55  81 115 147 189 233 282 333
#     4   9  20  38  54  79 112 150 184 232 277 330
#     4  10  21  36  57  81 115 148 185 238 274 330
#     4   9  20  38  58  84 115 146 186 237 282 331
#
# _framework density 9.2819190000000003
#
# number of rings (size 3 to 8) (size 9 to 14) (size 15 to 20)
#    0.000    2.333    0.000    3.000    2.333    0.667 
#    3.000    2.500    0.000    9.500    0.000    0.000 
#    0.000    0.000    0.000    0.000    0.000    0.000 
#
# Total GULP energy -133681.656237 kJ/mol
# GULP energy per Si atom -5570.069010 kJ/mol
# Density = 0.926079 g / cm^3
# Si number density = 9.281919 Si / 1000 Ang^3
#
#
#
# Elastic Constant Matrix: (Units=GPa)
#
#
# Indices 1 2 3 4 5 6 
#
# 1 118.8056 49.8756 27.7779 0.0493 2.1110 -0.1460
# 2 49.8756 63.3687 32.1280 0.0534 -11.3996 0.0952
# 3 27.7779 32.1280 72.7486 -0.1490 -16.9033 0.3104
# 4 0.0493 0.0534 -0.1490 19.8599 0.2270 -1.6721
# 5 2.1110 -11.3996 -16.9033 0.2270 38.4109 -0.0814
# 6 -0.1460 0.0952 0.3104 -1.6721 -0.0814 35.3218
#
#
#
# Elastic Compliance Matrix: (Units=1/GPa)
#
#
# Indices 1 2 3 4 5 6 
#
# 1 0.013242 -0.010485 -0.001468 0.000043 -0.004486 0.000088
# 2 -0.010485 0.028823 -0.007356 -0.000178 0.005894 -0.000051
# 3 -0.001468 -0.007356 0.019011 0.000083 0.006263 -0.000135
# 4 0.000043 -0.000178 0.000083 0.050559 -0.000312 0.002393
# 5 -0.004486 0.005894 0.006263 -0.000312 0.030788 -0.000033
# 6 0.000088 -0.000051 -0.000135 0.002393 -0.000033 0.028426
#
#
# Mechanical properties :
#
#
# Convention : Reuss Voigt Hill
#
# Bulk Modulus (GPa) = 44.52890 52.72066 48.62478
# Shear Modulus (GPa) = 23.04634 28.39463 25.72048
#
# Velocity S-wave (km/s) = 3.52726 3.91521 3.72629
# Velocity P-wave (km/s) = 6.37399 6.99284 6.69057
#
# Compressibility (1/GPa) = 0.02245732
#
# Stress axis : x y z
#
# Youngs Moduli (GPa) = 75.51786 34.69413 52.60014
#
# Poissons Ratio (x) = 0.36377 0.07723
# Poissons Ratio (y) = 0.79181 0.38694
# Poissons Ratio (z) = 0.11088 0.25522
#
# Static dielectric constant tensor:
#      x y z
#    x 1.639190 0.000010 -0.000480 
#    y 0.000010 1.608470 0.000160 
#    z -0.000480 0.000160 1.706230 
# 
# From -- ./inp_files/52762.got.cif
#   From: 2010.05.17/outbox.ucp.g08.bks.cvg/sg12_27_cif.got.tgz:52762.got - 2010.06.11 11:47:21.
