data_PCOD9225113
_publ_section_title
;
Structure prediction by ZEFSAII (Michael W. Deem and Ramdas Pophale) SiO2 
 PCOD9225113
Probable space group: C 2/M
;
_chemical_formula_sum "Si O2"
_cell_formula_units_Z 24
_cell_length_a 24.000000
_cell_length_b 18.000000
_cell_length_c 6.000000
_cell_angle_alpha 90.000000
_cell_angle_beta 70.000000
_cell_angle_gamma 90.000000
_cell_volume 2435.683273
_symmetry_space_group_name_H-M "C 2/M"
_symmetry_group_IT_number 12
_symmetry_cell_setting 'monoclinic'
loop_
_space_group_symop_operation_xyz
x,y,z
-x,y,-z
-x,-y,-z
x,-y,z
1/2+x,1/2+y,z
1/2-x,1/2+y,-z
1/2-x,1/2-y,-z
1/2+x,1/2-y,z
loop_
_atom_site_type_symbol
_atom_site_label
_atom_site_fract_x
_atom_site_fract_y
_atom_site_fract_z
Si Si1 0.713081 0.585376 0.371440
Si Si2 0.634663 0.306045 0.180691
Si Si3 0.143935 0.412878 0.849505
Si Si4 0.468814 0.585955 0.794309
Si Si5 0.229531 0.190568 0.712063
Si Si6 0.139152 0.346135 0.351214
O O1 0.696079 0.500000 0.373416
O O2 0.676092 0.636692 0.257534
O O3 0.784064 0.592098 0.244035
O O4 0.701518 0.619039 0.631081
O O5 0.581728 0.352002 0.147796
O O6 0.614633 0.237832 0.362624
O O7 0.679394 0.273985 0.933372
O O8 0.127920 0.500000 0.859057
O O9 0.126469 0.378503 0.623131
O O10 0.123627 0.384587 0.129011
O O11 0.500000 0.593316 0.500000
O O12 0.447709 0.500000 0.824583
O O13 0.500000 0.594889 0.000000
O O14 0.250000 0.250000 0.500000
O O15 0.289250 0.163155 0.747527
#
# Coordination Sequence:
#
# PCOD9225113 Si02
#       6
#     8   8   8   8   8   8
#     4  10  21  32  49  77 112 157 206 242 282 354
#     4  12  22  36  61  83 114 155 212 254 315 370
#     4  10  21  36  51  77 122 160 189 226 278 349
#     4  10  25  46  64  85 119 161 212 277 327 352
#     4  11  21  35  52  83 122 157 196 254 303 367
#     4  11  21  34  56  83 116 156 198 237 294 360
#
# _framework density 9.8534980000000001
#
# number of rings (size 3 to 8) (size 9 to 14) (size 15 to 20)
#    0.000    1.333    3.333    3.500    2.333    2.000 
#    0.000    0.000    0.000    0.000    0.000    0.000 
#    0.000   13.333    0.000    0.000    0.000    0.000 
#
# Total GULP energy -133616.314411 kJ/mol
# GULP energy per Si atom -5567.346434 kJ/mol
# Density = 0.983107 g / cm^3
# Si number density = 9.853498 Si / 1000 Ang^3
#
#
#
# Elastic Constant Matrix: (Units=GPa)
#
#
# Indices 1 2 3 4 5 6 
#
# 1 50.0473 41.1376 27.0775 0.0000 26.3663 0.0000
# 2 41.1376 145.8786 53.4401 0.0000 27.6691 0.0000
# 3 27.0775 53.4401 117.8004 0.0000 37.0893 0.0000
# 4 0.0000 0.0000 0.0000 40.2904 0.0000 16.9426
# 5 26.3663 27.6691 37.0893 0.0000 28.1693 0.0000
# 6 0.0000 0.0000 0.0000 16.9426 0.0000 29.2983
#
#
#
# Elastic Compliance Matrix: (Units=1/GPa)
#
#
# Indices 1 2 3 4 5 6 
#
# 1 0.045533 -0.006809 0.006722 0.000000 -0.044781 0.000000
# 2 -0.006809 0.009751 -0.003159 0.000000 0.000954 0.000000
# 3 0.006722 -0.003159 0.016023 0.000000 -0.024286 0.000000
# 4 0.000000 0.000000 0.000000 0.032795 0.000000 -0.018964
# 5 -0.044781 0.000954 -0.024286 0.000000 0.108454 0.000000
# 6 0.000000 0.000000 0.000000 -0.018964 0.000000 0.045098
#
#
# Mechanical properties :
#
#
# Convention : Reuss Voigt Hill
#
# Bulk Modulus (GPa) = 15.42837 61.89298 38.66067
# Shear Modulus (GPa) = 17.49769 32.35633 24.92701
#
# Velocity S-wave (km/s) = 2.98298 4.05640 3.56038
# Velocity P-wave (km/s) = 4.43961 7.30848 6.04665
#
# Compressibility (1/GPa) = 0.06481567
#
# Stress axis : x y z
#
# Youngs Moduli (GPa) = 21.96205 102.54919 62.40875
#
# Poissons Ratio (x) = 0.69826 -0.41951
# Poissons Ratio (y) = 0.14954 0.19716
# Poissons Ratio (z) = -0.14763 0.32396
#
# Static dielectric constant tensor:
#      x y z
#    x 1.675500 0.000000 0.024040 
#    y 0.000000 1.734320 0.000000 
#    z 0.024040 0.000000 1.794650 
# 
# From -- ./inp_files/24969.got.cif
#   From: 2010.05.17/outbox.ucp.g08.bks.cvg/sg12_13_cif.got.tgz:24969.got - 2010.06.11 11:47:21.
