data_PCOD9225119
_publ_section_title
;
Structure prediction by ZEFSAII (Michael W. Deem and Ramdas Pophale) SiO2 
 PCOD9225119
Probable space group: C 2/M
;
_chemical_formula_sum "Si O2"
_cell_formula_units_Z 28
_cell_length_a 9.000000
_cell_length_b 30.000000
_cell_length_c 12.000000
_cell_angle_alpha 90.000000
_cell_angle_beta 60.000000
_cell_angle_gamma 90.000000
_cell_volume 2805.922308
_symmetry_space_group_name_H-M "C 2/M"
_symmetry_group_IT_number 12
_symmetry_cell_setting 'monoclinic'
loop_
_space_group_symop_operation_xyz
x,y,z
-x,y,-z
-x,-y,-z
x,-y,z
1/2+x,1/2+y,z
1/2-x,1/2+y,-z
1/2-x,1/2-y,-z
1/2+x,1/2-y,z
loop_
_atom_site_type_symbol
_atom_site_label
_atom_site_fract_x
_atom_site_fract_y
_atom_site_fract_z
Si Si1 0.921032 0.787475 0.362813
Si Si2 0.235025 0.680838 0.814701
Si Si3 0.588996 0.187286 0.626113
Si Si4 0.172625 0.592404 0.978522
Si Si5 0.966133 0.948267 0.146180
Si Si6 0.666555 0.720313 0.863665
Si Si7 0.683212 0.875994 0.221327
O O1 0.769464 0.806656 0.495410
O O2 0.985018 0.737279 0.372581
O O3 0.862303 0.780200 0.258336
O O4 0.072933 0.822687 0.303242
O O5 0.118974 0.682702 0.747877
O O6 0.188665 0.641255 0.914485
O O7 0.235462 0.730342 0.868749
O O8 0.472261 0.143906 0.644708
O O9 0.346610 0.566799 0.881497
O O10 0.143875 0.598174 0.121568
O O11 0.000000 0.570017 0.000000
O O12 0.824969 0.909135 0.223475
O O13 0.921901 0.000000 0.192591
O O14 0.000000 0.947448 0.000000
O O15 0.750644 0.672093 0.847876
O O16 0.500000 0.717220 0.000000
#
# Coordination Sequence:
#
# PCOD9225119 Si02
#       7
#     8   8   8   8   8   8   8
#     4  10  21  35  49  73 112 158 205 241 283 337
#     4  11  20  33  51  76 115 155 194 242 293 340
#     4  10  21  34  51  75 109 157 205 245 280 343
#     4  11  21  34  57  86 118 151 193 244 299 355
#     4   9  20  38  60  85 119 156 195 251 306 353
#     4  11  22  32  51  78 111 157 197 236 285 348
#     4  11  20  37  54  84 116 155 200 239 294 351
#
# _framework density 9.9788940000000004
#
# number of rings (size 3 to 8) (size 9 to 14) (size 15 to 20)
#    0.000    1.571    2.857    3.857    2.000    2.000 
#    0.000    0.000    0.000    0.000    0.000    8.000 
#    0.000    5.714    0.000    0.000    0.000    0.000 
#
# Total GULP energy -155953.599775 kJ/mol
# GULP energy per Si atom -5569.771421 kJ/mol
# Density = 0.995618 g / cm^3
# Si number density = 9.978894 Si / 1000 Ang^3
#
#
#
# Elastic Constant Matrix: (Units=GPa)
#
#
# Indices 1 2 3 4 5 6 
#
# 1 103.2960 39.1784 31.4103 0.0000 -21.3716 0.0000
# 2 39.1784 84.5178 23.0202 0.0000 -23.4052 0.0000
# 3 31.4103 23.0202 56.3562 0.0000 -6.2017 0.0000
# 4 0.0000 0.0000 0.0000 18.8014 0.0000 -5.6290
# 5 -21.3716 -23.4052 -6.2017 0.0000 28.8664 0.0000
# 6 0.0000 0.0000 0.0000 -5.6290 0.0000 20.6384
#
#
#
# Elastic Compliance Matrix: (Units=1/GPa)
#
#
# Indices 1 2 3 4 5 6 
#
# 1 0.013979 -0.003065 -0.005811 0.000000 0.006616 0.000000
# 2 -0.003065 0.017434 -0.004207 0.000000 0.010963 0.000000
# 3 -0.005811 -0.004207 0.022382 0.000000 -0.002905 0.000000
# 4 0.000000 0.000000 0.000000 0.057917 0.000000 0.015796
# 5 0.006616 0.010963 -0.002905 0.000000 0.047805 0.000000
# 6 0.000000 0.000000 0.000000 0.015796 0.000000 0.052762
#
#
# Mechanical properties :
#
#
# Convention : Reuss Voigt Hill
#
# Bulk Modulus (GPa) = 36.19364 47.93198 42.06281
# Shear Modulus (GPa) = 20.18928 23.69864 21.94396
#
# Velocity S-wave (km/s) = 3.18402 3.44966 3.31950
# Velocity P-wave (km/s) = 5.62954 6.31947 5.98446
#
# Compressibility (1/GPa) = 0.02762916
#
# Stress axis : x y z
#
# Youngs Moduli (GPa) = 71.53347 57.35787 44.67882
#
# Poissons Ratio (x) = 0.17581 0.25965
# Poissons Ratio (y) = 0.21927 0.18795
# Poissons Ratio (z) = 0.41571 0.24129
#
# Static dielectric constant tensor:
#      x y z
#    x 1.889180 0.000000 -0.053560 
#    y 0.000000 1.695350 0.000000 
#    z -0.053560 0.000000 1.783600 
# 
# From -- ./inp_files/125629.got.cif
#   From: 2010.05.17/outbox.ucp.g08.bks.cvg/sg12_63_cif.got.tgz:125629.got - 2010.06.11 11:47:21.
