data_PCOD9225589
_publ_section_title
;
Structure prediction by ZEFSAII (Michael W. Deem and Ramdas Pophale) SiO2 
 PCOD9225589
Probable space group: C 2/M
;
_chemical_formula_sum "Si O2"
_cell_formula_units_Z 29
_cell_length_a 24.000000
_cell_length_b 9.000000
_cell_length_c 15.000000
_cell_angle_alpha 90.000000
_cell_angle_beta 100.000000
_cell_angle_gamma 90.000000
_cell_volume 3190.777120
_symmetry_space_group_name_H-M "C 2/M"
_symmetry_group_IT_number 12
_symmetry_cell_setting 'monoclinic'
loop_
_space_group_symop_operation_xyz
x,y,z
-x,y,-z
-x,-y,-z
x,-y,z
1/2+x,1/2+y,z
1/2-x,1/2+y,-z
1/2-x,1/2-y,-z
1/2+x,1/2-y,z
loop_
_atom_site_type_symbol
_atom_site_label
_atom_site_fract_x
_atom_site_fract_y
_atom_site_fract_z
Si Si1 0.957981 0.178275 0.836874
Si Si2 0.500000 0.000000 0.500000
Si Si3 0.718814 0.677415 0.213064
Si Si4 0.838980 0.822960 0.287198
Si Si5 0.631477 0.822682 0.056885
Si Si6 0.409330 0.677421 0.131096
Si Si7 0.627481 0.676036 0.341116
Si Si8 0.382410 0.836994 0.474699
O O1 0.922924 0.263044 0.902846
O O2 0.927841 0.212749 0.734166
O O3 0.024071 0.214545 0.854927
O O4 0.951374 0.000000 0.849739
O O5 0.449191 0.873087 0.485975
O O6 0.721163 0.500000 0.200656
O O7 0.780197 0.745626 0.244750
O O8 0.685461 0.752039 0.121697
O O9 0.680145 0.705926 0.289935
O O10 0.883960 0.790634 0.221171
O O11 0.861194 0.761457 0.387158
O O12 0.831128 0.000000 0.289530
O O13 0.634110 0.000000 0.060930
O O14 0.624002 0.764286 0.954697
O O15 0.404073 0.500000 0.113424
O O16 0.626236 0.500000 0.359447
O O17 0.629477 0.764954 0.432969
O O18 0.353792 0.000000 0.460982
#
# Coordination Sequence:
#
# PCOD9225589 Si02
#       8
#     8   2   8   8   8   8   8   8
#     4   9  19  36  59  85 118 154 194 240 293 350
#     4   8  24  40  58  88 128 158 194 228 284 360
#     4  10  22  42  64  85 116 153 194 245 296 347
#     4  11  24  41  61  88 117 152 199 246 290 344
#     4  11  22  37  58  88 117 151 195 245 292 347
#     4  10  22  38  58  83 116 157 196 239 296 354
#     4   9  19  37  62  89 113 152 201 243 291 345
#     4  10  22  39  59  86 122 158 189 231 287 340
#
# _framework density 9.0886949999999995
#
# number of rings (size 3 to 8) (size 9 to 14) (size 15 to 20)
#    0.414    1.655    0.000    3.724    1.931    7.172 
#    0.000    0.690    0.000    0.000    0.000    0.000 
#    0.000    0.000    0.000    0.000    0.000    0.000 
#
# Total GULP energy -161631.035606 kJ/mol
# GULP energy per Si atom -5573.483986 kJ/mol
# Density = 0.906801 g / cm^3
# Si number density = 9.088695 Si / 1000 Ang^3
#
#
#
# Elastic Constant Matrix: (Units=GPa)
#
#
# Indices 1 2 3 4 5 6 
#
# 1 28.7864 10.5587 -9.8251 0.0000 13.4359 0.0000
# 2 10.5587 60.9099 39.6811 0.0000 -1.8526 0.0000
# 3 -9.8251 39.6811 89.1580 0.0000 -4.0563 0.0000
# 4 0.0000 0.0000 0.0000 23.3882 0.0000 4.8282
# 5 13.4359 -1.8526 -4.0563 0.0000 11.1312 0.0000
# 6 0.0000 0.0000 0.0000 4.8282 0.0000 26.1394
#
#
#
# Elastic Compliance Matrix: (Units=1/GPa)
#
#
# Indices 1 2 3 4 5 6 
#
# 1 0.140887 -0.048823 0.029640 0.000000 -0.167381 0.000000
# 2 -0.048823 0.040041 -0.020558 0.000000 0.058104 0.000000
# 3 0.029640 -0.020558 0.022217 0.000000 -0.031102 0.000000
# 4 0.000000 0.000000 0.000000 0.044452 0.000000 -0.008211
# 5 -0.167381 0.058104 -0.031102 0.000000 0.290209 0.000000
# 6 0.000000 0.000000 0.000000 -0.008211 0.000000 0.039773
#
#
# Mechanical properties :
#
#
# Convention : Reuss Voigt Hill
#
# Bulk Modulus (GPa) = 8.08650 28.85374 18.47012
# Shear Modulus (GPa) = 7.16045 21.36109 14.26077
#
# Velocity S-wave (km/s) = 1.98690 3.43176 2.80399
# Velocity P-wave (km/s) = 3.11801 5.62232 4.54601
#
# Compressibility (1/GPa) = 0.12366293
#
# Stress axis : x y z
#
# Youngs Moduli (GPa) = 7.09791 24.97442 45.01110
#
# Poissons Ratio (x) = 1.21932 -1.33412
# Poissons Ratio (y) = 0.34654 0.92532
# Poissons Ratio (z) = -0.21038 0.51341
#
# Static dielectric constant tensor:
#      x y z
#    x 1.609130 0.000000 -0.000650 
#    y 0.000000 1.614090 0.000000 
#    z -0.000650 0.000000 1.600600 
# 
# From -- ./inp_files/237687.got.cif
#   From: 2010.05.17/outbox.ucp.g08.bks.cvg/sg12_119_cif.got.tgz:237687.got - 2010.06.11 11:47:21.
