data_PCOD9225193
_publ_section_title
;
Structure prediction by ZEFSAII (Michael W. Deem and Ramdas Pophale) SiO2 
 PCOD9225193
Probable space group: C 2/M
;
_chemical_formula_sum "Si O2"
_cell_formula_units_Z 32
_cell_length_a 24.000000
_cell_length_b 9.000000
_cell_length_c 30.000000
_cell_angle_alpha 90.000000
_cell_angle_beta 150.000000
_cell_angle_gamma 90.000000
_cell_volume 3240.000000
_symmetry_space_group_name_H-M "C 2/M"
_symmetry_group_IT_number 12
_symmetry_cell_setting 'monoclinic'
loop_
_space_group_symop_operation_xyz
x,y,z
-x,y,-z
-x,-y,-z
x,-y,z
1/2+x,1/2+y,z
1/2-x,1/2+y,-z
1/2-x,1/2-y,-z
1/2+x,1/2-y,z
loop_
_atom_site_type_symbol
_atom_site_label
_atom_site_fract_x
_atom_site_fract_y
_atom_site_fract_z
Si Si1 0.738851 0.821328 0.769116
Si Si2 0.493273 0.321988 0.912165
Si Si3 0.010647 0.677861 0.559858
Si Si4 0.439543 0.819972 0.783447
Si Si5 0.448352 0.678103 0.225588
Si Si6 0.350560 0.167110 0.593781
Si Si7 0.283214 0.333381 0.407227
Si Si8 0.214136 0.322468 0.104930
O O1 0.865438 0.793951 0.839420
O O2 0.630014 0.776617 0.663940
O O3 0.738387 0.734805 0.815223
O O4 0.729947 0.000000 0.769394
O O5 0.506632 0.500000 0.918356
O O6 0.497176 0.241323 0.867413
O O7 0.596445 0.257163 0.012408
O O8 0.004775 0.500000 0.560108
O O9 0.000000 0.715356 0.500000
O O10 0.894888 0.746450 0.497725
O O11 0.507199 0.751059 0.789063
O O12 0.307668 0.770304 0.690977
O O13 0.440226 0.000000 0.782313
O O14 0.462865 0.500000 0.234807
O O15 0.532621 0.746008 0.321328
O O16 0.317862 0.710236 0.143487
O O17 0.250000 0.250000 0.500000
O O18 0.298477 0.155596 0.607098
O O19 0.368553 0.000000 0.588783
O O20 0.316717 0.500000 0.416657
O O21 0.196401 0.500000 0.093257
#
# Coordination Sequence:
#
# PCOD9225193 Si02
#       8
#     8   8   8   8   8   8   8   8
#     4  10  23  41  61  89 122 159 204 252 303 362
#     4  11  23  41  66  90 117 157 203 254 308 367
#     4  10  21  37  58  86 119 155 197 242 289 348
#     4  10  21  39  63  91 123 159 201 252 304 361
#     4  10  22  40  60  87 122 160 203 249 302 362
#     4  10  21  36  56  83 117 155 196 241 290 351
#     4   9  20  36  54  82 117 151 191 236 286 344
#     4  11  25  42  62  89 122 159 201 254 308 365
#
# _framework density 9.8765429999999999
#
# number of rings (size 3 to 8) (size 9 to 14) (size 15 to 20)
#    0.000    1.875    0.000    3.750    1.750    9.750 
#    0.000    0.000    0.000    0.000    0.000    0.000 
#    0.000    0.000    0.000    0.000    0.000    0.000 
#
# Total GULP energy -178434.856465 kJ/mol
# GULP energy per Si atom -5576.089265 kJ/mol
# Density = 0.985406 g / cm^3
# Si number density = 9.876543 Si / 1000 Ang^3
#
#
#
# Elastic Constant Matrix: (Units=GPa)
#
#
# Indices 1 2 3 4 5 6 
#
# 1 58.6320 37.7565 42.0962 0.0000 12.3374 0.0000
# 2 37.7565 70.9297 52.7346 0.0000 9.8994 0.0001
# 3 42.0962 52.7346 181.1277 -0.0002 9.5051 -0.0001
# 4 0.0000 0.0000 -0.0002 40.5712 0.0000 1.3531
# 5 12.3374 9.8994 9.5051 0.0000 36.0994 0.0000
# 6 0.0000 0.0001 -0.0001 1.3531 0.0000 25.7232
#
#
#
# Elastic Compliance Matrix: (Units=1/GPa)
#
#
# Indices 1 2 3 4 5 6 
#
# 1 0.027939 -0.012111 -0.002678 0.000000 -0.005522 0.000000
# 2 -0.012111 0.023718 -0.004022 0.000000 -0.001306 0.000000
# 3 -0.002678 -0.004022 0.007309 0.000000 0.000093 0.000000
# 4 0.000000 0.000000 0.000000 0.024691 0.000000 -0.001299
# 5 -0.005522 -0.001306 0.000093 0.000000 0.029922 0.000000
# 6 0.000000 0.000000 0.000000 -0.001299 0.000000 0.038944
#
#
# Mechanical properties :
#
#
# Convention : Reuss Voigt Hill
#
# Bulk Modulus (GPa) = 46.84883 63.98486 55.41685
# Shear Modulus (GPa) = 25.34747 32.35223 28.84985
#
# Velocity S-wave (km/s) = 3.58609 4.05140 3.82583
# Velocity P-wave (km/s) = 6.39651 7.37210 6.90157
#
# Compressibility (1/GPa) = 0.02134525
#
# Stress axis : x y z
#
# Youngs Moduli (GPa) = 35.79276 42.16269 136.81062
#
# Poissons Ratio (x) = 0.51061 0.36631
# Poissons Ratio (y) = 0.43347 0.55027
# Poissons Ratio (z) = 0.09584 0.16958
#
# Static dielectric constant tensor:
#      x y z
#    x 1.774250 0.000000 -0.041610 
#    y 0.000000 1.676420 0.000000 
#    z -0.041610 0.000000 1.717650 
# 
# From -- ./inp_files/382446.got.cif
#   From: 2010.05.17/outbox.ucp.g08.bks.cvg/sg12_192_cif.got.tgz:382446.got - 2010.06.11 11:47:21.
