data_PCOD9225708
_publ_section_title
;
Structure prediction by ZEFSAII (Michael W. Deem and Ramdas Pophale) SiO2 
 PCOD9225708
Probable space group: C 2/M
;
_chemical_formula_sum "Si O2"
_cell_formula_units_Z 28
_cell_length_a 30.000000
_cell_length_b 21.000000
_cell_length_c 9.000000
_cell_angle_alpha 90.000000
_cell_angle_beta 30.000000
_cell_angle_gamma 90.000000
_cell_volume 2835.000000
_symmetry_space_group_name_H-M "C 2/M"
_symmetry_group_IT_number 12
_symmetry_cell_setting 'monoclinic'
loop_
_space_group_symop_operation_xyz
x,y,z
-x,y,-z
-x,-y,-z
x,-y,z
1/2+x,1/2+y,z
1/2-x,1/2+y,-z
1/2-x,1/2-y,-z
1/2+x,1/2-y,z
loop_
_atom_site_type_symbol
_atom_site_label
_atom_site_fract_x
_atom_site_fract_y
_atom_site_fract_z
Si Si1 0.084284 0.366943 0.649059
Si Si2 0.049182 0.866899 0.221375
Si Si3 0.508251 0.500000 0.224991
Si Si4 0.441384 0.721340 0.314906
Si Si5 0.641415 0.500000 0.594352
Si Si6 0.590978 0.074578 0.323327
Si Si7 0.218428 0.119445 0.220089
Si Si8 0.773538 0.922283 0.148976
O O1 0.087656 0.294795 0.570306
O O2 0.071113 0.416591 0.553973
O O3 0.177347 0.389338 0.456076
O O4 0.000000 0.370205 0.000000
O O5 0.001419 0.934979 0.332117
O O6 0.000000 0.835079 0.500000
O O7 0.015487 0.819573 0.192248
O O8 0.149848 0.886598 0.975260
O O9 0.437517 0.500000 0.298442
O O10 0.603262 0.500000 0.868846
O O11 0.350794 0.678307 0.567844
O O12 0.500000 0.728988 0.000000
O O13 0.689599 0.565342 0.419490
O O14 0.500000 0.089467 0.500000
O O15 0.615585 0.000000 0.222497
O O16 0.675194 0.121943 0.055183
O O17 0.210509 0.092485 0.073472
O O18 0.774682 0.000000 0.164915
#
# Coordination Sequence:
#
# PCOD9225708 Si02
#       8
#     8   8   4   8   4   8   8   8
#     4  10  24  47  64  85 123 172 213 256 308 365
#     4  12  22  37  59  95 130 159 201 257 315 376
#     4  11  21  30  54  88 134 159 197 245 313 383
#     4  11  24  42  61  89 130 170 208 245 307 382
#     4  11  18  32  55  88 122 172 196 238 318 373
#     4  10  22  42  65  93 121 153 213 271 307 357
#     4  11  19  37  62  86 123 165 201 251 311 369
#     4  11  22  39  66  96 123 157 208 263 314 372
#
# _framework density 9.8765429999999999
#
# number of rings (size 3 to 8) (size 9 to 14) (size 15 to 20)
#    0.000    1.143    5.000    2.357    0.000    4.000 
#    7.714    1.429    0.000    0.000    0.000    0.000 
#    0.000    0.000    0.000    0.000    0.000    0.000 
#
# Total GULP energy -155870.740529 kJ/mol
# GULP energy per Si atom -5566.812162 kJ/mol
# Density = 0.985406 g / cm^3
# Si number density = 9.876543 Si / 1000 Ang^3
#
#
#
# Elastic Constant Matrix: (Units=GPa)
#
#
# Indices 1 2 3 4 5 6 
#
# 1 80.4652 19.0120 24.2482 0.0000 -47.2975 0.0000
# 2 19.0120 77.9672 26.8403 0.0000 -21.0325 0.0000
# 3 24.2482 26.8403 106.2156 0.0000 -32.3503 0.0000
# 4 0.0000 0.0000 0.0000 39.5909 0.0000 -0.6339
# 5 -47.2975 -21.0325 -32.3503 0.0000 43.0703 0.0000
# 6 0.0000 0.0000 0.0000 -0.6339 0.0000 4.0736
#
#
#
# Elastic Compliance Matrix: (Units=1/GPa)
#
#
# Indices 1 2 3 4 5 6 
#
# 1 0.037211 0.001441 0.004928 0.000000 0.045269 0.000000
# 2 0.001441 0.015160 -0.001845 0.000000 0.007600 0.000000
# 3 0.004928 -0.001845 0.013135 0.000000 0.014377 0.000000
# 4 0.000000 0.000000 0.000000 0.025321 0.000000 0.003940
# 5 0.045269 0.007600 0.014377 0.000000 0.087440 0.000000
# 6 0.000000 0.000000 0.000000 0.003940 0.000000 0.246097
#
#
# Mechanical properties :
#
#
# Convention : Reuss Voigt Hill
#
# Bulk Modulus (GPa) = 13.41289 44.98321 29.19805
# Shear Modulus (GPa) = 11.35936 30.31679 20.83807
#
# Velocity S-wave (km/s) = 2.40066 3.92189 3.25149
# Velocity P-wave (km/s) = 3.80647 6.58259 5.37679
#
# Compressibility (1/GPa) = 0.07455513
#
# Stress axis : x y z
#
# Youngs Moduli (GPa) = 26.87365 65.96392 76.13432
#
# Poissons Ratio (x) = -0.09508 -0.37522
# Poissons Ratio (y) = -0.03874 0.14048
# Poissons Ratio (z) = -0.13245 0.12171
#
# Static dielectric constant tensor:
#      x y z
#    x 1.927630 0.000000 0.098700 
#    y 0.000000 1.677580 0.000000 
#    z 0.098700 0.000000 1.809880 
# 
# From -- ./inp_files/113367.got.cif
#   From: 2010.05.17/outbox.ucp.g08.bks.cvg/sg12_57_cif.got.tgz:113367.got - 2010.06.11 11:47:21.
