data_PCOD9225608
_publ_section_title
;
Structure prediction by ZEFSAII (Michael W. Deem and Ramdas Pophale) SiO2 
 PCOD9225608
Probable space group: C 2/M
;
_chemical_formula_sum "Si O2"
_cell_formula_units_Z 20
_cell_length_a 21.000000
_cell_length_b 9.000000
_cell_length_c 30.000000
_cell_angle_alpha 90.000000
_cell_angle_beta 160.000000
_cell_angle_gamma 90.000000
_cell_volume 1939.254213
_symmetry_space_group_name_H-M "C 2/M"
_symmetry_group_IT_number 12
_symmetry_cell_setting 'monoclinic'
loop_
_space_group_symop_operation_xyz
x,y,z
-x,y,-z
-x,-y,-z
x,-y,z
1/2+x,1/2+y,z
1/2-x,1/2+y,-z
1/2-x,1/2-y,-z
1/2+x,1/2-y,z
loop_
_atom_site_type_symbol
_atom_site_label
_atom_site_fract_x
_atom_site_fract_y
_atom_site_fract_z
Si Si1 0.931583 0.820691 0.561730
Si Si2 0.441279 0.678720 0.106524
Si Si3 0.968984 0.320897 0.683278
Si Si4 0.391474 0.679842 0.973032
Si Si5 0.687677 0.327001 0.652798
O O1 0.714449 0.783237 0.408407
O O2 0.953564 0.756735 0.625373
O O3 0.098893 0.765231 0.640559
O O4 0.944353 0.000000 0.569444
O O5 0.427417 0.500000 0.101384
O O6 0.638826 0.739815 0.254206
O O7 0.250000 0.750000 0.000000
O O8 0.467555 0.721249 0.071445
O O9 0.966390 0.500000 0.676205
O O10 0.174102 0.277576 0.833836
O O11 0.397630 0.500000 0.974445
O O12 0.500000 0.735164 0.000000
O O13 0.500000 0.326600 0.500000
O O14 0.745244 0.500000 0.695766
#
# Coordination Sequence:
#
# PCOD9225608 Si02
#       5
#     8   8   8   8   8
#     4   9  18  32  52  81 112 146 189 239 292 342
#     4  11  24  41  63  90 123 158 198 247 299 358
#     4   9  17  31  54  80 109 146 189 237 288 349
#     4   9  18  33  57  85 112 150 197 239 288 350
#     4  10  22  39  61  84 114 157 202 244 292 350
#
# _framework density 10.313243
#
# number of rings (size 3 to 8) (size 9 to 14) (size 15 to 20)
#    0.000    2.400    0.000    1.800    2.800    2.800 
#    0.000    2.000    0.000    5.400    0.000    0.000 
#    0.000    0.000    0.000    0.000    0.000    0.000 
#
# Total GULP energy -111390.394731 kJ/mol
# GULP energy per Si atom -5569.519737 kJ/mol
# Density = 1.028977 g / cm^3
# Si number density = 10.313243 Si / 1000 Ang^3
#
#
#
# Elastic Constant Matrix: (Units=GPa)
#
#
# Indices 1 2 3 4 5 6 
#
# 1 98.9577 28.4279 44.9978 0.0095 22.3668 -0.0001
# 2 28.4279 33.6102 21.4329 0.0065 18.2901 -0.0073
# 3 44.9978 21.4329 104.8785 0.0375 32.5690 -0.0192
# 4 0.0095 0.0065 0.0375 7.0038 -0.0052 5.7049
# 5 22.3668 18.2901 32.5690 -0.0052 43.5895 0.0007
# 6 -0.0001 -0.0073 -0.0192 5.7049 0.0007 24.3247
#
#
#
# Elastic Compliance Matrix: (Units=1/GPa)
#
#
# Indices 1 2 3 4 5 6 
#
# 1 0.014930 -0.009671 -0.004311 0.000020 -0.000382 -0.000011
# 2 -0.009671 0.045968 -0.001036 -0.000056 -0.013551 0.000026
# 3 -0.004311 -0.001036 0.014029 -0.000103 -0.007836 0.000035
# 4 0.000020 -0.000056 -0.000103 0.176497 0.000111 -0.041394
# 5 -0.000382 -0.013551 -0.007836 0.000111 0.034678 -0.000037
# 6 -0.000011 0.000026 0.000035 -0.041394 -0.000037 0.050819
#
#
# Mechanical properties :
#
#
# Convention : Reuss Voigt Hill
#
# Bulk Modulus (GPa) = 22.27603 47.46262 34.86932
# Shear Modulus (GPa) = 13.09169 24.48947 18.79058
#
# Velocity S-wave (km/s) = 2.52206 3.44944 3.02154
# Velocity P-wave (km/s) = 4.39366 6.23901 5.39581
#
# Compressibility (1/GPa) = 0.04489131
#
# Stress axis : x y z
#
# Youngs Moduli (GPa) = 66.97861 21.75413 71.27861
#
# Poissons Ratio (x) = 0.21039 0.30726
# Poissons Ratio (y) = 0.64777 0.07387
# Poissons Ratio (z) = 0.28872 0.02254
#
# Static dielectric constant tensor:
#      x y z
#    x 1.800390 0.000000 -0.074690 
#    y 0.000000 1.680600 -0.000020 
#    z -0.074690 -0.000020 1.884520 
# 
# From -- ./inp_files/281882.got.cif
#   From: 2010.05.17/outbox.ucp.g08.bks.cvg/sg12_141_cif.got.tgz:281882.got - 2010.06.11 11:47:21.
