data_PCOD9225895
_publ_section_title
;
Structure prediction by ZEFSAII (Michael W. Deem and Ramdas Pophale) SiO2 
 PCOD9225895
Probable space group: C 2/M
;
_chemical_formula_sum "Si O2"
_cell_formula_units_Z 24
_cell_length_a 15.000000
_cell_length_b 30.000000
_cell_length_c 15.000000
_cell_angle_alpha 90.000000
_cell_angle_beta 160.000000
_cell_angle_gamma 90.000000
_cell_volume 2308.635967
_symmetry_space_group_name_H-M "C 2/M"
_symmetry_group_IT_number 12
_symmetry_cell_setting 'monoclinic'
loop_
_space_group_symop_operation_xyz
x,y,z
-x,y,-z
-x,-y,-z
x,-y,z
1/2+x,1/2+y,z
1/2-x,1/2+y,-z
1/2-x,1/2-y,-z
1/2+x,1/2-y,z
loop_
_atom_site_type_symbol
_atom_site_label
_atom_site_fract_x
_atom_site_fract_y
_atom_site_fract_z
Si Si1 0.584933 0.636079 0.397468
Si Si2 0.982413 0.326925 0.088771
Si Si3 0.009357 0.325825 0.654875
Si Si4 0.534934 0.726566 0.138723
Si Si5 0.033866 0.949954 0.237307
Si Si6 0.585699 0.926538 0.679685
O O1 0.791770 0.658368 0.522691
O O2 0.491401 0.589062 0.268897
O O3 0.785990 0.638456 0.668703
O O4 0.312328 0.660528 0.160665
O O5 0.036305 0.276976 0.176105
O O6 0.000000 0.323015 0.000000
O O7 0.820709 0.293964 0.421959
O O8 0.091349 0.372617 0.687201
O O9 0.281226 0.301250 0.935272
O O10 0.500000 0.726710 0.000000
O O11 0.340692 0.944556 0.505369
O O12 0.978057 0.000000 0.215571
O O13 0.853746 0.941476 0.979773
O O14 0.500000 0.940704 0.500000
#
# Coordination Sequence:
#
# PCOD9225895 Si02
#       6
#     8   8   8   8   8   8
#     4  11  23  41  62  86 117 153 197 247 303 358
#     4  11  24  41  62  87 116 154 197 247 305 357
#     4  11  22  36  57  86 122 163 201 236 278 332
#     4  11  22  36  56  85 123 164 202 237 278 332
#     4  11  24  41  62  87 116 153 194 242 300 354
#     4  11  22  37  59  88 124 163 199 234 276 332
#
# _framework density 10.395749
#
# number of rings (size 3 to 8) (size 9 to 14) (size 15 to 20)
#    0.000    1.000    0.000    9.000    0.000    8.667 
#    0.000    0.000    0.000    3.000    0.000    0.000 
#    0.000    0.000    0.000    0.000    0.000    0.000 
#
# Total GULP energy -133871.733539 kJ/mol
# GULP energy per Si atom -5577.988897 kJ/mol
# Density = 1.037209 g / cm^3
# Si number density = 10.395749 Si / 1000 Ang^3
#
#
#
# Elastic Constant Matrix: (Units=GPa)
#
#
# Indices 1 2 3 4 5 6 
#
# 1 43.1966 39.6677 -0.4407 0.0037 1.7145 0.0045
# 2 39.6677 101.4826 32.0044 -0.0017 2.5489 -0.0173
# 3 -0.4407 32.0044 123.6251 0.0078 2.6642 -0.0076
# 4 0.0037 -0.0017 0.0078 22.8068 0.0054 -6.1612
# 5 1.7145 2.5489 2.6642 0.0054 34.6159 0.0087
# 6 0.0045 -0.0173 -0.0076 -6.1612 0.0087 -24.5369
#
#
#
# Elastic Compliance Matrix: (Units=1/GPa)
#
#
# Indices 1 2 3 4 5 6 
#
# 1 0.038184 -0.016279 0.004373 -0.000004 -0.001029 0.000018
# 2 -0.016279 0.017681 -0.004632 0.000002 -0.000139 -0.000014
# 3 0.004373 -0.004632 0.009317 -0.000004 -0.000593 0.000002
# 4 -0.000004 0.000002 -0.000004 0.041061 -0.000004 -0.010310
# 5 -0.001029 -0.000139 -0.000593 -0.000004 0.028995 0.000011
# 6 0.000018 -0.000014 0.000002 -0.010310 0.000011 -0.038166
#
#
# Mechanical properties :
#
#
# Convention : Reuss Voigt Hill
#
# Bulk Modulus (GPa) = 31.14769 45.64078 38.39424
# Shear Modulus (GPa) = 35.49846 19.71535 27.60691
#
# Velocity S-wave (km/s) = 4.13650 3.08269 3.64785
# Velocity P-wave (km/s) = 6.15042 5.88812 6.02070
#
# Compressibility (1/GPa) = 0.03210510
#
# Stress axis : x y z
#
# Youngs Moduli (GPa) = 26.18891 56.55685 107.33545
#
# Poissons Ratio (x) = 0.92067 -0.46933
# Poissons Ratio (y) = 0.42632 0.49722
# Poissons Ratio (z) = -0.11451 0.26200
#
# Static dielectric constant tensor:
#      x y z
#    x 1.885540 0.000000 -0.114210 
#    y 0.000000 1.770370 -0.000010 
#    z -0.114210 -0.000010 1.760890 
# 
# From -- ./inp_files/219615.got.cif
#   From: 2010.05.17/outbox.ucp.g08.bks.cvg/sg12_110_cif.got.tgz:219615.got - 2010.06.11 11:47:21.
