data_PCOD9225739
_publ_section_title
;
Structure prediction by ZEFSAII (Michael W. Deem and Ramdas Pophale) SiO2 
 PCOD9225739
Probable space group: C 2/M
;
_chemical_formula_sum "Si O2"
_cell_formula_units_Z 22
_cell_length_a 30.000000
_cell_length_b 15.000000
_cell_length_c 15.000000
_cell_angle_alpha 90.000000
_cell_angle_beta 20.000000
_cell_angle_gamma 90.000000
_cell_volume 2308.635967
_symmetry_space_group_name_H-M "C 2/M"
_symmetry_group_IT_number 12
_symmetry_cell_setting 'monoclinic'
loop_
_space_group_symop_operation_xyz
x,y,z
-x,y,-z
-x,-y,-z
x,-y,z
1/2+x,1/2+y,z
1/2-x,1/2+y,-z
1/2-x,1/2-y,-z
1/2+x,1/2-y,z
loop_
_atom_site_type_symbol
_atom_site_label
_atom_site_fract_x
_atom_site_fract_y
_atom_site_fract_z
Si Si1 0.473047 0.000000 0.362234
Si Si2 0.215054 0.000000 0.185900
Si Si3 0.745053 0.223860 0.648821
Si Si4 0.492802 0.800343 0.764078
Si Si5 0.999355 0.148724 0.609227
Si Si6 0.341241 0.605496 0.305273
Si Si7 0.287942 0.500000 0.023555
O O1 0.462269 0.903026 0.335066
O O2 0.353728 0.000000 0.660995
O O3 0.630654 0.000000 0.084769
O O4 0.130755 0.087082 0.376905
O O5 0.216988 0.000000 0.074694
O O6 0.700501 0.316647 0.685433
O O7 0.772965 0.143775 0.524836
O O8 0.888299 0.246724 0.415310
O O9 0.636225 0.202640 0.929746
O O10 0.481033 0.743620 0.693495
O O11 0.000000 0.160254 0.500000
O O12 0.878911 0.086910 0.870373
O O13 0.304367 0.500000 0.360244
O O14 0.500000 0.606842 0.000000
#
# Coordination Sequence:
#
# PCOD9225739 Si02
#       7
#     4   4   8   8   8   8   4
#     4  12  25  36  54  91 130 162 198 266 328 357
#     4   9  19  39  63  87 115 161 220 268 310 361
#     4  11  24  44  65  98 130 162 205 260 310 381
#     4  12  25  41  60  94 132 169 209 258 312 369
#     4   9  20  42  66  86 121 176 223 255 297 367
#     4  10  22  45  72  97 122 165 207 250 312 388
#     4   9  19  39  63  87 115 161 220 268 310 361
#
# _framework density 9.5294369999999997
#
# number of rings (size 3 to 8) (size 9 to 14) (size 15 to 20)
#    0.000    1.636    1.818    3.545    2.545    1.455 
#    6.545    5.455    0.000    0.000    0.000    0.000 
#    0.000    0.000    0.000    0.000    0.000    0.000 
#
# Total GULP energy -122506.794121 kJ/mol
# GULP energy per Si atom -5568.490642 kJ/mol
# Density = 0.950775 g / cm^3
# Si number density = 9.529437 Si / 1000 Ang^3
#
#
#
# Elastic Constant Matrix: (Units=GPa)
#
#
# Indices 1 2 3 4 5 6 
#
# 1 35.9598 23.0422 24.3020 0.0000 15.5995 0.0000
# 2 23.0422 139.3793 25.0090 0.0000 26.5510 0.0000
# 3 24.3020 25.0090 172.4446 0.0000 28.7941 0.0000
# 4 0.0000 0.0000 0.0000 35.3752 0.0000 1.6805
# 5 15.5995 26.5510 28.7941 0.0000 37.7953 0.0000
# 6 0.0000 0.0000 0.0000 1.6805 0.0000 26.0609
#
#
#
# Elastic Compliance Matrix: (Units=1/GPa)
#
#
# Indices 1 2 3 4 5 6 
#
# 1 0.036545 -0.003543 -0.002903 0.000000 -0.010383 0.000000
# 2 -0.003543 0.008637 0.000018 0.000000 -0.004619 0.000000
# 3 -0.002903 0.000018 0.006883 0.000000 -0.004058 0.000000
# 4 0.000000 0.000000 0.000000 0.028355 0.000000 -0.001828
# 5 -0.010383 -0.004619 -0.004058 0.000000 0.037080 0.000000
# 6 0.000000 0.000000 0.000000 -0.001828 0.000000 0.038490
#
#
# Mechanical properties :
#
#
# Convention : Reuss Voigt Hill
#
# Bulk Modulus (GPa) = 25.50375 54.72114 40.11245
# Shear Modulus (GPa) = 27.48535 38.20833 32.84684
#
# Velocity S-wave (km/s) = 3.80166 4.48230 4.15594
# Velocity P-wave (km/s) = 5.71671 7.45399 6.64239
#
# Compressibility (1/GPa) = 0.03920992
#
# Stress axis : x y z
#
# Youngs Moduli (GPa) = 27.36366 115.78073 145.28398
#
# Poissons Ratio (x) = 0.41019 0.42170
# Poissons Ratio (y) = 0.09694 -0.00260
# Poissons Ratio (z) = 0.07943 -0.00207
#
# Static dielectric constant tensor:
#      x y z
#    x 1.756560 0.000000 -0.040900 
#    y 0.000000 1.666970 0.000000 
#    z -0.040900 0.000000 1.639170 
# 
# From -- ./inp_files/251278.got.cif
#   From: 2010.05.17/outbox.ucp.g08.bks.cvg/sg12_126_cif.got.tgz:251278.got - 2010.06.11 11:47:21.
