data_PCOD9225750
_publ_section_title
;
Structure prediction by ZEFSAII (Michael W. Deem and Ramdas Pophale) SiO2 
 PCOD9225750
Probable space group: C 2/M
;
_chemical_formula_sum "Si O2"
_cell_formula_units_Z 20
_cell_length_a 24.000000
_cell_length_b 18.000000
_cell_length_c 9.000000
_cell_angle_alpha 90.000000
_cell_angle_beta 30.000000
_cell_angle_gamma 90.000000
_cell_volume 1944.000000
_symmetry_space_group_name_H-M "C 2/M"
_symmetry_group_IT_number 12
_symmetry_cell_setting 'monoclinic'
loop_
_space_group_symop_operation_xyz
x,y,z
-x,y,-z
-x,-y,-z
x,-y,z
1/2+x,1/2+y,z
1/2-x,1/2+y,-z
1/2-x,1/2-y,-z
1/2+x,1/2-y,z
loop_
_atom_site_type_symbol
_atom_site_label
_atom_site_fract_x
_atom_site_fract_y
_atom_site_fract_z
Si Si1 0.187855 0.413730 0.644349
Si Si2 0.119485 0.175678 0.632176
Si Si3 0.451621 0.085059 0.342756
Si Si4 0.116439 0.087444 0.319308
Si Si5 0.795089 0.694224 0.772225
O O1 0.223844 0.500000 0.573937
O O2 0.289144 0.362384 0.468013
O O3 0.132001 0.406767 0.608285
O O4 0.078547 0.402788 0.999952
O O5 0.108617 0.126399 0.502730
O O6 0.172361 0.253403 0.445550
O O7 0.000000 0.183472 0.000000
O O8 0.408362 0.149722 0.548523
O O9 0.441229 0.000000 0.419427
O O10 0.000000 0.091605 0.500000
O O11 0.145855 0.000000 0.271023
O O12 0.202603 0.128987 0.008153
O O13 0.750000 0.750000 0.000000
#
# Coordination Sequence:
#
# PCOD9225750 Si02
#       5
#     8   8   8   8   8
#     4   9  20  38  63  94 122 155 207 263 313 365
#     4  11  25  40  63  99 132 163 207 267 322 373
#     4   9  19  39  65  90 119 161 210 259 309 366
#     4  10  23  44  66  90 127 174 217 257 313 383
#     4  10  23  41  60  90 128 171 210 251 314 385
#
# _framework density 10.288066000000001
#
# number of rings (size 3 to 8) (size 9 to 14) (size 15 to 20)
#    0.000    2.200    0.000    2.400    5.600    5.600 
#    0.000    3.000    0.000   10.800    0.000    0.000 
#    0.000    0.000    0.000    0.000    0.000    0.000 
#
# Total GULP energy -111434.312155 kJ/mol
# GULP energy per Si atom -5571.715608 kJ/mol
# Density = 1.026465 g / cm^3
# Si number density = 10.288066 Si / 1000 Ang^3
#
#
#
# Elastic Constant Matrix: (Units=GPa)
#
#
# Indices 1 2 3 4 5 6 
#
# 1 59.6077 12.2739 23.1339 0.0000 -10.2031 0.0000
# 2 12.2739 138.3265 68.2001 0.0000 -2.8767 0.0000
# 3 23.1339 68.2001 153.8196 0.0000 1.9720 0.0000
# 4 0.0000 0.0000 0.0000 43.5247 0.0000 3.8577
# 5 -10.2031 -2.8767 1.9720 0.0000 27.7354 0.0000
# 6 0.0000 0.0000 0.0000 3.8577 0.0000 6.7685
#
#
#
# Elastic Compliance Matrix: (Units=1/GPa)
#
#
# Indices 1 2 3 4 5 6 
#
# 1 0.019177 -0.000106 -0.002930 0.000000 0.007252 0.000000
# 2 -0.000106 0.009296 -0.004121 0.000000 0.001218 0.000000
# 3 -0.002930 -0.004121 0.008796 0.000000 -0.002131 0.000000
# 4 0.000000 0.000000 0.000000 0.024198 0.000000 -0.013792
# 5 0.007252 0.001218 -0.002131 0.000000 0.039001 0.000000
# 6 0.000000 0.000000 0.000000 -0.013792 0.000000 0.155603
#
#
# Mechanical properties :
#
#
# Convention : Reuss Voigt Hill
#
# Bulk Modulus (GPa) = 43.56510 62.10772 52.83641
# Shear Modulus (GPa) = 17.98324 32.14879 25.06602
#
# Velocity S-wave (km/s) = 2.95953 3.95705 3.49407
# Velocity P-wave (km/s) = 5.73559 7.15035 6.48169
#
# Compressibility (1/GPa) = 0.02295415
#
# Stress axis : x y z
#
# Youngs Moduli (GPa) = 52.14673 107.57360 113.68314
#
# Poissons Ratio (x) = 0.01142 0.33309
# Poissons Ratio (y) = 0.00554 0.46852
# Poissons Ratio (z) = 0.15279 0.44334
#
# Static dielectric constant tensor:
#      x y z
#    x 1.749740 0.000000 0.050320 
#    y 0.000000 1.812500 0.000000 
#    z 0.050320 0.000000 1.797620 
# 
# From -- ./inp_files/98288.got.cif
#   From: 2010.05.17/outbox.ucp.g08.bks.cvg/sg12_50_cif.got.tgz:98288.got - 2010.06.11 11:47:21.
