data_PCOD9225982
_publ_section_title
;
Structure prediction by ZEFSAII (Michael W. Deem and Ramdas Pophale) SiO2 
 PCOD9225982
Probable space group: C 2/M
;
_chemical_formula_sum "Si O2"
_cell_formula_units_Z 32
_cell_length_a 18.000000
_cell_length_b 24.000000
_cell_length_c 15.000000
_cell_angle_alpha 90.000000
_cell_angle_beta 150.000000
_cell_angle_gamma 90.000000
_cell_volume 3240.000000
_symmetry_space_group_name_H-M "C 2/M"
_symmetry_group_IT_number 12
_symmetry_cell_setting 'monoclinic'
loop_
_space_group_symop_operation_xyz
x,y,z
-x,y,-z
-x,-y,-z
x,-y,z
1/2+x,1/2+y,z
1/2-x,1/2+y,-z
1/2-x,1/2-y,-z
1/2+x,1/2-y,z
loop_
_atom_site_type_symbol
_atom_site_label
_atom_site_fract_x
_atom_site_fract_y
_atom_site_fract_z
Si Si1 0.493601 0.384516 0.220658
Si Si2 0.247850 0.134005 0.183564
Si Si3 0.877888 0.769356 0.568725
Si Si4 0.755126 0.566622 0.378665
Si Si5 0.386041 0.146627 0.967546
Si Si6 0.508176 0.851994 0.714483
Si Si7 0.114931 0.066839 0.700239
Si Si8 0.820095 0.759294 0.315397
O O1 0.549285 0.324611 0.315618
O O2 0.613604 0.423904 0.296324
O O3 0.429804 0.412627 0.245716
O O4 0.389097 0.371123 0.026852
O O5 0.241111 0.091835 0.262016
O O6 0.378904 0.128068 0.246239
O O7 0.268818 0.195804 0.247110
O O8 0.750000 0.750000 0.500000
O O9 0.981067 0.714140 0.667394
O O10 0.795480 0.780276 0.390022
O O11 0.790070 0.500000 0.410500
O O12 0.871517 0.607440 0.549731
O O13 0.273269 0.094600 0.841998
O O14 0.276074 0.200567 0.847517
O O15 0.500000 0.148274 0.000000
O O16 0.451207 0.144118 0.137279
O O17 0.000000 0.083071 0.500000
O O18 0.122423 0.000000 0.709045
O O19 0.000000 0.763277 0.500000
#
# Coordination Sequence:
#
# PCOD9225982 Si02
#       8
#     8   8   8   8   8   8   8   8
#     4  12  25  46  76 106 140 187 241 301 360 429
#     4  12  25  46  71 108 147 183 241 297 358 428
#     4  12  22  40  71 102 143 183 232 285 356 420
#     4  12  28  49  74 103 145 197 242 294 358 432
#     4  12  27  44  70 106 141 183 240 297 366 420
#     4  12  25  46  69 108 145 189 240 292 359 431
#     4  11  26  48  71  99 137 184 239 298 363 434
#     4  12  23  42  71 104 148 187 228 289 360 430
#
# _framework density 9.8765429999999999
#
# number of rings (size 3 to 8) (size 9 to 14) (size 15 to 20)
#    0.000    0.125    5.000    4.500    1.750    5.250 
#    0.000    0.000    0.000    0.000    0.000    0.000 
#    0.000    0.000    0.000    0.000    0.000    0.000 
#
# Total GULP energy -178522.508221 kJ/mol
# GULP energy per Si atom -5578.828382 kJ/mol
# Density = 0.985406 g / cm^3
# Si number density = 9.876543 Si / 1000 Ang^3
#
#
#
# Elastic Constant Matrix: (Units=GPa)
#
#
# Indices 1 2 3 4 5 6 
#
# 1 123.3994 31.9881 37.9089 0.0000 -21.6977 0.0000
# 2 31.9881 134.6989 47.6082 0.0000 -8.1600 0.0000
# 3 37.9089 47.6082 116.2804 0.0000 -38.6011 0.0000
# 4 0.0000 0.0000 0.0000 25.5110 0.0000 -4.3875
# 5 -21.6977 -8.1600 -38.6011 0.0000 46.4334 0.0000
# 6 0.0000 0.0000 0.0000 -4.3875 0.0000 35.6729
#
#
#
# Elastic Compliance Matrix: (Units=1/GPa)
#
#
# Indices 1 2 3 4 5 6 
#
# 1 0.009475 -0.001548 -0.001486 0.000000 0.002920 0.000000
# 2 -0.001548 0.009066 -0.004031 0.000000 -0.002481 0.000000
# 3 -0.001486 -0.004031 0.014183 0.000000 0.010388 0.000000
# 4 0.000000 0.000000 0.000000 0.040046 0.000000 0.004925
# 5 0.002920 -0.002481 0.010388 0.000000 0.031101 0.000000
# 6 0.000000 0.000000 0.000000 0.004925 0.000000 0.028638
#
#
# Mechanical properties :
#
#
# Convention : Reuss Voigt Hill
#
# Bulk Modulus (GPa) = 53.77809 67.70991 60.74400
# Shear Modulus (GPa) = 32.71477 38.64836 35.68156
#
# Velocity S-wave (km/s) = 4.07404 4.42812 4.25476
# Velocity P-wave (km/s) = 7.02956 7.77797 7.41321
#
# Compressibility (1/GPa) = 0.01859493
#
# Stress axis : x y z
#
# Youngs Moduli (GPa) = 105.54121 110.30292 70.50665
#
# Poissons Ratio (x) = 0.17076 0.10475
# Poissons Ratio (y) = 0.16339 0.28420
# Poissons Ratio (z) = 0.15680 0.44461
#
# Static dielectric constant tensor:
#      x y z
#    x 1.800930 0.000000 0.151100 
#    y 0.000000 1.830580 0.000000 
#    z 0.151100 0.000000 1.800100 
# 
# From -- ./inp_files/228188.got.cif
#   From: 2010.05.17/outbox.ucp.g08.bks.cvg/sg12_115_cif.got.tgz:228188.got - 2010.06.11 11:47:21.
