data_PCOD9225846
_publ_section_title
;
Structure prediction by ZEFSAII (Michael W. Deem and Ramdas Pophale) SiO2 
 PCOD9225846
Probable space group: C 2/M
;
_chemical_formula_sum "Si O2"
_cell_formula_units_Z 28
_cell_length_a 18.000000
_cell_length_b 9.000000
_cell_length_c 30.000000
_cell_angle_alpha 90.000000
_cell_angle_beta 40.000000
_cell_angle_gamma 90.000000
_cell_volume 3123.947783
_symmetry_space_group_name_H-M "C 2/M"
_symmetry_group_IT_number 12
_symmetry_cell_setting 'monoclinic'
loop_
_space_group_symop_operation_xyz
x,y,z
-x,y,-z
-x,-y,-z
x,-y,z
1/2+x,1/2+y,z
1/2-x,1/2+y,-z
1/2-x,1/2-y,-z
1/2+x,1/2-y,z
loop_
_atom_site_type_symbol
_atom_site_label
_atom_site_fract_x
_atom_site_fract_y
_atom_site_fract_z
Si Si1 0.410317 0.824156 0.948934
Si Si2 0.947063 0.675992 0.754992
Si Si3 0.127014 0.667476 0.801570
Si Si4 0.711803 0.822114 0.089376
Si Si5 0.901492 0.832157 0.685654
Si Si6 0.087498 0.178907 0.420131
Si Si7 0.336879 0.325668 0.304024
O O1 0.546800 0.794859 0.880470
O O2 0.360764 0.783497 0.922284
O O3 0.392563 0.000000 0.963269
O O4 0.338011 0.742699 0.020225
O O5 0.956089 0.500000 0.756124
O O6 0.853335 0.728313 0.835571
O O7 0.920867 0.719517 0.716569
O O8 0.068655 0.752309 0.708360
O O9 0.089034 0.500000 0.804035
O O10 0.262551 0.658468 0.747343
O O11 0.117432 0.783469 0.766246
O O12 0.719458 0.000000 0.087697
O O13 0.946897 0.787127 0.615581
O O14 0.944527 0.000000 0.675885
O O15 0.212051 0.253033 0.368814
O O16 0.000000 0.221892 0.500000
O O17 0.100867 0.000000 0.415462
O O18 0.329438 0.500000 0.313073
#
# Coordination Sequence:
#
# PCOD9225846 Si02
#       7
#     8   8   8   8   8   8   8
#     4   9  16  29  49  72  98 132 177 223 268 313
#     4  11  21  36  53  73 108 147 180 215 265 319
#     4   9  17  34  54  74 104 141 179 221 267 319
#     4   9  18  30  46  70 100 135 176 222 266 311
#     4   9  19  34  55  81 107 134 173 218 259 310
#     4   9  19  39  64  85 109 141 171 205 257 316
#     4  11  21  32  54  84 109 136 177 222 258 303
#
# _framework density 8.9630179999999999
#
# number of rings (size 3 to 8) (size 9 to 14) (size 15 to 20)
#    0.000    2.429    1.429    2.571    0.000    4.286 
#    0.000    1.429    0.000    4.286    0.000    0.000 
#    0.000    0.000    0.000    0.000    0.000    0.000 
#
# Total GULP energy -155909.897211 kJ/mol
# GULP energy per Si atom -5568.210615 kJ/mol
# Density = 0.894262 g / cm^3
# Si number density = 8.963018 Si / 1000 Ang^3
#
#
#
# Elastic Constant Matrix: (Units=GPa)
#
#
# Indices 1 2 3 4 5 6 
#
# 1 43.0279 29.3789 36.8576 0.0000 9.5762 0.0001
# 2 29.3789 35.3335 46.4194 -0.0002 4.8020 0.0008
# 3 36.8576 46.4194 155.4522 0.0000 12.7316 0.0000
# 4 0.0000 -0.0002 0.0000 25.9029 0.0000 3.7037
# 5 9.5762 4.8020 12.7316 0.0000 14.7033 0.0000
# 6 0.0001 0.0008 0.0000 3.7037 0.0000 21.7215
#
#
#
# Elastic Compliance Matrix: (Units=1/GPa)
#
#
# Indices 1 2 3 4 5 6 
#
# 1 0.061804 -0.051678 0.002898 -0.000001 -0.025885 0.000002
# 2 -0.051678 0.089941 -0.016097 0.000001 0.018222 -0.000003
# 3 0.002898 -0.016097 0.011061 0.000000 -0.006208 0.000001
# 4 -0.000001 0.000001 0.000000 0.039571 0.000000 -0.006747
# 5 -0.025885 0.018222 -0.006208 0.000000 0.084295 -0.000001
# 6 0.000002 -0.000003 0.000001 -0.006747 -0.000001 0.047188
#
#
# Mechanical properties :
#
#
# Convention : Reuss Voigt Hill
#
# Bulk Modulus (GPa) = 30.25472 51.01391 40.63431
# Shear Modulus (GPa) = 10.53449 20.54271 15.53860
#
# Velocity S-wave (km/s) = 2.42681 3.38889 2.94737
# Velocity P-wave (km/s) = 4.97662 6.62062 5.85659
#
# Compressibility (1/GPa) = 0.03305270
#
# Stress axis : x y z
#
# Youngs Moduli (GPa) = 16.18010 11.11835 90.40831
#
# Poissons Ratio (x) = 0.57457 -0.26197
# Poissons Ratio (y) = 0.83615 1.45530
# Poissons Ratio (z) = -0.04688 0.17897
#
# Static dielectric constant tensor:
#      x y z
#    x 1.674040 0.000000 -0.006380 
#    y 0.000000 1.620940 0.000000 
#    z -0.006380 0.000000 1.613160 
# 
# From -- ./inp_files/342030.got.cif
#   From: 2010.05.17/outbox.ucp.g08.bks.cvg/sg12_172_cif.got.tgz:342030.got - 2010.06.11 11:47:21.
