data_PCOD9225523
_publ_section_title
;
Structure prediction by ZEFSAII (Michael W. Deem and Ramdas Pophale) SiO2 
 PCOD9225523
Probable space group: C 2/M
;
_chemical_formula_sum "Si O2"
_cell_formula_units_Z 22
_cell_length_a 12.000000
_cell_length_b 24.000000
_cell_length_c 12.000000
_cell_angle_alpha 90.000000
_cell_angle_beta 140.000000
_cell_angle_gamma 90.000000
_cell_volume 2221.473979
_symmetry_space_group_name_H-M "C 2/M"
_symmetry_group_IT_number 12
_symmetry_cell_setting 'monoclinic'
loop_
_space_group_symop_operation_xyz
x,y,z
-x,y,-z
-x,-y,-z
x,-y,z
1/2+x,1/2+y,z
1/2-x,1/2+y,-z
1/2-x,1/2-y,-z
1/2+x,1/2-y,z
loop_
_atom_site_type_symbol
_atom_site_label
_atom_site_fract_x
_atom_site_fract_y
_atom_site_fract_z
Si Si1 0.603708 0.939025 0.695621
Si Si2 0.723082 0.717806 0.862895
Si Si3 0.827911 0.184119 0.564244
Si Si4 0.305181 0.671157 0.805250
Si Si5 0.309828 0.932957 0.656234
Si Si6 0.500000 0.126454 0.000000
O O1 0.500000 0.936736 0.500000
O O2 0.714191 0.882740 0.788578
O O3 0.464962 0.938282 0.687412
O O4 0.696058 0.000000 0.769138
O O5 0.533003 0.692349 0.709194
O O6 0.734635 0.767715 0.782252
O O7 0.750000 0.750000 0.000000
O O8 0.867002 0.669675 0.958439
O O9 0.750000 0.250000 0.500000
O O10 0.790387 0.165548 0.661699
O O11 0.780254 0.127713 0.453707
O O12 0.500000 0.671612 0.000000
O O13 0.389584 0.913551 0.834750
O O14 0.238434 0.000000 0.606636
#
# Coordination Sequence:
#
# PCOD9225523 Si02
#       6
#     8   8   8   8   8   4
#     4  10  21  40  66  93 128 173 219 269 333 407
#     4  12  23  42  66 101 136 175 229 278 343 413
#     4  12  25  41  67  99 134 177 227 285 345 407
#     4  12  23  38  63  97 132 169 216 279 336 400
#     4  11  25  46  69  99 135 182 233 283 348 419
#     4  12  25  46  70  96 133 186 226 288 347 416
#
# _framework density 9.9033350000000002
#
# number of rings (size 3 to 8) (size 9 to 14) (size 15 to 20)
#    0.000    0.545    4.545    4.636    0.000    2.545 
#    0.000    2.727    0.000    0.000    0.000    0.000 
#    0.000    0.000    0.000    0.000    0.000    0.000 
#
# Total GULP energy -122498.001152 kJ/mol
# GULP energy per Si atom -5568.090961 kJ/mol
# Density = 0.988079 g / cm^3
# Si number density = 9.903335 Si / 1000 Ang^3
#
#
#
# Elastic Constant Matrix: (Units=GPa)
#
#
# Indices 1 2 3 4 5 6 
#
# 1 40.9892 17.2068 24.5251 0.0000 6.2618 0.0000
# 2 17.2068 168.0331 40.1548 0.0000 16.5470 0.0000
# 3 24.5251 40.1548 77.3475 0.0000 -9.3116 0.0000
# 4 0.0000 0.0000 0.0000 20.1951 0.0000 58.6191
# 5 6.2618 16.5470 -9.3116 0.0000 39.8429 0.0000
# 6 0.0000 0.0000 0.0000 58.6191 0.0000 -117.0860
#
#
#
# Elastic Compliance Matrix: (Units=1/GPa)
#
#
# Indices 1 2 3 4 5 6 
#
# 1 0.032240 0.000146 -0.011232 0.000000 -0.007752 0.000000
# 2 0.000146 0.007387 -0.004377 0.000000 -0.004114 0.000000
# 3 -0.011232 -0.004377 0.019749 0.000000 0.008198 0.000000
# 4 0.000000 0.000000 0.000000 0.020185 0.000000 0.010105
# 5 -0.007752 -0.004114 0.008198 0.000000 0.029941 0.000000
# 6 0.000000 0.000000 0.000000 0.010105 0.000000 -0.003481
#
#
# Mechanical properties :
#
#
# Convention : Reuss Voigt Hill
#
# Bulk Modulus (GPa) = 35.14722 50.01590 42.58156
# Shear Modulus (GPa) = 34.14622 2.22260 18.18441
#
# Velocity S-wave (km/s) = 4.15658 1.06046 3.03330
# Velocity P-wave (km/s) = 6.38905 5.17748 5.81490
#
# Compressibility (1/GPa) = 0.02845176
#
# Stress axis : x y z
#
# Youngs Moduli (GPa) = 31.01747 135.36870 50.63541
#
# Poissons Ratio (x) = -0.01977 0.56872
# Poissons Ratio (y) = -0.00453 0.22161
# Poissons Ratio (z) = 0.34838 0.59246
#
# Static dielectric constant tensor:
#      x y z
#    x 1.725150 0.000000 -0.003290 
#    y 0.000000 1.762120 0.000000 
#    z -0.003290 0.000000 1.710010 
# 
# From -- ./inp_files/49165.got.cif
#   From: 2010.05.17/outbox.ucp.g08.bks.cvg/sg12_25_cif.got.tgz:49165.got - 2010.06.11 11:47:21.
