data_PCOD9225512
_publ_section_title
;
Structure prediction by ZEFSAII (Michael W. Deem and Ramdas Pophale) SiO2 
 PCOD9225512
Probable space group: C 2/M
;
_chemical_formula_sum "Si O2"
_cell_formula_units_Z 24
_cell_length_a 27.000000
_cell_length_b 9.000000
_cell_length_c 15.000000
_cell_angle_alpha 90.000000
_cell_angle_beta 140.000000
_cell_angle_gamma 90.000000
_cell_volume 2342.960837
_symmetry_space_group_name_H-M "C 2/M"
_symmetry_group_IT_number 12
_symmetry_cell_setting 'monoclinic'
loop_
_space_group_symop_operation_xyz
x,y,z
-x,y,-z
-x,-y,-z
x,-y,z
1/2+x,1/2+y,z
1/2-x,1/2+y,-z
1/2-x,1/2-y,-z
1/2+x,1/2-y,z
loop_
_atom_site_type_symbol
_atom_site_label
_atom_site_fract_x
_atom_site_fract_y
_atom_site_fract_z
Si Si1 0.337733 0.674247 0.527337
Si Si2 0.754821 0.322049 0.105129
Si Si3 0.679899 0.672605 0.284701
Si Si4 0.511297 0.323027 0.752081
Si Si5 0.428081 0.823804 0.337344
Si Si6 0.119498 0.676548 0.035584
O O1 0.322744 0.500000 0.486439
O O2 0.339143 0.688663 0.637009
O O3 0.267975 0.772697 0.395796
O O4 0.422356 0.715971 0.610805
O O5 0.741524 0.500000 0.081916
O O6 0.842967 0.297081 0.258995
O O7 0.692019 0.247283 0.082235
O O8 0.750000 0.250000 0.000000
O O9 0.672673 0.500000 0.250221
O O10 0.627607 0.770347 0.148174
O O11 0.515924 0.500000 0.770325
O O12 0.561706 0.269364 0.738449
O O13 0.544155 0.242101 0.884111
O O14 0.500000 0.788165 0.500000
O O15 0.432209 0.000000 0.321348
O O16 0.121479 0.500000 0.030822
#
# Coordination Sequence:
#
# PCOD9225512 Si02
#       6
#     8   8   8   8   8   8
#     4   9  21  41  63  91 123 155 195 248 303 361
#     4  11  22  39  62  88 121 159 197 244 298 352
#     4  10  21  40  65  90 120 158 199 244 301 362
#     4  11  23  40  62  89 121 156 200 249 302 356
#     4  10  23  41  60  87 121 156 198 243 293 354
#     4  12  25  40  60  88 123 160 205 250 295 354
#
# _framework density 10.243449
#
# number of rings (size 3 to 8) (size 9 to 14) (size 15 to 20)
#    0.000    1.500    1.667    3.000    2.333    3.667 
#    0.000    3.333    0.000    0.000    0.000    0.000 
#    0.000    0.000    0.000    0.000    0.000    0.000 
#
# Total GULP energy -134225.056295 kJ/mol
# GULP energy per Si atom -5592.710679 kJ/mol
# Density = 1.022013 g / cm^3
# Si number density = 10.243449 Si / 1000 Ang^3
#
#
#
# Elastic Constant Matrix: (Units=GPa)
#
#
# Indices 1 2 3 4 5 6 
#
# 1 17.0960 -4.3854 -20.3636 0.0000 11.3216 0.0000
# 2 -4.3854 69.2357 24.8952 0.0000 -1.7664 0.0000
# 3 -20.3636 24.8952 63.1103 0.0000 0.6139 0.0000
# 4 0.0000 0.0000 0.0000 33.6692 0.0000 -1.1624
# 5 11.3216 -1.7664 0.6139 0.0000 27.7103 0.0000
# 6 0.0000 0.0000 0.0000 -1.1624 0.0000 29.9609
#
#
#
# Elastic Compliance Matrix: (Units=1/GPa)
#
#
# Indices 1 2 3 4 5 6 
#
# 1 0.185313 -0.014015 0.066083 0.000000 -0.078071 0.000000
# 2 -0.014015 0.017932 -0.011665 0.000000 0.007128 0.000000
# 3 0.066083 -0.011665 0.042049 0.000000 -0.028675 0.000000
# 4 0.000000 0.000000 0.000000 0.029741 0.000000 0.001154
# 5 -0.078071 0.007128 -0.028675 0.000000 0.069075 0.000000
# 6 0.000000 0.000000 0.000000 0.001154 0.000000 0.033422
#
#
# Mechanical properties :
#
#
# Convention : Reuss Voigt Hill
#
# Bulk Modulus (GPa) = 3.06657 16.63715 9.85186
# Shear Modulus (GPa) = 12.33270 28.22113 20.27692
#
# Velocity S-wave (km/s) = 2.45619 3.71552 3.14944
# Velocity P-wave (km/s) = 3.08932 5.15222 4.24790
#
# Compressibility (1/GPa) = 0.32609744
#
# Stress axis : x y z
#
# Youngs Moduli (GPa) = 5.39627 55.76613 23.78202
#
# Poissons Ratio (x) = 0.78159 -1.57158
# Poissons Ratio (y) = 0.07563 0.27743
# Poissons Ratio (z) = -0.35660 0.65053
#
# Static dielectric constant tensor:
#      x y z
#    x 1.717350 0.000000 -0.000730 
#    y 0.000000 1.678060 0.000000 
#    z -0.000730 0.000000 1.737920 
# 
# From -- ./inp_files/244876.got.cif
#   From: 2010.05.17/outbox.ucp.g08.bks.cvg/sg12_123_cif.got.tgz:244876.got - 2010.06.11 11:47:21.
