data_PCOD9225796
_publ_section_title
;
Structure prediction by ZEFSAII (Michael W. Deem and Ramdas Pophale) SiO2 
 PCOD9225796
Probable space group: C 2/M
;
_chemical_formula_sum "Si O2"
_cell_formula_units_Z 27
_cell_length_a 15.000000
_cell_length_b 24.000000
_cell_length_c 24.000000
_cell_angle_alpha 90.000000
_cell_angle_beta 20.000000
_cell_angle_gamma 90.000000
_cell_volume 2955.054038
_symmetry_space_group_name_H-M "C 2/M"
_symmetry_group_IT_number 12
_symmetry_cell_setting 'monoclinic'
loop_
_space_group_symop_operation_xyz
x,y,z
-x,y,-z
-x,-y,-z
x,-y,z
1/2+x,1/2+y,z
1/2-x,1/2+y,-z
1/2-x,1/2-y,-z
1/2+x,1/2-y,z
loop_
_atom_site_type_symbol
_atom_site_label
_atom_site_fract_x
_atom_site_fract_y
_atom_site_fract_z
Si Si1 0.774806 0.226734 0.047133
Si Si2 0.500000 0.000000 0.000000
Si Si3 0.000000 0.694815 0.000000
Si Si4 0.717363 0.433331 0.692412
Si Si5 0.915515 0.099758 0.763967
Si Si6 0.397320 0.381189 0.120203
Si Si7 0.696771 0.738538 0.437429
Si Si8 0.323109 0.838415 0.462764
O O1 0.491473 0.233544 0.241491
O O2 0.979767 0.265554 0.959034
O O3 0.750000 0.250000 0.000000
O O4 0.890833 0.164912 0.985042
O O5 0.272582 0.951346 0.138930
O O6 0.250352 0.655664 0.852450
O O7 0.697091 0.500000 0.698923
O O8 0.508850 0.406083 0.772983
O O9 0.662395 0.417463 0.789019
O O10 0.000000 0.417189 0.500000
O O11 0.167210 0.107707 0.576737
O O12 0.117647 0.352610 0.272795
O O13 0.500000 0.405050 0.000000
O O14 0.500000 0.735764 0.500000
O O15 0.664047 0.795256 0.492562
O O16 0.676422 0.690339 0.496685
#
# Coordination Sequence:
#
# PCOD9225796 Si02
#       8
#     8   2   4   8   8   8   8   8
#     4  12  23  37  58  92 131 173 218 263 317 392
#     4  10  24  44  66 100 126 152 226 302 332 368
#     4  11  22  39  58  94 125 170 205 262 334 382
#     4  11  24  44  69  97 121 163 223 277 333 395
#     4  11  22  41  68  95 126 165 218 282 336 385
#     4  12  24  41  64  95 139 172 214 277 330 395
#     4  11  24  39  58  90 134 183 223 261 316 405
#     4  11  23  41  61  92 132 178 224 264 333 394
#
# _framework density 9.136889
#
# number of rings (size 3 to 8) (size 9 to 14) (size 15 to 20)
#    0.000    0.741    5.926    1.778    6.222    0.296 
#    0.000    0.000    0.000    0.000    0.000    1.556 
#    0.000    0.000    0.000    0.000    0.000    0.000 
#
# Total GULP energy -150469.239140 kJ/mol
# GULP energy per Si atom -5572.934783 kJ/mol
# Density = 0.911609 g / cm^3
# Si number density = 9.136889 Si / 1000 Ang^3
#
#
#
# Elastic Constant Matrix: (Units=GPa)
#
#
# Indices 1 2 3 4 5 6 
#
# 1 151.6801 39.7854 37.4894 -0.0801 8.0163 0.0533
# 2 39.7854 51.0226 21.4624 0.2946 -1.0124 -0.1128
# 3 37.4894 21.4624 111.7819 0.0837 8.1145 -0.1572
# 4 -0.0801 0.2946 0.0837 27.2907 0.0487 0.8890
# 5 8.0163 -1.0124 8.1145 0.0487 38.5511 -0.0391
# 6 0.0533 -0.1128 -0.1572 0.8890 -0.0391 17.7622
#
#
#
# Elastic Compliance Matrix: (Units=1/GPa)
#
#
# Indices 1 2 3 4 5 6 
#
# 1 0.008686 -0.006125 -0.001619 0.000102 -0.001626 -0.000088
# 2 -0.006125 0.025721 -0.003072 -0.000297 0.002596 0.000175
# 3 -0.001619 -0.003072 0.010217 -0.000002 -0.001894 0.000072
# 4 0.000102 -0.000297 -0.000002 0.036706 -0.000077 -0.001839
# 5 -0.001626 0.002596 -0.001894 -0.000077 0.026745 0.000067
# 6 -0.000088 0.000175 0.000072 -0.001839 0.000067 0.056394
#
#
# Mechanical properties :
#
#
# Convention : Reuss Voigt Hill
#
# Bulk Modulus (GPa) = 43.49592 56.88432 50.19012
# Shear Modulus (GPa) = 25.80467 31.10396 28.45431
#
# Velocity S-wave (km/s) = 3.76189 4.13014 3.95031
# Velocity P-wave (km/s) = 6.53629 7.34442 6.95211
#
# Compressibility (1/GPa) = 0.02299066
#
# Stress axis : x y z
#
# Youngs Moduli (GPa) = 115.13413 38.87889 97.88045
#
# Poissons Ratio (x) = 0.23812 0.15848
# Poissons Ratio (y) = 0.70515 0.30073
# Poissons Ratio (z) = 0.18642 0.11945
#
# Static dielectric constant tensor:
#      x y z
#    x 1.628750 0.000080 -0.001230 
#    y 0.000080 1.632590 0.000230 
#    z -0.001230 0.000230 1.652990 
# 
# From -- ./inp_files/341500.got.cif
#   From: 2010.05.17/outbox.ucp.g08.bks.cvg/sg12_171_cif.got.tgz:341500.got - 2010.06.11 11:47:21.
