data_PCOD9225311
_publ_section_title
;
Structure prediction by ZEFSAII (Michael W. Deem and Ramdas Pophale) SiO2 
 PCOD9225311
Probable space group: C 2/M
;
_chemical_formula_sum "Si O2"
_cell_formula_units_Z 28
_cell_length_a 30.000000
_cell_length_b 9.000000
_cell_length_c 12.000000
_cell_angle_alpha 90.000000
_cell_angle_beta 120.000000
_cell_angle_gamma 90.000000
_cell_volume 2805.922308
_symmetry_space_group_name_H-M "C 2/M"
_symmetry_group_IT_number 12
_symmetry_cell_setting 'monoclinic'
loop_
_space_group_symop_operation_xyz
x,y,z
-x,y,-z
-x,-y,-z
x,-y,z
1/2+x,1/2+y,z
1/2-x,1/2+y,-z
1/2-x,1/2-y,-z
1/2+x,1/2-y,z
loop_
_atom_site_type_symbol
_atom_site_label
_atom_site_fract_x
_atom_site_fract_y
_atom_site_fract_z
Si Si1 0.074049 0.674645 0.860895
Si Si2 0.107216 0.822322 0.370078
Si Si3 0.010980 0.177178 0.389920
Si Si4 0.332933 0.667643 0.106293
Si Si5 0.278722 0.320968 0.434931
Si Si6 0.759204 0.328144 0.847166
Si Si7 0.060629 0.678185 0.090531
O O1 0.065179 0.500000 0.852043
O O2 0.024759 0.753738 0.749104
O O3 0.120431 0.719882 0.839097
O O4 0.085639 0.720972 0.002872
O O5 0.162692 0.770975 0.479870
O O6 0.086806 0.751100 0.230158
O O7 0.068264 0.792371 0.421772
O O8 0.108439 0.000000 0.353913
O O9 0.000000 0.234551 0.500000
O O10 0.002288 0.000000 0.379879
O O11 0.352059 0.500000 0.113857
O O12 0.297777 0.671580 0.171181
O O13 0.294690 0.719247 0.961073
O O14 0.278498 0.500000 0.436209
O O15 0.250000 0.250000 0.500000
O O16 0.248077 0.277868 0.286642
O O17 0.778361 0.500000 0.878591
O O18 0.063970 0.500000 0.107759
O O19 0.000000 0.715738 0.000000
#
# Coordination Sequence:
#
# PCOD9225311 Si02
#       7
#     8   8   8   8   8   8   8
#     4  11  23  38  59  87 120 154 194 239 289 346
#     4  10  22  39  61  88 116 150 195 246 290 342
#     4  10  22  39  62  89 120 156 196 238 291 353
#     4  10  21  37  62  89 116 150 193 242 293 348
#     4  10  23  41  60  85 117 154 196 240 291 347
#     4   9  20  40  62  83 116 154 191 240 297 350
#     4  10  21  39  59  81 115 154 191 233 285 342
#
# _framework density 9.9788940000000004
#
# number of rings (size 3 to 8) (size 9 to 14) (size 15 to 20)
#    0.000    2.000    1.429    0.857    4.000    3.429 
#    0.000    0.000    0.000    0.000    0.000    0.000 
#    0.000    0.000    0.000    0.000    0.000    0.000 
#
# Total GULP energy -156207.735089 kJ/mol
# GULP energy per Si atom -5578.847682 kJ/mol
# Density = 0.995618 g / cm^3
# Si number density = 9.978894 Si / 1000 Ang^3
#
#
#
# Elastic Constant Matrix: (Units=GPa)
#
#
# Indices 1 2 3 4 5 6 
#
# 1 15.8833 33.7260 -21.3243 0.0000 -4.7037 0.0000
# 2 33.7260 -30.0242 -0.8340 0.0000 -17.1648 0.0000
# 3 -21.3243 -0.8340 -13.5803 0.0000 -38.6702 0.0000
# 4 0.0000 0.0000 0.0000 286.8877 0.0000 74.1324
# 5 -4.7037 -17.1648 -38.6702 0.0000 23.5840 0.0000
# 6 0.0000 0.0000 0.0000 74.1324 0.0000 46.0465
#
#
#
# Elastic Compliance Matrix: (Units=1/GPa)
#
#
# Indices 1 2 3 4 5 6 
#
# 1 0.012550 0.016371 -0.010895 0.000000 -0.003447 0.000000
# 2 0.016371 -0.010282 -0.002304 0.000000 -0.007996 0.000000
# 3 -0.010895 -0.002304 -0.008012 0.000000 -0.016988 0.000000
# 4 0.000000 0.000000 0.000000 0.005969 0.000000 -0.009609
# 5 -0.003447 -0.007996 -0.016988 0.000000 0.008039 0.000000
# 6 0.000000 0.000000 0.000000 -0.009609 0.000000 0.037188
#
#
# Mechanical properties :
#
#
# Convention : Reuss Voigt Hill
#
# Bulk Modulus (GPa) = 1673.97616 -0.50953 836.73332
# Shear Modulus (GPa) = 127.19915 68.68438 97.94177
#
# Velocity S-wave (km/s) = 7.99202 5.87278 7.01292
# Velocity P-wave (km/s) = 30.42602 6.76241 22.03943
#
# Compressibility (1/GPa) = 0.00059738
#
# Stress axis : x y z
#
# Youngs Moduli (GPa) = 79.68219 -97.25789 -124.80559
#
# Poissons Ratio (x) = 1.59217 -1.35981
# Poissons Ratio (y) = -1.30444 -0.28758
# Poissons Ratio (z) = 0.86817 -0.22410
#
# Static dielectric constant tensor:
#      x y z
#    x 1.873830 0.000000 -0.011470 
#    y 0.000000 1.675210 0.000000 
#    z -0.011470 0.000000 1.666280 
# 
# From -- ./inp_files/187708.got.cif
#   From: 2010.05.17/outbox.ucp.g08.bks.cvg/sg12_94_cif.got.tgz:187708.got - 2010.06.11 11:47:21.
