data_PCOD9225106
_publ_section_title
;
Structure prediction by ZEFSAII (Michael W. Deem and Ramdas Pophale) SiO2 
 PCOD9225106
Probable space group: C 2/M
;
_chemical_formula_sum "Si O2"
_cell_formula_units_Z 24
_cell_length_a 27.000000
_cell_length_b 15.000000
_cell_length_c 9.000000
_cell_angle_alpha 90.000000
_cell_angle_beta 140.000000
_cell_angle_gamma 90.000000
_cell_volume 2342.960837
_symmetry_space_group_name_H-M "C 2/M"
_symmetry_group_IT_number 12
_symmetry_cell_setting 'monoclinic'
loop_
_space_group_symop_operation_xyz
x,y,z
-x,y,-z
-x,-y,-z
x,-y,z
1/2+x,1/2+y,z
1/2-x,1/2+y,-z
1/2-x,1/2-y,-z
1/2+x,1/2-y,z
loop_
_atom_site_type_symbol
_atom_site_label
_atom_site_fract_x
_atom_site_fract_y
_atom_site_fract_z
Si Si1 0.164814 0.751249 0.868377
Si Si2 0.148455 0.839417 0.371051
Si Si3 0.531716 0.679659 0.344908
Si Si4 0.932019 0.671538 0.941120
Si Si5 0.376324 0.596757 0.013846
Si Si6 0.689704 0.100164 0.129991
O O1 0.095152 0.780752 0.602000
O O2 0.165909 0.823191 0.002201
O O3 0.250000 0.750000 0.000000
O O4 0.153866 0.654089 0.911265
O O5 0.081894 0.867156 0.332494
O O6 0.124855 0.737044 0.282126
O O7 0.232615 0.851965 0.633147
O O8 0.139778 0.892426 0.197983
O O9 0.466955 0.612388 0.252899
O O10 0.479272 0.759837 0.156703
O O11 0.876391 0.605750 0.898196
O O12 0.000000 0.630005 0.000000
O O13 0.351680 0.500000 0.010271
O O14 0.710535 0.000000 0.140149
#
# Coordination Sequence:
#
# PCOD9225106 Si02
#       6
#     8   8   8   8   8   8
#     4  12  25  43  62  88 131 173 211 258 309 376
#     4  10  20  41  67  97 128 164 205 259 319 383
#     4  10  21  40  67  92 126 167 206 256 321 380
#     4   9  20  38  67  93 121 165 214 260 320 369
#     4  11  24  40  67 101 129 160 205 265 327 381
#     4  12  24  39  64  94 128 171 215 259 311 373
#
# _framework density 10.243449
#
# number of rings (size 3 to 8) (size 9 to 14) (size 15 to 20)
#    0.000    1.333    5.000    3.000    0.000    4.333 
#    0.000    1.667    0.000    1.000    0.000    0.000 
#    0.000    0.000    0.000    0.000    0.000    0.000 
#
# Total GULP energy -133886.513845 kJ/mol
# GULP energy per Si atom -5578.604744 kJ/mol
# Density = 1.022013 g / cm^3
# Si number density = 10.243449 Si / 1000 Ang^3
#
#
#
# Elastic Constant Matrix: (Units=GPa)
#
#
# Indices 1 2 3 4 5 6 
#
# 1 99.3223 31.1540 10.0948 0.0000 12.9339 0.0000
# 2 31.1540 64.2365 22.2595 0.0000 -3.3586 0.0000
# 3 10.0948 22.2595 74.0852 0.0000 -4.6087 0.0000
# 4 0.0000 0.0000 0.0000 12.5462 0.0000 -1.5000
# 5 12.9339 -3.3586 -4.6087 0.0000 24.7142 0.0000
# 6 0.0000 0.0000 0.0000 -1.5000 0.0000 -24.9739
#
#
#
# Elastic Compliance Matrix: (Units=1/GPa)
#
#
# Indices 1 2 3 4 5 6 
#
# 1 0.013237 -0.006739 -0.000270 0.000000 -0.007894 0.000000
# 2 -0.006739 0.020856 -0.005010 0.000000 0.005427 0.000000
# 3 -0.000270 -0.005010 0.015183 0.000000 0.002292 0.000000
# 4 0.000000 0.000000 0.000000 0.079137 0.000000 -0.004753
# 5 -0.007894 0.005427 0.002292 0.000000 0.045759 0.000000
# 6 0.000000 0.000000 0.000000 -0.004753 0.000000 -0.039756
#
#
# Mechanical properties :
#
#
# Convention : Reuss Voigt Hill
#
# Bulk Modulus (GPa) = 39.62450 40.51783 40.07116
# Shear Modulus (GPa) = 29.96400 14.06636 22.01518
#
# Velocity S-wave (km/s) = 3.82854 2.62315 3.28166
# Velocity P-wave (km/s) = 6.23915 5.38470 5.82760
#
# Compressibility (1/GPa) = 0.02523691
#
# Stress axis : x y z
#
# Youngs Moduli (GPa) = 75.54305 47.94807 65.86429
#
# Poissons Ratio (x) = 0.32313 0.01778
# Poissons Ratio (y) = 0.50910 0.33001
# Poissons Ratio (z) = 0.02039 0.24024
#
# Static dielectric constant tensor:
#      x y z
#    x 1.819910 0.000000 -0.061000 
#    y 0.000000 7.458880 0.000000 
#    z -0.061000 0.000000 1.701650 
# 
# From -- ./inp_files/105058.got.cif
#   From: 2010.05.17/outbox.ucp.g08.bks.cvg/sg12_53_cif.got.tgz:105058.got - 2010.06.11 11:47:21.
