data_PCOD9225490
_publ_section_title
;
Structure prediction by ZEFSAII (Michael W. Deem and Ramdas Pophale) SiO2 
 PCOD9225490
Probable space group: C 2/M
;
_chemical_formula_sum "Si O2"
_cell_formula_units_Z 32
_cell_length_a 18.000000
_cell_length_b 30.000000
_cell_length_c 9.000000
_cell_angle_alpha 90.000000
_cell_angle_beta 40.000000
_cell_angle_gamma 90.000000
_cell_volume 3123.947783
_symmetry_space_group_name_H-M "C 2/M"
_symmetry_group_IT_number 12
_symmetry_cell_setting 'monoclinic'
loop_
_space_group_symop_operation_xyz
x,y,z
-x,y,-z
-x,-y,-z
x,-y,z
1/2+x,1/2+y,z
1/2-x,1/2+y,-z
1/2-x,1/2-y,-z
1/2+x,1/2-y,z
loop_
_atom_site_type_symbol
_atom_site_label
_atom_site_fract_x
_atom_site_fract_y
_atom_site_fract_z
Si Si1 0.902530 0.450203 0.368505
Si Si2 0.461844 0.699439 0.227689
Si Si3 0.766649 0.326424 0.538522
Si Si4 0.233005 0.409520 0.666997
Si Si5 0.609307 0.116599 0.140163
Si Si6 0.997953 0.288701 0.325088
Si Si7 0.489762 0.604336 0.337571
Si Si8 0.768763 0.900924 0.173789
O O1 0.945454 0.500000 0.328924
O O2 0.854286 0.444394 0.274780
O O3 0.787481 0.439188 0.639596
O O4 0.997151 0.413797 0.275535
O O5 0.323798 0.703695 0.412358
O O6 0.523619 0.742182 0.204320
O O7 0.480632 0.656263 0.301490
O O8 0.500000 0.692593 0.000000
O O9 0.802223 0.364273 0.365914
O O10 0.872665 0.302095 0.452844
O O11 0.712014 0.357438 0.752234
O O12 0.371378 0.416728 0.451080
O O13 0.203945 0.400551 0.880642
O O14 0.577147 0.168433 0.168950
O O15 0.668502 0.110836 0.209016
O O16 0.000000 0.282832 0.500000
O O17 0.500000 0.600568 0.500000
O O18 0.609331 0.586837 0.085089
#
# Coordination Sequence:
#
# PCOD9225490 Si02
#       8
#     8   8   8   8   8   8   8   8
#     4  11  25  43  68 100 131 164 205 259 323 392
#     4  11  24  37  60  89 125 172 225 266 310 369
#     4  10  21  40  58  86 125 170 210 264 319 373
#     4  10  23  38  67  95 124 166 210 259 317 376
#     4  12  22  40  67  96 131 168 209 262 327 388
#     4  12  23  39  57  88 133 172 213 267 320 378
#     4  11  22  44  66  91 126 171 219 265 314 374
#     4  11  21  42  69  93 127 169 214 261 320 387
#
# _framework density 10.243449
#
# number of rings (size 3 to 8) (size 9 to 14) (size 15 to 20)
#    0.000    1.000    6.250    1.500    1.750    2.000 
#    0.000    2.500    0.000    0.750    0.000    0.000 
#    0.000    0.000    0.000    0.000    0.000    0.000 
#
# Total GULP energy -178516.812066 kJ/mol
# GULP energy per Si atom -5578.650377 kJ/mol
# Density = 1.022013 g / cm^3
# Si number density = 10.243449 Si / 1000 Ang^3
#
#
#
# Elastic Constant Matrix: (Units=GPa)
#
#
# Indices 1 2 3 4 5 6 
#
# 1 83.5294 15.7796 -14.7839 0.0000 -1.8157 0.0000
# 2 15.7796 40.6960 -15.2895 0.0000 -5.1000 0.0000
# 3 -14.7839 -15.2895 28.5921 0.0000 -1.7303 0.0000
# 4 0.0000 0.0000 0.0000 3.2561 0.0000 2.5324
# 5 -1.8157 -5.1000 -1.7303 0.0000 33.5716 0.0000
# 6 0.0000 0.0000 0.0000 2.5324 0.0000 8.6480
#
#
#
# Elastic Compliance Matrix: (Units=1/GPa)
#
#
# Indices 1 2 3 4 5 6 
#
# 1 0.013526 -0.003178 0.005326 0.000000 0.000523 0.000000
# 2 -0.003178 0.032558 0.016106 0.000000 0.005604 0.000000
# 3 0.005326 0.016106 0.046652 0.000000 0.005139 0.000000
# 4 0.000000 0.000000 0.000000 0.397691 0.000000 -0.116455
# 5 0.000523 0.005604 0.005139 0.000000 0.030932 0.000000
# 6 0.000000 0.000000 0.000000 -0.116455 0.000000 0.149736
#
#
# Mechanical properties :
#
#
# Convention : Reuss Voigt Hill
#
# Bulk Modulus (GPa) = 7.73725 13.80333 10.77029
# Shear Modulus (GPa) = 7.37824 20.23589 13.80707
#
# Velocity S-wave (km/s) = 1.89981 3.14625 2.59886
# Velocity P-wave (km/s) = 2.93210 4.46663 3.77810
#
# Compressibility (1/GPa) = 0.12924495
#
# Stress axis : x y z
#
# Youngs Moduli (GPa) = 73.93026 30.71428 21.43517
#
# Poissons Ratio (x) = 0.09761 -0.11417
# Poissons Ratio (y) = 0.23496 -0.34524
# Poissons Ratio (z) = -0.39376 -0.49469
#
# Static dielectric constant tensor:
#      x y z
#    x 1.703830 0.000000 -0.009930 
#    y 0.000000 1.735830 0.000000 
#    z -0.009930 0.000000 1.816550 
# 
# From -- ./inp_files/80692.got.cif
#   From: 2010.05.17/outbox.ucp.g08.bks.cvg/sg12_41_cif.got.tgz:80692.got - 2010.06.11 11:47:21.
