data_PCOD9225489
_publ_section_title
;
Structure prediction by ZEFSAII (Michael W. Deem and Ramdas Pophale) SiO2 
 PCOD9225489
Probable space group: C 2/M
;
_chemical_formula_sum "Si O2"
_cell_formula_units_Z 32
_cell_length_a 9.000000
_cell_length_b 30.000000
_cell_length_c 12.000000
_cell_angle_alpha 90.000000
_cell_angle_beta 90.000000
_cell_angle_gamma 90.000000
_cell_volume 3240.000000
_symmetry_space_group_name_H-M "C 2/M"
_symmetry_group_IT_number 12
_symmetry_cell_setting 'monoclinic'
loop_
_space_group_symop_operation_xyz
x,y,z
-x,y,-z
-x,-y,-z
x,-y,z
1/2+x,1/2+y,z
1/2-x,1/2+y,-z
1/2-x,1/2-y,-z
1/2+x,1/2-y,z
loop_
_atom_site_type_symbol
_atom_site_label
_atom_site_fract_x
_atom_site_fract_y
_atom_site_fract_z
Si Si1 0.229429 0.280075 0.247390
Si Si2 0.940852 0.114665 0.789458
Si Si3 0.486609 0.288115 0.871393
Si Si4 0.660873 0.368450 0.448496
Si Si5 0.579383 0.947968 0.168781
Si Si6 0.851514 0.718222 0.428053
Si Si7 0.753805 0.551779 0.061124
Si Si8 0.733247 0.879612 0.315484
O O1 0.340597 0.296004 0.153769
O O2 0.099814 0.250650 0.195031
O O3 0.338487 0.246911 0.316044
O O4 0.190137 0.326639 0.309587
O O5 0.912443 0.164946 0.834595
O O6 0.866603 0.106702 0.667601
O O7 0.872469 0.081782 0.881581
O O8 0.115042 0.112704 0.755577
O O9 0.500000 0.276960 0.000000
O O10 0.500000 0.352426 0.500000
O O11 0.767064 0.327877 0.416146
O O12 0.733581 0.391373 0.555872
O O13 0.409267 0.943813 0.128593
O O14 0.612700 0.912085 0.263222
O O15 0.603176 0.000000 0.200164
O O16 0.690989 0.938268 0.064764
O O17 0.750000 0.750000 0.500000
O O18 0.000000 0.714181 0.500000
O O19 0.707893 0.500000 0.064392
#
# Coordination Sequence:
#
# PCOD9225489 Si02
#       8
#     8   8   8   8   8   8   8   8
#     4  11  23  38  55  83 117 158 202 245 290 348
#     4  10  22  37  61  86 120 157 196 245 295 349
#     4  11  24  40  56  79 121 161 202 242 298 345
#     4  10  21  40  58  84 121 157 198 252 295 345
#     4   9  20  41  65  91 118 149 189 243 298 356
#     4  12  22  34  58  81 111 155 206 250 293 337
#     4   9  20  40  65  89 117 150 193 242 296 354
#     4  10  22  36  60  87 121 152 198 244 298 350
#
# _framework density 9.8765429999999999
#
# number of rings (size 3 to 8) (size 9 to 14) (size 15 to 20)
#    0.000    1.750    2.500    2.250    5.250    2.500 
#    2.250    1.875    0.000    3.750    0.000    0.000 
#    0.000    0.000    0.000    0.000    0.000    0.000 
#
# Total GULP energy -178173.702904 kJ/mol
# GULP energy per Si atom -5567.928216 kJ/mol
# Density = 0.985406 g / cm^3
# Si number density = 9.876543 Si / 1000 Ang^3
#
#
#
# Elastic Constant Matrix: (Units=GPa)
#
#
# Indices 1 2 3 4 5 6 
#
# 1 29.3504 24.0383 31.1041 0.0000 2.0175 0.0000
# 2 24.0383 71.1490 29.4336 0.0000 7.5477 0.0000
# 3 31.1041 29.4336 63.8136 0.0000 20.0820 0.0000
# 4 0.0000 0.0000 0.0000 26.4805 0.0000 5.8782
# 5 2.0175 7.5477 20.0820 0.0000 33.1365 0.0000
# 6 0.0000 0.0000 0.0000 5.8782 0.0000 21.8576
#
#
#
# Elastic Compliance Matrix: (Units=1/GPa)
#
#
# Indices 1 2 3 4 5 6 
#
# 1 0.095543 -0.015288 -0.047923 0.000000 0.026708 0.000000
# 2 -0.015288 0.019849 -0.000709 0.000000 -0.003161 0.000000
# 3 -0.047923 -0.000709 0.047434 0.000000 -0.025667 0.000000
# 4 0.000000 0.000000 0.000000 0.040161 0.000000 -0.010801
# 5 0.026708 -0.003161 -0.025667 0.000000 0.044827 0.000000
# 6 0.000000 0.000000 0.000000 -0.010801 0.000000 0.048655
#
#
# Mechanical properties :
#
#
# Convention : Reuss Voigt Hill
#
# Bulk Modulus (GPa) = 28.58321 37.05166 32.81743
# Shear Modulus (GPa) = 11.46866 21.61072 16.53969
#
# Velocity S-wave (km/s) = 2.41218 3.31122 2.89679
# Velocity P-wave (km/s) = 4.71803 5.78075 5.27621
#
# Compressibility (1/GPa) = 0.03498558
#
# Stress axis : x y z
#
# Youngs Moduli (GPa) = 10.46652 50.38120 21.08203
#
# Poissons Ratio (x) = 0.77022 1.01032
# Poissons Ratio (y) = 0.16001 0.01494
# Poissons Ratio (z) = 0.50159 0.03571
#
# Static dielectric constant tensor:
#      x y z
#    x 1.713050 0.000000 -0.022650 
#    y 0.000000 1.675380 0.000000 
#    z -0.022650 0.000000 1.651690 
# 
# From -- ./inp_files/125754.got.cif
#   From: 2010.05.17/outbox.ucp.g08.bks.cvg/sg12_63_cif.got.tgz:125754.got - 2010.06.11 11:47:21.
