data_PCOD9225328
_publ_section_title
;
Structure prediction by ZEFSAII (Michael W. Deem and Ramdas Pophale) SiO2 
 PCOD9225328
Probable space group: C 2/M
;
_chemical_formula_sum "Si O2"
_cell_formula_units_Z 24
_cell_length_a 27.000000
_cell_length_b 9.000000
_cell_length_c 15.000000
_cell_angle_alpha 90.000000
_cell_angle_beta 40.000000
_cell_angle_gamma 90.000000
_cell_volume 2342.960837
_symmetry_space_group_name_H-M "C 2/M"
_symmetry_group_IT_number 12
_symmetry_cell_setting 'monoclinic'
loop_
_space_group_symop_operation_xyz
x,y,z
-x,y,-z
-x,-y,-z
x,-y,z
1/2+x,1/2+y,z
1/2-x,1/2+y,-z
1/2-x,1/2-y,-z
1/2+x,1/2-y,z
loop_
_atom_site_type_symbol
_atom_site_label
_atom_site_fract_x
_atom_site_fract_y
_atom_site_fract_z
Si Si1 0.340937 0.823301 0.687915
Si Si2 0.420898 0.678783 0.066900
Si Si3 0.422653 0.824136 0.395495
Si Si4 0.831263 0.176373 0.366642
Si Si5 0.427545 0.322301 0.723311
Si Si6 0.829289 0.180419 0.024836
O O1 0.356603 0.803809 0.561742
O O2 0.404674 0.740260 0.658826
O O3 0.347061 0.000000 0.697923
O O4 0.256253 0.769225 0.832484
O O5 0.431658 0.500000 0.041854
O O6 0.355603 0.702150 0.231062
O O7 0.500000 0.738465 0.000000
O O8 0.391120 0.735100 0.012927
O O9 0.395757 0.744445 0.342829
O O10 0.498013 0.752218 0.335350
O O11 0.433354 0.000000 0.366617
O O12 0.750000 0.250000 0.500000
O O13 0.827509 0.000000 0.385954
O O14 0.437072 0.500000 0.707449
O O15 0.357594 0.283072 0.887229
O O16 0.828168 0.000000 0.032753
#
# Coordination Sequence:
#
# PCOD9225328 Si02
#       6
#     8   8   8   8   8   8
#     4  10  21  38  58  79 109 151 193 230 274 333
#     4   9  17  32  56  83 110 145 189 229 268 324
#     4  11  23  39  59  82 112 151 190 228 274 331
#     4  11  22  37  60  87 115 148 186 231 279 327
#     4  11  22  36  58  86 113 142 181 234 288 333
#     4   9  18  34  56  82 111 145 187 230 275 331
#
# _framework density 10.243449
#
# number of rings (size 3 to 8) (size 9 to 14) (size 15 to 20)
#    0.000    1.833    0.000    4.500    0.000    8.667 
#    0.000    0.833    0.000   13.000    0.000    0.000 
#    0.000    0.000    0.000    0.000    0.000    0.000 
#
# Total GULP energy -134111.270750 kJ/mol
# GULP energy per Si atom -5587.969615 kJ/mol
# Density = 1.022013 g / cm^3
# Si number density = 10.243449 Si / 1000 Ang^3
#
#
#
# Elastic Constant Matrix: (Units=GPa)
#
#
# Indices 1 2 3 4 5 6 
#
# 1 68.4414 -0.6045 -9.0755 0.0005 9.5481 -0.0002
# 2 -0.6045 35.1056 21.5467 0.0028 13.3398 -0.0014
# 3 -9.0755 21.5467 35.1545 0.0009 -9.2850 -0.0005
# 4 0.0005 0.0028 0.0009 23.5472 -0.0005 -1.2866
# 5 9.5481 13.3398 -9.2850 -0.0005 35.5189 0.0002
# 6 -0.0002 -0.0014 -0.0005 -1.2866 0.0002 26.4325
#
#
#
# Elastic Compliance Matrix: (Units=1/GPa)
#
#
# Indices 1 2 3 4 5 6 
#
# 1 0.015507 -0.001193 0.004030 0.000000 -0.002667 0.000000
# 2 -0.001193 0.091444 -0.070187 -0.000009 -0.052371 0.000003
# 3 0.004030 -0.070187 0.085054 0.000006 0.047511 -0.000002
# 4 0.000000 -0.000009 0.000006 0.042581 0.000006 0.002073
# 5 -0.002667 -0.052371 0.047511 0.000006 0.060960 -0.000002
# 6 0.000000 0.000003 -0.000002 0.002073 -0.000002 0.037933
#
#
# Mechanical properties :
#
#
# Convention : Reuss Voigt Hill
#
# Bulk Modulus (GPa) = 17.45083 18.04832 17.74958
# Shear Modulus (GPa) = 10.26102 25.55536 17.90819
#
# Velocity S-wave (km/s) = 2.24041 3.53569 2.95977
# Velocity P-wave (km/s) = 3.90245 5.04945 4.51254
#
# Compressibility (1/GPa) = 0.05730385
#
# Stress axis : x y z
#
# Youngs Moduli (GPa) = 64.48716 10.93564 11.75728
#
# Poissons Ratio (x) = 0.01305 -0.04738
# Poissons Ratio (y) = 0.07695 0.82521
# Poissons Ratio (z) = -0.25990 0.76755
#
# Static dielectric constant tensor:
#      x y z
#    x 1.699210 0.000000 -0.015710 
#    y 0.000000 1.680070 0.000000 
#    z -0.015710 0.000000 1.758690 
# 
# From -- ./inp_files/244636.got.cif
#   From: 2010.05.17/outbox.ucp.g08.bks.cvg/sg12_123_cif.got.tgz:244636.got - 2010.06.11 11:47:21.
