data_PCOD9225336
_publ_section_title
;
Structure prediction by ZEFSAII (Michael W. Deem and Ramdas Pophale) SiO2 
 PCOD9225336
Probable space group: C 2/M
;
_chemical_formula_sum "Si O2"
_cell_formula_units_Z 32
_cell_length_a 30.000000
_cell_length_b 9.000000
_cell_length_c 24.000000
_cell_angle_alpha 90.000000
_cell_angle_beta 30.000000
_cell_angle_gamma 90.000000
_cell_volume 3240.000000
_symmetry_space_group_name_H-M "C 2/M"
_symmetry_group_IT_number 12
_symmetry_cell_setting 'monoclinic'
loop_
_space_group_symop_operation_xyz
x,y,z
-x,y,-z
-x,-y,-z
x,-y,z
1/2+x,1/2+y,z
1/2-x,1/2+y,-z
1/2-x,1/2-y,-z
1/2+x,1/2-y,z
loop_
_atom_site_type_symbol
_atom_site_label
_atom_site_fract_x
_atom_site_fract_y
_atom_site_fract_z
Si Si1 0.920591 0.674155 0.226921
Si Si2 0.955857 0.172069 0.414842
Si Si3 0.983364 0.337351 0.281341
Si Si4 0.921231 0.673115 0.631052
Si Si5 0.188487 0.668430 0.021815
Si Si6 0.742609 0.670271 0.362799
Si Si7 0.259415 0.169166 0.213392
Si Si8 0.390115 0.674958 0.997929
O O1 0.927798 0.500000 0.202051
O O2 0.924948 0.677309 0.289118
O O3 0.827429 0.734604 0.303667
O O4 0.011099 0.756005 0.110977
O O5 0.972277 0.196899 0.332347
O O6 0.856329 0.238289 0.529242
O O7 0.032793 0.258417 0.364197
O O8 0.956435 0.000000 0.432158
O O9 0.962657 0.500000 0.329866
O O10 0.087146 0.341542 0.153147
O O11 0.897577 0.500000 0.664468
O O12 0.835042 0.764187 0.704529
O O13 0.000000 0.683026 0.500000
O O14 0.220926 0.500000 0.976835
O O15 0.250000 0.750000 0.000000
O O16 0.174614 0.758862 0.980093
O O17 0.731683 0.500000 0.396279
O O18 0.763550 0.663446 0.275222
O O19 0.339422 0.273092 0.107518
O O20 0.269598 0.000000 0.180970
O O21 0.395996 0.500000 0.985296
#
# Coordination Sequence:
#
# PCOD9225336 Si02
#       8
#     8   8   8   8   8   8   8   8
#     4   9  19  41  65  84 114 155 198 243 294 349
#     4  11  22  37  59  88 119 155 199 240 286 349
#     4   9  20  37  57  83 117 153 191 238 292 345
#     4  11  23  39  59  84 119 157 192 241 299 348
#     4  10  21  38  59  83 114 154 198 241 291 350
#     4   9  20  38  62  88 114 151 200 248 288 345
#     4  11  22  39  62  87 117 156 201 241 290 352
#     4  11  23  39  58  86 121 152 192 244 297 351
#
# _framework density 9.8765429999999999
#
# number of rings (size 3 to 8) (size 9 to 14) (size 15 to 20)
#    0.000    1.875    1.250    3.375    1.750    4.000 
#    0.000    5.000    0.000    0.000    0.000    0.000 
#    0.000    0.000    0.000    0.000    0.000    0.000 
#
# Total GULP energy -178428.245520 kJ/mol
# GULP energy per Si atom -5575.882672 kJ/mol
# Density = 0.985406 g / cm^3
# Si number density = 9.876543 Si / 1000 Ang^3
#
#
#
# Elastic Constant Matrix: (Units=GPa)
#
#
# Indices 1 2 3 4 5 6 
#
# 1 96.1189 13.9282 1.0109 0.0021 -20.7229 -0.0004
# 2 13.9282 66.7079 -13.0490 0.0092 5.0958 -0.0045
# 3 1.0109 -13.0490 -21.9555 0.0087 19.4232 -0.0053
# 4 0.0021 0.0092 0.0087 19.4500 -0.0017 1.7527
# 5 -20.7229 5.0958 19.4232 -0.0017 16.7552 -0.0007
# 6 -0.0004 -0.0045 -0.0053 1.7527 -0.0007 14.4582
#
#
#
# Elastic Compliance Matrix: (Units=1/GPa)
#
#
# Indices 1 2 3 4 5 6 
#
# 1 0.012000 -0.001566 0.007423 -0.000004 0.006714 0.000003
# 2 -0.001566 0.013859 -0.006789 -0.000003 0.001718 0.000002
# 3 0.007423 -0.006789 -0.015414 0.000013 0.029114 -0.000008
# 4 -0.000004 -0.000003 0.000013 0.051982 -0.000013 -0.006301
# 5 0.006714 0.001718 0.029114 -0.000013 0.033714 0.000015
# 6 0.000003 0.000002 -0.000008 -0.006301 0.000015 0.069929
#
#
# Mechanical properties :
#
#
# Convention : Reuss Voigt Hill
#
# Bulk Modulus (GPa) = 116.56425 16.07239 66.31832
# Shear Modulus (GPa) = 29.27500 19.39810 24.33655
#
# Velocity S-wave (km/s) = 3.85391 3.13713 3.51385
# Velocity P-wave (km/s) = 8.88495 4.61264 7.07880
#
# Compressibility (1/GPa) = 0.00857896
#
# Stress axis : x y z
#
# Youngs Moduli (GPa) = 83.33265 72.15778 -64.87554
#
# Poissons Ratio (x) = 0.11303 0.48155
# Poissons Ratio (y) = 0.13053 -0.44044
# Poissons Ratio (z) = -0.61855 0.48988
#
# Static dielectric constant tensor:
#      x y z
#    x 1.679880 0.000000 0.027240 
#    y 0.000000 1.686290 0.000000 
#    z 0.027240 0.000000 1.670950 
# 
# From -- ./inp_files/249670.got.cif
#   From: 2010.05.17/outbox.ucp.g08.bks.cvg/sg12_125_cif.got.tgz:249670.got - 2010.06.11 11:47:21.
