data_PCOD9225374
_publ_section_title
;
Structure prediction by ZEFSAII (Michael W. Deem and Ramdas Pophale) SiO2 
 PCOD9225374
Probable space group: C 2/M
;
_chemical_formula_sum "Si O2"
_cell_formula_units_Z 32
_cell_length_a 30.000000
_cell_length_b 9.000000
_cell_length_c 15.000000
_cell_angle_alpha 90.000000
_cell_angle_beta 50.000000
_cell_angle_gamma 90.000000
_cell_volume 3102.479995
_symmetry_space_group_name_H-M "C 2/M"
_symmetry_group_IT_number 12
_symmetry_cell_setting 'monoclinic'
loop_
_space_group_symop_operation_xyz
x,y,z
-x,y,-z
-x,-y,-z
x,-y,z
1/2+x,1/2+y,z
1/2-x,1/2+y,-z
1/2-x,1/2-y,-z
1/2+x,1/2-y,z
loop_
_atom_site_type_symbol
_atom_site_label
_atom_site_fract_x
_atom_site_fract_y
_atom_site_fract_z
Si Si1 0.722040 0.325877 0.212276
Si Si2 0.622283 0.673639 0.199091
Si Si3 0.001825 0.676633 0.393355
Si Si4 0.346381 0.671990 0.050124
Si Si5 0.272139 0.326593 0.593148
Si Si6 0.960336 0.321993 0.963920
Si Si7 0.657519 0.172402 0.648041
Si Si8 0.954693 0.823036 0.283537
O O1 0.735393 0.500000 0.178661
O O2 0.674423 0.281875 0.199617
O O3 0.781391 0.234694 0.136036
O O4 0.702562 0.313700 0.340345
O O5 0.607878 0.500000 0.238189
O O6 0.566694 0.776628 0.282632
O O7 0.638831 0.680355 0.074245
O O8 0.992528 0.500000 0.398404
O O9 0.000000 0.719926 0.500000
O O10 0.958522 0.756906 0.378920
O O11 0.348378 0.500000 0.075334
O O12 0.394379 0.761824 0.045557
O O13 0.281166 0.500000 0.552554
O O14 0.302790 0.210792 0.488741
O O15 0.202402 0.300989 0.672076
O O16 0.959942 0.500000 0.955109
O O17 0.991420 0.244801 0.840150
O O18 0.000000 0.286726 0.000000
O O19 0.601245 0.271637 0.701935
O O20 0.639475 0.000000 0.674566
O O21 0.957878 0.000000 0.283866
#
# Coordination Sequence:
#
# PCOD9225374 Si02
#       8
#     8   8   8   8   8   8   8   8
#     4  10  22  39  62  90 121 161 209 253 306 369
#     4  10  22  41  63  90 124 163 204 254 312 369
#     4  11  25  43  65  95 128 165 211 260 313 373
#     4  11  23  40  62  92 125 161 206 254 311 371
#     4   9  20  39  60  88 121 161 207 254 305 364
#     4  11  25  44  67  93 125 167 212 260 317 375
#     4  10  21  38  61  87 124 164 205 252 307 366
#     4  12  25  42  66  95 128 167 210 256 315 378
#
# _framework density 10.314329000000001
#
# number of rings (size 3 to 8) (size 9 to 14) (size 15 to 20)
#    0.000    1.500    1.250    3.000    3.500    4.000 
#    0.000    0.000    0.000    0.000    0.000    0.000 
#    0.000    0.000    0.000    0.000    0.000    0.000 
#
# Total GULP energy -178757.729010 kJ/mol
# GULP energy per Si atom -5586.179032 kJ/mol
# Density = 1.029085 g / cm^3
# Si number density = 10.314329 Si / 1000 Ang^3
#
#
#
# Elastic Constant Matrix: (Units=GPa)
#
#
# Indices 1 2 3 4 5 6 
#
# 1 124.7993 29.9505 -4.1862 0.0000 7.0283 0.0000
# 2 29.9505 63.9349 9.3771 0.0000 7.1072 0.0000
# 3 -4.1862 9.3771 32.0426 0.0000 1.7133 0.0000
# 4 0.0000 0.0000 0.0000 17.6879 0.0000 -1.5002
# 5 7.0283 7.1072 1.7133 0.0000 30.8618 0.0000
# 6 0.0000 0.0000 0.0000 -1.5002 0.0000 32.8124
#
#
#
# Elastic Compliance Matrix: (Units=1/GPa)
#
#
# Indices 1 2 3 4 5 6 
#
# 1 0.009271 -0.004594 0.002620 0.000000 -0.001199 0.000000
# 2 -0.004594 0.019006 -0.006002 0.000000 -0.002998 0.000000
# 3 0.002620 -0.006002 0.033364 0.000000 -0.001067 0.000000
# 4 0.000000 0.000000 0.000000 0.056756 0.000000 0.002595
# 5 -0.001199 -0.002998 -0.001067 0.000000 0.033425 0.000000
# 6 0.000000 0.000000 0.000000 0.002595 0.000000 0.030595
#
#
# Mechanical properties :
#
#
# Convention : Reuss Voigt Hill
#
# Bulk Modulus (GPa) = 21.88715 32.33994 27.11354
# Shear Modulus (GPa) = 23.40831 28.64811 26.02821
#
# Velocity S-wave (km/s) = 3.37226 3.73064 3.55597
# Velocity P-wave (km/s) = 5.07897 5.85390 5.48015
#
# Compressibility (1/GPa) = 0.04568892
#
# Stress axis : x y z
#
# Youngs Moduli (GPa) = 107.86642 52.61377 29.97222
#
# Poissons Ratio (x) = 0.24170 -0.07852
# Poissons Ratio (y) = 0.49552 0.17989
# Poissons Ratio (z) = -0.28257 0.31579
#
# Static dielectric constant tensor:
#      x y z
#    x 1.730350 0.000000 -0.006370 
#    y 0.000000 1.702530 0.000000 
#    z -0.006370 0.000000 1.796940 
# 
# From -- ./inp_files/249807.got.cif
#   From: 2010.05.17/outbox.ucp.g08.bks.cvg/sg12_125_cif.got.tgz:249807.got - 2010.06.11 11:47:21.
