data_PCOD9225369
_publ_section_title
;
Structure prediction by ZEFSAII (Michael W. Deem and Ramdas Pophale) SiO2 
 PCOD9225369
Probable space group: C 2/M
;
_chemical_formula_sum "Si O2"
_cell_formula_units_Z 24
_cell_length_a 27.000000
_cell_length_b 9.000000
_cell_length_c 12.000000
_cell_angle_alpha 90.000000
_cell_angle_beta 120.000000
_cell_angle_gamma 90.000000
_cell_volume 2525.330077
_symmetry_space_group_name_H-M "C 2/M"
_symmetry_group_IT_number 12
_symmetry_cell_setting 'monoclinic'
loop_
_space_group_symop_operation_xyz
x,y,z
-x,y,-z
-x,-y,-z
x,-y,z
1/2+x,1/2+y,z
1/2-x,1/2+y,-z
1/2-x,1/2-y,-z
1/2+x,1/2-y,z
loop_
_atom_site_type_symbol
_atom_site_label
_atom_site_fract_x
_atom_site_fract_y
_atom_site_fract_z
Si Si1 0.465556 0.679644 0.117796
Si Si2 0.047191 0.320087 0.650790
Si Si3 0.079773 0.678463 0.150922
Si Si4 0.335580 0.321378 0.167286
Si Si5 0.219198 0.178448 0.126567
Si Si6 0.707212 0.821802 0.358229
O O1 0.457963 0.500000 0.108422
O O2 0.464257 0.744659 0.241579
O O3 0.528337 0.729561 0.147446
O O4 0.422853 0.757187 0.979063
O O5 0.048018 0.500000 0.661165
O O6 0.111741 0.256776 0.709003
O O7 0.000000 0.284168 0.500000
O O8 0.068837 0.500000 0.133995
O O9 0.137892 0.698323 0.288684
O O10 0.338559 0.500000 0.185508
O O11 0.277417 0.251793 0.147796
O O12 0.328394 0.294340 0.024877
O O13 0.213927 0.249208 0.243167
O O14 0.223663 0.000000 0.141040
O O15 0.750000 0.750000 0.500000
O O16 0.717946 0.000000 0.367617
#
# Coordination Sequence:
#
# PCOD9225369 Si02
#       6
#     8   8   8   8   8   8
#     4  11  22  37  61  89 115 147 189 238 287 334
#     4  11  24  40  58  82 116 156 193 232 283 341
#     4  10  21  39  62  86 114 150 191 234 283 339
#     4  10  21  38  62  89 115 147 190 238 284 333
#     4  10  21  38  61  87 116 150 189 234 284 339
#     4  11  24  39  58  84 116 154 192 234 285 339
#
# _framework density 9.5037079999999996
#
# number of rings (size 3 to 8) (size 9 to 14) (size 15 to 20)
#    0.000    1.500    0.000    6.000    0.000   10.000 
#    0.000    1.667    0.000    0.000    0.000    0.000 
#    0.000    0.000    0.000    0.000    0.000    0.000 
#
# Total GULP energy -133747.177510 kJ/mol
# GULP energy per Si atom -5572.799063 kJ/mol
# Density = 0.948208 g / cm^3
# Si number density = 9.503708 Si / 1000 Ang^3
#
#
#
# Elastic Constant Matrix: (Units=GPa)
#
#
# Indices 1 2 3 4 5 6 
#
# 1 41.5304 8.8136 8.0743 0.0000 12.2821 0.0000
# 2 8.8136 124.6756 51.3161 0.0000 13.6666 0.0000
# 3 8.0743 51.3161 161.6922 0.0000 32.5252 0.0000
# 4 0.0000 0.0000 0.0000 46.3071 0.0000 -0.4283
# 5 12.2821 13.6666 32.5252 0.0000 38.7665 0.0000
# 6 0.0000 0.0000 0.0000 -0.4283 0.0000 28.7206
#
#
#
# Elastic Compliance Matrix: (Units=1/GPa)
#
#
# Indices 1 2 3 4 5 6 
#
# 1 0.026769 -0.001275 0.000822 0.000000 -0.008721 0.000000
# 2 -0.001275 0.009316 -0.002783 0.000000 -0.000545 0.000000
# 3 0.000822 -0.002783 0.008279 0.000000 -0.006226 0.000000
# 4 0.000000 0.000000 0.000000 0.021598 0.000000 0.000322
# 5 -0.008721 -0.000545 -0.006226 0.000000 0.033974 0.000000
# 6 0.000000 0.000000 0.000000 0.000322 0.000000 0.034823
#
#
# Mechanical properties :
#
#
# Convention : Reuss Voigt Hill
#
# Bulk Modulus (GPa) = 26.39058 51.58958 38.99008
# Shear Modulus (GPa) = 32.49671 40.07181 36.28426
#
# Velocity S-wave (km/s) = 4.13932 4.59652 4.37390
# Velocity P-wave (km/s) = 6.06299 7.44119 6.78716
#
# Compressibility (1/GPa) = 0.03789231
#
# Stress axis : x y z
#
# Youngs Moduli (GPa) = 37.35711 107.33845 120.78480
#
# Poissons Ratio (x) = 0.13683 -0.09931
# Poissons Ratio (y) = 0.04762 0.33619
# Poissons Ratio (z) = -0.03071 0.29876
#
# Static dielectric constant tensor:
#      x y z
#    x 1.809890 0.000000 -0.017040 
#    y 0.000000 1.626520 0.000000 
#    z -0.017040 0.000000 1.628120 
# 
# From -- ./inp_files/180265.got.cif
#   From: 2010.05.17/outbox.ucp.g08.bks.cvg/sg12_91_cif.got.tgz:180265.got - 2010.06.11 11:47:21.
