data_PCOD9225410
_publ_section_title
;
Structure prediction by ZEFSAII (Michael W. Deem and Ramdas Pophale) SiO2 
 PCOD9225410
Probable space group: C 2/M
;
_chemical_formula_sum "Si O2"
_cell_formula_units_Z 28
_cell_length_a 30.000000
_cell_length_b 9.000000
_cell_length_c 12.000000
_cell_angle_alpha 90.000000
_cell_angle_beta 60.000000
_cell_angle_gamma 90.000000
_cell_volume 2805.922308
_symmetry_space_group_name_H-M "C 2/M"
_symmetry_group_IT_number 12
_symmetry_cell_setting 'monoclinic'
loop_
_space_group_symop_operation_xyz
x,y,z
-x,y,-z
-x,-y,-z
x,-y,z
1/2+x,1/2+y,z
1/2-x,1/2+y,-z
1/2-x,1/2-y,-z
1/2+x,1/2-y,z
loop_
_atom_site_type_symbol
_atom_site_label
_atom_site_fract_x
_atom_site_fract_y
_atom_site_fract_z
Si Si1 0.076253 0.326143 0.123806
Si Si2 0.107003 0.177025 0.620197
Si Si3 0.784636 0.327644 0.546377
Si Si4 0.333334 0.330587 0.888686
Si Si5 0.480946 0.822578 0.399548
Si Si6 0.741518 0.168720 0.171062
Si Si7 0.559812 0.321218 0.916662
O O1 0.076229 0.500000 0.100274
O O2 0.120505 0.281792 0.154140
O O3 0.023551 0.287223 0.252546
O O4 0.084710 0.239381 0.998380
O O5 0.161077 0.247539 0.523409
O O6 0.068159 0.230151 0.574103
O O7 0.085927 0.227888 0.768441
O O8 0.110406 0.000000 0.619619
O O9 0.792192 0.500000 0.511372
O O10 0.750000 0.250000 0.500000
O O11 0.756895 0.316616 0.699816
O O12 0.351443 0.500000 0.859703
O O13 0.297962 0.286249 0.829668
O O14 0.295743 0.313985 0.042109
O O15 0.500000 0.788605 0.500000
O O16 0.470729 0.000000 0.407744
O O17 0.723580 0.000000 0.166427
O O18 0.561200 0.500000 0.916746
O O19 0.500000 0.273812 0.000000
#
# Coordination Sequence:
#
# PCOD9225410 Si02
#       7
#     8   8   8   8   8   8   8
#     4  11  23  37  60  92 123 157 202 248 298 361
#     4  11  24  42  65  92 122 160 207 257 309 364
#     4  11  25  44  65  90 124 163 207 254 306 366
#     4  10  21  38  63  91 120 155 198 249 303 358
#     4  10  23  42  62  88 126 168 205 246 303 368
#     4   9  21  42  63  85 118 159 200 247 303 361
#     4  10  21  40  62  85 119 158 197 245 300 354
#
# _framework density 9.9788940000000004
#
# number of rings (size 3 to 8) (size 9 to 14) (size 15 to 20)
#    0.000    1.714    1.429    1.714    4.000    4.000 
#    0.000    0.000    0.000    0.000    0.000    0.000 
#    0.000    0.000    0.000    0.000    0.000    0.000 
#
# Total GULP energy -156360.159076 kJ/mol
# GULP energy per Si atom -5584.291396 kJ/mol
# Density = 0.995618 g / cm^3
# Si number density = 9.978894 Si / 1000 Ang^3
#
#
#
# Elastic Constant Matrix: (Units=GPa)
#
#
# Indices 1 2 3 4 5 6 
#
# 1 42.6250 62.4579 0.2078 0.0000 0.8222 0.0000
# 2 62.4579 2.3698 47.0619 0.0000 13.3954 0.0000
# 3 0.2078 47.0619 22.4273 0.0000 23.5826 0.0000
# 4 0.0000 0.0000 0.0000 12.7352 0.0000 17.0167
# 5 0.8222 13.3954 23.5826 0.0000 3.4218 0.0000
# 6 0.0000 0.0000 0.0000 17.0167 0.0000 76.1001
#
#
#
# Elastic Compliance Matrix: (Units=1/GPa)
#
#
# Indices 1 2 3 4 5 6 
#
# 1 0.006774 0.011658 -0.004030 0.000000 -0.019491 0.000000
# 2 0.011658 -0.008149 0.002178 0.000000 0.014087 0.000000
# 3 -0.004030 0.002178 -0.007684 0.000000 0.045401 0.000000
# 4 0.000000 0.000000 0.000000 0.111981 0.000000 -0.025040
# 5 -0.019491 0.014087 0.045401 0.000000 -0.071118 0.000000
# 6 0.000000 0.000000 0.000000 -0.025040 0.000000 0.018740
#
#
# Mechanical properties :
#
#
# Convention : Reuss Voigt Hill
#
# Bulk Modulus (GPa) = 94.75745 31.87526 63.31635
# Shear Modulus (GPa) = 145.13455 15.63105 80.38280
#
# Velocity S-wave (km/s) = 8.53690 2.80162 6.35325
# Velocity P-wave (km/s) = 12.03136 5.14504 9.25270
#
# Compressibility (1/GPa) = 0.01055326
#
# Stress axis : x y z
#
# Youngs Moduli (GPa) = 147.61447 -122.72194 -130.13562
#
# Poissons Ratio (x) = 1.43063 -0.52441
# Poissons Ratio (y) = -1.72082 0.28344
# Poissons Ratio (z) = 0.59485 0.26729
#
# Static dielectric constant tensor:
#      x y z
#    x 1.679680 0.000000 0.001570 
#    y 0.000000 1.451320 0.000000 
#    z 0.001570 0.000000 1.690730 
# 
# From -- ./inp_files/187253.got.cif
#   From: 2010.05.17/outbox.ucp.g08.bks.cvg/sg12_94_cif.got.tgz:187253.got - 2010.06.11 11:47:21.
