data_PCOD9225037
_publ_section_title
;
Structure prediction by ZEFSAII (Michael W. Deem and Ramdas Pophale) SiO2 
 PCOD9225037
Probable space group: C 2/M
;
_chemical_formula_sum "Si O2"
_cell_formula_units_Z 28
_cell_length_a 15.000000
_cell_length_b 9.000000
_cell_length_c 24.000000
_cell_angle_alpha 90.000000
_cell_angle_beta 60.000000
_cell_angle_gamma 90.000000
_cell_volume 2805.922308
_symmetry_space_group_name_H-M "C 2/M"
_symmetry_group_IT_number 12
_symmetry_cell_setting 'monoclinic'
loop_
_space_group_symop_operation_xyz
x,y,z
-x,y,-z
-x,-y,-z
x,-y,z
1/2+x,1/2+y,z
1/2-x,1/2+y,-z
1/2-x,1/2-y,-z
1/2+x,1/2-y,z
loop_
_atom_site_type_symbol
_atom_site_label
_atom_site_fract_x
_atom_site_fract_y
_atom_site_fract_z
Si Si1 0.493140 0.167812 0.338202
Si Si2 0.683675 0.823269 0.851787
Si Si3 0.587607 0.323050 0.210067
Si Si4 0.416472 0.820686 0.573502
Si Si5 0.745816 0.167452 0.559925
Si Si6 0.161938 0.323676 0.989862
Si Si7 0.513032 0.323946 0.114908
O O1 0.507984 0.260283 0.278189
O O2 0.548692 0.229389 0.376137
O O3 0.373316 0.160248 0.388298
O O4 0.531995 0.000000 0.316469
O O5 0.800474 0.786319 0.801412
O O6 0.604493 0.723508 0.843268
O O7 0.664803 0.000000 0.849288
O O8 0.673564 0.792578 0.921065
O O9 0.580582 0.500000 0.208928
O O10 0.571879 0.270761 0.151834
O O11 0.500000 0.779330 0.500000
O O12 0.310126 0.753580 0.586137
O O13 0.412574 0.000000 0.575540
O O14 0.750000 0.250000 0.500000
O O15 0.786768 0.000000 0.541645
O O16 0.167135 0.500000 0.995019
O O17 0.057284 0.260259 0.047733
O O18 0.250000 0.250000 0.000000
O O19 0.526400 0.500000 0.104045
#
# Coordination Sequence:
#
# PCOD9225037 Si02
#       7
#     8   8   8   8   8   8   8
#     4  10  23  41  61  87 121 157 198 244 296 356
#     4  10  22  41  61  86 121 159 198 247 303 354
#     4  10  23  43  61  82 121 162 200 247 296 352
#     4  10  20  39  62  87 122 155 188 241 300 350
#     4  11  22  38  61  91 122 154 195 242 295 356
#     4  11  21  37  62  90 122 157 198 251 308 356
#     4  11  23  40  61  90 122 157 204 250 297 357
#
# _framework density 9.9788940000000004
#
# number of rings (size 3 to 8) (size 9 to 14) (size 15 to 20)
#    0.000    1.571    2.857    1.714    0.000    7.714 
#    0.000    5.714    0.000    0.000    0.000    0.000 
#    0.000    0.000    0.000    0.000    0.000    0.000 
#
# Total GULP energy -156275.051226 kJ/mol
# GULP energy per Si atom -5581.251829 kJ/mol
# Density = 0.995618 g / cm^3
# Si number density = 9.978894 Si / 1000 Ang^3
#
#
#
# Elastic Constant Matrix: (Units=GPa)
#
#
# Indices 1 2 3 4 5 6 
#
# 1 64.3768 16.4046 0.3699 0.0000 6.9249 0.0000
# 2 16.4046 -1.9192 9.5110 0.0000 -7.0621 0.0000
# 3 0.3699 9.5110 39.6416 0.0000 -14.6992 0.0000
# 4 0.0000 0.0000 0.0000 11.3872 0.0000 -5.7219
# 5 6.9249 -7.0621 -14.6992 0.0000 7.5674 0.0000
# 6 0.0000 0.0000 0.0000 -5.7219 0.0000 29.3546
#
#
#
# Elastic Compliance Matrix: (Units=1/GPa)
#
#
# Indices 1 2 3 4 5 6 
#
# 1 0.008403 0.023374 -0.001606 0.000000 0.011004 0.000000
# 2 0.023374 -0.033937 -0.042006 0.000000 -0.134655 0.000000
# 3 -0.001606 -0.042006 0.076244 0.000000 0.110367 0.000000
# 4 0.000000 0.000000 0.000000 0.097354 0.000000 0.018977
# 5 0.011004 -0.134655 0.110367 0.000000 0.210793 0.000000
# 6 0.000000 0.000000 0.000000 0.018977 0.000000 0.037765
#
#
# Mechanical properties :
#
#
# Convention : Reuss Voigt Hill
#
# Bulk Modulus (GPa) = 97.72593 17.18558 57.45576
# Shear Modulus (GPa) = 11.35050 14.71608 13.03329
#
# Velocity S-wave (km/s) = 2.38738 2.71838 2.55824
# Velocity P-wave (km/s) = 7.52809 4.29912 6.13003
#
# Compressibility (1/GPa) = 0.01023270
#
# Stress axis : x y z
#
# Youngs Moduli (GPa) = 119.00661 -29.46631 13.11581
#
# Poissons Ratio (x) = 0.68874 0.02106
# Poissons Ratio (y) = -2.78165 0.55095
# Poissons Ratio (z) = 0.19112 -1.23777
#
# Static dielectric constant tensor:
#      x y z
#    x 1.758140 0.000000 -0.047840 
#    y 0.000000 1.523810 0.000000 
#    z -0.047840 0.000000 1.696350 
# 
# From -- ./inp_files/309029.got.cif
#   From: 2010.05.17/outbox.ucp.g08.bks.cvg/sg12_155_cif.got.tgz:309029.got - 2010.06.11 11:47:21.
