data_PCOD9225969
_publ_section_title
;
Structure prediction by ZEFSAII (Michael W. Deem and Ramdas Pophale) SiO2 
 PCOD9225969
Probable space group: C 2/M
;
_chemical_formula_sum "Si O2"
_cell_formula_units_Z 18
_cell_length_a 21.000000
_cell_length_b 12.000000
_cell_length_c 21.000000
_cell_angle_alpha 90.000000
_cell_angle_beta 20.000000
_cell_angle_gamma 90.000000
_cell_volume 1809.970598
_symmetry_space_group_name_H-M "C 2/M"
_symmetry_group_IT_number 12
_symmetry_cell_setting 'monoclinic'
loop_
_space_group_symop_operation_xyz
x,y,z
-x,y,-z
-x,-y,-z
x,-y,z
1/2+x,1/2+y,z
1/2-x,1/2+y,-z
1/2-x,1/2-y,-z
1/2+x,1/2-y,z
loop_
_atom_site_type_symbol
_atom_site_label
_atom_site_fract_x
_atom_site_fract_y
_atom_site_fract_z
Si Si1 0.028270 0.207115 0.900727
Si Si2 0.007376 0.500000 0.287807
Si Si3 0.304352 0.500000 0.917082
Si Si4 0.137075 0.129661 0.431975
Si Si5 0.126840 0.758176 0.218944
Si Si6 0.881341 0.000000 0.273100
O O1 0.169002 0.311505 0.767244
O O2 0.111877 0.108660 0.778391
O O3 0.000000 0.168539 0.000000
O O4 0.827664 0.242401 0.062538
O O5 0.077209 0.629080 0.242501
O O6 0.795439 0.500000 0.512789
O O7 0.085795 0.500000 0.141945
O O8 0.349421 0.376174 0.844224
O O9 0.431149 0.500000 0.861314
O O10 0.000000 0.130909 0.500000
O O11 0.035505 0.204022 0.580588
O O12 0.158826 0.000000 0.431168
#
# Coordination Sequence:
#
# PCOD9225969 Si02
#       6
#     8   4   4   8   8   4
#     4  12  25  44  73 106 138 185 228 290 353 423
#     4  12  26  46  73 100 138 188 235 293 344 416
#     4  12  28  47  70 103 141 188 237 292 342 421
#     4  11  24  43  70 108 143 180 232 289 351 420
#     4  12  25  47  71 104 143 184 237 287 355 412
#     4  12  27  45  72 103 141 179 241 287 352 413
#
# _framework density 9.9449129999999997
#
# number of rings (size 3 to 8) (size 9 to 14) (size 15 to 20)
#    0.000    0.222    7.778    1.000    1.556    3.111 
#    0.000    2.222    0.000    0.000    0.000    0.000 
#    0.000    0.000    0.000    0.000    0.000    0.000 
#
# Total GULP energy -100269.284094 kJ/mol
# GULP energy per Si atom -5570.515783 kJ/mol
# Density = 0.992228 g / cm^3
# Si number density = 9.944913 Si / 1000 Ang^3
#
#
#
# Elastic Constant Matrix: (Units=GPa)
#
#
# Indices 1 2 3 4 5 6 
#
# 1 40.1216 32.9493 7.1494 0.0011 10.4236 -0.0006
# 2 32.9493 156.5353 12.0759 0.0004 2.6846 -0.0008
# 3 7.1494 12.0759 103.8703 -0.0001 13.9418 -0.0008
# 4 0.0011 0.0004 -0.0001 40.1584 -0.0006 10.8555
# 5 10.4236 2.6846 13.9418 -0.0006 34.0128 0.0008
# 6 -0.0006 -0.0008 -0.0008 10.8555 0.0008 33.7863
#
#
#
# Elastic Compliance Matrix: (Units=1/GPa)
#
#
# Indices 1 2 3 4 5 6 
#
# 1 0.032981 -0.006763 -0.000210 -0.000001 -0.009487 0.000001
# 2 -0.006763 0.007835 -0.000678 0.000000 0.001732 0.000000
# 3 -0.000210 -0.000678 0.010270 0.000000 -0.004092 0.000000
# 4 -0.000001 0.000000 0.000000 0.027270 0.000001 -0.008762
# 5 -0.009487 0.001732 -0.004092 0.000001 0.033849 -0.000001
# 6 0.000001 0.000000 0.000000 -0.008762 -0.000001 0.032413
#
#
# Mechanical properties :
#
#
# Convention : Reuss Voigt Hill
#
# Bulk Modulus (GPa) = 27.94677 44.98625 36.46651
# Shear Modulus (GPa) = 29.09570 38.14834 33.62202
#
# Velocity S-wave (km/s) = 3.82886 4.38423 4.11592
# Velocity P-wave (km/s) = 5.79898 6.94949 6.40014
#
# Compressibility (1/GPa) = 0.03578231
#
# Stress axis : x y z
#
# Youngs Moduli (GPa) = 30.32078 127.64045 97.37226
#
# Poissons Ratio (x) = 0.86326 0.02048
# Poissons Ratio (y) = 0.20507 0.06600
# Poissons Ratio (z) = 0.00638 0.08652
#
# Static dielectric constant tensor:
#      x y z
#    x 1.721600 0.000000 0.028270 
#    y 0.000000 1.713710 0.000000 
#    z 0.028270 0.000000 1.689730 
# 
# From -- ./inp_files/321468.got.cif
#   From: 2010.05.17/outbox.ucp.g08.bks.cvg/sg12_161_cif.got.tgz:321468.got - 2010.06.11 11:47:21.
