data_PCOD9225873
_publ_section_title
;
Structure prediction by ZEFSAII (Michael W. Deem and Ramdas Pophale) SiO2 
 PCOD9225873
Probable space group: C 2/M
;
_chemical_formula_sum "Si O2"
_cell_formula_units_Z 32
_cell_length_a 15.000000
_cell_length_b 30.000000
_cell_length_c 12.000000
_cell_angle_alpha 90.000000
_cell_angle_beta 140.000000
_cell_angle_gamma 90.000000
_cell_volume 3471.053092
_symmetry_space_group_name_H-M "C 2/M"
_symmetry_group_IT_number 12
_symmetry_cell_setting 'monoclinic'
loop_
_space_group_symop_operation_xyz
x,y,z
-x,y,-z
-x,-y,-z
x,-y,z
1/2+x,1/2+y,z
1/2-x,1/2+y,-z
1/2-x,1/2-y,-z
1/2+x,1/2-y,z
loop_
_atom_site_type_symbol
_atom_site_label
_atom_site_fract_x
_atom_site_fract_y
_atom_site_fract_z
Si Si1 0.656079 0.856726 0.131188
Si Si2 0.833763 0.318952 0.327278
Si Si3 0.648944 0.719532 0.582596
Si Si4 0.578091 0.369596 0.187212
Si Si5 0.480407 0.721261 0.206431
Si Si6 0.217860 0.949345 0.728564
Si Si7 0.476546 0.447845 0.677045
Si Si8 0.319174 0.806326 0.049182
O O1 0.755385 0.821926 0.291342
O O2 0.680497 0.907835 0.183735
O O3 0.500000 0.843258 0.000000
O O4 0.676272 0.850366 0.018890
O O5 0.796184 0.268703 0.332816
O O6 0.734063 0.354019 0.296847
O O7 0.816613 0.316800 0.177310
O O8 0.000000 0.325938 0.500000
O O9 0.500000 0.714091 0.500000
O O10 0.607705 0.721041 0.413430
O O11 0.506958 0.322116 0.155565
O O12 0.558256 0.408178 0.265323
O O13 0.500000 0.385114 0.000000
O O14 0.442083 0.771701 0.130957
O O15 0.331995 0.713491 0.125318
O O16 0.130084 0.946967 0.529428
O O17 0.120438 0.941514 0.745011
O O18 0.272656 0.000000 0.789609
O O19 0.475090 0.500000 0.719147
#
# Coordination Sequence:
#
# PCOD9225873 Si02
#       8
#     8   8   8   8   8   8   8   8
#     4  12  26  35  60  97 128 159 209 265 315 375
#     4  11  24  42  57  83 127 176 215 251 311 370
#     4  11  21  39  60  81 116 174 215 257 298 364
#     4  12  25  36  63  94 125 166 206 264 310 373
#     4  11  21  37  62  83 118 167 218 256 303 356
#     4   9  20  42  69  94 124 158 200 261 330 379
#     4   9  20  41  71  99 119 152 210 269 313 375
#     4  11  21  38  58  85 125 164 209 263 311 364
#
# _framework density 9.2191039999999997
#
# number of rings (size 3 to 8) (size 9 to 14) (size 15 to 20)
#    0.000    1.250    5.000    3.000    3.500    3.000 
#    0.000    0.000    0.000    0.375    0.000    0.000 
#    0.000    0.000    0.000    0.000    0.000    0.000 
#
# Total GULP energy -178264.716974 kJ/mol
# GULP energy per Si atom -5570.772405 kJ/mol
# Density = 0.919812 g / cm^3
# Si number density = 9.219104 Si / 1000 Ang^3
#
#
#
# Elastic Constant Matrix: (Units=GPa)
#
#
# Indices 1 2 3 4 5 6 
#
# 1 59.7727 43.8616 32.2377 0.0000 -2.4544 0.0000
# 2 43.8616 113.0112 44.7735 0.0000 -0.3020 0.0000
# 3 32.2377 44.7735 90.9736 0.0000 -8.9824 0.0000
# 4 0.0000 0.0000 0.0000 24.3890 0.0000 -3.2329
# 5 -2.4544 -0.3020 -8.9824 0.0000 30.8717 0.0000
# 6 0.0000 0.0000 0.0000 -3.2329 0.0000 35.8228
#
#
#
# Elastic Compliance Matrix: (Units=1/GPa)
#
#
# Indices 1 2 3 4 5 6 
#
# 1 0.025174 -0.007767 -0.005053 0.000000 0.000455 0.000000
# 2 -0.007767 0.013457 -0.004035 0.000000 -0.001660 0.000000
# 3 -0.005053 -0.004035 0.015160 0.000000 0.003970 0.000000
# 4 0.000000 0.000000 0.000000 0.041499 0.000000 0.003745
# 5 0.000455 -0.001660 0.003970 0.000000 0.033567 0.000000
# 6 0.000000 0.000000 0.000000 0.003745 0.000000 0.028253
#
#
# Mechanical properties :
#
#
# Convention : Reuss Voigt Hill
#
# Bulk Modulus (GPa) = 49.79631 56.16700 52.98166
# Shear Modulus (GPa) = 25.31472 27.74234 26.52853
#
# Velocity S-wave (km/s) = 3.70935 3.88314 3.79724
# Velocity P-wave (km/s) = 6.73880 7.11572 6.92983
#
# Compressibility (1/GPa) = 0.02008181
#
# Stress axis : x y z
#
# Youngs Moduli (GPa) = 39.72417 74.30930 65.96122
#
# Poissons Ratio (x) = 0.57717 0.33330
# Poissons Ratio (y) = 0.30854 0.26613
# Poissons Ratio (z) = 0.20073 0.29981
#
# Static dielectric constant tensor:
#      x y z
#    x 1.699480 0.000000 0.001590 
#    y 0.000000 1.639240 0.000000 
#    z 0.001590 0.000000 1.688440 
# 
# From -- ./inp_files/150283.got.cif
#   From: 2010.05.17/outbox.ucp.g08.bks.cvg/sg12_76_cif.got.tgz:150283.got - 2010.06.11 11:47:21.
