data_PCOD9225765
_publ_section_title
;
Structure prediction by ZEFSAII (Michael W. Deem and Ramdas Pophale) SiO2 
 PCOD9225765
Probable space group: C 2/M
;
_chemical_formula_sum "Si O2"
_cell_formula_units_Z 24
_cell_length_a 15.000000
_cell_length_b 9.000000
_cell_length_c 27.000000
_cell_angle_alpha 90.000000
_cell_angle_beta 40.000000
_cell_angle_gamma 90.000000
_cell_volume 2342.960837
_symmetry_space_group_name_H-M "C 2/M"
_symmetry_group_IT_number 12
_symmetry_cell_setting 'monoclinic'
loop_
_space_group_symop_operation_xyz
x,y,z
-x,y,-z
-x,-y,-z
x,-y,z
1/2+x,1/2+y,z
1/2-x,1/2+y,-z
1/2-x,1/2-y,-z
1/2+x,1/2-y,z
loop_
_atom_site_type_symbol
_atom_site_label
_atom_site_fract_x
_atom_site_fract_y
_atom_site_fract_z
Si Si1 0.631827 0.325559 0.018107
Si Si2 0.396729 0.321901 0.422173
Si Si3 0.175299 0.324337 0.335051
Si Si4 0.847239 0.674608 0.174110
Si Si5 0.809023 0.673555 0.843529
Si Si6 0.425523 0.675482 0.293891
O O1 0.614216 0.500000 0.036483
O O2 0.490250 0.243390 0.092587
O O3 0.750000 0.250000 0.000000
O O4 0.696823 0.315065 0.935390
O O5 0.388694 0.500000 0.430887
O O6 0.250000 0.250000 0.500000
O O7 0.527890 0.256880 0.396222
O O8 0.432778 0.289405 0.349066
O O9 0.154190 0.500000 0.335721
O O10 0.278528 0.259271 0.249295
O O11 0.266239 0.302820 0.345556
O O12 0.862867 0.500000 0.177401
O O13 0.739457 0.708888 0.176383
O O14 0.807278 0.500000 0.828309
O O15 0.968174 0.724317 0.783715
O O16 0.456993 0.500000 0.272451
#
# Coordination Sequence:
#
# PCOD9225765 Si02
#       6
#     8   8   8   8   8   8
#     4  11  24  40  58  87 124 165 215 268 318 375
#     4  11  24  44  68  97 131 169 210 262 320 383
#     4  11  23  42  68  97 129 170 214 265 321 379
#     4  12  24  39  61  90 125 168 214 263 320 380
#     4  11  23  39  62  90 123 165 216 266 316 374
#     4  10  23  42  66  95 130 169 212 260 319 383
#
# _framework density 10.243449
#
# number of rings (size 3 to 8) (size 9 to 14) (size 15 to 20)
#    0.000    1.000    1.667    5.000    0.000   10.000 
#    0.000    3.333    0.000    0.000    0.000    0.000 
#    0.000    0.000    0.000    0.000    0.000    0.000 
#
# Total GULP energy -134086.519384 kJ/mol
# GULP energy per Si atom -5586.938308 kJ/mol
# Density = 1.022013 g / cm^3
# Si number density = 10.243449 Si / 1000 Ang^3
#
#
#
# Elastic Constant Matrix: (Units=GPa)
#
#
# Indices 1 2 3 4 5 6 
#
# 1 64.9227 15.8397 10.8654 0.0000 -31.8416 0.0000
# 2 15.8397 95.0805 36.8747 0.0000 -15.9682 0.0000
# 3 10.8654 36.8747 103.6454 0.0000 -41.4714 0.0000
# 4 0.0000 0.0000 0.0000 42.7015 0.0000 -11.8042
# 5 -31.8416 -15.9682 -41.4714 0.0000 36.6257 0.0000
# 6 0.0000 0.0000 0.0000 -11.8042 0.0000 29.0005
#
#
#
# Elastic Compliance Matrix: (Units=1/GPa)
#
#
# Indices 1 2 3 4 5 6 
#
# 1 0.040404 -0.005086 0.019640 0.000000 0.055147 0.000000
# 2 -0.005086 0.012852 -0.006521 0.000000 -0.006202 0.000000
# 3 0.019640 -0.006521 0.028529 0.000000 0.046535 0.000000
# 4 0.000000 0.000000 0.000000 0.026387 0.000000 0.010741
# 5 0.055147 -0.006202 0.046535 0.000000 0.125235 0.000000
# 6 0.000000 0.000000 0.000000 0.010741 0.000000 0.038854
#
#
# Mechanical properties :
#
#
# Convention : Reuss Voigt Hill
#
# Bulk Modulus (GPa) = 10.21965 43.42313 26.82139
# Shear Modulus (GPa) = 17.31220 35.00347 26.15783
#
# Velocity S-wave (km/s) = 2.91011 4.13798 3.57712
# Velocity P-wave (km/s) = 4.03619 6.63868 5.49377
#
# Compressibility (1/GPa) = 0.09785066
#
# Stress axis : x y z
#
# Youngs Moduli (GPa) = 24.75001 77.80825 35.05146
#
# Poissons Ratio (x) = 0.39575 -0.68840
# Poissons Ratio (y) = 0.12588 0.22857
# Poissons Ratio (z) = -0.48608 0.50739
#
# Static dielectric constant tensor:
#      x y z
#    x 1.806770 0.000000 -0.019420 
#    y 0.000000 1.680150 0.000000 
#    z -0.019420 0.000000 1.749770 
# 
# From -- ./inp_files/360247.got.cif
#   From: 2010.05.17/outbox.ucp.g08.bks.cvg/sg12_181_cif.got.tgz:360247.got - 2010.06.11 11:47:21.
