data_PCOD9225827
_publ_section_title
;
Structure prediction by ZEFSAII (Michael W. Deem and Ramdas Pophale) SiO2 
 PCOD9225827
Probable space group: C 2/M
;
_chemical_formula_sum "Si O2"
_cell_formula_units_Z 32
_cell_length_a 15.000000
_cell_length_b 30.000000
_cell_length_c 9.000000
_cell_angle_alpha 90.000000
_cell_angle_beta 120.000000
_cell_angle_gamma 90.000000
_cell_volume 3507.402885
_symmetry_space_group_name_H-M "C 2/M"
_symmetry_group_IT_number 12
_symmetry_cell_setting 'monoclinic'
loop_
_space_group_symop_operation_xyz
x,y,z
-x,y,-z
-x,-y,-z
x,-y,z
1/2+x,1/2+y,z
1/2-x,1/2+y,-z
1/2-x,1/2-y,-z
1/2+x,1/2-y,z
loop_
_atom_site_type_symbol
_atom_site_label
_atom_site_fract_x
_atom_site_fract_y
_atom_site_fract_z
Si Si1 0.378634 0.552907 0.580630
Si Si2 0.717506 0.650111 0.953390
Si Si3 0.876828 0.946903 0.219835
Si Si4 0.781417 0.150393 0.540210
Si Si5 0.580197 0.205029 0.949853
Si Si6 0.119443 0.199031 0.121264
Si Si7 0.078341 0.703664 0.447314
Si Si8 0.618602 0.299010 0.623117
O O1 0.352527 0.500000 0.601833
O O2 0.501135 0.558947 0.717156
O O3 0.368291 0.554261 0.392357
O O4 0.315885 0.597810 0.586134
O O5 0.685063 0.598183 0.890219
O O6 0.645430 0.687942 0.813424
O O7 0.832912 0.668890 0.019225
O O8 0.691828 0.662723 0.101059
O O9 0.850189 0.000000 0.155415
O O10 0.852302 0.186808 0.686792
O O11 0.665385 0.168015 0.475079
O O12 0.806925 0.165522 0.394497
O O13 0.501442 0.218286 0.750219
O O14 0.500000 0.184841 0.000000
O O15 0.629826 0.249708 0.069483
O O16 0.000000 0.188536 0.000000
O O17 0.127706 0.748112 0.568481
O O18 0.000000 0.682689 0.500000
O O19 0.500000 0.311000 0.500000
#
# Coordination Sequence:
#
# PCOD9225827 Si02
#       8
#     8   8   8   8   8   8   8   8
#     4   9  18  34  57  86 111 132 172 229 280 328
#     4  12  21  35  58  79 109 152 183 217 278 329
#     4   9  18  34  57  86 112 133 170 228 283 329
#     4  12  21  35  58  81 108 149 187 222 270 329
#     4  11  23  38  51  76 115 150 187 228 265 307
#     4  11  22  35  51  81 118 145 175 223 276 329
#     4  11  23  38  53  76 112 152 194 228 256 309
#     4  11  20  33  55  83 106 139 190 226 266 325
#
# _framework density 9.1235599999999994
#
# number of rings (size 3 to 8) (size 9 to 14) (size 15 to 20)
#    0.000    1.250    1.250    9.000    0.000    0.000 
#    0.000    0.625    0.000    3.750    0.000    0.000 
#    0.000    0.000    0.000    0.000    0.000    0.000 
#
# Total GULP energy -178146.677102 kJ/mol
# GULP energy per Si atom -5567.083659 kJ/mol
# Density = 0.910279 g / cm^3
# Si number density = 9.123560 Si / 1000 Ang^3
#
#
#
# Elastic Constant Matrix: (Units=GPa)
#
#
# Indices 1 2 3 4 5 6 
#
# 1 107.4891 47.0084 -7.1766 0.0000 10.3057 0.0000
# 2 47.0084 158.4081 6.3641 0.0000 13.5847 0.0000
# 3 -7.1766 6.3641 36.0828 0.0000 11.0946 0.0000
# 4 0.0000 0.0000 0.0000 24.5800 0.0000 5.6389
# 5 10.3057 13.5847 11.0946 0.0000 23.2805 0.0000
# 6 0.0000 0.0000 0.0000 5.6389 0.0000 33.1148
#
#
#
# Elastic Compliance Matrix: (Units=1/GPa)
#
#
# Indices 1 2 3 4 5 6 
#
# 1 0.011489 -0.003127 0.004499 0.000000 -0.005405 0.000000
# 2 -0.003127 0.007496 -0.001201 0.000000 -0.002418 0.000000
# 3 0.004499 -0.001201 0.034234 0.000000 -0.017605 0.000000
# 4 0.000000 0.000000 0.000000 0.042337 0.000000 -0.007209
# 5 -0.005405 -0.002418 -0.017605 0.000000 0.055148 0.000000
# 6 0.000000 0.000000 0.000000 -0.007209 0.000000 0.031426
#
#
# Mechanical properties :
#
#
# Convention : Reuss Voigt Hill
#
# Bulk Modulus (GPa) = 18.66990 43.81908 31.24449
# Shear Modulus (GPa) = 25.04484 33.24732 29.14608
#
# Velocity S-wave (km/s) = 3.70880 4.27319 4.00096
# Velocity P-wave (km/s) = 5.34735 6.95796 6.20513
#
# Compressibility (1/GPa) = 0.05356214
#
# Stress axis : x y z
#
# Youngs Moduli (GPa) = 87.03765 133.39983 29.21090
#
# Poissons Ratio (x) = 0.41710 -0.13141
# Poissons Ratio (y) = 0.27214 0.03507
# Poissons Ratio (z) = -0.39155 0.16016
#
# Static dielectric constant tensor:
#      x y z
#    x 1.659510 0.000000 -0.034360 
#    y 0.000000 1.621250 0.000000 
#    z -0.034360 0.000000 1.699810 
# 
# From -- ./inp_files/68277.got.cif
#   From: 2010.05.17/outbox.ucp.g08.bks.cvg/sg12_35_cif.got.tgz:68277.got - 2010.06.11 11:47:21.
