data_PCOD9225310
_publ_section_title
;
Structure prediction by ZEFSAII (Michael W. Deem and Ramdas Pophale) SiO2 
 PCOD9225310
Probable space group: C 2/M
;
_chemical_formula_sum "Si O2"
_cell_formula_units_Z 32
_cell_length_a 27.000000
_cell_length_b 15.000000
_cell_length_c 12.000000
_cell_angle_alpha 90.000000
_cell_angle_beta 140.000000
_cell_angle_gamma 90.000000
_cell_volume 3123.947783
_symmetry_space_group_name_H-M "C 2/M"
_symmetry_group_IT_number 12
_symmetry_cell_setting 'monoclinic'
loop_
_space_group_symop_operation_xyz
x,y,z
-x,y,-z
-x,-y,-z
x,-y,z
1/2+x,1/2+y,z
1/2-x,1/2+y,-z
1/2-x,1/2-y,-z
1/2+x,1/2-y,z
loop_
_atom_site_type_symbol
_atom_site_label
_atom_site_fract_x
_atom_site_fract_y
_atom_site_fract_z
Si Si1 0.928940 0.312519 0.299387
Si Si2 0.154209 0.226030 0.638195
Si Si3 0.702466 0.102538 0.077749
Si Si4 0.654525 0.102476 0.473447
Si Si5 0.909681 0.894675 0.666151
Si Si6 0.662034 0.600540 0.218090
Si Si7 0.602061 0.897342 0.126301
Si Si8 0.551293 0.267794 0.910263
O O1 0.888621 0.247492 0.319787
O O2 0.954280 0.259833 0.229868
O O3 0.000000 0.349859 0.500000
O O4 0.865138 0.378224 0.131331
O O5 0.236998 0.184506 0.818461
O O6 0.141683 0.316517 0.539963
O O7 0.123809 0.148150 0.504000
O O8 0.669354 0.104476 0.147783
O O9 0.731144 0.000000 0.109040
O O10 0.746648 0.098272 0.631931
O O11 0.627403 0.121145 0.298168
O O12 0.626424 0.000000 0.453292
O O13 0.857480 0.882295 0.685922
O O14 0.985204 0.837936 0.822839
O O15 0.923354 0.000000 0.676230
O O16 0.632299 0.500000 0.139099
O O17 0.627366 0.677543 0.079649
O O18 0.573693 0.000000 0.073233
O O19 0.547483 0.821722 0.978462
#
# Coordination Sequence:
#
# PCOD9225310 Si02
#       8
#     8   8   8   8   8   8   8   8
#     4  11  24  44  62  89 126 172 220 268 314 373
#     4  12  23  41  65  95 129 168 215 265 314 376
#     4  10  22  40  67  95 123 167 217 266 318 377
#     4  10  21  38  62  96 130 162 202 257 320 380
#     4  11  23  39  63  94 129 164 205 254 316 390
#     4  10  21  37  61  94 128 161 204 255 314 385
#     4   9  19  37  62  92 126 162 207 258 317 385
#     4  11  21  39  61  86 123 170 213 256 316 371
#
# _framework density 10.243449
#
# number of rings (size 3 to 8) (size 9 to 14) (size 15 to 20)
#    0.000    1.500    1.250    4.500    0.000    5.250 
#    0.000    5.000    0.000    3.000    0.000    0.000 
#    0.000    0.000    0.000    0.000    0.000    0.000 
#
# Total GULP energy -178484.452002 kJ/mol
# GULP energy per Si atom -5577.639125 kJ/mol
# Density = 1.022013 g / cm^3
# Si number density = 10.243449 Si / 1000 Ang^3
#
#
#
# Elastic Constant Matrix: (Units=GPa)
#
#
# Indices 1 2 3 4 5 6 
#
# 1 71.7460 32.1962 20.2873 0.0000 -14.1282 0.0000
# 2 32.1962 136.3135 45.7099 0.0000 -10.9195 0.0000
# 3 20.2873 45.7099 123.1759 0.0000 -20.4102 0.0000
# 4 0.0000 0.0000 0.0000 32.9178 0.0000 -2.7380
# 5 -14.1282 -10.9195 -20.4102 0.0000 36.0427 0.0000
# 6 0.0000 0.0000 0.0000 -2.7380 0.0000 22.2700
#
#
#
# Elastic Compliance Matrix: (Units=1/GPa)
#
#
# Indices 1 2 3 4 5 6 
#
# 1 0.016614 -0.003290 -0.000664 0.000000 0.005140 0.000000
# 2 -0.003290 0.009054 -0.002844 0.000000 -0.000157 0.000000
# 3 -0.000664 -0.002844 0.010039 0.000000 0.004563 0.000000
# 4 0.000000 0.000000 0.000000 0.030693 0.000000 0.003774
# 5 0.005140 -0.000157 0.004563 0.000000 0.032296 0.000000
# 6 0.000000 0.000000 0.000000 0.003774 0.000000 0.045367
#
#
# Mechanical properties :
#
#
# Convention : Reuss Voigt Hill
#
# Bulk Modulus (GPa) = 45.22403 58.62468 51.92436
# Shear Modulus (GPa) = 30.29746 33.78223 32.03984
#
# Velocity S-wave (km/s) = 3.84978 4.06515 3.95893
# Velocity P-wave (km/s) = 6.47175 7.12122 6.80424
#
# Compressibility (1/GPa) = 0.02211214
#
# Stress axis : x y z
#
# Youngs Moduli (GPa) = 60.18938 110.44601 99.60768
#
# Poissons Ratio (x) = 0.36334 0.06613
# Poissons Ratio (y) = 0.19801 0.28330
# Poissons Ratio (z) = 0.03996 0.31413
#
# Static dielectric constant tensor:
#      x y z
#    x 1.748770 0.000000 0.074750 
#    y 0.000000 1.748730 0.000000 
#    z 0.074750 0.000000 1.762330 
# 
# From -- ./inp_files/183852.got.cif
#   From: 2010.05.17/outbox.ucp.g08.bks.cvg/sg12_92_cif.got.tgz:183852.got - 2010.06.11 11:47:21.
