data_PCOD9225625
_publ_section_title
;
Structure prediction by ZEFSAII (Michael W. Deem and Ramdas Pophale) SiO2 
 PCOD9225625
Probable space group: C 2/M
;
_chemical_formula_sum "Si O2"
_cell_formula_units_Z 28
_cell_length_a 12.000000
_cell_length_b 15.000000
_cell_length_c 30.000000
_cell_angle_alpha 90.000000
_cell_angle_beta 30.000000
_cell_angle_gamma 90.000000
_cell_volume 2700.000000
_symmetry_space_group_name_H-M "C 2/M"
_symmetry_group_IT_number 12
_symmetry_cell_setting 'monoclinic'
loop_
_space_group_symop_operation_xyz
x,y,z
-x,y,-z
-x,-y,-z
x,-y,z
1/2+x,1/2+y,z
1/2-x,1/2+y,-z
1/2-x,1/2-y,-z
1/2+x,1/2-y,z
loop_
_atom_site_type_symbol
_atom_site_label
_atom_site_fract_x
_atom_site_fract_y
_atom_site_fract_z
Si Si1 0.683485 0.604044 0.622579
Si Si2 0.739287 0.596512 0.182835
Si Si3 0.963751 0.150285 0.198283
Si Si4 0.242877 0.728652 0.660212
Si Si5 0.514188 0.102278 0.668878
Si Si6 0.670467 0.395218 0.524431
Si Si7 0.876846 0.292000 0.998169
O O1 0.727699 0.500000 0.619474
O O2 0.414106 0.620068 0.721656
O O3 0.787079 0.679747 0.617822
O O4 0.746167 0.613830 0.549329
O O5 0.840686 0.500000 0.155699
O O6 0.551384 0.593757 0.209526
O O7 0.924845 0.658055 0.096798
O O8 0.882895 0.242087 0.250717
O O9 0.746726 0.111677 0.250298
O O10 0.173266 0.156665 0.092802
O O11 0.086737 0.669120 0.682465
O O12 0.465025 0.671745 0.589701
O O13 0.647432 0.123792 0.576905
O O14 0.568575 0.000000 0.661806
O O15 0.604798 0.500000 0.541600
O O16 0.750000 0.250000 0.000000
O O17 0.000000 0.751169 0.000000
#
# Coordination Sequence:
#
# PCOD9225625 Si02
#       7
#     8   8   8   8   8   8   8
#     4   9  20  39  62  88 123 159 206 261 316 377
#     4   9  19  39  64  90 118 160 209 257 319 387
#     4  10  23  37  61  91 121 157 207 266 318 379
#     4  11  22  36  62  87 123 163 212 256 321 386
#     4  11  24  40  60  89 125 164 215 268 316 380
#     4  10  22  40  60  85 121 168 213 260 319 385
#     4  10  23  39  66  94 128 167 206 262 322 393
#
# _framework density 10.370369999999999
#
# number of rings (size 3 to 8) (size 9 to 14) (size 15 to 20)
#    0.000    2.000    0.000    2.143    8.000    8.286 
#    0.000    2.143    0.000   13.286    0.000    0.000 
#    0.000    0.000    0.000    0.000    0.000    0.000 
#
# Total GULP energy -156122.716016 kJ/mol
# GULP energy per Si atom -5575.811286 kJ/mol
# Density = 1.034677 g / cm^3
# Si number density = 10.370370 Si / 1000 Ang^3
#
#
#
# Elastic Constant Matrix: (Units=GPa)
#
#
# Indices 1 2 3 4 5 6 
#
# 1 51.4322 28.8274 9.3958 -0.0117 -6.3194 0.0095
# 2 28.8274 80.6885 26.6988 -0.0068 -9.0570 0.0063
# 3 9.3958 26.6988 87.3133 -0.0705 -12.5141 0.0087
# 4 -0.0117 -0.0068 -0.0705 14.5726 0.0095 0.6486
# 5 -6.3194 -9.0570 -12.5141 0.0095 31.1839 0.0081
# 6 0.0095 0.0063 0.0087 0.6486 0.0081 27.4655
#
#
#
# Elastic Compliance Matrix: (Units=1/GPa)
#
#
# Indices 1 2 3 4 5 6 
#
# 1 0.024509 -0.008582 0.000362 0.000016 0.002620 -0.000008
# 2 -0.008582 0.016973 -0.004042 -0.000020 0.001568 0.000000
# 3 0.000362 -0.004042 0.013255 0.000060 0.004219 -0.000006
# 4 0.000016 -0.000020 0.000060 0.068694 0.000001 -0.001622
# 5 0.002620 0.001568 0.004219 0.000001 0.034747 -0.000013
# 6 -0.000008 0.000000 -0.000006 -0.001622 -0.000013 0.036448
#
#
# Mechanical properties :
#
#
# Convention : Reuss Voigt Hill
#
# Bulk Modulus (GPa) = 33.09791 38.80867 35.95329
# Shear Modulus (GPa) = 21.81315 24.94520 23.37917
#
# Velocity S-wave (km/s) = 3.24652 3.47178 3.36104
# Velocity P-wave (km/s) = 5.48140 5.90110 5.69512
#
# Compressibility (1/GPa) = 0.03021339
#
# Stress axis : x y z
#
# Youngs Moduli (GPa) = 40.80142 58.91767 75.44565
#
# Poissons Ratio (x) = 0.50564 -0.02733
# Poissons Ratio (y) = 0.35016 0.30493
# Poissons Ratio (z) = -0.01478 0.23813
#
# Static dielectric constant tensor:
#      x y z
#    x 1.807310 0.000010 0.034740 
#    y 0.000010 1.772930 0.000000 
#    z 0.034740 0.000000 1.792920 
# 
# From -- ./inp_files/374193.got.cif
#   From: 2010.05.17/outbox.ucp.g08.bks.cvg/sg12_188_cif.got.tgz:374193.got - 2010.06.11 11:47:21.
