data_PCOD9225829
_publ_section_title
;
Structure prediction by ZEFSAII (Michael W. Deem and Ramdas Pophale) SiO2 
 PCOD9225829
Probable space group: C 2/M
;
_chemical_formula_sum "Si O2"
_cell_formula_units_Z 28
_cell_length_a 9.000000
_cell_length_b 30.000000
_cell_length_c 12.000000
_cell_angle_alpha 90.000000
_cell_angle_beta 60.000000
_cell_angle_gamma 90.000000
_cell_volume 2805.922308
_symmetry_space_group_name_H-M "C 2/M"
_symmetry_group_IT_number 12
_symmetry_cell_setting 'monoclinic'
loop_
_space_group_symop_operation_xyz
x,y,z
-x,y,-z
-x,-y,-z
x,-y,z
1/2+x,1/2+y,z
1/2-x,1/2+y,-z
1/2-x,1/2-y,-z
1/2+x,1/2-y,z
loop_
_atom_site_type_symbol
_atom_site_label
_atom_site_fract_x
_atom_site_fract_y
_atom_site_fract_z
Si Si1 0.486803 0.115453 0.636237
Si Si2 0.847566 0.890832 0.640433
Si Si3 0.794880 0.097056 0.072221
Si Si4 0.171981 0.289716 0.274250
Si Si5 0.700587 0.050971 0.900809
Si Si6 0.669734 0.814099 0.014266
Si Si7 0.531705 0.698569 0.275092
O O1 0.500000 0.100743 0.500000
O O2 0.668952 0.111415 0.634777
O O3 0.322686 0.094671 0.770023
O O4 0.443335 0.167965 0.652189
O O5 0.791833 0.919272 0.771101
O O6 0.927360 0.844733 0.663156
O O7 0.000000 0.907727 0.500000
O O8 0.692025 0.134539 0.040432
O O9 0.788281 0.055968 0.989495
O O10 0.000000 0.109650 0.000000
O O11 0.187250 0.292083 0.131394
O O12 0.347527 0.296057 0.280652
O O13 0.079538 0.242637 0.327599
O O14 0.709008 0.000000 0.858938
O O15 0.500000 0.061276 0.000000
O O16 0.500000 0.806010 0.000000
O O17 0.830642 0.803830 0.876456
#
# Coordination Sequence:
#
# PCOD9225829 Si02
#       7
#     8   8   8   8   8   8   8
#     4  11  24  43  64  99 138 183 223 281 333 403
#     4  12  26  43  72 101 136 184 227 278 348 415
#     4  11  22  39  71 101 131 172 225 278 335 405
#     4  11  24  37  60  92 134 181 231 290 330 391
#     4  11  24  47  76 105 136 174 225 285 344 411
#     4  11  20  34  58  91 129 175 226 282 338 395
#     4  12  22  40  59  93 133 178 235 280 341 394
#
# _framework density 9.9788940000000004
#
# number of rings (size 3 to 8) (size 9 to 14) (size 15 to 20)
#    0.000    0.714    2.857    7.286    2.000    1.143 
#    0.000    2.857    0.000    0.857    0.000    0.000 
#    0.000    0.000    0.000    0.000    0.000    0.000 
#
# Total GULP energy -156128.416398 kJ/mol
# GULP energy per Si atom -5576.014871 kJ/mol
# Density = 0.995618 g / cm^3
# Si number density = 9.978894 Si / 1000 Ang^3
#
#
#
# Elastic Constant Matrix: (Units=GPa)
#
#
# Indices 1 2 3 4 5 6 
#
# 1 159.1937 32.0190 47.0569 0.0000 3.5659 0.0000
# 2 32.0190 79.7276 32.6472 0.0000 -1.3115 0.0000
# 3 47.0569 32.6472 157.4233 0.0000 -0.4602 0.0000
# 4 0.0000 0.0000 0.0000 5.5838 0.0000 3.2302
# 5 3.5659 -1.3115 -0.4602 0.0000 39.8085 0.0000
# 6 0.0000 0.0000 0.0000 3.2302 0.0000 19.2031
#
#
#
# Elastic Compliance Matrix: (Units=1/GPa)
#
#
# Indices 1 2 3 4 5 6 
#
# 1 0.007251 -0.002225 -0.001708 0.000000 -0.000743 0.000000
# 2 -0.002225 0.014396 -0.002319 0.000000 0.000647 0.000000
# 3 -0.001708 -0.002319 0.007344 0.000000 0.000162 0.000000
# 4 0.000000 0.000000 0.000000 0.198396 0.000000 -0.033372
# 5 -0.000743 0.000647 0.000162 0.000000 0.025210 0.000000
# 6 0.000000 0.000000 0.000000 -0.033372 0.000000 0.057688
#
#
# Mechanical properties :
#
#
# Convention : Reuss Voigt Hill
#
# Bulk Modulus (GPa) = 60.64969 68.86565 64.75767
# Shear Modulus (GPa) = 15.23067 31.89385 23.56226
#
# Velocity S-wave (km/s) = 2.76550 4.00192 3.43972
# Velocity P-wave (km/s) = 6.37592 7.47893 6.94934
#
# Compressibility (1/GPa) = 0.01648813
#
# Stress axis : x y z
#
# Youngs Moduli (GPa) = 137.91839 69.46256 136.16117
#
# Poissons Ratio (x) = 0.15453 0.23259
# Poissons Ratio (y) = 0.30682 0.31571
# Poissons Ratio (z) = 0.23559 0.16106
#
# Static dielectric constant tensor:
#      x y z
#    x 1.734240 0.000000 0.014010 
#    y 0.000000 1.791420 0.000000 
#    z 0.014010 0.000000 1.732860 
# 
# From -- ./inp_files/125596.got.cif
#   From: 2010.05.17/outbox.ucp.g08.bks.cvg/sg12_63_cif.got.tgz:125596.got - 2010.06.11 11:47:21.
