data_PCOD9225081
_publ_section_title
;
Structure prediction by ZEFSAII (Michael W. Deem and Ramdas Pophale) SiO2 
 PCOD9225081
Probable space group: C 2/M
;
_chemical_formula_sum "Si O2"
_cell_formula_units_Z 32
_cell_length_a 30.000000
_cell_length_b 9.000000
_cell_length_c 18.000000
_cell_angle_alpha 90.000000
_cell_angle_beta 140.000000
_cell_angle_gamma 90.000000
_cell_volume 3123.947783
_symmetry_space_group_name_H-M "C 2/M"
_symmetry_group_IT_number 12
_symmetry_cell_setting 'monoclinic'
loop_
_space_group_symop_operation_xyz
x,y,z
-x,y,-z
-x,-y,-z
x,-y,z
1/2+x,1/2+y,z
1/2-x,1/2+y,-z
1/2-x,1/2-y,-z
1/2+x,1/2-y,z
loop_
_atom_site_type_symbol
_atom_site_label
_atom_site_fract_x
_atom_site_fract_y
_atom_site_fract_z
Si Si1 0.685203 0.823140 0.456872
Si Si2 0.455056 0.820528 0.011519
Si Si3 0.467987 0.822604 0.745869
Si Si4 0.438772 0.324029 0.245122
Si Si5 0.304998 0.826410 0.015801
Si Si6 0.920255 0.669215 0.376449
Si Si7 0.705056 0.828185 0.172219
Si Si8 0.330340 0.174593 0.396894
O O1 0.750000 0.750000 0.500000
O O2 0.610083 0.799866 0.324981
O O3 0.671032 0.764373 0.521890
O O4 0.697966 0.000000 0.476851
O O5 0.483477 0.765658 0.126338
O O6 0.464554 0.000000 0.025976
O O7 0.500000 0.763819 0.000000
O O8 0.373452 0.796670 0.904128
O O9 0.490907 0.745831 0.698565
O O10 0.476844 0.000000 0.745394
O O11 0.441783 0.500000 0.246709
O O12 0.377214 0.257994 0.116800
O O13 0.418715 0.267257 0.301199
O O14 0.313235 0.000000 0.045974
O O15 0.250000 0.750000 0.000000
O O16 0.285434 0.820044 0.904389
O O17 0.894170 0.500000 0.327865
O O18 0.880038 0.735019 0.395823
O O19 0.000000 0.657566 0.500000
O O20 0.754098 0.707069 0.270436
O O21 0.721556 0.000000 0.215263
O O22 0.347828 0.000000 0.425233
#
# Coordination Sequence:
#
# PCOD9225081 Si02
#       8
#     8   8   8   8   8   8   8   8
#     4  10  23  41  64  91 120 158 203 248 302 360
#     4   9  18  34  60  90 113 143 199 255 297 347
#     4  10  20  40  65  87 117 160 207 253 297 357
#     4  12  24  37  58  90 125 159 196 246 307 365
#     4  11  22  38  58  85 120 159 204 249 294 356
#     4  10  21  40  65  87 113 158 210 254 300 357
#     4  10  21  37  59  87 118 153 197 246 295 352
#     4  10  22  39  58  87 123 156 195 246 300 362
#
# _framework density 10.243449
#
# number of rings (size 3 to 8) (size 9 to 14) (size 15 to 20)
#    0.000    1.750    1.250    3.000    1.750    6.750 
#    0.000    1.250    0.000    0.750    0.000    0.000 
#    0.000    0.000    0.000    0.000    0.000    0.000 
#
# Total GULP energy -178535.851507 kJ/mol
# GULP energy per Si atom -5579.245360 kJ/mol
# Density = 1.022013 g / cm^3
# Si number density = 10.243449 Si / 1000 Ang^3
#
#
#
# Elastic Constant Matrix: (Units=GPa)
#
#
# Indices 1 2 3 4 5 6 
#
# 1 154.2701 25.2201 22.6845 0.0000 12.3385 0.0000
# 2 25.2201 41.9129 7.9067 0.0000 7.0451 0.0000
# 3 22.6845 7.9067 36.6205 0.0000 -2.7549 0.0000
# 4 0.0000 0.0000 0.0000 18.0621 0.0000 9.3686
# 5 12.3385 7.0451 -2.7549 0.0000 16.8183 0.0000
# 6 0.0000 0.0000 0.0000 9.3686 0.0000 28.2047
#
#
#
# Elastic Compliance Matrix: (Units=1/GPa)
#
#
# Indices 1 2 3 4 5 6 
#
# 1 0.008123 -0.003069 -0.004780 0.000000 -0.005457 0.000000
# 2 -0.003069 0.028413 -0.005022 0.000000 -0.010473 0.000000
# 3 -0.004780 -0.005022 0.032171 0.000000 0.010880 0.000000
# 4 0.000000 0.000000 0.000000 0.066889 0.000000 -0.022218
# 5 -0.005457 -0.010473 0.010880 0.000000 0.069632 0.000000
# 6 0.000000 0.000000 0.000000 -0.022218 0.000000 0.042835
#
#
# Mechanical properties :
#
#
# Convention : Reuss Voigt Hill
#
# Bulk Modulus (GPa) = 23.27387 38.26956 30.77171
# Shear Modulus (GPa) = 17.35356 24.41651 20.88504
#
# Velocity S-wave (km/s) = 2.91358 3.45601 3.19632
# Velocity P-wave (km/s) = 4.76483 5.88607 5.35488
#
# Compressibility (1/GPa) = 0.04296665
#
# Stress axis : x y z
#
# Youngs Moduli (GPa) = 123.10547 35.19460 31.08435
#
# Poissons Ratio (x) = 0.10801 0.14857
# Poissons Ratio (y) = 0.37781 0.15609
# Poissons Ratio (z) = 0.58841 0.17673
#
# Static dielectric constant tensor:
#      x y z
#    x 1.705480 0.000000 -0.094690 
#    y 0.000000 1.705610 0.000000 
#    z -0.094690 0.000000 1.619030 
# 
# From -- ./inp_files/295775.got.cif
#   From: 2010.05.17/outbox.ucp.g08.bks.cvg/sg12_148_cif.got.tgz:295775.got - 2010.06.11 11:47:21.
