data_PCOD9225371
_publ_section_title
;
Structure prediction by ZEFSAII (Michael W. Deem and Ramdas Pophale) SiO2 
 PCOD9225371
Probable space group: C 2/M
;
_chemical_formula_sum "Si O2"
_cell_formula_units_Z 24
_cell_length_a 15.000000
_cell_length_b 9.000000
_cell_length_c 27.000000
_cell_angle_alpha 90.000000
_cell_angle_beta 140.000000
_cell_angle_gamma 90.000000
_cell_volume 2342.960837
_symmetry_space_group_name_H-M "C 2/M"
_symmetry_group_IT_number 12
_symmetry_cell_setting 'monoclinic'
loop_
_space_group_symop_operation_xyz
x,y,z
-x,y,-z
-x,-y,-z
x,-y,z
1/2+x,1/2+y,z
1/2-x,1/2+y,-z
1/2-x,1/2-y,-z
1/2+x,1/2-y,z
loop_
_atom_site_type_symbol
_atom_site_label
_atom_site_fract_x
_atom_site_fract_y
_atom_site_fract_z
Si Si1 0.322449 0.318794 0.797381
Si Si2 0.094375 0.174449 0.328759
Si Si3 0.633235 0.668806 0.521872
Si Si4 0.962778 0.324417 0.364062
Si Si5 0.077050 0.174497 0.845969
Si Si6 0.656697 0.320867 0.080818
O O1 0.320138 0.500000 0.795013
O O2 0.198344 0.272622 0.707344
O O3 0.474352 0.270159 0.844963
O O4 0.304598 0.272853 0.846627
O O5 0.251968 0.230537 0.402265
O O6 0.013215 0.283613 0.330840
O O7 0.020731 0.186749 0.244441
O O8 0.086079 0.000000 0.339972
O O9 0.500000 0.659463 0.500000
O O10 0.685352 0.500000 0.534769
O O11 0.570844 0.742109 0.445819
O O12 0.965965 0.500000 0.375912
O O13 0.221078 0.258463 0.901209
O O14 0.106145 0.000000 0.865699
O O15 0.659091 0.500000 0.080299
O O16 0.500000 0.274375 0.000000
#
# Coordination Sequence:
#
# PCOD9225371 Si02
#       6
#     8   8   8   8   8   8
#     4   9  19  37  60  86 118 157 196 237 294 353
#     4  11  22  37  58  84 115 152 199 247 296 350
#     4  11  24  39  55  81 117 154 197 249 296 344
#     4  11  21  37  61  83 113 157 200 242 294 352
#     4  10  21  38  61  87 118 155 197 244 290 349
#     4  10  21  39  62  88 120 155 193 240 295 357
#
# _framework density 10.243449
#
# number of rings (size 3 to 8) (size 9 to 14) (size 15 to 20)
#    0.000    1.667    1.667    3.000    0.000    4.333 
#    0.000    2.500    0.000    0.000    0.000    0.000 
#    0.000    0.000    0.000    0.000    0.000    0.000 
#
# Total GULP energy -133951.439463 kJ/mol
# GULP energy per Si atom -5581.309978 kJ/mol
# Density = 1.022013 g / cm^3
# Si number density = 10.243449 Si / 1000 Ang^3
#
#
#
# Elastic Constant Matrix: (Units=GPa)
#
#
# Indices 1 2 3 4 5 6 
#
# 1 62.8865 -6.8888 -1.0407 0.0000 26.8984 0.0000
# 2 -6.8888 34.8316 12.8982 0.0000 4.9141 0.0000
# 3 -1.0407 12.8982 78.0989 0.0000 33.6786 0.0000
# 4 0.0000 0.0000 0.0000 50.4996 0.0000 16.6475
# 5 26.8984 4.9141 33.6786 0.0000 37.1884 0.0000
# 6 0.0000 0.0000 0.0000 16.6475 0.0000 25.3589
#
#
#
# Elastic Compliance Matrix: (Units=1/GPa)
#
#
# Indices 1 2 3 4 5 6 
#
# 1 0.034724 0.006306 0.017411 0.000000 -0.041717 0.000000
# 2 0.006306 0.031742 -0.002269 0.000000 -0.006701 0.000000
# 3 0.017411 -0.002269 0.030703 0.000000 -0.040098 0.000000
# 4 0.000000 0.000000 0.000000 0.025271 0.000000 -0.016590
# 5 -0.041717 -0.006701 -0.040098 0.000000 0.094263 0.000000
# 6 0.000000 0.000000 0.000000 -0.016590 0.000000 0.050325
#
#
# Mechanical properties :
#
#
# Convention : Reuss Voigt Hill
#
# Bulk Modulus (GPa) = 7.13960 20.63938 13.88949
# Shear Modulus (GPa) = 18.46245 33.99927 26.23086
#
# Velocity S-wave (km/s) = 3.00523 4.07819 3.58211
# Velocity P-wave (km/s) = 3.94137 5.68083 4.88908
#
# Compressibility (1/GPa) = 0.14006388
#
# Stress axis : x y z
#
# Youngs Moduli (GPa) = 28.79856 31.50390 32.57059
#
# Poissons Ratio (x) = -0.19865 -0.56708
# Poissons Ratio (y) = -0.18159 0.07390
# Poissons Ratio (z) = -0.50140 0.07147
#
# Static dielectric constant tensor:
#      x y z
#    x 1.803530 0.000000 -0.014060 
#    y 0.000000 1.695560 0.000000 
#    z -0.014060 0.000000 1.761270 
# 
# From -- ./inp_files/274603.got.cif
#   From: 2010.05.17/outbox.ucp.g08.bks.cvg/sg12_138_cif.got.tgz:274603.got - 2010.06.11 11:47:21.
