data_PCOD9225700
_publ_section_title
;
Structure prediction by ZEFSAII (Michael W. Deem and Ramdas Pophale) SiO2 
 PCOD9225700
Probable space group: C 2/M
;
_chemical_formula_sum "Si O2"
_cell_formula_units_Z 28
_cell_length_a 15.000000
_cell_length_b 15.000000
_cell_length_c 24.000000
_cell_angle_alpha 90.000000
_cell_angle_beta 30.000000
_cell_angle_gamma 90.000000
_cell_volume 2700.000000
_symmetry_space_group_name_H-M "C 2/M"
_symmetry_group_IT_number 12
_symmetry_cell_setting 'monoclinic'
loop_
_space_group_symop_operation_xyz
x,y,z
-x,y,-z
-x,-y,-z
x,-y,z
1/2+x,1/2+y,z
1/2-x,1/2+y,-z
1/2-x,1/2-y,-z
1/2+x,1/2-y,z
loop_
_atom_site_type_symbol
_atom_site_label
_atom_site_fract_x
_atom_site_fract_y
_atom_site_fract_z
Si Si1 0.390419 0.896343 0.330017
Si Si2 0.156136 0.345426 0.870728
Si Si3 0.043302 0.896661 0.700404
Si Si4 0.523206 0.393069 0.135070
Si Si5 0.574941 0.892175 0.112569
Si Si6 0.619405 0.235465 0.491551
Si Si7 0.672505 0.823765 0.260846
O O1 0.484335 0.869305 0.220662
O O2 0.224692 0.829995 0.431840
O O3 0.544641 0.886418 0.293350
O O4 0.334630 0.000000 0.356940
O O5 0.349835 0.392972 0.773725
O O6 0.225336 0.244073 0.835520
O O7 0.056510 0.359727 0.865574
O O8 0.000000 0.367259 0.000000
O O9 0.214392 0.835168 0.591235
O O10 0.994243 0.869110 0.790364
O O11 0.102022 0.000000 0.667702
O O12 0.529647 0.500000 0.127968
O O13 0.338740 0.364389 0.205192
O O14 0.717748 0.361059 0.006889
O O15 0.579442 0.000000 0.106528
O O16 0.500000 0.221403 0.500000
O O17 0.471273 0.225373 0.620595
#
# Coordination Sequence:
#
# PCOD9225700 Si02
#       7
#     8   8   8   8   8   8   8
#     4  11  26  47  70  96 136 184 228 276 336 404
#     4  12  25  41  70 103 136 177 224 282 344 400
#     4  11  24  43  70 103 137 176 222 280 345 398
#     4  10  22  41  68 101 136 176 221 277 341 401
#     4  10  23  43  68 100 136 176 225 278 336 406
#     4  12  25  48  71  98 137 177 231 288 332 395
#     4  12  26  43  67 100 138 180 227 277 334 404
#
# _framework density 10.370369999999999
#
# number of rings (size 3 to 8) (size 9 to 14) (size 15 to 20)
#    0.000    0.857    4.286    2.143    2.000    2.857 
#    0.000    2.857    0.000    0.000    0.000    0.000 
#    0.000    0.000    0.000    0.000    0.000    0.000 
#
# Total GULP energy -156392.435773 kJ/mol
# GULP energy per Si atom -5585.444135 kJ/mol
# Density = 1.034677 g / cm^3
# Si number density = 10.370370 Si / 1000 Ang^3
#
#
#
# Elastic Constant Matrix: (Units=GPa)
#
#
# Indices 1 2 3 4 5 6 
#
# 1 135.7911 14.5533 47.7172 -0.0003 -24.0846 -0.0005
# 2 14.5533 81.7256 36.7200 -0.0010 -8.6262 -0.0002
# 3 47.7172 36.7200 130.3036 -0.0031 -28.9416 -0.0008
# 4 -0.0003 -0.0010 -0.0031 32.1260 0.0011 -9.6547
# 5 -24.0846 -8.6262 -28.9416 0.0011 44.0309 0.0004
# 6 -0.0005 -0.0002 -0.0008 -9.6547 0.0004 32.9006
#
#
#
# Elastic Compliance Matrix: (Units=1/GPa)
#
#
# Indices 1 2 3 4 5 6 
#
# 1 0.008813 -0.000116 -0.002493 0.000000 0.003159 0.000000
# 2 -0.000116 0.014013 -0.003877 0.000000 0.000134 0.000000
# 3 -0.002493 -0.003877 0.010782 0.000001 0.004964 0.000000
# 4 0.000000 0.000000 0.000001 0.034138 -0.000001 0.010018
# 5 0.003159 0.000134 0.004964 -0.000001 0.027729 0.000000
# 6 0.000000 0.000000 0.000000 0.010018 0.000000 0.033334
#
#
# Mechanical properties :
#
#
# Convention : Reuss Voigt Hill
#
# Bulk Modulus (GPa) = 48.45643 60.64458 54.55050
# Shear Modulus (GPa) = 33.63400 38.40016 36.01708
#
# Velocity S-wave (km/s) = 4.03133 4.30750 4.17170
# Velocity P-wave (km/s) = 6.71435 7.35134 7.04005
#
# Compressibility (1/GPa) = 0.02063709
#
# Stress axis : x y z
#
# Youngs Moduli (GPa) = 113.46788 71.36418 92.74404
#
# Poissons Ratio (x) = 0.00826 0.23121
# Poissons Ratio (y) = 0.01314 0.35954
# Poissons Ratio (z) = 0.28287 0.27666
#
# Static dielectric constant tensor:
#      x y z
#    x 1.757310 0.000000 0.029320 
#    y 0.000000 1.781650 0.000000 
#    z 0.029320 0.000000 1.706950 
# 
# From -- ./inp_files/240911.got.cif
#   From: 2010.05.17/outbox.ucp.g08.bks.cvg/sg12_121_cif.got.tgz:240911.got - 2010.06.11 11:47:21.
