data_PCOD9225603
_publ_section_title
;
Structure prediction by ZEFSAII (Michael W. Deem and Ramdas Pophale) SiO2 
 PCOD9225603
Probable space group: C 2/M
;
_chemical_formula_sum "Si O2"
_cell_formula_units_Z 24
_cell_length_a 27.000000
_cell_length_b 9.000000
_cell_length_c 15.000000
_cell_angle_alpha 90.000000
_cell_angle_beta 40.000000
_cell_angle_gamma 90.000000
_cell_volume 2342.960837
_symmetry_space_group_name_H-M "C 2/M"
_symmetry_group_IT_number 12
_symmetry_cell_setting 'monoclinic'
loop_
_space_group_symop_operation_xyz
x,y,z
-x,y,-z
-x,-y,-z
x,-y,z
1/2+x,1/2+y,z
1/2-x,1/2+y,-z
1/2-x,1/2-y,-z
1/2+x,1/2-y,z
loop_
_atom_site_type_symbol
_atom_site_label
_atom_site_fract_x
_atom_site_fract_y
_atom_site_fract_z
Si Si1 0.085224 0.823246 0.858812
Si Si2 0.841171 0.177975 0.742137
Si Si3 0.586485 0.822490 0.521967
Si Si4 0.174722 0.823234 0.559999
Si Si5 0.175158 0.677528 0.889763
Si Si6 0.588905 0.822448 0.184735
O O1 0.107505 0.798678 0.725673
O O2 0.149490 0.752086 0.833767
O O3 0.086167 0.000000 0.873319
O O4 0.000000 0.765685 0.000000
O O5 0.901375 0.251736 0.591427
O O6 0.757637 0.219579 0.817363
O O7 0.857881 0.239881 0.816990
O O8 0.847277 0.000000 0.733423
O O9 0.647797 0.751156 0.505515
O O10 0.500228 0.789109 0.674009
O O11 0.596403 0.000000 0.504877
O O12 0.250000 0.750000 0.500000
O O13 0.186307 0.000000 0.531822
O O14 0.175798 0.500000 0.876061
O O15 0.113072 0.716740 0.051361
O O16 0.600455 0.000000 0.179431
#
# Coordination Sequence:
#
# PCOD9225603 Si02
#       6
#     8   8   8   8   8   8
#     4  10  22  39  59  85 115 148 188 234 284 336
#     4  11  23  38  59  87 117 150 190 236 285 340
#     4  11  23  39  60  85 115 152 192 236 285 338
#     4  11  23  39  60  86 117 152 191 236 284 338
#     4  10  22  39  59  85 115 149 190 234 282 337
#     4  10  22  40  60  84 115 151 192 236 284 338
#
# _framework density 10.243449
#
# number of rings (size 3 to 8) (size 9 to 14) (size 15 to 20)
#    0.000    1.500    0.000    4.500    0.000    9.667 
#    0.000    0.000    0.000    0.000    0.000    0.000 
#    0.000    0.000    0.000    0.000    0.000    0.000 
#
# Total GULP energy -134246.351874 kJ/mol
# GULP energy per Si atom -5593.597995 kJ/mol
# Density = 1.022013 g / cm^3
# Si number density = 10.243449 Si / 1000 Ang^3
#
#
#
# Elastic Constant Matrix: (Units=GPa)
#
#
# Indices 1 2 3 4 5 6 
#
# 1 72.9514 8.3164 -18.3975 -0.0001 7.1845 0.0000
# 2 8.3164 13.4876 10.0843 -0.0006 0.1233 0.0003
# 3 -18.3975 10.0843 51.2053 -0.0002 -1.8470 0.0001
# 4 -0.0001 -0.0006 -0.0002 24.0103 0.0000 -0.4435
# 5 7.1845 0.1233 -1.8470 0.0000 34.1393 0.0000
# 6 0.0000 0.0003 0.0001 -0.4435 0.0000 31.3516
#
#
#
# Elastic Compliance Matrix: (Units=1/GPa)
#
#
# Indices 1 2 3 4 5 6 
#
# 1 0.018909 -0.019488 0.010511 0.000000 -0.003340 0.000000
# 2 -0.019488 0.107082 -0.028011 0.000003 0.002199 -0.000001
# 3 0.010511 -0.028011 0.028802 -0.000001 -0.000553 0.000000
# 4 0.000000 0.000003 -0.000001 0.041660 0.000000 0.000589
# 5 -0.003340 0.002199 -0.000553 0.000000 0.029957 0.000000
# 6 0.000000 -0.000001 0.000000 0.000589 0.000000 0.031905
#
#
# Mechanical properties :
#
#
# Convention : Reuss Voigt Hill
#
# Bulk Modulus (GPa) = 12.37349 15.29455 13.83402
# Shear Modulus (GPa) = 13.91869 27.07633 20.49751
#
# Velocity S-wave (km/s) = 2.60935 3.63938 3.16653
# Velocity P-wave (km/s) = 3.88987 5.01417 4.48737
#
# Compressibility (1/GPa) = 0.08081793
#
# Stress axis : x y z
#
# Youngs Moduli (GPa) = 52.88445 9.33865 34.71937
#
# Poissons Ratio (x) = 0.18199 -0.36495
# Poissons Ratio (y) = 1.03061 0.97253
# Poissons Ratio (z) = -0.55588 0.26159
#
# Static dielectric constant tensor:
#      x y z
#    x 1.664550 0.000000 -0.019310 
#    y 0.000000 1.683460 0.000000 
#    z -0.019310 0.000000 1.770050 
# 
# From -- ./inp_files/244672.got.cif
#   From: 2010.05.17/outbox.ucp.g08.bks.cvg/sg12_123_cif.got.tgz:244672.got - 2010.06.11 11:47:21.
