data_PCOD9225601
_publ_section_title
;
Structure prediction by ZEFSAII (Michael W. Deem and Ramdas Pophale) SiO2 
 PCOD9225601
Probable space group: C 2/M
;
_chemical_formula_sum "Si O2"
_cell_formula_units_Z 24
_cell_length_a 30.000000
_cell_length_b 15.000000
_cell_length_c 9.000000
_cell_angle_alpha 90.000000
_cell_angle_beta 140.000000
_cell_angle_gamma 90.000000
_cell_volume 2603.289819
_symmetry_space_group_name_H-M "C 2/M"
_symmetry_group_IT_number 12
_symmetry_cell_setting 'monoclinic'
loop_
_space_group_symop_operation_xyz
x,y,z
-x,y,-z
-x,-y,-z
x,-y,z
1/2+x,1/2+y,z
1/2-x,1/2+y,-z
1/2-x,1/2-y,-z
1/2+x,1/2-y,z
loop_
_atom_site_type_symbol
_atom_site_label
_atom_site_fract_x
_atom_site_fract_y
_atom_site_fract_z
Si Si1 0.772620 0.392918 0.449894
Si Si2 0.162236 0.104650 0.914986
Si Si3 0.344525 0.604994 0.622831
Si Si4 0.963019 0.900651 0.173004
Si Si5 0.575692 0.107082 0.271620
Si Si6 0.098993 0.217867 0.502894
O O1 0.768636 0.500000 0.449111
O O2 0.724224 0.362907 0.463779
O O3 0.854720 0.372692 0.649843
O O4 0.728353 0.371964 0.187702
O O5 0.091596 0.103367 0.831997
O O6 0.147121 0.182753 0.759558
O O7 0.171092 0.000000 0.885015
O O8 0.335742 0.500000 0.557275
O O9 0.363801 0.670673 0.541083
O O10 0.411748 0.607516 0.901829
O O11 0.023595 0.828719 0.330058
O O12 0.995353 0.000000 0.253564
O O13 0.585903 0.177886 0.432391
O O14 0.578340 0.000000 0.314869
O O15 0.500000 0.122575 0.000000
#
# Coordination Sequence:
#
# PCOD9225601 Si02
#       6
#     8   8   8   8   8   8
#     4   8  17  36  55  73 104 140 171 205 253 315
#     4   9  18  32  53  82 114 142 159 187 255 334
#     4   9  17  29  49  79 110 136 164 205 256 310
#     4   9  17  30  48  75 114 148 165 188 244 323
#     4  10  22  39  56  71  93 135 188 231 260 288
#     4  12  20  28  50  82 109 133 171 214 251 297
#
# _framework density 9.2191039999999997
#
# number of rings (size 3 to 8) (size 9 to 14) (size 15 to 20)
#    0.000    2.500    0.000    5.500    0.000    4.000 
#    0.000    0.000    0.000    4.000    0.000    8.167 
#    0.000    0.000    0.000    0.000    0.000    0.000 
#
# Total GULP energy -133721.355467 kJ/mol
# GULP energy per Si atom -5571.723144 kJ/mol
# Density = 0.919812 g / cm^3
# Si number density = 9.219104 Si / 1000 Ang^3
#
#
#
# Elastic Constant Matrix: (Units=GPa)
#
#
# Indices 1 2 3 4 5 6 
#
# 1 32.6448 13.5560 43.7312 0.0000 5.2581 0.0000
# 2 13.5560 67.1966 23.0536 0.0000 -6.7906 0.0000
# 3 43.7312 23.0536 74.9873 0.0000 14.0990 0.0000
# 4 0.0000 0.0000 0.0000 12.6155 0.0000 -5.8149
# 5 5.2581 -6.7906 14.0990 0.0000 35.2429 0.0000
# 6 0.0000 0.0000 0.0000 -5.8149 0.0000 14.5335
#
#
#
# Elastic Compliance Matrix: (Units=1/GPa)
#
#
# Indices 1 2 3 4 5 6 
#
# 1 0.145823 0.002331 -0.088401 0.000000 0.014058 0.000000
# 2 0.002331 0.017796 -0.008012 0.000000 0.006286 0.000000
# 3 -0.088401 -0.008012 0.070463 0.000000 -0.016544 0.000000
# 4 0.000000 0.000000 0.000000 0.097192 0.000000 0.038887
# 5 0.014058 0.006286 -0.016544 0.000000 0.034107 0.000000
# 6 0.000000 0.000000 0.000000 0.038887 0.000000 0.084365
#
#
# Mechanical properties :
#
#
# Convention : Reuss Voigt Hill
#
# Bulk Modulus (GPa) = 21.77834 37.27894 29.52864
# Shear Modulus (GPa) = 7.65442 18.77756 13.21599
#
# Velocity S-wave (km/s) = 2.03971 3.19471 2.68016
# Velocity P-wave (km/s) = 4.16946 5.81983 5.06235
#
# Compressibility (1/GPa) = 0.04591719
#
# Stress axis : x y z
#
# Youngs Moduli (GPa) = 6.85761 56.19370 14.19175
#
# Poissons Ratio (x) = -0.13100 1.25457
# Poissons Ratio (y) = -0.01599 0.11371
# Poissons Ratio (z) = 0.60622 0.45025
#
# Static dielectric constant tensor:
#      x y z
#    x 1.678760 0.000000 -0.037860 
#    y 0.000000 1.656410 0.000000 
#    z -0.037860 0.000000 1.660600 
# 
# From -- ./inp_files/111478.got.cif
#   From: 2010.05.17/outbox.ucp.g08.bks.cvg/sg12_56_cif.got.tgz:111478.got - 2010.06.11 11:47:21.
