data_PCOD9225672
_publ_section_title
;
Structure prediction by ZEFSAII (Michael W. Deem and Ramdas Pophale) SiO2 
 PCOD9225672
Probable space group: C 2/M
;
_chemical_formula_sum "Si O2"
_cell_formula_units_Z 32
_cell_length_a 24.000000
_cell_length_b 9.000000
_cell_length_c 30.000000
_cell_angle_alpha 90.000000
_cell_angle_beta 150.000000
_cell_angle_gamma 90.000000
_cell_volume 3240.000000
_symmetry_space_group_name_H-M "C 2/M"
_symmetry_group_IT_number 12
_symmetry_cell_setting 'monoclinic'
loop_
_space_group_symop_operation_xyz
x,y,z
-x,y,-z
-x,-y,-z
x,-y,z
1/2+x,1/2+y,z
1/2-x,1/2+y,-z
1/2-x,1/2-y,-z
1/2+x,1/2-y,z
loop_
_atom_site_type_symbol
_atom_site_label
_atom_site_fract_x
_atom_site_fract_y
_atom_site_fract_z
Si Si1 0.293925 0.323035 0.076335
Si Si2 0.712265 0.824200 0.168556
Si Si3 0.619398 0.670500 0.186656
Si Si4 0.315324 0.174199 0.679491
Si Si5 0.993205 0.675631 0.730840
Si Si6 0.375805 0.672551 0.974710
Si Si7 0.951080 0.321924 0.329729
Si Si8 0.947404 0.822510 0.511114
O O1 0.297044 0.500000 0.073264
O O2 0.412282 0.263236 0.176192
O O3 0.207863 0.271893 0.054631
O O4 0.250000 0.250000 0.000000
O O5 0.688495 0.779402 0.202834
O O6 0.627206 0.739559 0.076863
O O7 0.832673 0.757691 0.241269
O O8 0.706790 0.000000 0.158268
O O9 0.658281 0.500000 0.209013
O O10 0.631198 0.725493 0.245065
O O11 0.494016 0.677196 0.081196
O O12 0.377948 0.199916 0.676512
O O13 0.184561 0.201820 0.584275
O O14 0.331159 0.000000 0.702495
O O15 0.021949 0.500000 0.753781
O O16 0.986672 0.711566 0.673877
O O17 0.339369 0.500000 0.947847
O O18 0.937929 0.500000 0.324288
O O19 0.005255 0.259650 0.412554
O O20 0.000000 0.776073 0.500000
O O21 0.968667 0.000000 0.531037
#
# Coordination Sequence:
#
# PCOD9225672 Si02
#       8
#     8   8   8   8   8   8   8   8
#     4  12  24  38  60  88 122 168 217 265 316 372
#     4  12  24  39  62  91 124 165 211 259 313 378
#     4  11  24  40  61  90 125 165 207 260 318 373
#     4  10  22  41  64  91 125 166 210 258 313 377
#     4  10  22  41  63  89 126 167 210 262 319 375
#     4  11  23  40  60  88 125 163 208 260 315 375
#     4  11  23  40  65  93 126 166 210 263 320 378
#     4  10  22  41  65  94 127 163 208 262 320 381
#
# _framework density 9.8765429999999999
#
# number of rings (size 3 to 8) (size 9 to 14) (size 15 to 20)
#    0.000    1.125    1.250    5.250    0.000    8.750 
#    0.000    0.000    0.000    0.000    0.000    0.000 
#    0.000    0.000    0.000    0.000    0.000    0.000 
#
# Total GULP energy -178900.207501 kJ/mol
# GULP energy per Si atom -5590.631484 kJ/mol
# Density = 0.985406 g / cm^3
# Si number density = 9.876543 Si / 1000 Ang^3
#
#
#
# Elastic Constant Matrix: (Units=GPa)
#
#
# Indices 1 2 3 4 5 6 
#
# 1 135.3292 52.5261 57.4864 0.0000 -8.3167 0.0000
# 2 52.5261 106.6019 57.4383 0.0000 -9.4906 0.0000
# 3 57.4864 57.4383 85.0483 0.0002 -21.9119 0.0001
# 4 0.0000 0.0000 0.0002 30.8452 0.0000 -12.5866
# 5 -8.3167 -9.4906 -21.9119 0.0000 35.3345 0.0000
# 6 0.0000 0.0000 0.0001 -12.5866 0.0000 7.0447
#
#
#
# Elastic Compliance Matrix: (Units=1/GPa)
#
#
# Indices 1 2 3 4 5 6 
#
# 1 0.010787 -0.002023 -0.006440 0.000000 -0.001998 0.000001
# 2 -0.002023 0.015336 -0.009582 0.000001 -0.002299 0.000001
# 3 -0.006440 -0.009582 0.025622 -0.000002 0.011800 -0.000003
# 4 0.000000 0.000001 -0.000002 0.119657 -0.000001 0.213787
# 5 -0.001998 -0.002299 0.011800 -0.000001 0.034530 -0.000002
# 6 0.000001 0.000001 -0.000003 0.213787 -0.000002 0.523916
#
#
# Mechanical properties :
#
#
# Convention : Reuss Voigt Hill
#
# Bulk Modulus (GPa) = 63.87601 73.54232 68.70917
# Shear Modulus (GPa) = 6.48376 25.28014 15.88195
#
# Velocity S-wave (km/s) = 1.81371 3.58132 2.83861
# Velocity P-wave (km/s) = 6.06576 7.37650 6.75301
#
# Compressibility (1/GPa) = 0.01565533
#
# Stress axis : x y z
#
# Youngs Moduli (GPa) = 92.69991 65.20672 39.02872
#
# Poissons Ratio (x) = 0.13194 0.25134
# Poissons Ratio (y) = 0.18757 0.37397
# Poissons Ratio (z) = 0.59697 0.62481
#
# Static dielectric constant tensor:
#      x y z
#    x 1.735930 0.000000 0.010290 
#    y 0.000000 1.667080 0.000000 
#    z 0.010290 0.000000 1.670790 
# 
# From -- ./inp_files/382569.got.cif
#   From: 2010.05.17/outbox.ucp.g08.bks.cvg/sg12_192_cif.got.tgz:382569.got - 2010.06.11 11:47:21.
