data_PCOD9225725
_publ_section_title
;
Structure prediction by ZEFSAII (Michael W. Deem and Ramdas Pophale) SiO2 
 PCOD9225725
Probable space group: C 2/M
;
_chemical_formula_sum "Si O2"
_cell_formula_units_Z 24
_cell_length_a 15.000000
_cell_length_b 30.000000
_cell_length_c 15.000000
_cell_angle_alpha 90.000000
_cell_angle_beta 20.000000
_cell_angle_gamma 90.000000
_cell_volume 2308.635967
_symmetry_space_group_name_H-M "C 2/M"
_symmetry_group_IT_number 12
_symmetry_cell_setting 'monoclinic'
loop_
_space_group_symop_operation_xyz
x,y,z
-x,y,-z
-x,-y,-z
x,-y,z
1/2+x,1/2+y,z
1/2-x,1/2+y,-z
1/2-x,1/2-y,-z
1/2+x,1/2-y,z
loop_
_atom_site_type_symbol
_atom_site_label
_atom_site_fract_x
_atom_site_fract_y
_atom_site_fract_z
Si Si1 0.730250 0.884043 0.210543
Si Si2 0.723899 0.053421 0.718037
Si Si3 0.488911 0.658749 0.305745
Si Si4 0.156299 0.238050 0.443230
Si Si5 0.193224 0.787786 0.947374
Si Si6 0.024634 0.604670 0.211603
O O1 0.500000 0.886927 0.500000
O O2 0.785336 0.831915 0.134192
O O3 0.652490 0.906682 0.188270
O O4 0.000000 0.901422 0.000000
O O5 0.629137 0.071873 0.711295
O O6 0.000000 0.069882 0.500000
O O7 0.744564 0.000000 0.690661
O O8 0.500000 0.063982 0.000000
O O9 0.402002 0.687255 0.473423
O O10 0.214555 0.637120 0.534728
O O11 0.601295 0.692993 0.127788
O O12 0.733147 0.624421 0.074963
O O13 0.000000 0.246979 0.500000
O O14 0.984101 0.267518 0.674071
O O15 0.456893 0.252986 0.148653
#
# Coordination Sequence:
#
# PCOD9225725 Si02
#       6
#     8   8   8   8   8   8
#     4  11  21  36  58  85 116 152 200 249 293 342
#     4  10  22  42  69  97 123 155 193 232 279 345
#     4  11  23  37  54  79 112 150 190 240 300 349
#     4  12  23  34  50  73 105 147 195 246 297 344
#     4  11  21  36  53  72 104 149 201 248 287 335
#     4  11  23  39  61  88 118 152 189 238 296 350
#
# _framework density 10.395749
#
# number of rings (size 3 to 8) (size 9 to 14) (size 15 to 20)
#    0.000    1.000    0.000   10.000    0.000    2.000 
#    0.000    0.000    0.000    1.000    0.000    0.000 
#    0.000    0.000    0.000    0.000    0.000    0.000 
#
# Total GULP energy -133906.158392 kJ/mol
# GULP energy per Si atom -5579.423266 kJ/mol
# Density = 1.037209 g / cm^3
# Si number density = 10.395749 Si / 1000 Ang^3
#
#
#
# Elastic Constant Matrix: (Units=GPa)
#
#
# Indices 1 2 3 4 5 6 
#
# 1 131.8085 40.3289 39.6764 -0.0689 -6.8407 0.0005
# 2 40.3289 11.9814 20.6686 -0.0131 1.2318 -0.0346
# 3 39.6764 20.6686 147.1518 -0.0698 -15.2754 0.0598
# 4 -0.0689 -0.0131 -0.0698 16.1234 0.0540 -5.1917
# 5 -6.8407 1.2318 -15.2754 0.0540 40.5012 0.0110
# 6 0.0005 -0.0346 0.0598 -5.1917 0.0110 30.8742
#
#
#
# Elastic Compliance Matrix: (Units=1/GPa)
#
#
# Indices 1 2 3 4 5 6 
#
# 1 -0.054177 0.215792 -0.018040 0.000035 -0.022518 0.000292
# 2 0.215792 -0.745697 0.054840 -0.000029 0.079811 -0.000978
# 3 -0.018040 0.054840 0.003609 0.000013 -0.003354 0.000058
# 4 0.000035 -0.000029 0.000013 0.065573 -0.000079 0.011026
# 5 -0.022518 0.079811 -0.003354 -0.000079 0.017195 0.000077
# 6 0.000292 -0.000978 0.000058 0.011026 0.000077 0.034242
#
#
# Mechanical properties :
#
#
# Convention : Reuss Voigt Hill
#
# Bulk Modulus (GPa) = -3.43550 54.69885 25.63168
# Shear Modulus (GPa) = -3.90178 30.18427 13.14125
#
# Velocity S-wave (km/s) = -1.37138 3.81433 2.51679
# Velocity P-wave (km/s) = 2.04048 6.76493 4.56074
#
# Compressibility (1/GPa) = -0.29107842
#
# Stress axis : x y z
#
# Youngs Moduli (GPa) = -18.45809 -1.34103 277.10212
#
# Poissons Ratio (x) = 0.28938 4.99884
# Poissons Ratio (y) = 3.98311 -15.19641
# Poissons Ratio (z) = -0.33298 0.07354
#
# Static dielectric constant tensor:
#      x y z
#    x 1.817170 -0.000020 0.019670 
#    y -0.000020 1.798580 0.000030 
#    z 0.019670 0.000030 1.742520 
# 
# From -- ./inp_files/219520.got.cif
#   From: 2010.05.17/outbox.ucp.g08.bks.cvg/sg12_110_cif.got.tgz:219520.got - 2010.06.11 11:47:21.
