data_PCOD9225142
_publ_section_title
;
Structure prediction by ZEFSAII (Michael W. Deem and Ramdas Pophale) SiO2 
 PCOD9225142
Probable space group: C 2/M
;
_chemical_formula_sum "Si O2"
_cell_formula_units_Z 24
_cell_length_a 27.000000
_cell_length_b 15.000000
_cell_length_c 12.000000
_cell_angle_alpha 90.000000
_cell_angle_beta 150.000000
_cell_angle_gamma 90.000000
_cell_volume 2430.000000
_symmetry_space_group_name_H-M "C 2/M"
_symmetry_group_IT_number 12
_symmetry_cell_setting 'monoclinic'
loop_
_space_group_symop_operation_xyz
x,y,z
-x,y,-z
-x,-y,-z
x,-y,z
1/2+x,1/2+y,z
1/2-x,1/2+y,-z
1/2-x,1/2-y,-z
1/2+x,1/2-y,z
loop_
_atom_site_type_symbol
_atom_site_label
_atom_site_fract_x
_atom_site_fract_y
_atom_site_fract_z
Si Si1 0.581293 0.599763 0.256802
Si Si2 0.928463 0.603922 0.113107
Si Si3 0.727855 0.239593 0.106668
Si Si4 0.614902 0.215279 0.410127
Si Si5 0.685080 0.899699 0.345175
Si Si6 0.622774 0.612592 0.747025
O O1 0.573231 0.500000 0.293386
O O2 0.566152 0.686851 0.302408
O O3 0.696100 0.607944 0.440103
O O4 0.500000 0.602888 0.000000
O O5 0.931857 0.500000 0.154911
O O6 0.036656 0.647777 0.313062
O O7 0.860921 0.668807 0.055636
O O8 0.872645 0.606092 0.884351
O O9 0.782870 0.273633 0.324139
O O10 0.817204 0.174613 0.228377
O O11 0.676116 0.330129 0.952772
O O12 0.642172 0.174276 0.343371
O O13 0.666223 0.000000 0.353826
O O14 0.500000 0.622638 0.500000
O O15 0.639736 0.500000 0.778202
#
# Coordination Sequence:
#
# PCOD9225142 Si02
#       6
#     8   8   8   8   8   8
#     4  10  21  35  54  83 123 172 220 256 296 347
#     4  11  23  40  61  91 128 170 211 246 299 363
#     4  11  24  41  68  96 123 158 201 258 320 372
#     4  12  23  36  62  90 127 164 215 256 298 352
#     4  10  21  38  57  84 128 177 213 249 296 349
#     4  10  23  47  71  93 121 155 199 256 323 390
#
# _framework density 9.8765429999999999
#
# number of rings (size 3 to 8) (size 9 to 14) (size 15 to 20)
#    0.000    1.333    1.667    4.000    2.333    3.333 
#    0.000    0.833    0.000    5.500    0.000    0.000 
#    0.000    0.000    0.000    0.000    0.000    0.000 
#
# Total GULP energy -133622.562908 kJ/mol
# GULP energy per Si atom -5567.606788 kJ/mol
# Density = 0.985406 g / cm^3
# Si number density = 9.876543 Si / 1000 Ang^3
#
#
#
# Elastic Constant Matrix: (Units=GPa)
#
#
# Indices 1 2 3 4 5 6 
#
# 1 18.2218 10.0893 -12.5090 0.0000 9.8632 0.0000
# 2 10.0893 151.1970 33.6302 0.0000 -2.1420 0.0000
# 3 -12.5090 33.6302 59.0353 0.0000 7.4764 0.0000
# 4 0.0000 0.0000 0.0000 45.8056 0.0000 7.8479
# 5 9.8632 -2.1420 7.4764 0.0000 33.1077 0.0000
# 6 0.0000 0.0000 0.0000 7.8479 0.0000 29.7004
#
#
#
# Elastic Compliance Matrix: (Units=1/GPa)
#
#
# Indices 1 2 3 4 5 6 
#
# 1 0.116405 -0.017353 0.040235 0.000000 -0.044887 0.000000
# 2 -0.017353 0.010234 -0.010547 0.000000 0.008214 0.000000
# 3 0.040235 -0.010547 0.034051 0.000000 -0.020358 0.000000
# 4 0.000000 0.000000 0.000000 0.022867 0.000000 -0.006042
# 5 -0.044887 0.008214 -0.020358 0.000000 0.048706 0.000000
# 6 0.000000 0.000000 0.000000 -0.006042 0.000000 0.035266
#
#
# Mechanical properties :
#
#
# Convention : Reuss Voigt Hill
#
# Bulk Modulus (GPa) = 5.39488 32.31945 18.85717
# Shear Modulus (GPa) = 16.41252 34.87232 25.64242
#
# Velocity S-wave (km/s) = 2.88563 4.20624 3.60689
# Velocity P-wave (km/s) = 3.72016 6.32354 5.18781
#
# Compressibility (1/GPa) = 0.18536080
#
# Stress axis : x y z
#
# Youngs Moduli (GPa) = 8.59067 97.71196 29.36767
#
# Poissons Ratio (x) = 1.69559 -1.18161
# Poissons Ratio (y) = 0.14907 0.30974
# Poissons Ratio (z) = -0.34565 1.03058
#
# Static dielectric constant tensor:
#      x y z
#    x 1.766180 0.000000 -0.023850 
#    y 0.000000 1.721450 0.000000 
#    z -0.023850 0.000000 1.678470 
# 
# From -- ./inp_files/183887.got.cif
#   From: 2010.05.17/outbox.ucp.g08.bks.cvg/sg12_92_cif.got.tgz:183887.got - 2010.06.11 11:47:21.
