data_PCOD9225070
_publ_section_title
;
Structure prediction by ZEFSAII (Michael W. Deem and Ramdas Pophale) SiO2 
 PCOD9225070
Probable space group: C 2/M
;
_chemical_formula_sum "Si O2"
_cell_formula_units_Z 28
_cell_length_a 18.000000
_cell_length_b 18.000000
_cell_length_c 27.000000
_cell_angle_alpha 90.000000
_cell_angle_beta 20.000000
_cell_angle_gamma 90.000000
_cell_volume 2991.992214
_symmetry_space_group_name_H-M "C 2/M"
_symmetry_group_IT_number 12
_symmetry_cell_setting 'monoclinic'
loop_
_space_group_symop_operation_xyz
x,y,z
-x,y,-z
-x,-y,-z
x,-y,z
1/2+x,1/2+y,z
1/2-x,1/2+y,-z
1/2-x,1/2-y,-z
1/2+x,1/2-y,z
loop_
_atom_site_type_symbol
_atom_site_label
_atom_site_fract_x
_atom_site_fract_y
_atom_site_fract_z
Si Si1 0.570440 0.910121 0.842786
Si Si2 0.693215 0.677840 0.680772
Si Si3 0.015575 0.671285 0.207581
Si Si4 0.405073 0.910694 0.378812
Si Si5 0.938187 0.832653 0.671241
Si Si6 0.280261 0.683812 0.883787
Si Si7 0.923250 0.332546 0.634659
O O1 0.494468 0.877696 0.836416
O O2 0.808960 0.885284 0.713186
O O3 0.549399 0.000000 0.857227
O O4 0.427185 0.863762 0.972083
O O5 0.673721 0.767108 0.683620
O O6 0.472533 0.647022 0.795901
O O7 0.725337 0.663570 0.719003
O O8 0.881077 0.651185 0.526314
O O9 0.210070 0.730627 0.100629
O O10 0.982810 0.621164 0.276775
O O11 0.558326 0.885236 0.328894
O O12 0.174506 0.869012 0.531777
O O13 0.384379 0.000000 0.390683
O O14 0.946419 0.750948 0.641452
O O15 0.834481 0.820685 0.791387
#
# Coordination Sequence:
#
# PCOD9225070 Si02
#       7
#     8   8   8   8   8   8   8
#     4  12  26  39  57  90 127 156 195 247 297 350
#     4   9  19  35  67  87 111 150 210 240 275 344
#     4  10  20  40  62  87 115 158 201 238 293 351
#     4  12  23  36  60  93 127 151 186 250 311 350
#     4  12  20  39  61  88 122 159 192 238 294 364
#     4  10  21  40  62  84 114 163 205 235 280 355
#     4  11  18  38  62  92 116 153 198 244 291 356
#
# _framework density 9.3583130000000008
#
# number of rings (size 3 to 8) (size 9 to 14) (size 15 to 20)
#    0.857    0.286    5.714    2.143    0.000    2.286 
#    0.000    3.571    0.000    0.000    0.000    3.000 
#    0.000    0.000    0.000    0.000    0.000    0.000 
#
# Total GULP energy -155886.110409 kJ/mol
# GULP energy per Si atom -5567.361086 kJ/mol
# Density = 0.933701 g / cm^3
# Si number density = 9.358313 Si / 1000 Ang^3
#
#
#
# Elastic Constant Matrix: (Units=GPa)
#
#
# Indices 1 2 3 4 5 6 
#
# 1 153.0417 27.3391 14.7789 0.0322 12.8684 0.0033
# 2 27.3391 86.4946 4.5182 -0.0279 4.3785 -0.0040
# 3 14.7789 4.5182 26.9524 -0.0467 7.0931 0.0308
# 4 0.0322 -0.0279 -0.0467 11.6166 -0.0079 -2.6468
# 5 12.8684 4.3785 7.0931 -0.0079 28.3095 0.0099
# 6 0.0033 -0.0040 0.0308 -2.6468 0.0099 31.8914
#
#
#
# Elastic Compliance Matrix: (Units=1/GPa)
#
#
# Indices 1 2 3 4 5 6 
#
# 1 0.007393 -0.002060 -0.003113 -0.000040 -0.002262 -0.000001
# 2 -0.002060 0.012290 -0.000725 0.000033 -0.000783 0.000005
# 3 -0.003113 -0.000725 0.041249 0.000161 -0.008808 -0.000024
# 4 -0.000040 0.000033 0.000161 0.087744 -0.000006 0.007282
# 5 -0.002262 -0.000783 -0.008808 -0.000006 0.038680 -0.000004
# 6 -0.000001 0.000005 -0.000024 0.007282 -0.000004 0.031961
#
#
# Mechanical properties :
#
#
# Convention : Reuss Voigt Hill
#
# Bulk Modulus (GPa) = 20.35135 39.97346 30.16240
# Shear Modulus (GPa) = 20.20276 29.02034 24.61155
#
# Velocity S-wave (km/s) = 3.28899 3.94193 3.63017
# Velocity P-wave (km/s) = 5.03193 6.49014 5.80699
#
# Compressibility (1/GPa) = 0.04913678
#
# Stress axis : x y z
#
# Youngs Moduli (GPa) = 135.26415 81.36744 24.24283
#
# Poissons Ratio (x) = 0.16759 0.07548
# Poissons Ratio (y) = 0.27859 0.01757
# Poissons Ratio (z) = 0.42112 0.05897
#
# Static dielectric constant tensor:
#      x y z
#    x 1.664870 -0.000010 -0.046200 
#    y -0.000010 1.618030 0.000060 
#    z -0.046200 0.000060 1.727500 
# 
# From -- ./inp_files/364462.got.cif
#   From: 2010.05.17/outbox.ucp.g08.bks.cvg/sg12_183_cif.got.tgz:364462.got - 2010.06.11 11:47:21.
