data_PCOD9225500
_publ_section_title
;
Structure prediction by ZEFSAII (Michael W. Deem and Ramdas Pophale) SiO2 
 PCOD9225500
Probable space group: C 2/M
;
_chemical_formula_sum "Si O2"
_cell_formula_units_Z 32
_cell_length_a 15.000000
_cell_length_b 30.000000
_cell_length_c 9.000000
_cell_angle_alpha 90.000000
_cell_angle_beta 130.000000
_cell_angle_gamma 90.000000
_cell_volume 3102.479995
_symmetry_space_group_name_H-M "C 2/M"
_symmetry_group_IT_number 12
_symmetry_cell_setting 'monoclinic'
loop_
_space_group_symop_operation_xyz
x,y,z
-x,y,-z
-x,-y,-z
x,-y,z
1/2+x,1/2+y,z
1/2-x,1/2+y,-z
1/2-x,1/2-y,-z
1/2+x,1/2-y,z
loop_
_atom_site_type_symbol
_atom_site_label
_atom_site_fract_x
_atom_site_fract_y
_atom_site_fract_z
Si Si1 0.598180 0.786639 0.825674
Si Si2 0.995703 0.450266 0.174749
Si Si3 0.826076 0.689423 0.569791
Si Si4 0.249142 0.745365 0.248339
Si Si5 0.561988 0.450167 0.199298
Si Si6 0.110288 0.948833 0.722533
Si Si7 0.300596 0.112057 0.087960
Si Si8 0.796051 0.590482 0.437829
O O1 0.460285 0.794093 0.696940
O O2 0.636182 0.756314 0.725989
O O3 0.669310 0.834475 0.888049
O O4 0.647106 0.760219 0.020022
O O5 0.948144 0.500000 0.150441
O O6 0.915539 0.412320 0.155084
O O7 0.113875 0.444693 0.395876
O O8 0.000000 0.444816 0.000000
O O9 0.767659 0.702602 0.663551
O O10 0.747256 0.713783 0.361407
O O11 0.830220 0.637705 0.541738
O O12 0.602774 0.500000 0.195972
O O13 0.459308 0.455729 0.201937
O O14 0.672037 0.423578 0.369570
O O15 0.500000 0.424838 0.000000
O O16 0.000000 0.935608 0.500000
O O17 0.152930 0.000000 0.721287
O O18 0.203988 0.910613 0.871687
O O19 0.286309 0.096773 0.247148
#
# Coordination Sequence:
#
# PCOD9225500 Si02
#       8
#     8   8   8   8   8   8   8   8
#     4  11  23  44  71  98 137 176 222 286 357 417
#     4  11  27  43  63 106 146 183 228 283 341 416
#     4  11  23  44  70 100 134 175 224 282 361 416
#     4  10  24  42  66  99 128 177 222 274 344 434
#     4  10  21  40  63  91 131 177 222 273 329 395
#     4  10  23  42  65  93 133 184 226 275 336 400
#     4  12  24  42  71 102 134 178 232 284 343 419
#     4  12  24  41  71 102 133 182 228 285 343 416
#
# _framework density 10.314329000000001
#
# number of rings (size 3 to 8) (size 9 to 14) (size 15 to 20)
#    0.000    1.125    3.750    1.875    3.500    2.000 
#    0.000   12.500    0.000    0.000    0.000    0.000 
#    0.000    0.000    0.000    0.000    0.000    0.000 
#
# Total GULP energy -178145.724349 kJ/mol
# GULP energy per Si atom -5567.053886 kJ/mol
# Density = 1.029085 g / cm^3
# Si number density = 10.314329 Si / 1000 Ang^3
#
#
#
# Elastic Constant Matrix: (Units=GPa)
#
#
# Indices 1 2 3 4 5 6 
#
# 1 45.9280 31.0264 10.0568 0.0000 10.3699 0.0000
# 2 31.0264 71.3707 31.8946 0.0000 8.9888 0.0000
# 3 10.0568 31.8946 88.3423 0.0000 9.4588 0.0000
# 4 0.0000 0.0000 0.0000 31.6653 0.0000 12.6548
# 5 10.3699 8.9888 9.4588 0.0000 42.7354 0.0000
# 6 0.0000 0.0000 0.0000 12.6548 0.0000 39.8700
#
#
#
# Elastic Compliance Matrix: (Units=1/GPa)
#
#
# Indices 1 2 3 4 5 6 
#
# 1 0.032112 -0.014208 0.002037 0.000000 -0.005254 0.000000
# 2 -0.014208 0.023204 -0.006767 0.000000 0.000065 0.000000
# 3 0.002037 -0.006767 0.013757 0.000000 -0.002116 0.000000
# 4 0.000000 0.000000 0.000000 0.036168 0.000000 -0.011480
# 5 -0.005254 0.000065 -0.002116 0.000000 0.025129 0.000000
# 6 0.000000 0.000000 0.000000 -0.011480 0.000000 0.028725
#
#
# Mechanical properties :
#
#
# Convention : Reuss Voigt Hill
#
# Bulk Modulus (GPa) = 32.05512 39.06630 35.56071
# Shear Modulus (GPa) = 24.11135 31.69835 27.90485
#
# Velocity S-wave (km/s) = 3.42252 3.92422 3.68193
# Velocity P-wave (km/s) = 5.58490 6.28583 5.94570
#
# Compressibility (1/GPa) = 0.03119627
#
# Stress axis : x y z
#
# Youngs Moduli (GPa) = 31.14122 43.09642 72.68831
#
# Poissons Ratio (x) = 0.61232 -0.14804
# Poissons Ratio (y) = 0.44246 0.49187
# Poissons Ratio (z) = -0.06342 0.29163
#
# Static dielectric constant tensor:
#      x y z
#    x 1.537580 0.000000 0.139630 
#    y 0.000000 1.795220 0.000000 
#    z 0.139630 0.000000 1.701910 
# 
# From -- ./inp_files/68626.got.cif
#   From: 2010.05.17/outbox.ucp.g08.bks.cvg/sg12_35_cif.got.tgz:68626.got - 2010.06.11 11:47:21.
