data_PCOD9225207
_publ_section_title
;
Structure prediction by ZEFSAII (Michael W. Deem and Ramdas Pophale) SiO2 
 PCOD9225207
Probable space group: C 2/M
;
_chemical_formula_sum "Si O2"
_cell_formula_units_Z 28
_cell_length_a 21.000000
_cell_length_b 9.000000
_cell_length_c 30.000000
_cell_angle_alpha 90.000000
_cell_angle_beta 150.000000
_cell_angle_gamma 90.000000
_cell_volume 2835.000000
_symmetry_space_group_name_H-M "C 2/M"
_symmetry_group_IT_number 12
_symmetry_cell_setting 'monoclinic'
loop_
_space_group_symop_operation_xyz
x,y,z
-x,y,-z
-x,-y,-z
x,-y,z
1/2+x,1/2+y,z
1/2-x,1/2+y,-z
1/2-x,1/2-y,-z
1/2+x,1/2-y,z
loop_
_atom_site_type_symbol
_atom_site_label
_atom_site_fract_x
_atom_site_fract_y
_atom_site_fract_z
Si Si1 0.438759 0.332625 0.124001
Si Si2 0.887297 0.680359 0.596935
Si Si3 0.819165 0.332295 0.975015
Si Si4 0.848352 0.177854 0.902654
Si Si5 0.145980 0.819378 0.712114
Si Si6 0.132377 0.819728 0.600145
Si Si7 0.878451 0.322614 0.695769
O O1 0.479712 0.500000 0.138578
O O2 0.302784 0.339724 0.066618
O O3 0.527007 0.254957 0.213143
O O4 0.426755 0.241151 0.071138
O O5 0.885619 0.500000 0.589841
O O6 0.750000 0.750000 0.500000
O O7 0.901168 0.713247 0.658098
O O8 0.010432 0.752139 0.647156
O O9 0.851973 0.500000 0.980972
O O10 0.791465 0.232266 0.915410
O O11 0.764096 0.256021 0.813049
O O12 0.838514 0.000000 0.891559
O O13 0.000000 0.215247 0.000000
O O14 0.159182 0.777454 0.667681
O O15 0.142844 0.000000 0.713985
O O16 0.240176 0.778478 0.630115
O O17 0.000000 0.763529 0.500000
O O18 0.126940 0.000000 0.597639
O O19 0.891256 0.500000 0.707987
#
# Coordination Sequence:
#
# PCOD9225207 Si02
#       7
#     8   8   8   8   8   8   8
#     4  10  21  36  57  87 119 152 190 246 309 362
#     4  11  23  40  65  94 127 164 208 262 320 382
#     4  10  21  38  60  84 115 155 203 248 295 362
#     4  11  25  42  60  86 125 167 209 261 316 372
#     4  11  23  40  65  94 126 166 212 261 316 383
#     4   9  19  38  62  88 119 157 203 253 304 364
#     4  10  21  37  60  88 116 154 204 252 301 364
#
# _framework density 9.8765429999999999
#
# number of rings (size 3 to 8) (size 9 to 14) (size 15 to 20)
#    0.000    1.714    0.000    3.857    2.000    8.571 
#    0.000    0.714    0.000    3.000    0.000    0.000 
#    0.000    0.000    0.000    0.000    0.000    0.000 
#
# Total GULP energy -156336.167178 kJ/mol
# GULP energy per Si atom -5583.434542 kJ/mol
# Density = 0.985406 g / cm^3
# Si number density = 9.876543 Si / 1000 Ang^3
#
#
#
# Elastic Constant Matrix: (Units=GPa)
#
#
# Indices 1 2 3 4 5 6 
#
# 1 36.8044 16.0337 -11.0680 -0.0001 2.9935 -0.0001
# 2 16.0337 12.5331 0.4496 0.0001 -9.2488 0.0005
# 3 -11.0680 0.4496 66.3754 0.0002 -18.4746 0.0002
# 4 -0.0001 0.0001 0.0002 34.4981 0.0001 1.0138
# 5 2.9935 -9.2488 -18.4746 0.0001 25.0457 0.0001
# 6 -0.0001 0.0005 0.0002 1.0138 0.0001 21.1798
#
#
#
# Elastic Compliance Matrix: (Units=1/GPa)
#
#
# Indices 1 2 3 4 5 6 
#
# 1 0.248267 -0.477886 -0.016034 0.000002 -0.217973 0.000013
# 2 -0.477886 1.039670 0.045337 -0.000005 0.474485 -0.000029
# 3 -0.016034 0.045337 0.021742 0.000000 0.034696 -0.000001
# 4 0.000002 -0.000005 0.000000 0.029028 -0.000002 -0.001389
# 5 -0.217973 0.474485 0.034696 -0.000002 0.266789 -0.000014
# 6 0.000013 -0.000029 -0.000001 -0.001389 -0.000014 0.047281
#
#
# Mechanical properties :
#
#
# Convention : Reuss Voigt Hill
#
# Bulk Modulus (GPa) = 2.42418 14.06037 8.24227
# Shear Modulus (GPa) = 1.86050 23.49791 12.67920
#
# Velocity S-wave (km/s) = 0.97156 3.45277 2.53629
# Velocity P-wave (km/s) = 1.57749 4.79886 3.57194
#
# Compressibility (1/GPa) = 0.41251139
#
# Stress axis : x y z
#
# Youngs Moduli (GPa) = 4.02793 0.96184 45.99361
#
# Poissons Ratio (x) = 0.45965 0.73748
# Poissons Ratio (y) = 1.92489 -2.08521
# Poissons Ratio (z) = 0.06459 -0.04361
#
# Static dielectric constant tensor:
#      x y z
#    x 1.701750 0.000000 0.040200 
#    y 0.000000 1.682400 0.000000 
#    z 0.040200 0.000000 1.783070 
# 
# From -- ./inp_files/380755.got.cif
#   From: 2010.05.17/outbox.ucp.g08.bks.cvg/sg12_191_cif.got.tgz:380755.got - 2010.06.11 11:47:21.
