data_PCOD9225112
_publ_section_title
;
Structure prediction by ZEFSAII (Michael W. Deem and Ramdas Pophale) SiO2 
 PCOD9225112
Probable space group: C 2/M
;
_chemical_formula_sum "Si O2"
_cell_formula_units_Z 22
_cell_length_a 18.000000
_cell_length_b 15.000000
_cell_length_c 24.000000
_cell_angle_alpha 90.000000
_cell_angle_beta 160.000000
_cell_angle_gamma 90.000000
_cell_volume 2216.290529
_symmetry_space_group_name_H-M "C 2/M"
_symmetry_group_IT_number 12
_symmetry_cell_setting 'monoclinic'
loop_
_space_group_symop_operation_xyz
x,y,z
-x,y,-z
-x,-y,-z
x,-y,z
1/2+x,1/2+y,z
1/2-x,1/2+y,-z
1/2-x,1/2-y,-z
1/2+x,1/2-y,z
loop_
_atom_site_type_symbol
_atom_site_label
_atom_site_fract_x
_atom_site_fract_y
_atom_site_fract_z
Si Si1 0.769167 0.500000 0.409654
Si Si2 0.844561 0.324542 0.944677
Si Si3 0.000000 0.350450 0.500000
Si Si4 0.057637 0.296109 0.328216
Si Si5 0.183035 0.500000 0.302272
Si Si6 0.285252 0.500000 0.085015
Si Si7 0.637660 0.000000 0.396667
Si Si8 0.160352 0.299666 0.267700
O O1 0.899429 0.584867 0.476563
O O2 0.514064 0.500000 0.213603
O O3 0.755795 0.500000 0.467204
O O4 0.656817 0.253689 0.802674
O O5 0.736218 0.416467 0.888591
O O6 0.000000 0.334447 0.000000
O O7 0.966138 0.296084 0.086988
O O8 0.187042 0.279762 0.645912
O O9 0.250000 0.250000 0.500000
O O10 0.029273 0.402019 0.318383
O O11 0.101660 0.285408 0.292090
O O12 0.250412 0.500000 0.414919
O O13 0.249467 0.402381 0.325979
O O14 0.920894 0.500000 0.103343
#
# Coordination Sequence:
#
# PCOD9225112 Si02
#       8
#     4   8   4   8   4   4   4   8
#     4  11  24  41  64  89 124 175 219 258 312 386
#     4  11  24  39  65  98 129 167 215 271 327 376
#     4  11  24  39  64  92 130 169 216 261 320 384
#     4  11  23  41  68  92 128 177 218 261 326 392
#     4   8  20  40  66  93 115 166 208 265 322 379
#     4  10  20  44  66  90 127 167 218 261 315 395
#     4  10  21  38  61  92 124 154 222 257 310 381
#     4  10  22  41  64  91 133 166 215 262 324 388
#
# _framework density 9.9264960000000002
#
# number of rings (size 3 to 8) (size 9 to 14) (size 15 to 20)
#    0.000    1.636    0.000    4.091    5.091    3.273 
#    0.000    1.364    0.000    0.000    0.000    0.000 
#    0.000    0.000    0.000    0.000    0.000    0.000 
#
# Total GULP energy -122563.598820 kJ/mol
# GULP energy per Si atom -5571.072674 kJ/mol
# Density = 0.990390 g / cm^3
# Si number density = 9.926496 Si / 1000 Ang^3
#
#
#
# Elastic Constant Matrix: (Units=GPa)
#
#
# Indices 1 2 3 4 5 6 
#
# 1 84.8836 21.7088 60.2263 -0.0147 -1.7869 0.0059
# 2 21.7088 169.4800 59.4252 0.0392 17.8198 0.0873
# 3 60.2263 59.4252 87.1355 0.0102 4.4083 0.0743
# 4 -0.0147 0.0392 0.0102 25.8097 0.0044 -1.8240
# 5 -1.7869 17.8198 4.4083 0.0044 35.4223 -0.0141
# 6 0.0059 0.0873 0.0743 -1.8240 -0.0141 -63.1120
#
#
#
# Elastic Compliance Matrix: (Units=1/GPa)
#
#
# Indices 1 2 3 4 5 6 
#
# 1 0.024910 0.003518 -0.019714 0.000015 0.001940 -0.000017
# 2 0.003518 0.008646 -0.008168 -0.000007 -0.003155 0.000004
# 3 -0.019714 -0.008168 0.030709 -0.000009 -0.000707 0.000023
# 4 0.000015 -0.000007 -0.000009 0.038666 0.000000 -0.001118
# 5 0.001940 -0.003155 -0.000707 0.000000 0.030004 -0.000012
# 6 -0.000017 0.000004 0.000023 -0.001118 -0.000012 -0.015813
#
#
# Mechanical properties :
#
#
# Convention : Reuss Voigt Hill
#
# Bulk Modulus (GPa) = 64.37082 69.35775 66.86428
# Shear Modulus (GPa) = 29.23490 12.96659 21.10074
#
# Velocity S-wave (km/s) = 3.84157 2.55841 3.26367
# Velocity P-wave (km/s) = 7.22295 6.61353 6.92495
#
# Compressibility (1/GPa) = 0.01553499
#
# Stress axis : x y z
#
# Youngs Moduli (GPa) = 40.14514 115.66704 32.56415
#
# Poissons Ratio (x) = -0.40689 0.64198
# Poissons Ratio (y) = -0.14122 0.26598
# Poissons Ratio (z) = 0.79143 0.94476
#
# Static dielectric constant tensor:
#      x y z
#    x 1.678930 0.000010 0.015970 
#    y 0.000010 1.736030 0.000000 
#    z 0.015970 0.000000 1.783540 
# 
# From -- ./inp_files/343987.got.cif
#   From: 2010.05.17/outbox.ucp.g08.bks.cvg/sg12_172_cif.got.tgz:343987.got - 2010.06.11 11:47:21.
