data_PCOD9225067
_publ_section_title
;
Structure prediction by ZEFSAII (Michael W. Deem and Ramdas Pophale) SiO2 
 PCOD9225067
Probable space group: C 2/M
;
_chemical_formula_sum "Si O2"
_cell_formula_units_Z 30
_cell_length_a 15.000000
_cell_length_b 18.000000
_cell_length_c 12.000000
_cell_angle_alpha 90.000000
_cell_angle_beta 110.000000
_cell_angle_gamma 90.000000
_cell_volume 3044.604091
_symmetry_space_group_name_H-M "C 2/M"
_symmetry_group_IT_number 12
_symmetry_cell_setting 'monoclinic'
loop_
_space_group_symop_operation_xyz
x,y,z
-x,y,-z
-x,-y,-z
x,-y,z
1/2+x,1/2+y,z
1/2-x,1/2+y,-z
1/2-x,1/2-y,-z
1/2+x,1/2-y,z
loop_
_atom_site_type_symbol
_atom_site_label
_atom_site_fract_x
_atom_site_fract_y
_atom_site_fract_z
Si Si1 0.971959 0.712986 0.364211
Si Si2 0.500000 0.202174 0.000000
Si Si3 0.762018 0.317838 0.355192
Si Si4 0.794978 0.083385 0.057350
Si Si5 0.834395 0.336841 0.632662
Si Si6 0.871687 0.417708 0.852302
Si Si7 0.452006 0.685522 0.152991
Si Si8 0.372332 0.586412 0.843289
O O1 0.862070 0.689380 0.331032
O O2 0.985294 0.776572 0.279462
O O3 0.000000 0.737765 0.500000
O O4 0.054484 0.656908 0.357807
O O5 0.555000 0.148789 0.106579
O O6 0.434829 0.253396 0.049689
O O7 0.781595 0.336936 0.492192
O O8 0.701175 0.241108 0.327116
O O9 0.700523 0.382857 0.277229
O O10 0.690167 0.087213 0.061436
O O11 0.857812 0.143114 0.145424
O O12 0.828652 0.000000 0.095869
O O13 0.819291 0.097598 0.938906
O O14 0.813969 0.399733 0.715364
O O15 0.913224 0.500000 0.863593
O O16 0.530986 0.631484 0.134960
O O17 0.393775 0.500000 0.842539
#
# Coordination Sequence:
#
# PCOD9225067 Si02
#       8
#     8   4   8   8   8   8   8   8
#     4  10  21  37  61  90 117 150 197 248 291 341
#     4  12  23  36  61  90 112 152 198 240 289 350
#     4  10  21  37  62  89 117 152 200 249 285 348
#     4  10  23  39  57  86 121 157 194 240 298 355
#     4  10  20  40  60  86 118 156 199 241 298 342
#     4  11  24  41  59  84 122 159 195 241 298 354
#     4  12  21  38  63  86 117 153 200 244 296 354
#     4  11  22  38  59  86 122 156 194 244 298 351
#
# _framework density 9.8534980000000001
#
# number of rings (size 3 to 8) (size 9 to 14) (size 15 to 20)
#    0.000    1.333    4.000    1.400    1.867    2.133 
#    0.000    0.667    0.000    3.200    0.000    0.000 
#    0.000    0.000    0.000    0.000    0.000    0.000 
#
# Total GULP energy -167103.184347 kJ/mol
# GULP energy per Si atom -5570.106145 kJ/mol
# Density = 0.983107 g / cm^3
# Si number density = 9.853498 Si / 1000 Ang^3
#
#
#
# Elastic Constant Matrix: (Units=GPa)
#
#
# Indices 1 2 3 4 5 6 
#
# 1 21.5978 1.2021 9.0969 0.0000 0.5967 0.0000
# 2 1.2021 59.5459 36.0347 0.0000 -3.4853 0.0000
# 3 9.0969 36.0347 50.6238 0.0000 -11.0073 0.0000
# 4 0.0000 0.0000 0.0000 70.5663 0.0000 -10.2185
# 5 0.5967 -3.4853 -11.0073 0.0000 22.0228 0.0000
# 6 0.0000 0.0000 0.0000 -10.2185 0.0000 -24.7704
#
#
#
# Elastic Compliance Matrix: (Units=1/GPa)
#
#
# Indices 1 2 3 4 5 6 
#
# 1 0.053797 0.009546 -0.018456 0.000000 -0.009172 0.000000
# 2 0.009546 0.032060 -0.026353 0.000000 -0.008357 0.000000
# 3 -0.018456 -0.026353 0.046033 0.000000 0.019338 0.000000
# 4 0.000000 0.000000 0.000000 0.013372 0.000000 -0.005516
# 5 -0.009172 -0.008357 0.019338 0.000000 0.053999 0.000000
# 6 0.000000 0.000000 0.000000 -0.005516 0.000000 -0.038095
#
#
# Mechanical properties :
#
#
# Convention : Reuss Voigt Hill
#
# Bulk Modulus (GPa) = 16.29639 24.93720 20.61680
# Shear Modulus (GPa) = 19.82976 19.25933 19.54455
#
# Velocity S-wave (km/s) = 3.17555 3.12955 3.15263
# Velocity P-wave (km/s) = 4.66185 5.07348 4.87201
#
# Compressibility (1/GPa) = 0.06136328
#
# Stress axis : x y z
#
# Youngs Moduli (GPa) = 18.58849 31.19185 21.72346
#
# Poissons Ratio (x) = -0.29776 0.40094
# Poissons Ratio (y) = -0.17745 0.57248
# Poissons Ratio (z) = 0.34308 0.82200
#
# Static dielectric constant tensor:
#      x y z
#    x 1.708830 0.000000 0.033160 
#    y 0.000000 1.689340 0.000000 
#    z 0.033160 0.000000 1.733430 
# 
# From -- ./inp_files/146206.got.cif
#   From: 2010.05.17/outbox.ucp.g08.bks.cvg/sg12_74_cif.got.tgz:146206.got - 2010.06.11 11:47:21.
