data_PCOD9225986
_publ_section_title
;
Structure prediction by ZEFSAII (Michael W. Deem and Ramdas Pophale) SiO2 
 PCOD9225986
Probable space group: C 2/M
;
_chemical_formula_sum "Si O2"
_cell_formula_units_Z 24
_cell_length_a 9.000000
_cell_length_b 30.000000
_cell_length_c 9.000000
_cell_angle_alpha 90.000000
_cell_angle_beta 90.000000
_cell_angle_gamma 90.000000
_cell_volume 2430.000000
_symmetry_space_group_name_H-M "C 2/M"
_symmetry_group_IT_number 12
_symmetry_cell_setting 'monoclinic'
loop_
_space_group_symop_operation_xyz
x,y,z
-x,y,-z
-x,-y,-z
x,-y,z
1/2+x,1/2+y,z
1/2-x,1/2+y,-z
1/2-x,1/2-y,-z
1/2+x,1/2-y,z
loop_
_atom_site_type_symbol
_atom_site_label
_atom_site_fract_x
_atom_site_fract_y
_atom_site_fract_z
Si Si1 0.499067 0.196722 0.321025
Si Si2 0.352492 0.634015 0.915421
Si Si3 0.398353 0.113554 0.865291
Si Si4 0.793717 0.768609 0.835604
Si Si5 0.353412 0.447154 0.695021
Si Si6 0.790625 0.948298 0.354666
O O1 0.500000 0.193006 0.500000
O O2 0.518352 0.149136 0.238969
O O3 0.348669 0.217956 0.259769
O O4 0.621854 0.230440 0.255362
O O5 0.378864 0.683561 0.849394
O O6 0.309714 0.593287 0.804739
O O7 0.500000 0.618993 0.000000
O O8 0.225381 0.639488 0.038622
O O9 0.312056 0.080132 0.755232
O O10 0.500000 0.093965 0.000000
O O11 0.750000 0.750000 0.000000
O O12 0.321906 0.500000 0.734334
O O13 0.283060 0.438429 0.531718
O O14 0.533387 0.443747 0.682069
O O15 0.751443 0.000000 0.335695
#
# Coordination Sequence:
#
# PCOD9225986 Si02
#       6
#     8   8   8   8   8   8
#     4  12  27  46  67  96 131 174 217 272 324 394
#     4  12  23  39  67 101 127 176 222 264 327 393
#     4  12  24  42  65  96 137 174 214 270 336 390
#     4  12  24  47  69  94 132 175 217 269 330 391
#     4   9  20  40  65  97 132 171 222 277 323 382
#     4   9  20  40  65  94 134 176 217 271 331 389
#
# _framework density 9.8765429999999999
#
# number of rings (size 3 to 8) (size 9 to 14) (size 15 to 20)
#    0.000    1.000    5.000    3.000    2.333    1.333 
#    3.000    0.000    0.000    2.500    0.000    0.000 
#    0.000    0.000    0.000    0.000    0.000    0.000 
#
# Total GULP energy -133962.005722 kJ/mol
# GULP energy per Si atom -5581.750238 kJ/mol
# Density = 0.985406 g / cm^3
# Si number density = 9.876543 Si / 1000 Ang^3
#
#
#
# Elastic Constant Matrix: (Units=GPa)
#
#
# Indices 1 2 3 4 5 6 
#
# 1 60.9850 22.8176 45.4329 0.0000 26.5745 0.0000
# 2 22.8176 132.1268 80.7976 0.0000 15.1523 0.0000
# 3 45.4329 80.7976 171.2408 0.0000 22.3568 0.0000
# 4 0.0000 0.0000 0.0000 40.0985 0.0000 3.8122
# 5 26.5745 15.1523 22.3568 0.0000 43.5919 0.0000
# 6 0.0000 0.0000 0.0000 3.8122 0.0000 18.0750
#
#
#
# Elastic Compliance Matrix: (Units=1/GPa)
#
#
# Indices 1 2 3 4 5 6 
#
# 1 0.026012 0.000266 -0.005299 0.000000 -0.013232 0.000000
# 2 0.000266 0.010700 -0.004943 0.000000 -0.001346 0.000000
# 3 -0.005299 -0.004943 0.009573 0.000000 0.000039 0.000000
# 4 0.000000 0.000000 0.000000 0.025449 0.000000 -0.005367
# 5 -0.013232 -0.001346 0.000039 0.000000 0.031454 0.000000
# 6 0.000000 0.000000 0.000000 -0.005367 0.000000 0.056457
#
#
# Mechanical properties :
#
#
# Convention : Reuss Voigt Hill
#
# Bulk Modulus (GPa) = 37.97780 73.60543 55.79161
# Shear Modulus (GPa) = 26.54272 34.70671 30.62472
#
# Velocity S-wave (km/s) = 3.66966 4.19624 3.94175
# Velocity P-wave (km/s) = 6.10108 7.79882 7.00160
#
# Compressibility (1/GPa) = 0.02633117
#
# Stress axis : x y z
#
# Youngs Moduli (GPa) = 38.44425 93.45880 104.45952
#
# Poissons Ratio (x) = -0.02486 0.55356
# Poissons Ratio (y) = -0.01022 0.51639
# Poissons Ratio (z) = 0.20373 0.46201
#
# Static dielectric constant tensor:
#      x y z
#    x 1.764950 0.000000 -0.014980 
#    y 0.000000 1.689570 0.000000 
#    z -0.014980 0.000000 1.682460 
# 
# From -- ./inp_files/42218.got.cif
#   From: 2010.05.17/outbox.ucp.g08.bks.cvg/sg12_22_cif.got.tgz:42218.got - 2010.06.11 11:47:21.
