data_PCOD9225386
_publ_section_title
;
Structure prediction by ZEFSAII (Michael W. Deem and Ramdas Pophale) SiO2 
 PCOD9225386
Probable space group: C 2/M
;
_chemical_formula_sum "Si O2"
_cell_formula_units_Z 28
_cell_length_a 9.000000
_cell_length_b 24.000000
_cell_length_c 15.000000
_cell_angle_alpha 90.000000
_cell_angle_beta 60.000000
_cell_angle_gamma 90.000000
_cell_volume 2805.922308
_symmetry_space_group_name_H-M "C 2/M"
_symmetry_group_IT_number 12
_symmetry_cell_setting 'monoclinic'
loop_
_space_group_symop_operation_xyz
x,y,z
-x,y,-z
-x,-y,-z
x,-y,z
1/2+x,1/2+y,z
1/2-x,1/2+y,-z
1/2-x,1/2-y,-z
1/2+x,1/2-y,z
loop_
_atom_site_type_symbol
_atom_site_label
_atom_site_fract_x
_atom_site_fract_y
_atom_site_fract_z
Si Si1 0.490750 0.348433 0.896823
Si Si2 0.815582 0.563297 0.013862
Si Si3 0.473380 0.700979 0.712305
Si Si4 0.857283 0.682247 0.317454
Si Si5 0.580160 0.000000 0.344721
Si Si6 0.716525 0.500000 0.549856
Si Si7 0.853902 0.875643 0.473769
Si Si8 0.142142 0.598472 0.195929
O O1 0.341885 0.394470 0.925666
O O2 0.457688 0.306627 0.824210
O O3 0.677608 0.375330 0.829342
O O4 0.500000 0.329837 0.000000
O O5 0.777869 0.500000 0.055947
O O6 0.836602 0.565015 0.901595
O O7 0.000000 0.579991 0.000000
O O8 0.298194 0.693902 0.706473
O O9 0.559360 0.760761 0.673752
O O10 0.603934 0.655629 0.630629
O O11 0.806633 0.647229 0.421835
O O12 0.002195 0.646386 0.224674
O O13 0.581231 0.944985 0.286533
O O14 0.404904 0.000000 0.451086
O O15 0.748332 0.000000 0.355765
O O16 0.636446 0.441671 0.544740
O O17 0.000000 0.859730 0.500000
#
# Coordination Sequence:
#
# PCOD9225386 Si02
#       8
#     8   8   8   8   4   4   8   8
#     4  10  23  40  63  91 126 161 212 253 307 363
#     4  10  21  38  61  90 124 164 206 253 308 365
#     4  11  23  43  62  92 123 165 212 257 311 364
#     4  11  23  41  66  90 124 162 209 258 310 372
#     4  11  22  34  58  88 125 164 200 249 306 368
#     4  11  21  38  56  92 129 159 202 249 305 374
#     4  10  22  40  63  91 126 164 204 252 309 372
#     4  11  21  39  62  89 124 164 206 257 308 365
#
# _framework density 9.9788940000000004
#
# number of rings (size 3 to 8) (size 9 to 14) (size 15 to 20)
#    0.000    1.429    2.143    3.214    1.000    0.857 
#    1.286    7.143    0.000    0.000    0.000    0.000 
#    0.000    0.000    0.000    0.000    0.000    0.000 
#
# Total GULP energy -156045.493903 kJ/mol
# GULP energy per Si atom -5573.053354 kJ/mol
# Density = 0.995618 g / cm^3
# Si number density = 9.978894 Si / 1000 Ang^3
#
#
#
# Elastic Constant Matrix: (Units=GPa)
#
#
# Indices 1 2 3 4 5 6 
#
# 1 93.8888 15.9233 9.7182 0.0000 0.7294 0.0000
# 2 15.9233 95.1094 32.8403 0.0000 -4.7790 0.0000
# 3 9.7182 32.8403 41.0955 0.0000 1.1374 0.0000
# 4 0.0000 0.0000 0.0000 27.8025 0.0000 5.1853
# 5 0.7294 -4.7790 1.1374 0.0000 30.5647 0.0000
# 6 0.0000 0.0000 0.0000 5.1853 0.0000 31.4042
#
#
#
# Elastic Compliance Matrix: (Units=1/GPa)
#
#
# Indices 1 2 3 4 5 6 
#
# 1 0.011040 -0.001342 -0.001527 0.000000 -0.000416 0.000000
# 2 -0.001342 0.014911 -0.011676 0.000000 0.002798 0.000000
# 3 -0.001527 -0.011676 0.034110 0.000000 -0.003058 0.000000
# 4 0.000000 0.000000 0.000000 0.037111 0.000000 -0.006128
# 5 -0.000416 0.002798 -0.003058 0.000000 0.033279 0.000000
# 6 0.000000 0.000000 0.000000 -0.006128 0.000000 0.032855
#
#
# Mechanical properties :
#
#
# Convention : Reuss Voigt Hill
#
# Bulk Modulus (GPa) = 32.28789 38.56192 35.42490
# Shear Modulus (GPa) = 24.66487 29.39508 27.02998
#
# Velocity S-wave (km/s) = 3.51928 3.84195 3.68415
# Velocity P-wave (km/s) = 5.72075 6.24856 5.99047
#
# Compressibility (1/GPa) = 0.03097137
#
# Stress axis : x y z
#
# Youngs Moduli (GPa) = 90.58163 67.06443 29.31720
#
# Poissons Ratio (x) = 0.09000 0.04476
# Poissons Ratio (y) = 0.12157 0.34230
# Poissons Ratio (z) = 0.13829 0.78303
#
# Static dielectric constant tensor:
#      x y z
#    x 1.705130 0.000000 -0.019070 
#    y 0.000000 1.706250 0.000000 
#    z -0.019070 0.000000 1.756080 
# 
# From -- ./inp_files/198833.got.cif
#   From: 2010.05.17/outbox.ucp.g08.bks.cvg/sg12_100_cif.got.tgz:198833.got - 2010.06.11 11:47:21.
