data_PCOD9225866
_publ_section_title
;
Structure prediction by ZEFSAII (Michael W. Deem and Ramdas Pophale) SiO2 
 PCOD9225866
Probable space group: C 2/M
;
_chemical_formula_sum "Si O2"
_cell_formula_units_Z 20
_cell_length_a 9.000000
_cell_length_b 24.000000
_cell_length_c 18.000000
_cell_angle_alpha 90.000000
_cell_angle_beta 30.000000
_cell_angle_gamma 90.000000
_cell_volume 1944.000000
_symmetry_space_group_name_H-M "C 2/M"
_symmetry_group_IT_number 12
_symmetry_cell_setting 'monoclinic'
loop_
_space_group_symop_operation_xyz
x,y,z
-x,y,-z
-x,-y,-z
x,-y,z
1/2+x,1/2+y,z
1/2-x,1/2+y,-z
1/2-x,1/2-y,-z
1/2+x,1/2-y,z
loop_
_atom_site_type_symbol
_atom_site_label
_atom_site_fract_x
_atom_site_fract_y
_atom_site_fract_z
Si Si1 0.048349 0.845258 0.281690
Si Si2 0.336291 0.189822 0.929681
Si Si3 0.291674 0.636920 0.231351
Si Si4 0.348892 0.220103 0.361499
Si Si5 0.658130 0.062167 0.513131
O O1 0.397423 0.837547 0.139654
O O2 0.959923 0.861266 0.236757
O O3 0.902620 0.784604 0.356312
O O4 0.915558 0.891920 0.393825
O O5 0.480066 0.203332 0.788164
O O6 0.250000 0.250000 0.000000
O O7 0.046243 0.151163 0.062028
O O8 0.042626 0.685254 0.336389
O O9 0.090377 0.581679 0.319999
O O10 0.000000 0.208403 0.500000
O O11 0.500000 0.062490 0.500000
O O12 0.765851 0.000000 0.481281
#
# Coordination Sequence:
#
# PCOD9225866 Si02
#       5
#     8   8   8   8   8
#     4  11  21  36  59  87 120 160 198 240 298 358
#     4  12  23  36  56  89 129 159 186 239 305 371
#     4  11  22  36  60  87 120 159 196 247 297 355
#     4  12  23  36  56  89 127 158 194 238 302 371
#     4   9  20  39  61  86 117 158 210 255 289 339
#
# _framework density 10.288066000000001
#
# number of rings (size 3 to 8) (size 9 to 14) (size 15 to 20)
#    0.000    1.000    4.000    4.200    0.000    2.400 
#    0.000    1.000    0.000   12.600    0.000    0.000 
#    0.000    0.000    0.000    0.000    0.000    0.000 
#
# Total GULP energy -111694.457067 kJ/mol
# GULP energy per Si atom -5584.722853 kJ/mol
# Density = 1.026465 g / cm^3
# Si number density = 10.288066 Si / 1000 Ang^3
#
#
#
# Elastic Constant Matrix: (Units=GPa)
#
#
# Indices 1 2 3 4 5 6 
#
# 1 53.1129 23.0531 48.8080 -0.0024 -17.1256 0.0001
# 2 23.0531 117.3042 66.0668 0.0035 -9.6595 -0.0004
# 3 48.8080 66.0668 188.4847 -0.0184 -14.8498 -0.0005
# 4 -0.0024 0.0035 -0.0184 15.9814 -0.0004 -2.4869
# 5 -17.1256 -9.6595 -14.8498 -0.0004 40.7568 -0.0010
# 6 0.0001 -0.0004 -0.0005 -2.4869 -0.0010 13.8497
#
#
#
# Elastic Compliance Matrix: (Units=1/GPa)
#
#
# Indices 1 2 3 4 5 6 
#
# 1 0.027927 -0.001327 -0.006040 -0.000002 0.009219 0.000000
# 2 -0.001327 0.010742 -0.003361 -0.000007 0.000763 -0.000001
# 3 -0.006040 -0.003361 0.008015 0.000009 -0.000414 0.000002
# 4 -0.000002 -0.000007 0.000009 0.064371 0.000002 0.011559
# 5 0.009219 0.000763 -0.000414 0.000002 0.028440 0.000002
# 6 0.000000 -0.000001 0.000002 0.011559 0.000002 0.074279
#
#
# Mechanical properties :
#
#
# Convention : Reuss Voigt Hill
#
# Bulk Modulus (GPa) = 39.64083 70.52860 55.08472
# Shear Modulus (GPa) = 20.52206 28.84919 24.68562
#
# Velocity S-wave (km/s) = 3.16155 3.74849 3.46746
# Velocity P-wave (km/s) = 5.71266 7.28603 6.54678
#
# Compressibility (1/GPa) = 0.02522651
#
# Stress axis : x y z
#
# Youngs Moduli (GPa) = 35.80738 93.09561 124.76466
#
# Poissons Ratio (x) = 0.12357 0.75360
# Poissons Ratio (y) = 0.04753 0.41937
# Poissons Ratio (z) = 0.21628 0.31292
#
# Static dielectric constant tensor:
#      x y z
#    x 1.638350 0.000010 0.032440 
#    y 0.000010 1.719450 0.000000 
#    z 0.032440 0.000000 1.764810 
# 
# From -- ./inp_files/39359.got.cif
#   From: 2010.05.17/outbox.ucp.g08.bks.cvg/sg12_20_cif.got.tgz:39359.got - 2010.06.11 11:47:21.
