data_PCOD9225789
_publ_section_title
;
Structure prediction by ZEFSAII (Michael W. Deem and Ramdas Pophale) SiO2 
 PCOD9225789
Probable space group: C 2/M
;
_chemical_formula_sum "Si O2"
_cell_formula_units_Z 26
_cell_length_a 27.000000
_cell_length_b 9.000000
_cell_length_c 12.000000
_cell_angle_alpha 90.000000
_cell_angle_beta 60.000000
_cell_angle_gamma 90.000000
_cell_volume 2525.330077
_symmetry_space_group_name_H-M "C 2/M"
_symmetry_group_IT_number 12
_symmetry_cell_setting 'monoclinic'
loop_
_space_group_symop_operation_xyz
x,y,z
-x,y,-z
-x,-y,-z
x,-y,z
1/2+x,1/2+y,z
1/2-x,1/2+y,-z
1/2-x,1/2-y,-z
1/2+x,1/2-y,z
loop_
_atom_site_type_symbol
_atom_site_label
_atom_site_fract_x
_atom_site_fract_y
_atom_site_fract_z
Si Si1 0.763367 0.000000 0.033360
Si Si2 0.753201 0.176835 0.374531
Si Si3 0.869732 0.679382 0.197934
Si Si4 0.440509 0.321686 0.316014
Si Si5 0.626735 0.177956 0.411831
Si Si6 0.659534 0.765057 0.138703
Si Si7 0.445382 0.831086 0.900152
O O1 0.712434 0.125821 0.103260
O O2 0.811853 0.127786 0.955197
O O3 0.750000 0.250000 0.500000
O O4 0.805948 0.254947 0.250218
O O5 0.690512 0.195407 0.392166
O O6 0.764760 0.000000 0.366942
O O7 0.865536 0.500000 0.213613
O O8 0.894271 0.755889 0.280731
O O9 0.916397 0.713420 0.050033
O O10 0.437363 0.500000 0.324219
O O11 0.420988 0.247379 0.454020
O O12 0.502977 0.268948 0.203372
O O13 0.630246 0.262450 0.290865
O O14 0.617040 0.000000 0.407832
O O15 0.609087 0.830533 0.120076
O O16 0.467858 0.000000 0.886057
#
# Coordination Sequence:
#
# PCOD9225789 Si02
#       7
#     4   8   8   8   8   8   8
#     4  10  24  42  68  96 144 168 216 266 320 394
#     4  11  23  38  63  97 132 171 216 266 329 389
#     4  11  24  42  68  98 131 173 221 277 334 392
#     4  12  27  45  66  94 132 176 226 278 328 386
#     4  11  24  43  68  97 137 179 217 269 331 399
#     4  11  24  44  69 104 134 178 214 267 332 395
#     4  11  25  45  70  97 131 175 222 271 329 397
#
# _framework density 10.295684
#
# number of rings (size 3 to 8) (size 9 to 14) (size 15 to 20)
#    0.000    0.923    3.077    2.769    6.462    4.308 
#    0.000    2.308    0.000    0.000    0.000    0.000 
#    0.000    0.000    0.000    0.000    0.000    0.000 
#
# Total GULP energy -144832.201018 kJ/mol
# GULP energy per Si atom -5570.469270 kJ/mol
# Density = 1.027225 g / cm^3
# Si number density = 10.295684 Si / 1000 Ang^3
#
#
#
# Elastic Constant Matrix: (Units=GPa)
#
#
# Indices 1 2 3 4 5 6 
#
# 1 26.5264 11.9183 24.2580 0.0000 -14.0305 0.0000
# 2 11.9183 86.2267 31.2457 0.0000 -26.8179 0.0000
# 3 24.2580 31.2457 97.1534 0.0000 -23.7376 0.0000
# 4 0.0000 0.0000 0.0000 4.4548 0.0000 -45.0258
# 5 -14.0305 -26.8179 -23.7376 0.0000 42.8131 0.0000
# 6 0.0000 0.0000 0.0000 -45.0258 0.0000 -12.9884
#
#
#
# Elastic Compliance Matrix: (Units=1/GPa)
#
#
# Indices 1 2 3 4 5 6 
#
# 1 0.053490 0.000067 -0.010508 0.000000 0.011746 0.000000
# 2 0.000067 0.015098 -0.002957 0.000000 0.007840 0.000000
# 3 -0.010508 -0.002957 0.014544 0.000000 0.002768 0.000000
# 4 0.000000 0.000000 0.000000 0.006229 0.000000 -0.021593
# 5 0.011746 0.007840 0.002768 0.000000 0.033652 0.000000
# 6 0.000000 0.000000 0.000000 -0.021593 0.000000 -0.002136
#
#
# Mechanical properties :
#
#
# Convention : Reuss Voigt Hill
#
# Bulk Modulus (GPa) = 17.75027 38.30561 28.02794
# Shear Modulus (GPa) = 30.03911 16.35485 23.19698
#
# Velocity S-wave (km/s) = 3.82359 2.82132 3.36004
# Velocity P-wave (km/s) = 5.30397 5.40890 5.35669
#
# Compressibility (1/GPa) = 0.05633719
#
# Stress axis : x y z
#
# Youngs Moduli (GPa) = 18.69516 66.23468 68.75714
#
# Poissons Ratio (x) = -0.00446 0.72247
# Poissons Ratio (y) = -0.00126 0.20331
# Poissons Ratio (z) = 0.19644 0.19585
#
# Static dielectric constant tensor:
#      x y z
#    x 1.740360 0.000000 0.061010 
#    y 0.000000 1.715730 0.000000 
#    z 0.061010 0.000000 1.775280 
# 
# From -- ./inp_files/180531.got.cif
#   From: 2010.05.17/outbox.ucp.g08.bks.cvg/sg12_91_cif.got.tgz:180531.got - 2010.06.11 11:47:21.
