data_PCOD9225993
_publ_section_title
;
Structure prediction by ZEFSAII (Michael W. Deem and Ramdas Pophale) SiO2 
 PCOD9225993
Probable space group: P 2/C
;
_chemical_formula_sum "Si O2"
_cell_formula_units_Z 18
_cell_length_a 7.022458
_cell_length_b 23.511689
_cell_length_c 5.259159
_cell_angle_alpha 90.000000
_cell_angle_beta 104.302742
_cell_angle_gamma 90.000000
_cell_volume 841.423833
_symmetry_space_group_name_H-M "P 2/C"
_symmetry_group_IT_number 13
_symmetry_cell_setting 'monoclinic'
loop_
_space_group_symop_operation_xyz
x,y,z
-x,y,1/2-z
-x,-y,-z
x,-y,1/2+z
loop_
_atom_site_type_symbol
_atom_site_label
_atom_site_fract_x
_atom_site_fract_y
_atom_site_fract_z
Si Si1 0.722569 0.813308 0.513758
Si Si2 0.722803 0.141510 0.510176
Si Si3 0.765889 0.465119 0.178555
Si Si4 0.500000 0.362644 0.250000
Si Si5 0.500000 0.961379 0.750000
Si Si6 0.500000 0.709934 0.250000
O O1 0.499850 0.836274 0.500353
O O2 0.809796 0.853449 0.321484
O O3 0.682198 0.750704 0.392363
O O4 0.812175 0.817760 0.824174
O O5 0.686144 0.080405 0.368186
O O6 0.711427 0.508123 0.389269
O O7 0.669702 0.405078 0.210619
O O8 0.000000 0.459083 0.250000
O O9 0.552721 0.325373 0.515001
O O10 0.500000 0.000000 0.500000
#
# Coordination Sequence:
#
# PCOD9225993 Si02
#       6
#     4   4   4   2   2   2
#     4   8  13  24  33  44  69  98 123 152 213 264
#     4   8  13  20  29  38  57  96 129 156 211 262
#     4  10  21  37  53  68  92 124 149 173 213 264
#     4  12  20  30  50  76  92 108 148 190 220 250
#     4  10  14  16  22  36  54  76 120 178 216 236
#     4  10  18  26  42  68  90 104 130 186 232 252
#
# _framework density 21.392309999999998
#
# number of rings (size 3 to 8) (size 9 to 14) (size 15 to 20)
#    0.000    3.111    0.000    7.333    0.000    0.000 
#    0.000    0.000    0.000    0.000    0.000    0.000 
#    0.000    0.000    0.000    0.000    0.000    0.000 
#
# Total GULP energy -100218.508075 kJ/mol
# GULP energy per Si atom -5567.694893 kJ/mol
# Density = 2.134362 g / cm^3
# Si number density = 21.392310 Si / 1000 Ang^3
#
#
#
# Elastic Constant Matrix: (Units=GPa)
#
#
# Indices 1 2 3 4 5 6 
#
# 1 52.7077 20.3181 44.4907 0.0000 -11.5883 0.0000
# 2 20.3181 118.3699 69.1181 0.0000 -17.7796 0.0000
# 3 44.4907 69.1181 207.6244 0.0000 -38.8479 0.0000
# 4 0.0000 0.0000 0.0000 64.6501 0.0000 -14.6499
# 5 -11.5883 -17.7796 -38.8479 0.0000 37.3482 0.0000
# 6 0.0000 0.0000 0.0000 -14.6499 0.0000 8.7647
#
#
#
# Elastic Compliance Matrix: (Units=1/GPa)
#
#
# Indices 1 2 3 4 5 6 
#
# 1 0.023498 -0.001238 -0.004183 0.000000 0.002350 0.000000
# 2 -0.001238 0.010638 -0.002981 0.000000 0.001580 0.000000
# 3 -0.004183 -0.002981 0.007694 0.000000 0.005286 0.000000
# 4 0.000000 0.000000 0.000000 0.024898 0.000000 0.041617
# 5 0.002350 0.001580 0.005286 0.000000 0.033755 0.000000
# 6 0.000000 0.000000 0.000000 0.041617 0.000000 0.183655
#
#
# Mechanical properties :
#
#
# Convention : Reuss Voigt Hill
#
# Bulk Modulus (GPa) = 39.95723 71.83955 55.89839
# Shear Modulus (GPa) = 16.16639 38.47093 27.31866
#
# Velocity S-wave (km/s) = 2.75200 4.24530 3.57744
# Velocity P-wave (km/s) = 5.36814 7.59506 6.57654
#
# Compressibility (1/GPa) = 0.02502676
#
# Stress axis : x y z
#
# Youngs Moduli (GPa) = 42.55748 93.99993 129.96834
#
# Poissons Ratio (x) = 0.11633 0.54372
# Poissons Ratio (y) = 0.05267 0.38739
# Poissons Ratio (z) = 0.17804 0.28018
#
# Static dielectric constant tensor:
#      x y z
#    x 1.927710 0.000000 0.174430 
#    y 0.000000 1.804950 0.000000 
#    z 0.174430 0.000000 2.060570 
# 
# From -- ./inp_files/1650.got.cif
#   From: 2010.05.17/outbox.cif.g08.bks.cpg/sg13_1_cif.got.tgz:1650.got - 2010.06.03 16:44:36.
