data_PCOD9225663
_publ_section_title
;
Structure prediction by ZEFSAII (Michael W. Deem and Ramdas Pophale) SiO2 
 PCOD9225663
Probable space group: C 2/M
;
_chemical_formula_sum "Si O2"
_cell_formula_units_Z 28
_cell_length_a 9.000000
_cell_length_b 15.000000
_cell_length_c 21.000000
_cell_angle_alpha 90.000000
_cell_angle_beta 90.000000
_cell_angle_gamma 90.000000
_cell_volume 2835.000000
_symmetry_space_group_name_H-M "C 2/M"
_symmetry_group_IT_number 12
_symmetry_cell_setting 'monoclinic'
loop_
_space_group_symop_operation_xyz
x,y,z
-x,y,-z
-x,-y,-z
x,-y,z
1/2+x,1/2+y,z
1/2-x,1/2+y,-z
1/2-x,1/2-y,-z
1/2+x,1/2-y,z
loop_
_atom_site_type_symbol
_atom_site_label
_atom_site_fract_x
_atom_site_fract_y
_atom_site_fract_z
Si Si1 0.158709 0.105769 0.359974
Si Si2 0.782486 0.397603 0.945796
Si Si3 0.378504 0.231577 0.549789
Si Si4 0.634493 0.898222 0.915772
Si Si5 0.280096 0.264843 0.163567
Si Si6 0.514530 0.105222 0.345743
Si Si7 0.527469 0.269732 0.251405
O O1 0.094753 0.174579 0.413083
O O2 0.339034 0.110155 0.365065
O O3 0.103225 0.154002 0.294808
O O4 0.118282 0.000000 0.363907
O O5 0.730701 0.500000 0.939808
O O6 0.707849 0.333334 0.894657
O O7 0.959107 0.397294 0.931019
O O8 0.775703 0.371100 0.020133
O O9 0.500000 0.202034 0.500000
O O10 0.250000 0.250000 0.500000
O O11 0.378132 0.152713 0.602107
O O12 0.664614 0.830560 0.859988
O O13 0.674960 0.000000 0.900515
O O14 0.364181 0.295896 0.227464
O O15 0.113964 0.246784 0.186066
O O16 0.524185 0.175055 0.287626
O O17 0.548014 0.000000 0.334689
#
# Coordination Sequence:
#
# PCOD9225663 Si02
#       7
#     8   8   8   8   8   8   8
#     4  10  22  41  62  86 121 160 193 236 290 337
#     4   9  19  36  57  84 115 148 192 243 293 352
#     4  11  22  39  63  96 125 148 190 242 282 335
#     4   9  19  36  58  83 113 151 193 238 294 359
#     4  12  21  37  59  86 115 150 196 239 299 346
#     4  10  22  41  64  86 117 162 199 231 283 346
#     4  11  24  38  58  87 118 152 195 249 284 337
#
# _framework density 9.8765429999999999
#
# number of rings (size 3 to 8) (size 9 to 14) (size 15 to 20)
#    0.000    1.714    4.286    1.286    0.000    3.429 
#    0.000    1.429    0.000    1.714    0.000    0.000 
#    0.000    0.000    0.000    0.000    0.000    0.000 
#
# Total GULP energy -155942.860373 kJ/mol
# GULP energy per Si atom -5569.387870 kJ/mol
# Density = 0.985406 g / cm^3
# Si number density = 9.876543 Si / 1000 Ang^3
#
#
#
# Elastic Constant Matrix: (Units=GPa)
#
#
# Indices 1 2 3 4 5 6 
#
# 1 11.7045 3.7835 6.5633 0.0000 18.2522 0.0000
# 2 3.7835 126.5113 41.9145 0.0000 22.8656 0.0000
# 3 6.5633 41.9145 77.3654 0.0000 25.5388 0.0000
# 4 0.0000 0.0000 0.0000 18.9656 0.0000 -3.4785
# 5 18.2522 22.8656 25.5388 0.0000 34.7644 0.0000
# 6 0.0000 0.0000 0.0000 -3.4785 0.0000 19.2646
#
#
#
# Elastic Compliance Matrix: (Units=1/GPa)
#
#
# Indices 1 2 3 4 5 6 
#
# 1 0.957420 0.050271 0.090285 0.000000 -0.602059 0.000000
# 2 0.050271 0.012569 0.000485 0.000000 -0.035017 0.000000
# 3 0.090285 0.000485 0.027401 0.000000 -0.067850 0.000000
# 4 0.000000 0.000000 0.000000 0.054533 0.000000 0.009847
# 5 -0.602059 -0.035017 -0.067850 0.000000 0.417737 0.000000
# 6 0.000000 0.000000 0.000000 0.009847 0.000000 0.053687
#
#
# Mechanical properties :
#
#
# Convention : Reuss Voigt Hill
#
# Bulk Modulus (GPa) = 0.78157 35.56710 18.17433
# Shear Modulus (GPa) = 2.99804 25.48692 14.24248
#
# Velocity S-wave (km/s) = 1.23331 3.59594 2.68810
# Velocity P-wave (km/s) = 1.55711 5.94020 4.34227
#
# Compressibility (1/GPa) = 1.27947034
#
# Stress axis : x y z
#
# Youngs Moduli (GPa) = 1.04447 79.55895 36.49439
#
# Poissons Ratio (x) = -3.99947 -3.29488
# Poissons Ratio (y) = -0.05251 -0.01769
# Poissons Ratio (z) = -0.09430 -0.03857
#
# Static dielectric constant tensor:
#      x y z
#    x 1.729050 0.000000 0.015890 
#    y 0.000000 1.650730 0.000000 
#    z 0.015890 0.000000 1.710690 
# 
# From -- ./inp_files/300143.got.cif
#   From: 2010.05.17/outbox.ucp.g08.bks.cvg/sg12_151_cif.got.tgz:300143.got - 2010.06.11 11:47:21.
