data_PCOD9225740
_publ_section_title
;
Structure prediction by ZEFSAII (Michael W. Deem and Ramdas Pophale) SiO2 
 PCOD9225740
Probable space group: C 2/M
;
_chemical_formula_sum "Si O2"
_cell_formula_units_Z 20
_cell_length_a 9.000000
_cell_length_b 15.000000
_cell_length_c 30.000000
_cell_angle_alpha 90.000000
_cell_angle_beta 30.000000
_cell_angle_gamma 90.000000
_cell_volume 2025.000000
_symmetry_space_group_name_H-M "C 2/M"
_symmetry_group_IT_number 12
_symmetry_cell_setting 'monoclinic'
loop_
_space_group_symop_operation_xyz
x,y,z
-x,y,-z
-x,-y,-z
x,-y,z
1/2+x,1/2+y,z
1/2-x,1/2+y,-z
1/2-x,1/2-y,-z
1/2+x,1/2-y,z
loop_
_atom_site_type_symbol
_atom_site_label
_atom_site_fract_x
_atom_site_fract_y
_atom_site_fract_z
Si Si1 0.664368 0.892650 0.006119
Si Si2 0.704080 0.804412 0.270549
Si Si3 0.686069 0.310635 0.559781
Si Si4 0.094196 0.000000 0.543161
Si Si5 0.482880 0.000000 0.648101
Si Si6 0.807011 0.757800 0.146544
O O1 0.502035 0.833071 0.087017
O O2 0.679835 0.000000 0.011025
O O3 0.500000 0.883027 0.000000
O O4 0.980734 0.841879 0.919022
O O5 0.502619 0.746782 0.356136
O O6 0.679828 0.908074 0.293496
O O7 0.634163 0.783640 0.237236
O O8 0.035536 0.764687 0.184844
O O9 0.750000 0.250000 0.500000
O O10 0.567874 0.407633 0.576798
O O11 0.000000 0.329217 0.500000
O O12 0.402619 0.000000 0.433524
O O13 0.801334 0.000000 0.589145
#
# Coordination Sequence:
#
# PCOD9225740 Si02
#       6
#     8   8   8   4   4   8
#     4  10  22  45  73  94 128 175 214 258 333 413
#     4  12  25  42  67  98 132 170 224 277 323 388
#     4  12  24  44  66  95 138 182 222 276 333 386
#     4  11  23  44  64  96 127 184 234 270 334 386
#     4  11  24  40  72  93 127 181 234 268 321 400
#     4  11  24  42  67 101 130 165 218 273 325 390
#
# _framework density 9.8765429999999999
#
# number of rings (size 3 to 8) (size 9 to 14) (size 15 to 20)
#    0.000    0.800    4.000    3.900    2.800    0.000 
#    3.600    1.000    0.000    0.000    0.000    0.000 
#    0.000    0.000    0.000    0.000    0.000    0.000 
#
# Total GULP energy -111467.825296 kJ/mol
# GULP energy per Si atom -5573.391265 kJ/mol
# Density = 0.985406 g / cm^3
# Si number density = 9.876543 Si / 1000 Ang^3
#
#
#
# Elastic Constant Matrix: (Units=GPa)
#
#
# Indices 1 2 3 4 5 6 
#
# 1 30.3216 13.1749 -1.0635 -0.0030 -4.1366 0.0041
# 2 13.1749 184.8586 32.9004 0.0080 13.0664 0.0019
# 3 -1.0635 32.9004 75.4965 0.0445 14.3927 0.0434
# 4 -0.0030 0.0080 0.0445 33.9586 -0.0034 -0.6349
# 5 -4.1366 13.0664 14.3927 -0.0034 47.8986 -0.0179
# 6 0.0041 0.0019 0.0434 -0.6349 -0.0179 28.4830
#
#
#
# Elastic Compliance Matrix: (Units=1/GPa)
#
#
# Indices 1 2 3 4 5 6 
#
# 1 0.034759 -0.002918 0.001100 0.000003 0.003467 -0.000004
# 2 -0.002918 0.006145 -0.002494 0.000002 -0.001179 0.000003
# 3 0.001100 -0.002494 0.015063 -0.000020 -0.003751 -0.000026
# 4 0.000003 0.000002 -0.000020 0.029460 0.000008 0.000657
# 5 0.003467 -0.001179 -0.003751 0.000008 0.022625 0.000020
# 6 -0.000004 0.000003 -0.000026 0.000657 0.000020 0.035123
#
#
# Mechanical properties :
#
#
# Convention : Reuss Voigt Hill
#
# Bulk Modulus (GPa) = 21.12232 42.30002 31.71117
# Shear Modulus (GPa) = 29.83626 38.44570 34.14098
#
# Velocity S-wave (km/s) = 3.89068 4.41649 4.16190
# Velocity P-wave (km/s) = 5.55874 6.88971 6.25970
#
# Compressibility (1/GPa) = 0.04734328
#
# Stress axis : x y z
#
# Youngs Moduli (GPa) = 28.76916 162.74058 66.38712
#
# Poissons Ratio (x) = 0.47491 -0.07305
# Poissons Ratio (y) = 0.08395 0.16558
# Poissons Ratio (z) = -0.03166 0.40591
#
# Static dielectric constant tensor:
#      x y z
#    x 1.725950 0.000010 -0.041130 
#    y 0.000010 1.638370 -0.000010 
#    z -0.041130 -0.000010 1.696060 
# 
# From -- ./inp_files/194576.got.cif
#   From: 2010.05.17/outbox.ucp.g08.bks.cvg/sg12_98_cif.got.tgz:194576.got - 2010.06.11 11:47:21.
