data_PCOD9225867
_publ_section_title
;
Structure prediction by ZEFSAII (Michael W. Deem and Ramdas Pophale) SiO2 
 PCOD9225867
Probable space group: C 2/M
;
_chemical_formula_sum "Si O2"
_cell_formula_units_Z 24
_cell_length_a 27.000000
_cell_length_b 9.000000
_cell_length_c 15.000000
_cell_angle_alpha 90.000000
_cell_angle_beta 140.000000
_cell_angle_gamma 90.000000
_cell_volume 2342.960837
_symmetry_space_group_name_H-M "C 2/M"
_symmetry_group_IT_number 12
_symmetry_cell_setting 'monoclinic'
loop_
_space_group_symop_operation_xyz
x,y,z
-x,y,-z
-x,-y,-z
x,-y,z
1/2+x,1/2+y,z
1/2-x,1/2+y,-z
1/2-x,1/2-y,-z
1/2+x,1/2-y,z
loop_
_atom_site_type_symbol
_atom_site_label
_atom_site_fract_x
_atom_site_fract_y
_atom_site_fract_z
Si Si1 0.716502 0.328222 0.539867
Si Si2 0.949611 0.672379 0.020247
Si Si3 0.012987 0.326113 0.631638
Si Si4 0.369985 0.320371 0.325263
Si Si5 0.220552 0.179235 0.199388
Si Si6 0.033443 0.161651 0.275163
O O1 0.743648 0.500000 0.589862
O O2 0.750000 0.250000 0.500000
O O3 0.739338 0.222955 0.652319
O O4 0.624884 0.334578 0.404045
O O5 0.946211 0.500000 0.049217
O O6 0.862041 0.737257 0.907526
O O7 0.000000 0.656914 0.000000
O O8 0.999242 0.804046 0.133456
O O9 0.019179 0.500000 0.618786
O O10 0.088697 0.234465 0.707838
O O11 0.935476 0.251472 0.481807
O O12 0.000344 0.297950 0.716656
O O13 0.368056 0.500000 0.332899
O O14 0.285246 0.249842 0.221556
O O15 0.213338 0.000000 0.177641
O O16 0.008908 0.000000 0.276734
#
# Coordination Sequence:
#
# PCOD9225867 Si02
#       6
#     8   8   8   8   8   8
#     4  11  23  38  60  89 123 158 203 258 311 365
#     4  11  25  44  65  89 123 166 211 256 311 374
#     4  11  21  36  61  93 126 162 205 252 309 368
#     4  11  21  37  61  91 127 163 203 253 311 367
#     4  12  24  40  63  91 124 162 208 256 310 370
#     4  11  23  40  62  90 124 164 207 254 310 367
#
# _framework density 10.243449
#
# number of rings (size 3 to 8) (size 9 to 14) (size 15 to 20)
#    0.000    0.833    1.667    8.000    0.000    6.000 
#    0.000    0.833    0.000    0.000    0.000    0.000 
#    0.000    0.000    0.000    0.000    0.000    0.000 
#
# Total GULP energy -133625.074596 kJ/mol
# GULP energy per Si atom -5567.711442 kJ/mol
# Density = 1.022013 g / cm^3
# Si number density = 10.243449 Si / 1000 Ang^3
#
#
#
# Elastic Constant Matrix: (Units=GPa)
#
#
# Indices 1 2 3 4 5 6 
#
# 1 120.6303 56.1030 37.6389 0.0000 45.6771 0.0000
# 2 56.1030 177.9137 38.3869 0.0000 29.5922 0.0000
# 3 37.6389 38.3869 83.8913 0.0000 56.3359 0.0000
# 4 0.0000 0.0000 0.0000 135.3393 0.0000 0.2824
# 5 45.6771 29.5922 56.3359 0.0000 50.7068 0.0000
# 6 0.0000 0.0000 0.0000 0.2824 0.0000 36.1486
#
#
#
# Elastic Compliance Matrix: (Units=1/GPa)
#
#
# Indices 1 2 3 4 5 6 
#
# 1 0.015469 -0.003190 0.010345 0.000000 -0.023566 0.000000
# 2 -0.003190 0.006939 -0.003758 0.000000 0.003000 0.000000
# 3 0.010345 -0.003758 0.054284 0.000000 -0.067435 0.000000
# 4 0.000000 0.000000 0.000000 0.007389 0.000000 -0.000058
# 5 -0.023566 0.003000 -0.067435 0.000000 0.114121 0.000000
# 6 0.000000 0.000000 0.000000 -0.000058 0.000000 0.027664
#
#
# Mechanical properties :
#
#
# Convention : Reuss Voigt Hill
#
# Bulk Modulus (GPa) = 11.97824 71.85474 41.91649
# Shear Modulus (GPa) = 20.25109 61.12604 40.68857
#
# Velocity S-wave (km/s) = 3.14744 5.46822 4.46138
# Velocity P-wave (km/s) = 4.36669 8.66131 6.85880
#
# Compressibility (1/GPa) = 0.08348471
#
# Stress axis : x y z
#
# Youngs Moduli (GPa) = 64.64471 144.12089 18.42176
#
# Poissons Ratio (x) = 0.45979 -0.19057
# Poissons Ratio (y) = 0.20624 0.06923
# Poissons Ratio (z) = -0.66874 0.54160
#
# Static dielectric constant tensor:
#      x y z
#    x 1.834210 0.000000 -0.295950 
#    y 0.000000 1.704100 0.000000 
#    z -0.295950 0.000000 2.388720 
# 
# From -- ./inp_files/244914.got.cif
#   From: 2010.05.17/outbox.ucp.g08.bks.cvg/sg12_123_cif.got.tgz:244914.got - 2010.06.11 11:47:21.
