data_PCOD9225719
_publ_section_title
;
Structure prediction by ZEFSAII (Michael W. Deem and Ramdas Pophale) SiO2 
 PCOD9225719
Probable space group: C 2/M
;
_chemical_formula_sum "Si O2"
_cell_formula_units_Z 28
_cell_length_a 21.000000
_cell_length_b 30.000000
_cell_length_c 9.000000
_cell_angle_alpha 90.000000
_cell_angle_beta 30.000000
_cell_angle_gamma 90.000000
_cell_volume 2835.000000
_symmetry_space_group_name_H-M "C 2/M"
_symmetry_group_IT_number 12
_symmetry_cell_setting 'monoclinic'
loop_
_space_group_symop_operation_xyz
x,y,z
-x,y,-z
-x,-y,-z
x,-y,z
1/2+x,1/2+y,z
1/2-x,1/2+y,-z
1/2-x,1/2-y,-z
1/2+x,1/2-y,z
loop_
_atom_site_type_symbol
_atom_site_label
_atom_site_fract_x
_atom_site_fract_y
_atom_site_fract_z
Si Si1 0.348258 0.180053 0.317335
Si Si2 0.729244 0.243312 0.762751
Si Si3 0.760868 0.947886 0.657981
Si Si4 0.008797 0.106371 0.662604
Si Si5 0.249485 0.587678 0.355023
Si Si6 0.007998 0.553825 0.656971
Si Si7 0.525073 0.292806 0.618870
O O1 0.298734 0.196003 0.258106
O O2 0.303642 0.221622 0.507947
O O3 0.284368 0.136474 0.512929
O O4 0.500000 0.175227 0.000000
O O5 0.839792 0.232108 0.654412
O O6 0.593251 0.264555 0.077833
O O7 0.872238 0.921200 0.514906
O O8 0.766239 0.941626 0.469504
O O9 0.773179 0.000000 0.669833
O O10 0.621712 0.932597 0.996770
O O11 0.000000 0.103438 0.500000
O O12 0.025966 0.157544 0.683893
O O13 0.877422 0.089002 0.999686
O O14 0.130937 0.572343 0.493609
O O15 0.015675 0.500000 0.645510
O O16 0.000000 0.567544 0.500000
O O17 0.500000 0.301261 0.500000
#
# Coordination Sequence:
#
# PCOD9225719 Si02
#       7
#     8   8   8   8   8   8   8
#     4  11  22  37  62  88 122 155 205 254 311 370
#     4  11  22  40  61  88 118 162 204 255 309 372
#     4  11  24  42  65  96 130 168 213 262 318 374
#     4  11  25  43  63  93 131 169 211 263 322 382
#     4  12  23  40  66  94 128 165 213 269 315 370
#     4  10  22  42  67  94 128 171 213 256 315 383
#     4  11  23  42  63  89 125 164 209 259 316 378
#
# _framework density 9.8765429999999999
#
# number of rings (size 3 to 8) (size 9 to 14) (size 15 to 20)
#    0.000    1.000    2.857    4.286    0.000    3.143 
#    0.000    0.714    0.000    0.000    0.000    0.000 
#    0.000    0.000    0.000    0.000    0.000    0.000 
#
# Total GULP energy -156294.461281 kJ/mol
# GULP energy per Si atom -5581.945046 kJ/mol
# Density = 0.985406 g / cm^3
# Si number density = 9.876543 Si / 1000 Ang^3
#
#
#
# Elastic Constant Matrix: (Units=GPa)
#
#
# Indices 1 2 3 4 5 6 
#
# 1 95.1534 45.1066 49.2672 0.0000 -17.8612 0.0000
# 2 45.1066 65.5996 35.9034 0.0000 -16.1171 0.0000
# 3 49.2672 35.9034 139.4736 0.0000 -11.8218 0.0000
# 4 0.0000 0.0000 0.0000 32.0203 0.0000 -5.3687
# 5 -17.8612 -16.1171 -11.8218 0.0000 38.2542 0.0000
# 6 0.0000 0.0000 0.0000 -5.3687 0.0000 31.3773
#
#
#
# Elastic Compliance Matrix: (Units=1/GPa)
#
#
# Indices 1 2 3 4 5 6 
#
# 1 0.017246 -0.009201 -0.003460 0.000000 0.003106 0.000000
# 2 -0.009201 0.024226 -0.002552 0.000000 0.005122 0.000000
# 3 -0.003460 -0.002552 0.009058 0.000000 0.000109 0.000000
# 4 0.000000 0.000000 0.000000 0.032153 0.000000 0.005501
# 5 0.003106 0.005122 0.000109 0.000000 0.029783 0.000000
# 6 0.000000 0.000000 0.000000 0.005501 0.000000 0.032811
#
#
# Mechanical properties :
#
#
# Convention : Reuss Voigt Hill
#
# Bulk Modulus (GPa) = 49.74269 62.30901 56.02585
# Shear Modulus (GPa) = 27.41165 31.66031 29.53598
#
# Velocity S-wave (km/s) = 3.72925 4.00785 3.87105
# Velocity P-wave (km/s) = 6.61664 7.28214 6.95735
#
# Compressibility (1/GPa) = 0.02010346
#
# Stress axis : x y z
#
# Youngs Moduli (GPa) = 57.98557 41.27791 110.39864
#
# Poissons Ratio (x) = 0.37982 0.38197
# Poissons Ratio (y) = 0.53355 0.28172
# Poissons Ratio (z) = 0.20062 0.10534
#
# Static dielectric constant tensor:
#      x y z
#    x 1.740850 0.000000 -0.017500 
#    y 0.000000 1.725950 0.000000 
#    z -0.017500 0.000000 1.681680 
# 
# From -- ./inp_files/91531.got.cif
#   From: 2010.05.17/outbox.ucp.g08.bks.cvg/sg12_46_cif.got.tgz:91531.got - 2010.06.11 11:47:21.
