data_PCOD9225559
_publ_section_title
;
Structure prediction by ZEFSAII (Michael W. Deem and Ramdas Pophale) SiO2 
 PCOD9225559
Probable space group: C 2/M
;
_chemical_formula_sum "Si O2"
_cell_formula_units_Z 32
_cell_length_a 18.000000
_cell_length_b 30.000000
_cell_length_c 12.000000
_cell_angle_alpha 90.000000
_cell_angle_beta 30.000000
_cell_angle_gamma 90.000000
_cell_volume 3240.000000
_symmetry_space_group_name_H-M "C 2/M"
_symmetry_group_IT_number 12
_symmetry_cell_setting 'monoclinic'
loop_
_space_group_symop_operation_xyz
x,y,z
-x,y,-z
-x,-y,-z
x,-y,z
1/2+x,1/2+y,z
1/2-x,1/2+y,-z
1/2-x,1/2-y,-z
1/2+x,1/2-y,z
loop_
_atom_site_type_symbol
_atom_site_label
_atom_site_fract_x
_atom_site_fract_y
_atom_site_fract_z
Si Si1 0.116272 0.603672 0.626137
Si Si2 0.162983 0.147742 0.841351
Si Si3 0.674081 0.948062 0.990290
Si Si4 0.781003 0.107443 0.635136
Si Si5 0.371416 0.388064 0.868995
Si Si6 0.876515 0.677569 0.906571
Si Si7 0.169796 0.708017 0.809235
Si Si8 0.104462 0.272981 0.456136
O O1 0.233477 0.619847 0.380085
O O2 0.208632 0.589896 0.614776
O O3 0.002549 0.645080 0.797178
O O4 0.993286 0.566391 0.757759
O O5 0.266343 0.190480 0.738670
O O6 0.132147 0.120754 0.994657
O O7 0.000000 0.158844 0.000000
O O8 0.726574 0.921413 0.810966
O O9 0.787162 0.932679 0.939868
O O10 0.681294 0.000000 0.959395
O O11 0.715127 0.157233 0.729756
O O12 0.959494 0.111010 0.394257
O O13 0.264626 0.350182 0.952651
O O14 0.973624 0.699996 0.685994
O O15 0.823695 0.713104 0.065430
O O16 0.301279 0.738636 0.591482
O O17 0.000000 0.718267 0.000000
O O18 0.000000 0.249134 0.500000
#
# Coordination Sequence:
#
# PCOD9225559 Si02
#       8
#     8   8   8   8   8   8   8   8
#     4  10  21  41  69  91 126 169 215 257 317 384
#     4  11  22  44  66  93 125 174 219 266 316 378
#     4  11  25  43  68 101 131 164 206 261 327 393
#     4  12  22  40  67  98 128 171 212 263 327 385
#     4  11  23  40  69  94 130 166 214 264 324 385
#     4  10  22  41  58  87 126 169 216 266 317 379
#     4  12  24  40  59  89 132 172 216 272 320 373
#     4  11  25  38  61  91 124 172 224 269 315 369
#
# _framework density 9.8765429999999999
#
# number of rings (size 3 to 8) (size 9 to 14) (size 15 to 20)
#    0.000    1.000    6.250    1.125    1.750    4.000 
#    0.000    1.250    0.000    0.750    0.000    0.000 
#    0.000    0.000    0.000    0.000    0.000    0.000 
#
# Total GULP energy -178424.007653 kJ/mol
# GULP energy per Si atom -5575.750239 kJ/mol
# Density = 0.985406 g / cm^3
# Si number density = 9.876543 Si / 1000 Ang^3
#
#
#
# Elastic Constant Matrix: (Units=GPa)
#
#
# Indices 1 2 3 4 5 6 
#
# 1 100.0227 21.1016 39.3639 0.0002 -32.2861 0.0001
# 2 21.1016 78.8100 22.7231 0.0000 -12.4178 0.0000
# 3 39.3639 22.7231 121.3305 0.0009 -37.5492 -0.0001
# 4 0.0002 0.0000 0.0009 8.3777 -0.0004 -3.6501
# 5 -32.2861 -12.4178 -37.5492 -0.0004 40.6889 0.0001
# 6 0.0001 0.0000 -0.0001 -3.6501 0.0001 8.6344
#
#
#
# Elastic Compliance Matrix: (Units=1/GPa)
#
#
# Indices 1 2 3 4 5 6 
#
# 1 0.013891 -0.001889 -0.001288 0.000000 0.009257 0.000000
# 2 -0.001889 0.013852 -0.001591 0.000000 0.001260 0.000000
# 3 -0.001288 -0.001591 0.011886 -0.000001 0.009461 0.000000
# 4 0.000000 0.000000 -0.000001 0.146314 0.000001 0.061854
# 5 0.009257 0.001260 0.009461 0.000001 0.041038 0.000000
# 6 0.000000 0.000000 0.000000 0.061854 0.000000 0.141964
#
#
# Mechanical properties :
#
#
# Convention : Reuss Voigt Hill
#
# Bulk Modulus (GPa) = 33.23202 51.83782 42.53492
# Shear Modulus (GPa) = 12.86955 26.00515 19.43735
#
# Velocity S-wave (km/s) = 2.55526 3.63231 3.14031
# Velocity P-wave (km/s) = 5.05629 6.62506 5.89311
#
# Compressibility (1/GPa) = 0.03009146
#
# Stress axis : x y z
#
# Youngs Moduli (GPa) = 71.98686 72.19187 84.13364
#
# Poissons Ratio (x) = 0.13640 0.10837
# Poissons Ratio (y) = 0.13601 0.13389
# Poissons Ratio (z) = 0.09272 0.11489
#
# Static dielectric constant tensor:
#      x y z
#    x 1.742220 0.000000 0.042230 
#    y 0.000000 1.726990 0.000000 
#    z 0.042230 0.000000 1.700780 
# 
# From -- ./inp_files/161179.got.cif
#   From: 2010.05.17/outbox.ucp.g08.bks.cvg/sg12_81_cif.got.tgz:161179.got - 2010.06.11 11:47:21.
