data_PCOD9225513
_publ_section_title
;
Structure prediction by ZEFSAII (Michael W. Deem and Ramdas Pophale) SiO2 
 PCOD9225513
Probable space group: C 2/M
;
_chemical_formula_sum "Si O2"
_cell_formula_units_Z 28
_cell_length_a 18.000000
_cell_length_b 9.000000
_cell_length_c 18.000000
_cell_angle_alpha 90.000000
_cell_angle_beta 110.000000
_cell_angle_gamma 90.000000
_cell_volume 2740.143682
_symmetry_space_group_name_H-M "C 2/M"
_symmetry_group_IT_number 12
_symmetry_cell_setting 'monoclinic'
loop_
_space_group_symop_operation_xyz
x,y,z
-x,y,-z
-x,-y,-z
x,-y,z
1/2+x,1/2+y,z
1/2-x,1/2+y,-z
1/2-x,1/2-y,-z
1/2+x,1/2-y,z
loop_
_atom_site_type_symbol
_atom_site_label
_atom_site_fract_x
_atom_site_fract_y
_atom_site_fract_z
Si Si1 0.393823 0.676682 0.081916
Si Si2 0.037808 0.676307 0.206004
Si Si3 0.320335 0.321395 0.476590
Si Si4 0.790200 0.333243 0.153099
Si Si5 0.602841 0.331163 0.085225
Si Si6 0.544365 0.322639 0.361083
Si Si7 0.140224 0.821071 0.677419
O O1 0.388708 0.500000 0.081298
O O2 0.455924 0.737962 0.163158
O O3 0.315180 0.747069 0.087530
O O4 0.417438 0.719532 0.005822
O O5 0.029252 0.500000 0.206530
O O6 0.082892 0.724731 0.146680
O O7 0.070478 0.737670 0.295162
O O8 0.310652 0.500000 0.472748
O O9 0.250000 0.250000 0.500000
O O10 0.400361 0.288219 0.549826
O O11 0.327404 0.273810 0.392721
O O12 0.824154 0.500000 0.163315
O O13 0.696624 0.343535 0.118725
O O14 0.816926 0.253148 0.237922
O O15 0.570157 0.500000 0.086623
O O16 0.549524 0.500000 0.348724
O O17 0.453265 0.287007 0.348318
O O18 0.148762 0.000000 0.685590
#
# Coordination Sequence:
#
# PCOD9225513 Si02
#       7
#     8   8   8   8   8   8   8
#     4  11  22  41  65  88 120 165 210 253 308 371
#     4  12  25  39  61  93 126 160 207 262 308 361
#     4  10  23  41  64  95 126 159 202 250 305 364
#     4  11  23  39  62  93 126 160 205 257 307 361
#     4  10  24  42  61  87 124 167 208 253 310 371
#     4  10  21  41  66  88 120 166 208 249 300 364
#     4  10  21  40  65  90 120 163 209 247 296 364
#
# _framework density 10.218442
#
# number of rings (size 3 to 8) (size 9 to 14) (size 15 to 20)
#    0.000    1.429    1.429    3.429    2.000    6.857 
#    0.000    0.000    0.000    2.571    0.000    0.000 
#    0.000    0.000    0.000    0.000    0.000    0.000 
#
# Total GULP energy -156391.793189 kJ/mol
# GULP energy per Si atom -5585.421185 kJ/mol
# Density = 1.019518 g / cm^3
# Si number density = 10.218442 Si / 1000 Ang^3
#
#
#
# Elastic Constant Matrix: (Units=GPa)
#
#
# Indices 1 2 3 4 5 6 
#
# 1 71.2511 27.0874 27.3923 0.0000 -16.5340 0.0000
# 2 27.0874 55.2680 38.1673 0.0000 -18.7651 0.0000
# 3 27.3923 38.1673 121.9639 0.0000 -31.6380 0.0000
# 4 0.0000 0.0000 0.0000 15.9273 0.0000 -6.6327
# 5 -16.5340 -18.7651 -31.6380 0.0000 38.8225 0.0000
# 6 0.0000 0.0000 0.0000 -6.6327 0.0000 26.1016
#
#
#
# Elastic Compliance Matrix: (Units=1/GPa)
#
#
# Indices 1 2 3 4 5 6 
#
# 1 0.017831 -0.006906 -0.000938 0.000000 0.003492 0.000000
# 2 -0.006906 0.027210 -0.005472 0.000000 0.005752 0.000000
# 3 -0.000938 -0.005472 0.011834 0.000000 0.006600 0.000000
# 4 0.000000 0.000000 0.000000 0.070215 0.000000 0.017842
# 5 0.003492 0.005752 0.006600 0.000000 0.035404 0.000000
# 6 0.000000 0.000000 0.000000 0.017842 0.000000 0.042846
#
#
# Mechanical properties :
#
#
# Convention : Reuss Voigt Hill
#
# Bulk Modulus (GPa) = 33.06482 48.19746 40.63114
# Shear Modulus (GPa) = 20.65658 26.55935 23.60796
#
# Velocity S-wave (km/s) = 3.18268 3.60888 3.40246
# Velocity P-wave (km/s) = 5.45161 6.40313 5.94643
#
# Compressibility (1/GPa) = 0.03024362
#
# Stress axis : x y z
#
# Youngs Moduli (GPa) = 56.08163 36.75097 84.50067
#
# Poissons Ratio (x) = 0.25380 0.07925
# Poissons Ratio (y) = 0.38730 0.46239
# Poissons Ratio (z) = 0.05260 0.20110
#
# Static dielectric constant tensor:
#      x y z
#    x 1.821360 0.000000 0.020340 
#    y 0.000000 1.701300 0.000000 
#    z 0.020340 0.000000 1.690050 
# 
# From -- ./inp_files/275058.got.cif
#   From: 2010.05.17/outbox.ucp.g08.bks.cvg/sg12_138_cif.got.tgz:275058.got - 2010.06.11 11:47:21.
