data_PCOD9225083
_publ_section_title
;
Structure prediction by ZEFSAII (Michael W. Deem and Ramdas Pophale) SiO2 
 PCOD9225083
Probable space group: C 2/M
;
_chemical_formula_sum "Si O2"
_cell_formula_units_Z 32
_cell_length_a 18.000000
_cell_length_b 9.000000
_cell_length_c 30.000000
_cell_angle_alpha 90.000000
_cell_angle_beta 140.000000
_cell_angle_gamma 90.000000
_cell_volume 3123.947783
_symmetry_space_group_name_H-M "C 2/M"
_symmetry_group_IT_number 12
_symmetry_cell_setting 'monoclinic'
loop_
_space_group_symop_operation_xyz
x,y,z
-x,y,-z
-x,-y,-z
x,-y,z
1/2+x,1/2+y,z
1/2-x,1/2+y,-z
1/2-x,1/2-y,-z
1/2+x,1/2-y,z
loop_
_atom_site_type_symbol
_atom_site_label
_atom_site_fract_x
_atom_site_fract_y
_atom_site_fract_z
Si Si1 0.062497 0.330832 0.218638
Si Si2 0.184305 0.829818 0.769057
Si Si3 0.919448 0.324888 0.005068
Si Si4 0.412728 0.672769 0.857895
Si Si5 0.178556 0.674446 0.506478
Si Si6 0.735482 0.325697 0.626185
Si Si7 0.846545 0.830975 0.142762
Si Si8 0.591825 0.825433 0.639289
O O1 0.083355 0.500000 0.213297
O O2 0.105652 0.214905 0.201904
O O3 0.132316 0.309882 0.296422
O O4 0.928664 0.294364 0.161328
O O5 0.312531 0.766359 0.835233
O O6 0.132553 0.827186 0.794549
O O7 0.121903 0.736514 0.702049
O O8 0.189916 0.000000 0.756309
O O9 0.938064 0.500000 0.022774
O O10 0.786182 0.305048 0.931138
O O11 0.000000 0.284238 0.000000
O O12 0.965276 0.230600 0.067661
O O13 0.399213 0.500000 0.859717
O O14 0.204730 0.500000 0.519739
O O15 0.250000 0.750000 0.500000
O O16 0.208714 0.744183 0.568046
O O17 0.043258 0.692727 0.433509
O O18 0.710684 0.500000 0.609597
O O19 0.661234 0.260598 0.632853
O O20 0.876639 0.000000 0.141380
O O21 0.620553 0.000000 0.650684
#
# Coordination Sequence:
#
# PCOD9225083 Si02
#       8
#     8   8   8   8   8   8   8   8
#     4  11  25  43  64  92 129 168 210 263 319 375
#     4  11  22  40  65  95 127 165 212 260 315 377
#     4  10  20  40  65  89 124 167 209 261 319 378
#     4  12  24  39  64  95 127 165 213 263 312 375
#     4  11  26  45  66  96 134 170 211 259 315 374
#     4  11  24  43  68  95 126 170 216 259 315 378
#     4  10  23  41  64  93 125 166 212 260 321 383
#     4  11  24  42  66  97 129 167 212 263 314 369
#
# _framework density 10.243449
#
# number of rings (size 3 to 8) (size 9 to 14) (size 15 to 20)
#    0.000    1.125    2.500    3.375    1.750    7.250 
#    0.000    0.000    0.000    0.000    0.000    0.000 
#    0.000    0.000    0.000    0.000    0.000    0.000 
#
# Total GULP energy -178812.112014 kJ/mol
# GULP energy per Si atom -5587.878500 kJ/mol
# Density = 1.022013 g / cm^3
# Si number density = 10.243449 Si / 1000 Ang^3
#
#
#
# Elastic Constant Matrix: (Units=GPa)
#
#
# Indices 1 2 3 4 5 6 
#
# 1 23.2098 20.9983 7.3487 0.0000 4.4426 0.0000
# 2 20.9983 60.2316 51.2162 0.0000 12.7575 0.0000
# 3 7.3487 51.2162 88.4673 0.0000 -12.3358 0.0000
# 4 0.0000 0.0000 0.0000 32.7699 0.0000 -0.0472
# 5 4.4426 12.7575 -12.3358 0.0000 26.6253 0.0000
# 6 0.0000 0.0000 0.0000 -0.0472 0.0000 27.1705
#
#
#
# Elastic Compliance Matrix: (Units=1/GPa)
#
#
# Indices 1 2 3 4 5 6 
#
# 1 0.091179 -0.076856 0.042692 0.000000 0.041392 0.000000
# 2 -0.076856 0.132894 -0.083005 0.000000 -0.089310 0.000000
# 3 0.042692 -0.083005 0.064533 0.000000 0.062548 0.000000
# 4 0.000000 0.000000 0.000000 0.030516 0.000000 0.000053
# 5 0.041392 -0.089310 0.062548 0.000000 0.102424 0.000000
# 6 0.000000 0.000000 0.000000 0.000053 0.000000 0.036805
#
#
# Mechanical properties :
#
#
# Convention : Reuss Voigt Hill
#
# Bulk Modulus (GPa) = 18.42744 36.78166 27.60455
# Shear Modulus (GPa) = 7.03454 23.46951 15.25202
#
# Velocity S-wave (km/s) = 1.85503 3.38832 2.73147
# Velocity P-wave (km/s) = 3.68815 5.77065 4.84266
#
# Compressibility (1/GPa) = 0.05426691
#
# Stress axis : x y z
#
# Youngs Moduli (GPa) = 10.96745 7.52478 15.49596
#
# Poissons Ratio (x) = 0.57833 -0.66155
# Poissons Ratio (y) = 0.84292 1.28625
# Poissons Ratio (z) = -0.46822 0.62460
#
# Static dielectric constant tensor:
#      x y z
#    x 1.774790 0.000000 0.018820 
#    y 0.000000 1.693440 0.000000 
#    z 0.018820 0.000000 1.715330 
# 
# From -- ./inp_files/378396.got.cif
#   From: 2010.05.17/outbox.ucp.g08.bks.cvg/sg12_190_cif.got.tgz:378396.got - 2010.06.11 11:47:21.
