data_PCOD9225218
_publ_section_title
;
Structure prediction by ZEFSAII (Michael W. Deem and Ramdas Pophale) SiO2 
 PCOD9225218
Probable space group: C 2/M
;
_chemical_formula_sum "Si O2"
_cell_formula_units_Z 32
_cell_length_a 24.000000
_cell_length_b 18.000000
_cell_length_c 21.000000
_cell_angle_alpha 90.000000
_cell_angle_beta 160.000000
_cell_angle_gamma 90.000000
_cell_volume 3102.806740
_symmetry_space_group_name_H-M "C 2/M"
_symmetry_group_IT_number 12
_symmetry_cell_setting 'monoclinic'
loop_
_space_group_symop_operation_xyz
x,y,z
-x,y,-z
-x,-y,-z
x,-y,z
1/2+x,1/2+y,z
1/2-x,1/2+y,-z
1/2-x,1/2-y,-z
1/2+x,1/2-y,z
loop_
_atom_site_type_symbol
_atom_site_label
_atom_site_fract_x
_atom_site_fract_y
_atom_site_fract_z
Si Si1 0.227340 0.580523 0.571144
Si Si2 0.851149 0.577651 0.135903
Si Si3 0.672701 0.672121 0.439106
Si Si4 0.864800 0.800259 0.044857
Si Si5 0.549135 0.581254 0.479572
Si Si6 0.572662 0.685628 0.143050
Si Si7 0.123877 0.642829 0.216817
Si Si8 0.702117 0.130940 0.060471
O O1 0.291878 0.500000 0.659547
O O2 0.302718 0.608249 0.586041
O O3 0.265413 0.642527 0.664001
O O4 0.038973 0.575677 0.354435
O O5 0.771089 0.500000 0.070899
O O6 0.783808 0.648209 0.099727
O O7 0.830581 0.584373 0.038130
O O8 0.750000 0.750000 0.500000
O O9 0.482186 0.689111 0.232186
O O10 0.768418 0.648734 0.603623
O O11 0.954715 0.825550 0.076759
O O12 0.830681 0.715083 0.995932
O O13 0.500000 0.577015 0.500000
O O14 0.541716 0.500000 0.440510
O O15 0.739783 0.604589 0.681004
O O16 0.392426 0.624801 0.283332
O O17 0.600918 0.773365 0.168094
O O18 0.500000 0.656810 0.000000
O O19 0.942751 0.613655 0.042614
#
# Coordination Sequence:
#
# PCOD9225218 Si02
#       8
#     8   8   8   8   8   8   8   8
#     4  10  21  36  59  91 129 166 202 261 327 382
#     4  11  22  37  59  94 131 160 204 260 331 398
#     4  11  17  38  60  94 123 156 203 263 326 388
#     4  10  22  35  63  93 125 162 206 269 327 373
#     4  11  28  46  61  92 132 173 216 258 315 383
#     4  10  23  41  63  92 122 166 230 262 310 384
#     4  11  23  40  72  93 128 166 217 271 320 380
#     4  11  22  40  67  96 126 168 214 264 323 386
#
# _framework density 10.313243
#
# number of rings (size 3 to 8) (size 9 to 14) (size 15 to 20)
#    0.000    1.375    5.000    1.500    5.250    3.750 
#    0.000    1.875    0.000    1.500    0.000    0.000 
#    0.000    0.000    0.000    0.000    0.000    0.000 
#
# Total GULP energy -178172.637843 kJ/mol
# GULP energy per Si atom -5567.894933 kJ/mol
# Density = 1.028977 g / cm^3
# Si number density = 10.313243 Si / 1000 Ang^3
#
#
#
# Elastic Constant Matrix: (Units=GPa)
#
#
# Indices 1 2 3 4 5 6 
#
# 1 55.2596 30.4856 27.7938 -0.0103 6.2748 -0.0055
# 2 30.4856 50.7095 27.9753 -0.0110 15.6309 -0.0045
# 3 27.7938 27.9753 74.4776 -0.0059 -8.2489 -0.0014
# 4 -0.0103 -0.0110 -0.0059 159.0894 -0.0019 58.5981
# 5 6.2748 15.6309 -8.2489 -0.0019 42.6094 -0.0021
# 6 -0.0055 -0.0045 -0.0014 58.5981 -0.0021 19.9377
#
#
#
# Elastic Compliance Matrix: (Units=1/GPa)
#
#
# Indices 1 2 3 4 5 6 
#
# 1 0.028660 -0.014285 -0.005331 0.000011 -0.000012 -0.000029
# 2 -0.014285 0.038578 -0.010724 -0.000003 -0.014124 0.000013
# 3 -0.005331 -0.010724 0.020405 -0.000004 0.008669 0.000010
# 4 0.000011 -0.000003 -0.000004 -0.076140 0.000007 0.223779
# 5 -0.000012 -0.014124 0.008669 0.000007 0.030331 -0.000019
# 6 -0.000029 0.000013 0.000010 0.223779 -0.000019 -0.607543
#
#
# Mechanical properties :
#
#
# Convention : Reuss Voigt Hill
#
# Bulk Modulus (GPa) = 37.08881 39.21735 38.15308
# Shear Modulus (GPa) = -10.07980 50.60676 20.26348
#
# Velocity S-wave (km/s) = -2.21301 4.95864 3.13773
# Velocity P-wave (km/s) = 3.38973 7.19990 5.62711
#
# Compressibility (1/GPa) = 0.02696231
#
# Stress axis : x y z
#
# Youngs Moduli (GPa) = 34.89205 25.92147 49.00829
#
# Poissons Ratio (x) = 0.37029 0.26126
# Poissons Ratio (y) = 0.49843 0.52557
# Poissons Ratio (z) = 0.18601 0.27799
#
# Static dielectric constant tensor:
#      x y z
#    x 1.763830 -0.000040 0.018800 
#    y -0.000040 1.827530 0.000060 
#    z 0.018800 0.000060 1.807410 
# 
# From -- ./inp_files/326171.got.cif
#   From: 2010.05.17/outbox.ucp.g08.bks.cvg/sg12_164_cif.got.tgz:326171.got - 2010.06.11 11:47:21.
