data_PCOD9225850
_publ_section_title
;
Structure prediction by ZEFSAII (Michael W. Deem and Ramdas Pophale) SiO2 
 PCOD9225850
Probable space group: C 2/M
;
_chemical_formula_sum "Si O2"
_cell_formula_units_Z 28
_cell_length_a 15.000000
_cell_length_b 9.000000
_cell_length_c 21.000000
_cell_angle_alpha 90.000000
_cell_angle_beta 90.000000
_cell_angle_gamma 90.000000
_cell_volume 2835.000000
_symmetry_space_group_name_H-M "C 2/M"
_symmetry_group_IT_number 12
_symmetry_cell_setting 'monoclinic'
loop_
_space_group_symop_operation_xyz
x,y,z
-x,y,-z
-x,-y,-z
x,-y,z
1/2+x,1/2+y,z
1/2-x,1/2+y,-z
1/2-x,1/2-y,-z
1/2+x,1/2-y,z
loop_
_atom_site_type_symbol
_atom_site_label
_atom_site_fract_x
_atom_site_fract_y
_atom_site_fract_z
Si Si1 0.375602 0.672396 0.945811
Si Si2 0.874438 0.331133 0.214947
Si Si3 0.834893 0.829819 0.808239
Si Si4 0.086898 0.172595 0.917733
Si Si5 0.118252 0.178587 0.328057
Si Si6 0.917353 0.823508 0.348129
Si Si7 0.732699 0.179520 0.569405
O O1 0.344573 0.500000 0.949188
O O2 0.339415 0.739385 0.879299
O O3 0.481947 0.672056 0.933987
O O4 0.363867 0.733175 0.018039
O O5 0.908570 0.500000 0.221708
O O6 0.767649 0.338157 0.211255
O O7 0.902486 0.261334 0.147501
O O8 0.897974 0.234828 0.276684
O O9 0.879812 0.761200 0.744963
O O10 0.870955 0.000000 0.815960
O O11 0.113676 0.000000 0.908315
O O12 0.193848 0.227965 0.377409
O O13 0.022020 0.202719 0.358074
O O14 0.130997 0.000000 0.320484
O O15 0.858938 0.736531 0.399556
O O16 0.899452 0.000000 0.351619
O O17 0.750000 0.250000 0.500000
O O18 0.734584 0.000000 0.564741
#
# Coordination Sequence:
#
# PCOD9225850 Si02
#       7
#     8   8   8   8   8   8   8
#     4   8  15  29  51  74  99 139 193 245 289 345
#     4  11  21  33  52  79 114 153 190 239 300 354
#     4   9  16  30  52  77 106 147 192 235 287 349
#     4   9  17  31  51  75 102 138 192 249 292 341
#     4   9  19  37  63  88 116 158 202 235 281 352
#     4  11  22  39  65  92 116 154 204 247 284 338
#     4  11  23  43  66  93 127 159 191 234 287 346
#
# _framework density 9.8765429999999999
#
# number of rings (size 3 to 8) (size 9 to 14) (size 15 to 20)
#    0.000    2.286    1.429    3.000    0.000    3.429 
#    0.000    7.143    0.000    1.714    0.000    0.000 
#    0.000    0.000    0.000    0.000    0.000    0.000 
#
# Total GULP energy -156056.303789 kJ/mol
# GULP energy per Si atom -5573.439421 kJ/mol
# Density = 0.985406 g / cm^3
# Si number density = 9.876543 Si / 1000 Ang^3
#
#
#
# Elastic Constant Matrix: (Units=GPa)
#
#
# Indices 1 2 3 4 5 6 
#
# 1 25.7990 7.5845 -0.1856 0.0000 -9.1397 0.0000
# 2 7.5845 49.9886 20.2326 0.0000 -12.3183 0.0000
# 3 -0.1856 20.2326 111.2524 0.0000 -25.4815 0.0000
# 4 0.0000 0.0000 0.0000 28.4669 0.0000 0.0245
# 5 -9.1397 -12.3183 -25.4815 0.0000 31.0858 0.0000
# 6 0.0000 0.0000 0.0000 0.0245 0.0000 16.1194
#
#
#
# Elastic Compliance Matrix: (Units=1/GPa)
#
#
# Indices 1 2 3 4 5 6 
#
# 1 0.045599 -0.005003 0.004435 0.000000 0.015060 0.000000
# 2 -0.005003 0.023291 -0.003037 0.000000 0.005269 0.000000
# 3 0.004435 -0.003037 0.011784 0.000000 0.009760 0.000000
# 4 0.000000 0.000000 0.000000 0.035129 0.000000 -0.000053
# 5 0.015060 0.005269 0.009760 0.000000 0.046685 0.000000
# 6 0.000000 0.000000 0.000000 -0.000053 0.000000 0.062037
#
#
# Mechanical properties :
#
#
# Convention : Reuss Voigt Hill
#
# Bulk Modulus (GPa) = 13.61194 26.92255 20.26725
# Shear Modulus (GPa) = 19.51429 25.76164 22.63797
#
# Velocity S-wave (km/s) = 3.14652 3.61527 3.38900
# Velocity P-wave (km/s) = 4.48405 5.57548 5.05929
#
# Compressibility (1/GPa) = 0.07346493
#
# Stress axis : x y z
#
# Youngs Moduli (GPa) = 21.93028 42.93449 84.86264
#
# Poissons Ratio (x) = 0.21478 -0.37639
# Poissons Ratio (y) = 0.10971 0.25776
# Poissons Ratio (z) = -0.09727 0.13041
#
# Static dielectric constant tensor:
#      x y z
#    x 1.723800 0.000000 0.003460 
#    y 0.000000 1.692500 0.000000 
#    z 0.003460 0.000000 1.727950 
# 
# From -- ./inp_files/308914.got.cif
#   From: 2010.05.17/outbox.ucp.g08.bks.cvg/sg12_155_cif.got.tgz:308914.got - 2010.06.11 11:47:21.
