data_PCOD9225722
_publ_section_title
;
Structure prediction by ZEFSAII (Michael W. Deem and Ramdas Pophale) SiO2 
 PCOD9225722
Probable space group: C 2/M
;
_chemical_formula_sum "Si O2"
_cell_formula_units_Z 24
_cell_length_a 18.000000
_cell_length_b 12.000000
_cell_length_c 12.000000
_cell_angle_alpha 90.000000
_cell_angle_beta 70.000000
_cell_angle_gamma 90.000000
_cell_volume 2435.683273
_symmetry_space_group_name_H-M "C 2/M"
_symmetry_group_IT_number 12
_symmetry_cell_setting 'monoclinic'
loop_
_space_group_symop_operation_xyz
x,y,z
-x,y,-z
-x,-y,-z
x,-y,z
1/2+x,1/2+y,z
1/2-x,1/2+y,-z
1/2-x,1/2-y,-z
1/2+x,1/2-y,z
loop_
_atom_site_type_symbol
_atom_site_label
_atom_site_fract_x
_atom_site_fract_y
_atom_site_fract_z
Si Si1 0.595162 0.630513 0.734278
Si Si2 0.172013 0.870612 0.266624
Si Si3 0.941949 0.500000 0.417073
Si Si4 0.422477 0.370458 0.911172
Si Si5 0.411808 0.757327 0.493518
Si Si6 0.658513 0.785909 0.865209
Si Si7 0.053934 0.500000 0.856474
O O1 0.607452 0.500000 0.721104
O O2 0.516019 0.650000 0.849792
O O3 0.587152 0.680961 0.616274
O O4 0.662637 0.694104 0.766108
O O5 0.108912 0.863896 0.199167
O O6 0.145931 0.792568 0.382589
O O7 0.254261 0.835128 0.167314
O O8 0.176772 0.000000 0.301250
O O9 0.896077 0.383852 0.459870
O O10 0.970775 0.500000 0.267514
O O11 0.000000 0.500000 0.500000
O O12 0.409987 0.500000 0.956254
O O13 0.378636 0.278616 0.009404
O O14 0.500000 0.755230 0.500000
O O15 0.604350 0.887451 0.848880
O O16 0.000000 0.500000 0.000000
#
# Coordination Sequence:
#
# PCOD9225722 Si02
#       7
#     8   8   4   8   8   8   4
#     4  11  22  39  67  98 123 166 226 275 329 393
#     4  11  24  43  66  97 134 175 222 282 343 410
#     4  10  24  44  66 102 138 175 228 284 332 403
#     4  10  22  42  68  95 132 170 225 286 336 405
#     4  11  22  42  69  94 127 169 222 273 333 402
#     4  12  24  41  61  98 137 171 221 275 349 397
#     4  12  24  42  70  96 135 189 228 275 341 413
#
# _framework density 9.8534980000000001
#
# number of rings (size 3 to 8) (size 9 to 14) (size 15 to 20)
#    0.000    1.000    4.167    3.000    0.000    2.667 
#    3.000    0.000    0.000    0.000    0.000    0.000 
#    0.000    0.000    0.000    0.000    0.000    0.000 
#
# Total GULP energy -133883.354093 kJ/mol
# GULP energy per Si atom -5578.473087 kJ/mol
# Density = 0.983107 g / cm^3
# Si number density = 9.853498 Si / 1000 Ang^3
#
#
#
# Elastic Constant Matrix: (Units=GPa)
#
#
# Indices 1 2 3 4 5 6 
#
# 1 33.3562 13.2959 1.7097 0.0000 -1.9964 0.0000
# 2 13.2959 150.6293 51.5933 0.0000 -2.8230 0.0000
# 3 1.7097 51.5933 114.4603 0.0000 7.0290 0.0000
# 4 0.0000 0.0000 0.0000 43.0345 0.0000 9.0581
# 5 -1.9964 -2.8230 7.0290 0.0000 20.9329 0.0000
# 6 0.0000 0.0000 0.0000 9.0581 0.0000 21.6088
#
#
#
# Elastic Compliance Matrix: (Units=1/GPa)
#
#
# Indices 1 2 3 4 5 6 
#
# 1 0.031264 -0.002964 0.000726 0.000000 0.002338 0.000000
# 2 -0.002964 0.008241 -0.003800 0.000000 0.002105 0.000000
# 3 0.000726 -0.003800 0.010686 0.000000 -0.004032 0.000000
# 4 0.000000 0.000000 0.000000 0.025486 0.000000 -0.010683
# 5 0.002338 0.002105 -0.004032 0.000000 0.049632 0.000000
# 6 0.000000 0.000000 0.000000 -0.010683 0.000000 0.050756
#
#
# Mechanical properties :
#
#
# Convention : Reuss Voigt Hill
#
# Bulk Modulus (GPa) = 26.23687 47.96041 37.09864
# Shear Modulus (GPa) = 24.89456 32.57170 28.73313
#
# Velocity S-wave (km/s) = 3.55806 4.06987 3.82254
# Velocity P-wave (km/s) = 5.49746 6.81724 6.19261
#
# Compressibility (1/GPa) = 0.03811431
#
# Stress axis : x y z
#
# Youngs Moduli (GPa) = 31.98585 121.33823 93.57894
#
# Poissons Ratio (x) = 0.35969 -0.06790
# Poissons Ratio (y) = 0.09482 0.35558
# Poissons Ratio (z) = -0.02321 0.46106
#
# Static dielectric constant tensor:
#      x y z
#    x 1.708560 0.000000 0.022380 
#    y 0.000000 1.691210 0.000000 
#    z 0.022380 0.000000 1.684770 
# 
# From -- ./inp_files/154241.got.cif
#   From: 2010.05.17/outbox.ucp.g08.bks.cvg/sg12_78_cif.got.tgz:154241.got - 2010.06.11 11:47:21.
