data_PCOD9225933
_publ_section_title
;
Structure prediction by ZEFSAII (Michael W. Deem and Ramdas Pophale) SiO2 
 PCOD9225933
Probable space group: C 2/M
;
_chemical_formula_sum "Si O2"
_cell_formula_units_Z 24
_cell_length_a 21.000000
_cell_length_b 9.000000
_cell_length_c 27.000000
_cell_angle_alpha 90.000000
_cell_angle_beta 30.000000
_cell_angle_gamma 90.000000
_cell_volume 2551.500000
_symmetry_space_group_name_H-M "C 2/M"
_symmetry_group_IT_number 12
_symmetry_cell_setting 'monoclinic'
loop_
_space_group_symop_operation_xyz
x,y,z
-x,y,-z
-x,-y,-z
x,-y,z
1/2+x,1/2+y,z
1/2-x,1/2+y,-z
1/2-x,1/2-y,-z
1/2+x,1/2-y,z
loop_
_atom_site_type_symbol
_atom_site_label
_atom_site_fract_x
_atom_site_fract_y
_atom_site_fract_z
Si Si1 0.338261 0.680246 0.484603
Si Si2 0.335185 0.176600 0.876931
Si Si3 0.148639 0.322013 0.416241
Si Si4 0.607901 0.178427 0.275777
Si Si5 0.201186 0.320004 0.776438
Si Si6 0.068752 0.321671 0.083942
O O1 0.326107 0.500000 0.493029
O O2 0.250000 0.750000 0.500000
O O3 0.315263 0.748217 0.555158
O O4 0.482848 0.733592 0.377196
O O5 0.382313 0.202117 0.789731
O O6 0.429827 0.220529 0.858307
O O7 0.313719 0.000000 0.896527
O O8 0.200951 0.257687 0.974859
O O9 0.173528 0.500000 0.401067
O O10 0.225923 0.239299 0.321158
O O11 0.000000 0.304358 0.500000
O O12 0.729379 0.243105 0.223637
O O13 0.595883 0.000000 0.293550
O O14 0.209881 0.500000 0.774562
O O15 0.054145 0.276167 0.865067
O O16 0.071780 0.500000 0.079645
#
# Coordination Sequence:
#
# PCOD9225933 Si02
#       6
#     8   8   8   8   8   8
#     4  12  26  43  64  91 124 161 204 249 302 360
#     4   9  20  39  62  86 116 156 197 246 304 358
#     4  11  23  41  64  90 123 161 203 250 300 356
#     4  11  23  40  61  88 123 159 201 252 301 357
#     4  11  23  38  61  90 121 161 203 248 304 360
#     4   9  20  39  61  88 117 152 198 247 301 363
#
# _framework density 9.4062319999999993
#
# number of rings (size 3 to 8) (size 9 to 14) (size 15 to 20)
#    0.000    1.500    1.667    3.000    2.333    4.000 
#    0.000    3.333    0.000    0.000    0.000    0.000 
#    0.000    0.000    0.000    0.000    0.000    0.000 
#
# Total GULP energy -134001.840397 kJ/mol
# GULP energy per Si atom -5583.410017 kJ/mol
# Density = 0.938482 g / cm^3
# Si number density = 9.406232 Si / 1000 Ang^3
#
#
#
# Elastic Constant Matrix: (Units=GPa)
#
#
# Indices 1 2 3 4 5 6 
#
# 1 98.9166 25.9441 -5.6554 0.0000 -7.1697 0.0001
# 2 25.9441 81.8716 0.0692 -0.0003 2.4877 0.0003
# 3 -5.6554 0.0692 16.0239 0.0000 -5.3875 0.0000
# 4 0.0000 -0.0003 0.0000 29.8594 0.0001 -1.1878
# 5 -7.1697 2.4877 -5.3875 0.0001 35.7549 -0.0001
# 6 0.0001 0.0003 0.0000 -1.1878 -0.0001 39.3780
#
#
#
# Elastic Compliance Matrix: (Units=1/GPa)
#
#
# Indices 1 2 3 4 5 6 
#
# 1 0.011654 -0.003801 0.005271 0.000000 0.003396 0.000000
# 2 -0.003801 0.013482 -0.002076 0.000000 -0.002013 0.000000
# 3 0.005271 -0.002076 0.068132 0.000000 0.011468 0.000000
# 4 0.000000 0.000000 0.000000 0.033531 0.000000 0.001011
# 5 0.003396 -0.002013 0.011468 0.000000 0.030517 0.000000
# 6 0.000000 0.000000 0.000000 0.001011 0.000000 0.025425
#
#
# Mechanical properties :
#
#
# Convention : Reuss Voigt Hill
#
# Bulk Modulus (GPa) = 10.86301 26.39200 18.62751
# Shear Modulus (GPa) = 23.29512 32.76205 28.02859
#
# Velocity S-wave (km/s) = 3.52274 4.17766 3.86410
# Velocity P-wave (km/s) = 4.72580 6.10983 5.46183
#
# Compressibility (1/GPa) = 0.09205552
#
# Stress axis : x y z
#
# Youngs Moduli (GPa) = 85.80861 74.17560 14.67741
#
# Poissons Ratio (x) = 0.28191 -0.07737
# Poissons Ratio (y) = 0.32612 0.03048
# Poissons Ratio (z) = -0.45231 0.15402
#
# Static dielectric constant tensor:
#      x y z
#    x 1.656290 0.000000 0.008290 
#    y 0.000000 1.629290 0.000000 
#    z 0.008290 0.000000 1.665480 
# 
# From -- ./inp_files/365385.got.cif
#   From: 2010.05.17/outbox.ucp.g08.bks.cvg/sg12_183_cif.got.tgz:365385.got - 2010.06.11 11:47:21.
