data_PCOD9225091
_publ_section_title
;
Structure prediction by ZEFSAII (Michael W. Deem and Ramdas Pophale) SiO2 
 PCOD9225091
Probable space group: C 2/M
;
_chemical_formula_sum "Si O2"
_cell_formula_units_Z 28
_cell_length_a 18.000000
_cell_length_b 27.000000
_cell_length_c 9.000000
_cell_angle_alpha 90.000000
_cell_angle_beta 140.000000
_cell_angle_gamma 90.000000
_cell_volume 2811.553005
_symmetry_space_group_name_H-M "C 2/M"
_symmetry_group_IT_number 12
_symmetry_cell_setting 'monoclinic'
loop_
_space_group_symop_operation_xyz
x,y,z
-x,y,-z
-x,-y,-z
x,-y,z
1/2+x,1/2+y,z
1/2-x,1/2+y,-z
1/2-x,1/2-y,-z
1/2+x,1/2-y,z
loop_
_atom_site_type_symbol
_atom_site_label
_atom_site_fract_x
_atom_site_fract_y
_atom_site_fract_z
Si Si1 0.320930 0.055824 0.222150
Si Si2 0.296343 0.223983 0.920945
Si Si3 0.652066 0.650804 0.522043
Si Si4 0.075801 0.180798 0.967946
Si Si5 0.284965 0.125785 0.418779
Si Si6 0.637116 0.445400 0.693999
Si Si7 0.463938 0.855783 0.292184
O O1 0.298703 0.072921 0.357498
O O2 0.406410 0.093103 0.264166
O O3 0.364278 0.000000 0.282859
O O4 0.200816 0.057664 0.949085
O O5 0.199327 0.202792 0.660872
O O6 0.250000 0.250000 0.000000
O O7 0.387417 0.262631 0.994139
O O8 0.365626 0.174683 0.064508
O O9 0.513936 0.659094 0.288807
O O10 0.721784 0.636318 0.477633
O O11 0.670080 0.602863 0.651838
O O12 0.199480 0.153898 0.172304
O O13 0.000000 0.174809 0.000000
O O14 0.418821 0.142210 0.623337
O O15 0.500000 0.445273 0.500000
O O16 0.670312 0.500000 0.680235
O O17 0.500000 0.828625 0.500000
#
# Coordination Sequence:
#
# PCOD9225091 Si02
#       7
#     8   8   8   8   8   8   8
#     4  10  20  40  66  96 128 168 216 262 320 391
#     4  12  26  39  62  93 124 172 216 263 319 380
#     4  11  25  42  67  93 133 167 214 276 319 383
#     4  10  25  42  62  90 130 170 216 266 324 381
#     4  10  23  42  62  94 127 167 211 263 323 375
#     4  10  21  39  65  94 128 169 213 267 328 384
#     4  10  22  39  62  90 129 162 210 261 310 389
#
# _framework density 9.9589090000000002
#
# number of rings (size 3 to 8) (size 9 to 14) (size 15 to 20)
#    0.000    1.571    1.429    2.571    8.000    4.286 
#    0.000    0.000    0.000    6.857    0.000    0.000 
#    0.000    0.000    0.000    0.000    0.000    0.000 
#
# Total GULP energy -155967.774478 kJ/mol
# GULP energy per Si atom -5570.277660 kJ/mol
# Density = 0.993624 g / cm^3
# Si number density = 9.958909 Si / 1000 Ang^3
#
#
#
# Elastic Constant Matrix: (Units=GPa)
#
#
# Indices 1 2 3 4 5 6 
#
# 1 61.0821 22.1512 24.5955 0.0000 14.0427 0.0000
# 2 22.1512 102.9850 29.4496 0.0000 2.1672 0.0000
# 3 24.5955 29.4496 89.8210 0.0000 15.3006 0.0000
# 4 0.0000 0.0000 0.0000 29.9596 0.0000 -1.6942
# 5 14.0427 2.1672 15.3006 0.0000 28.4099 0.0000
# 6 0.0000 0.0000 0.0000 -1.6942 0.0000 26.8771
#
#
#
# Elastic Compliance Matrix: (Units=1/GPa)
#
#
# Indices 1 2 3 4 5 6 
#
# 1 0.020786 -0.003391 -0.003164 0.000000 -0.008312 0.000000
# 2 -0.003391 0.011304 -0.003211 0.000000 0.002543 0.000000
# 3 -0.003164 -0.003211 0.014032 0.000000 -0.005748 0.000000
# 4 0.000000 0.000000 0.000000 0.033498 0.000000 0.002111
# 5 -0.008312 0.002543 -0.005748 0.000000 0.042209 0.000000
# 6 0.000000 0.000000 0.000000 0.002111 0.000000 0.037339
#
#
# Mechanical properties :
#
#
# Convention : Reuss Voigt Hill
#
# Bulk Modulus (GPa) = 37.60887 45.14228 41.37557
# Shear Modulus (GPa) = 26.65761 28.89545 27.77653
#
# Velocity S-wave (km/s) = 3.66236 3.81298 3.73843
# Velocity P-wave (km/s) = 6.06686 6.48834 6.28114
#
# Compressibility (1/GPa) = 0.02658947
#
# Stress axis : x y z
#
# Youngs Moduli (GPa) = 48.10904 88.46237 71.26774
#
# Poissons Ratio (x) = 0.29999 0.22550
# Poissons Ratio (y) = 0.16315 0.22884
# Poissons Ratio (z) = 0.15222 0.28405
#
# Static dielectric constant tensor:
#      x y z
#    x 1.694540 0.000000 -0.003110 
#    y 0.000000 1.728740 0.000000 
#    z -0.003110 0.000000 1.913310 
# 
# From -- ./inp_files/80080.got.cif
#   From: 2010.05.17/outbox.ucp.g08.bks.cvg/sg12_41_cif.got.tgz:80080.got - 2010.06.11 11:47:21.
