data_PCOD9225445
_publ_section_title
;
Structure prediction by ZEFSAII (Michael W. Deem and Ramdas Pophale) SiO2 
 PCOD9225445
Probable space group: C 2/M
;
_chemical_formula_sum "Si O2"
_cell_formula_units_Z 32
_cell_length_a 18.000000
_cell_length_b 9.000000
_cell_length_c 30.000000
_cell_angle_alpha 90.000000
_cell_angle_beta 40.000000
_cell_angle_gamma 90.000000
_cell_volume 3123.947783
_symmetry_space_group_name_H-M "C 2/M"
_symmetry_group_IT_number 12
_symmetry_cell_setting 'monoclinic'
loop_
_space_group_symop_operation_xyz
x,y,z
-x,y,-z
-x,-y,-z
x,-y,z
1/2+x,1/2+y,z
1/2-x,1/2+y,-z
1/2-x,1/2-y,-z
1/2+x,1/2-y,z
loop_
_atom_site_type_symbol
_atom_site_label
_atom_site_fract_x
_atom_site_fract_y
_atom_site_fract_z
Si Si1 0.792264 0.177962 0.935239
Si Si2 0.371860 0.678554 0.571691
Si Si3 0.715770 0.171802 0.300015
Si Si4 0.289540 0.176698 0.436242
Si Si5 0.467303 0.671685 0.300597
Si Si6 0.679731 0.166274 0.215819
Si Si7 0.542438 0.320433 0.792625
Si Si8 0.631378 0.673759 0.937457
O O1 0.920720 0.236283 0.864917
O O2 0.708721 0.230323 0.934562
O O3 0.793921 0.000000 0.938229
O O4 0.750000 0.250000 0.000000
O O5 0.500000 0.727019 0.500000
O O6 0.367609 0.500000 0.574629
O O7 0.340289 0.736709 0.634855
O O8 0.289440 0.727411 0.569117
O O9 0.661451 0.175178 0.276686
O O10 0.847005 0.221781 0.230094
O O11 0.718900 0.000000 0.313710
O O12 0.250000 0.250000 0.500000
O O13 0.415235 0.231413 0.363782
O O14 0.284025 0.000000 0.442642
O O15 0.441584 0.500000 0.320064
O O16 0.602491 0.702272 0.232391
O O17 0.421276 0.723634 0.273967
O O18 0.809460 0.180022 0.138274
O O19 0.640707 0.000000 0.218848
O O20 0.531354 0.500000 0.796823
O O21 0.634944 0.500000 0.950011
O O22 0.500000 0.722691 0.000000
#
# Coordination Sequence:
#
# PCOD9225445 Si02
#       8
#     8   8   8   8   8   8   8   8
#     4  11  23  40  62  90 122 160 204 252 305 364
#     4  10  23  42  60  84 120 156 190 238 295 347
#     4  10  21  39  62  88 116 154 198 241 290 351
#     4  11  24  41  62  90 122 158 200 247 298 357
#     4  11  21  39  64  87 117 158 200 249 302 352
#     4  10  22  38  60  91 122 155 200 248 295 355
#     4   9  19  37  62  86 115 153 198 246 295 351
#     4  10  22  40  62  87 122 165 204 249 305 361
#
# _framework density 10.243449
#
# number of rings (size 3 to 8) (size 9 to 14) (size 15 to 20)
#    0.000    1.750    2.500    1.125    3.500    1.500 
#    0.000    1.250    0.000    0.000    0.000    0.000 
#    0.000    0.000    0.000    0.000    0.000    0.000 
#
# Total GULP energy -178331.509376 kJ/mol
# GULP energy per Si atom -5572.859668 kJ/mol
# Density = 1.022013 g / cm^3
# Si number density = 10.243449 Si / 1000 Ang^3
#
#
#
# Elastic Constant Matrix: (Units=GPa)
#
#
# Indices 1 2 3 4 5 6 
#
# 1 57.3312 25.9376 54.7625 -0.0002 -4.9888 0.0004
# 2 25.9376 25.7181 30.5091 -0.0012 6.5507 -0.0007
# 3 54.7625 30.5091 138.4624 -0.0001 1.3204 -0.0001
# 4 -0.0002 -0.0012 -0.0001 10.8587 0.0000 4.1118
# 5 -4.9888 6.5507 1.3204 0.0000 32.4443 0.0001
# 6 0.0004 -0.0007 -0.0001 4.1118 0.0001 20.7095
#
#
#
# Elastic Compliance Matrix: (Units=1/GPa)
#
#
# Indices 1 2 3 4 5 6 
#
# 1 0.045053 -0.037828 -0.009626 -0.000003 0.014957 -0.000002
# 2 -0.037828 0.087980 -0.004202 0.000008 -0.023409 0.000002
# 3 -0.009626 -0.004202 0.011966 -0.000001 -0.001119 0.000000
# 4 -0.000003 0.000008 -0.000001 0.099578 -0.000002 -0.019771
# 5 0.014957 -0.023409 -0.001119 -0.000002 0.037894 -0.000001
# 6 -0.000002 0.000002 0.000000 -0.019771 -0.000001 0.052212
#
#
# Mechanical properties :
#
#
# Convention : Reuss Voigt Hill
#
# Bulk Modulus (GPa) = 23.98749 49.32556 36.65653
# Shear Modulus (GPa) = 11.06462 20.15602 15.61032
#
# Velocity S-wave (km/s) = 2.32649 3.14004 2.76337
# Velocity P-wave (km/s) = 4.35326 6.10536 5.30218
#
# Compressibility (1/GPa) = 0.04168840
#
# Stress axis : x y z
#
# Youngs Moduli (GPa) = 22.19616 11.36616 83.57124
#
# Poissons Ratio (x) = 0.42995 0.80448
# Poissons Ratio (y) = 0.83963 0.35113
# Poissons Ratio (z) = 0.21367 0.04776
#
# Static dielectric constant tensor:
#      x y z
#    x 1.818990 0.000000 -0.043960 
#    y 0.000000 1.715770 0.000000 
#    z -0.043960 0.000000 1.747660 
# 
# From -- ./inp_files/378004.got.cif
#   From: 2010.05.17/outbox.ucp.g08.bks.cvg/sg12_190_cif.got.tgz:378004.got - 2010.06.11 11:47:21.
