data_PCOD9225627
_publ_section_title
;
Structure prediction by ZEFSAII (Michael W. Deem and Ramdas Pophale) SiO2 
 PCOD9225627
Probable space group: C 2/M
;
_chemical_formula_sum "Si O2"
_cell_formula_units_Z 24
_cell_length_a 27.000000
_cell_length_b 9.000000
_cell_length_c 15.000000
_cell_angle_alpha 90.000000
_cell_angle_beta 140.000000
_cell_angle_gamma 90.000000
_cell_volume 2342.960837
_symmetry_space_group_name_H-M "C 2/M"
_symmetry_group_IT_number 12
_symmetry_cell_setting 'monoclinic'
loop_
_space_group_symop_operation_xyz
x,y,z
-x,y,-z
-x,-y,-z
x,-y,z
1/2+x,1/2+y,z
1/2-x,1/2+y,-z
1/2-x,1/2-y,-z
1/2+x,1/2-y,z
loop_
_atom_site_type_symbol
_atom_site_label
_atom_site_fract_x
_atom_site_fract_y
_atom_site_fract_z
Si Si1 0.831770 0.177503 0.636568
Si Si2 0.664292 0.824231 0.698963
Si Si3 0.919209 0.675204 0.597102
Si Si4 0.160599 0.175747 0.024491
Si Si5 0.412670 0.823997 0.911995
Si Si6 0.569676 0.325339 0.721241
O O1 0.750000 0.250000 0.500000
O O2 0.893360 0.236063 0.648727
O O3 0.858076 0.235341 0.769120
O O4 0.826847 0.000000 0.628058
O O5 0.645282 0.806735 0.568655
O O6 0.751328 0.775830 0.839545
O O7 0.603072 0.738111 0.675447
O O8 0.657652 0.000000 0.710805
O O9 0.927052 0.500000 0.628782
O O10 0.996421 0.737590 0.658344
O O11 0.104511 0.265063 0.012834
O O12 0.155393 0.000000 0.039538
O O13 0.134909 0.192714 0.887175
O O14 0.397496 0.000000 0.885989
O O15 0.500000 0.798413 0.000000
O O16 0.551303 0.500000 0.687422
#
# Coordination Sequence:
#
# PCOD9225627 Si02
#       6
#     8   8   8   8   8   8
#     4  12  25  42  65  92 124 161 203 252 305 363
#     4  10  22  40  61  85 116 156 200 247 299 356
#     4  11  23  40  62  88 120 159 202 248 299 356
#     4  10  22  40  61  87 119 157 201 249 303 358
#     4  11  24  41  63  92 124 161 205 252 304 363
#     4  11  23  38  60  90 122 157 198 247 302 360
#
# _framework density 10.243449
#
# number of rings (size 3 to 8) (size 9 to 14) (size 15 to 20)
#    0.000    1.167    0.000    6.000    0.000   10.667 
#    0.000    0.000    0.000    0.000    0.000    0.000 
#    0.000    0.000    0.000    0.000    0.000    0.000 
#
# Total GULP energy -134348.336331 kJ/mol
# GULP energy per Si atom -5597.847347 kJ/mol
# Density = 1.022013 g / cm^3
# Si number density = 10.243449 Si / 1000 Ang^3
#
#
#
# Elastic Constant Matrix: (Units=GPa)
#
#
# Indices 1 2 3 4 5 6 
#
# 1 61.6672 12.3429 -23.2386 0.0000 -6.5068 0.0000
# 2 12.3429 83.5022 14.9926 0.0000 -4.2976 0.0000
# 3 -23.2386 14.9926 46.6857 0.0000 3.2008 0.0000
# 4 0.0000 0.0000 0.0000 28.7372 0.0000 -3.4861
# 5 -6.5068 -4.2976 3.2008 0.0000 34.7495 0.0000
# 6 0.0000 0.0000 0.0000 -3.4861 0.0000 36.5187
#
#
#
# Elastic Compliance Matrix: (Units=1/GPa)
#
#
# Indices 1 2 3 4 5 6 
#
# 1 0.022351 -0.005468 0.012721 0.000000 0.002337 0.000000
# 2 -0.005468 0.014180 -0.007372 0.000000 0.001409 0.000000
# 3 0.012721 -0.007372 0.030209 0.000000 -0.001312 0.000000
# 4 0.000000 0.000000 0.000000 0.035206 0.000000 0.003361
# 5 0.002337 0.001409 -0.001312 0.000000 0.029510 0.000000
# 6 0.000000 0.000000 0.000000 0.003361 0.000000 0.027704
#
#
# Mechanical properties :
#
#
# Convention : Reuss Voigt Hill
#
# Bulk Modulus (GPa) = 15.03678 22.22765 18.63221
# Shear Modulus (GPa) = 27.53839 32.51832 30.02835
#
# Velocity S-wave (km/s) = 3.67030 3.98838 3.83264
# Velocity P-wave (km/s) = 5.03161 5.66417 5.35724
#
# Compressibility (1/GPa) = 0.06650359
#
# Stress axis : x y z
#
# Youngs Moduli (GPa) = 44.74101 70.52169 33.10231
#
# Poissons Ratio (x) = 0.38558 -0.42110
# Poissons Ratio (y) = 0.24462 0.24403
# Poissons Ratio (z) = -0.56916 0.51988
#
# Static dielectric constant tensor:
#      x y z
#    x 1.676880 0.000000 0.009770 
#    y 0.000000 1.685930 0.000000 
#    z 0.009770 0.000000 1.745760 
# 
# From -- ./inp_files/244887.got.cif
#   From: 2010.05.17/outbox.ucp.g08.bks.cvg/sg12_123_cif.got.tgz:244887.got - 2010.06.11 11:47:21.
