data_PCOD9225341
_publ_section_title
;
Structure prediction by ZEFSAII (Michael W. Deem and Ramdas Pophale) SiO2 
 PCOD9225341
Probable space group: C 2/M
;
_chemical_formula_sum "Si O2"
_cell_formula_units_Z 28
_cell_length_a 9.000000
_cell_length_b 18.000000
_cell_length_c 27.000000
_cell_angle_alpha 90.000000
_cell_angle_beta 140.000000
_cell_angle_gamma 90.000000
_cell_volume 2811.553005
_symmetry_space_group_name_H-M "C 2/M"
_symmetry_group_IT_number 12
_symmetry_cell_setting 'monoclinic'
loop_
_space_group_symop_operation_xyz
x,y,z
-x,y,-z
-x,-y,-z
x,-y,z
1/2+x,1/2+y,z
1/2-x,1/2+y,-z
1/2-x,1/2-y,-z
1/2+x,1/2-y,z
loop_
_atom_site_type_symbol
_atom_site_label
_atom_site_fract_x
_atom_site_fract_y
_atom_site_fract_z
Si Si1 0.131711 0.912930 0.085358
Si Si2 0.231348 0.912130 0.528108
Si Si3 0.335804 0.807905 0.356585
Si Si4 0.906059 0.787220 0.083872
Si Si5 0.837332 0.588009 0.787460
Si Si6 0.056501 0.155112 0.383302
Si Si7 0.663149 0.688874 0.822028
O O1 0.982590 0.868127 0.086003
O O2 0.397141 0.885464 0.150753
O O3 0.136736 0.000000 0.097313
O O4 0.000000 0.901511 0.000000
O O5 0.463353 0.868202 0.603489
O O6 0.171776 0.894151 0.455532
O O7 0.000000 0.890923 0.500000
O O8 0.267876 0.000000 0.544012
O O9 0.236784 0.824706 0.385929
O O10 0.463069 0.729406 0.385241
O O11 0.106251 0.803924 0.262801
O O12 0.149404 0.744395 0.154279
O O13 0.795073 0.796986 0.109342
O O14 0.750000 0.750000 0.000000
O O15 0.839594 0.500000 0.784067
O O16 0.662456 0.619211 0.701393
O O17 0.743577 0.611992 0.817434
#
# Coordination Sequence:
#
# PCOD9225341 Si02
#       7
#     8   8   8   8   8   8   8
#     4  10  21  38  59  84 119 161 204 251 308 374
#     4  11  25  43  63  90 125 165 212 266 324 385
#     4  11  23  39  63  90 123 162 208 261 315 377
#     4  12  23  39  63  93 126 164 208 256 309 369
#     4  10  22  40  63  91 125 165 208 260 319 377
#     4  11  22  40  64  91 124 164 209 261 318 380
#     4  11  23  38  61  91 125 162 206 258 307 374
#
# _framework density 9.9589090000000002
#
# number of rings (size 3 to 8) (size 9 to 14) (size 15 to 20)
#    0.000    1.143    0.000    7.714    0.000    5.143 
#    0.000    1.429    0.000    4.286    0.000    0.000 
#    0.000    0.000    0.000    0.000    0.000    0.000 
#
# Total GULP energy -156371.671001 kJ/mol
# GULP energy per Si atom -5584.702536 kJ/mol
# Density = 0.993624 g / cm^3
# Si number density = 9.958909 Si / 1000 Ang^3
#
#
#
# Elastic Constant Matrix: (Units=GPa)
#
#
# Indices 1 2 3 4 5 6 
#
# 1 87.1396 12.2304 20.1729 0.0000 -7.5926 0.0000
# 2 12.2304 30.3773 12.4456 0.0000 -8.1547 0.0000
# 3 20.1729 12.4456 103.5267 0.0000 7.1792 0.0000
# 4 0.0000 0.0000 0.0000 26.4830 0.0000 5.1788
# 5 -7.5926 -8.1547 7.1792 0.0000 35.6145 0.0000
# 6 0.0000 0.0000 0.0000 5.1788 0.0000 35.3994
#
#
#
# Elastic Compliance Matrix: (Units=1/GPa)
#
#
# Indices 1 2 3 4 5 6 
#
# 1 0.012692 -0.003581 -0.002204 0.000000 0.002330 0.000000
# 2 -0.003581 0.038653 -0.004574 0.000000 0.009009 0.000000
# 3 -0.002204 -0.004574 0.010896 0.000000 -0.003714 0.000000
# 4 0.000000 0.000000 0.000000 0.038872 0.000000 -0.005687
# 5 0.002330 0.009009 -0.003714 0.000000 0.031387 0.000000
# 6 0.000000 0.000000 0.000000 -0.005687 0.000000 0.029081
#
#
# Mechanical properties :
#
#
# Convention : Reuss Voigt Hill
#
# Bulk Modulus (GPa) = 24.08298 34.52682 29.30490
# Shear Modulus (GPa) = 25.49193 31.24571 28.36882
#
# Velocity S-wave (km/s) = 3.58139 3.96502 3.77808
# Velocity P-wave (km/s) = 5.40548 6.19145 5.81177
#
# Compressibility (1/GPa) = 0.04152310
#
# Stress axis : x y z
#
# Youngs Moduli (GPa) = 78.79113 25.87091 91.77527
#
# Poissons Ratio (x) = 0.09265 0.20228
# Poissons Ratio (y) = 0.28218 0.41975
# Poissons Ratio (z) = 0.17367 0.11832
#
# Static dielectric constant tensor:
#      x y z
#    x 1.729210 0.000000 -0.003710 
#    y 0.000000 1.711570 0.000000 
#    z -0.003710 0.000000 1.704460 
# 
# From -- ./inp_files/356742.got.cif
#   From: 2010.05.17/outbox.ucp.g08.bks.cvg/sg12_179_cif.got.tgz:356742.got - 2010.06.11 11:47:21.
