data_PCOD9225042
_publ_section_title
;
Structure prediction by ZEFSAII (Michael W. Deem and Ramdas Pophale) SiO2 
 PCOD9225042
Probable space group: C 2/M
;
_chemical_formula_sum "Si O2"
_cell_formula_units_Z 24
_cell_length_a 21.000000
_cell_length_b 9.000000
_cell_length_c 18.000000
_cell_angle_alpha 90.000000
_cell_angle_beta 50.000000
_cell_angle_gamma 90.000000
_cell_volume 2606.083195
_symmetry_space_group_name_H-M "C 2/M"
_symmetry_group_IT_number 12
_symmetry_cell_setting 'monoclinic'
loop_
_space_group_symop_operation_xyz
x,y,z
-x,y,-z
-x,-y,-z
x,-y,z
1/2+x,1/2+y,z
1/2-x,1/2+y,-z
1/2-x,1/2-y,-z
1/2+x,1/2-y,z
loop_
_atom_site_type_symbol
_atom_site_label
_atom_site_fract_x
_atom_site_fract_y
_atom_site_fract_z
Si Si1 0.315423 0.679496 0.137016
Si Si2 0.341722 0.680049 0.424157
Si Si3 0.892909 0.323669 0.228087
Si Si4 0.135454 0.679620 0.207128
Si Si5 0.978970 0.680179 0.428841
Si Si6 0.592295 0.824129 0.071353
O O1 0.319633 0.500000 0.141205
O O2 0.346484 0.753726 0.190904
O O3 0.221295 0.722472 0.183139
O O4 0.370208 0.734629 0.025971
O O5 0.340122 0.500000 0.426732
O O6 0.250000 0.750000 0.500000
O O7 0.373327 0.739666 0.320085
O O8 0.400374 0.741708 0.447380
O O9 0.872291 0.500000 0.250114
O O10 0.992475 0.312635 0.143302
O O11 0.135123 0.500000 0.203628
O O12 0.057583 0.720791 0.317513
O O13 0.124147 0.728502 0.129380
O O14 0.967182 0.500000 0.434635
O O15 0.000000 0.716580 0.500000
O O16 0.613720 0.000000 0.047657
#
# Coordination Sequence:
#
# PCOD9225042 Si02
#       6
#     8   8   8   8   8   8
#     4  11  23  36  58  93 129 163 207 258 307 366
#     4  12  26  44  67  95 127 162 206 258 313 372
#     4  11  23  42  65  89 122 165 209 256 314 372
#     4   9  19  38  60  88 124 163 204 251 310 371
#     4  10  21  41  69  95 124 165 206 252 315 378
#     4  10  20  39  63  84 118 166 214 255 307 370
#
# _framework density 9.2092220000000005
#
# number of rings (size 3 to 8) (size 9 to 14) (size 15 to 20)
#    0.000    1.500    1.667    3.500    2.333    3.667 
#    0.000    2.500    0.000    0.000    0.000    0.000 
#    0.000    0.000    0.000    0.000    0.000    0.000 
#
# Total GULP energy -134036.637439 kJ/mol
# GULP energy per Si atom -5584.859893 kJ/mol
# Density = 0.918826 g / cm^3
# Si number density = 9.209222 Si / 1000 Ang^3
#
#
#
# Elastic Constant Matrix: (Units=GPa)
#
#
# Indices 1 2 3 4 5 6 
#
# 1 193.6671 68.3230 65.9919 0.0000 21.2895 0.0000
# 2 68.3230 108.4429 47.3972 0.0000 5.1563 0.0001
# 3 65.9919 47.3972 104.4941 0.0000 11.7612 0.0000
# 4 0.0000 0.0000 0.0000 27.6136 0.0000 4.2314
# 5 21.2895 5.1563 11.7612 0.0000 45.2412 0.0000
# 6 0.0000 0.0001 0.0000 4.2314 0.0000 39.3168
#
#
#
# Elastic Compliance Matrix: (Units=1/GPa)
#
#
# Indices 1 2 3 4 5 6 
#
# 1 0.007656 -0.003386 -0.003026 0.000000 -0.002430 0.000000
# 2 -0.003386 0.012999 -0.003884 0.000000 0.001121 0.000000
# 3 -0.003026 -0.003884 0.013425 0.000000 -0.001624 0.000000
# 4 0.000000 0.000000 0.000000 0.036821 0.000000 -0.003963
# 5 -0.002430 0.001121 -0.001624 0.000000 0.023542 0.000000
# 6 0.000000 0.000000 0.000000 -0.003963 0.000000 0.025861
#
#
# Mechanical properties :
#
#
# Convention : Reuss Voigt Hill
#
# Bulk Modulus (GPa) = 74.13444 85.55868 79.84656
# Shear Modulus (GPa) = 34.38978 37.42712 35.90845
#
# Velocity S-wave (km/s) = 4.32573 4.51271 4.42021
# Velocity P-wave (km/s) = 8.08002 8.58524 8.33646
#
# Compressibility (1/GPa) = 0.01348901
#
# Stress axis : x y z
#
# Youngs Moduli (GPa) = 130.61469 76.93012 74.48515
#
# Poissons Ratio (x) = 0.26045 0.22539
# Poissons Ratio (y) = 0.44220 0.28932
# Poissons Ratio (z) = 0.39523 0.29881
#
# Static dielectric constant tensor:
#      x y z
#    x 1.624750 0.000000 -0.018290 
#    y 0.000000 1.624800 0.000000 
#    z -0.018290 0.000000 1.639050 
# 
# From -- ./inp_files/280760.got.cif
#   From: 2010.05.17/outbox.ucp.g08.bks.cvg/sg12_141_cif.got.tgz:280760.got - 2010.06.11 11:47:21.
