data_PCOD9225368
_publ_section_title
;
Structure prediction by ZEFSAII (Michael W. Deem and Ramdas Pophale) SiO2 
 PCOD9225368
Probable space group: C 2/M
;
_chemical_formula_sum "Si O2"
_cell_formula_units_Z 24
_cell_length_a 27.000000
_cell_length_b 9.000000
_cell_length_c 15.000000
_cell_angle_alpha 90.000000
_cell_angle_beta 140.000000
_cell_angle_gamma 90.000000
_cell_volume 2342.960837
_symmetry_space_group_name_H-M "C 2/M"
_symmetry_group_IT_number 12
_symmetry_cell_setting 'monoclinic'
loop_
_space_group_symop_operation_xyz
x,y,z
-x,y,-z
-x,-y,-z
x,-y,z
1/2+x,1/2+y,z
1/2-x,1/2+y,-z
1/2-x,1/2-y,-z
1/2+x,1/2-y,z
loop_
_atom_site_type_symbol
_atom_site_label
_atom_site_fract_x
_atom_site_fract_y
_atom_site_fract_z
Si Si1 0.546696 0.331579 0.656018
Si Si2 0.486280 0.820167 0.080283
Si Si3 0.291145 0.177425 0.141586
Si Si4 0.568579 0.176998 0.367066
Si Si5 0.254516 0.177495 0.409104
Si Si6 0.312958 0.178131 0.851700
O O1 0.500000 0.337528 0.500000
O O2 0.570711 0.500000 0.713358
O O3 0.620821 0.229834 0.742774
O O4 0.488796 0.264448 0.648551
O O5 0.401010 0.784346 0.998456
O O6 0.489078 0.000000 0.078189
O O7 0.500000 0.760925 0.000000
O O8 0.549437 0.776271 0.239413
O O9 0.247622 0.242524 0.167593
O O10 0.285895 0.000000 0.133142
O O11 0.250000 0.250000 0.000000
O O12 0.658550 0.200678 0.507787
O O13 0.553508 0.000000 0.354912
O O14 0.250000 0.250000 0.500000
O O15 0.199179 0.262169 0.264737
O O16 0.240409 0.000000 0.393198
O O17 0.303165 0.000000 0.841906
#
# Coordination Sequence:
#
# PCOD9225368 Si02
#       6
#     8   8   8   8   8   8
#     4  11  24  41  62  89 121 158 201 251 308 366
#     4   9  18  35  59  85 113 149 193 238 287 348
#     4  12  25  42  64  90 123 162 206 254 306 366
#     4  10  21  38  61  87 115 154 202 248 298 356
#     4  11  23  39  61  89 122 161 204 251 303 361
#     4  11  22  38  62  90 121 157 198 249 307 365
#
# _framework density 10.243449
#
# number of rings (size 3 to 8) (size 9 to 14) (size 15 to 20)
#    0.000    1.333    0.000    6.000    0.000    9.333 
#    0.000    0.833    0.000    3.500    0.000    0.000 
#    0.000    0.000    0.000    0.000    0.000    0.000 
#
# Total GULP energy -134191.443062 kJ/mol
# GULP energy per Si atom -5591.310128 kJ/mol
# Density = 1.022013 g / cm^3
# Si number density = 10.243449 Si / 1000 Ang^3
#
#
#
# Elastic Constant Matrix: (Units=GPa)
#
#
# Indices 1 2 3 4 5 6 
#
# 1 80.5826 28.1261 -5.3330 0.0000 -4.4174 0.0000
# 2 28.1261 107.2382 19.4265 0.0000 9.5934 0.0000
# 3 -5.3330 19.4265 70.3364 0.0000 -0.7826 0.0000
# 4 0.0000 0.0000 0.0000 24.9000 0.0000 -3.0485
# 5 -4.4174 9.5934 -0.7826 0.0000 32.7732 0.0000
# 6 0.0000 0.0000 0.0000 -3.0485 0.0000 29.5023
#
#
#
# Elastic Compliance Matrix: (Units=1/GPa)
#
#
# Indices 1 2 3 4 5 6 
#
# 1 0.014308 -0.004474 0.002357 0.000000 0.003295 0.000000
# 2 -0.004474 0.011507 -0.003563 0.000000 -0.004056 0.000000
# 3 0.002357 -0.003563 0.015399 0.000000 0.001728 0.000000
# 4 0.000000 0.000000 0.000000 0.040675 0.000000 0.004203
# 5 0.003295 -0.004056 0.001728 0.000000 0.032185 0.000000
# 6 0.000000 0.000000 0.000000 0.004203 0.000000 0.034330
#
#
# Mechanical properties :
#
#
# Convention : Reuss Voigt Hill
#
# Bulk Modulus (GPa) = 33.49538 38.06626 35.78082
# Shear Modulus (GPa) = 29.46106 31.83094 30.64600
#
# Velocity S-wave (km/s) = 3.79627 3.94600 3.87186
# Velocity P-wave (km/s) = 5.96663 6.27554 6.12303
#
# Compressibility (1/GPa) = 0.02985486
#
# Stress axis : x y z
#
# Youngs Moduli (GPa) = 69.89118 86.90500 64.93807
#
# Poissons Ratio (x) = 0.38885 -0.15308
# Poissons Ratio (y) = 0.31272 0.23134
# Poissons Ratio (z) = -0.16476 0.30960
#
# Static dielectric constant tensor:
#      x y z
#    x 1.717460 0.000000 -0.025080 
#    y 0.000000 1.688550 0.000000 
#    z -0.025080 0.000000 1.754990 
# 
# From -- ./inp_files/244864.got.cif
#   From: 2010.05.17/outbox.ucp.g08.bks.cvg/sg12_123_cif.got.tgz:244864.got - 2010.06.11 11:47:21.
