data_PCOD9225545
_publ_section_title
;
Structure prediction by ZEFSAII (Michael W. Deem and Ramdas Pophale) SiO2 
 PCOD9225545
Probable space group: C 2/M
;
_chemical_formula_sum "Si O2"
_cell_formula_units_Z 28
_cell_length_a 9.000000
_cell_length_b 24.000000
_cell_length_c 15.000000
_cell_angle_alpha 90.000000
_cell_angle_beta 60.000000
_cell_angle_gamma 90.000000
_cell_volume 2805.922308
_symmetry_space_group_name_H-M "C 2/M"
_symmetry_group_IT_number 12
_symmetry_cell_setting 'monoclinic'
loop_
_space_group_symop_operation_xyz
x,y,z
-x,y,-z
-x,-y,-z
x,-y,z
1/2+x,1/2+y,z
1/2-x,1/2+y,-z
1/2-x,1/2-y,-z
1/2+x,1/2-y,z
loop_
_atom_site_type_symbol
_atom_site_label
_atom_site_fract_x
_atom_site_fract_y
_atom_site_fract_z
Si Si1 0.669813 0.387051 0.100345
Si Si2 0.191850 0.209614 0.406915
Si Si3 0.883485 0.657367 0.192621
Si Si4 0.648089 0.436273 0.728250
Si Si5 0.561909 0.729515 0.079065
Si Si6 0.330048 0.933279 0.867182
Si Si7 0.202532 0.336118 0.437820
O O1 0.826469 0.367487 0.114909
O O2 0.553982 0.429644 0.190556
O O3 0.562066 0.329368 0.127837
O O4 0.726764 0.410683 0.986392
O O5 0.229991 0.174556 0.306243
O O6 0.251945 0.274660 0.381624
O O7 0.266861 0.174193 0.466248
O O8 0.000000 0.216350 0.500000
O O9 0.971934 0.717484 0.150405
O O10 0.011193 0.609835 0.190808
O O11 0.686854 0.500000 0.686600
O O12 0.729641 0.429137 0.803233
O O13 0.709388 0.387603 0.641453
O O14 0.500000 0.715854 0.000000
O O15 0.750000 0.750000 0.000000
O O16 0.368824 0.000000 0.868941
O O17 0.000000 0.346067 0.500000
#
# Coordination Sequence:
#
# PCOD9225545 Si02
#       7
#     8   8   8   8   8   8   8
#     4  12  24  39  62  89 133 167 205 255 309 384
#     4  10  22  40  63  91 122 158 206 254 318 380
#     4  12  24  40  62  92 126 167 208 256 315 376
#     4  11  24  41  65  93 119 165 215 260 319 367
#     4  12  22  39  59  96 132 165 208 253 315 378
#     4  11  24  42  62  89 126 167 212 257 308 380
#     4  10  21  41  64  89 121 158 203 262 320 373
#
# _framework density 9.9788940000000004
#
# number of rings (size 3 to 8) (size 9 to 14) (size 15 to 20)
#    0.000    0.857    2.857    4.714    0.000    6.571 
#    0.000    0.714    0.000    1.714    0.000    0.000 
#    0.000    0.000    0.000    0.000    0.000    0.000 
#
# Total GULP energy -156077.461795 kJ/mol
# GULP energy per Si atom -5574.195064 kJ/mol
# Density = 0.995618 g / cm^3
# Si number density = 9.978894 Si / 1000 Ang^3
#
#
#
# Elastic Constant Matrix: (Units=GPa)
#
#
# Indices 1 2 3 4 5 6 
#
# 1 43.0635 23.1758 7.6152 0.0000 4.0452 0.0000
# 2 23.1758 156.5009 52.7368 0.0000 4.0978 0.0000
# 3 7.6152 52.7368 100.9606 0.0000 -9.0635 0.0000
# 4 0.0000 0.0000 0.0000 62.9272 0.0000 -7.8839
# 5 4.0452 4.0978 -9.0635 0.0000 19.5160 0.0000
# 6 0.0000 0.0000 0.0000 -7.8839 0.0000 35.7992
#
#
#
# Elastic Compliance Matrix: (Units=1/GPa)
#
#
# Indices 1 2 3 4 5 6 
#
# 1 0.025650 -0.003487 -0.000548 0.000000 -0.004839 0.000000
# 2 -0.003487 0.008488 -0.004451 0.000000 -0.003127 0.000000
# 3 -0.000548 -0.004451 0.012903 0.000000 0.007041 0.000000
# 4 0.000000 0.000000 0.000000 0.016342 0.000000 0.003599
# 5 -0.004839 -0.003127 0.007041 0.000000 0.056169 0.000000
# 6 0.000000 0.000000 0.000000 0.003599 0.000000 0.028726
#
#
# Mechanical properties :
#
#
# Convention : Reuss Voigt Hill
#
# Bulk Modulus (GPa) = 33.25704 51.95341 42.60523
# Shear Modulus (GPa) = 28.52680 38.11497 33.32088
#
# Velocity S-wave (km/s) = 3.78478 4.37484 4.09047
# Velocity P-wave (km/s) = 5.98325 7.18381 6.61084
#
# Compressibility (1/GPa) = 0.03006882
#
# Stress axis : x y z
#
# Youngs Moduli (GPa) = 38.98695 117.81306 77.49890
#
# Poissons Ratio (x) = 0.41084 0.04243
# Poissons Ratio (y) = 0.13595 0.34498
# Poissons Ratio (z) = 0.02135 0.52443
#
# Static dielectric constant tensor:
#      x y z
#    x 1.670150 0.000000 -0.026180 
#    y 0.000000 1.703590 0.000000 
#    z -0.026180 0.000000 1.677980 
# 
# From -- ./inp_files/198803.got.cif
#   From: 2010.05.17/outbox.ucp.g08.bks.cvg/sg12_100_cif.got.tgz:198803.got - 2010.06.11 11:47:21.
