data_PCOD9225200
_publ_section_title
;
Structure prediction by ZEFSAII (Michael W. Deem and Ramdas Pophale) SiO2 
 PCOD9225200
Probable space group: C 2/M
;
_chemical_formula_sum "Si O2"
_cell_formula_units_Z 20
_cell_length_a 9.000000
_cell_length_b 30.000000
_cell_length_c 15.000000
_cell_angle_alpha 90.000000
_cell_angle_beta 150.000000
_cell_angle_gamma 90.000000
_cell_volume 2025.000000
_symmetry_space_group_name_H-M "C 2/M"
_symmetry_group_IT_number 12
_symmetry_cell_setting 'monoclinic'
loop_
_space_group_symop_operation_xyz
x,y,z
-x,y,-z
-x,-y,-z
x,-y,z
1/2+x,1/2+y,z
1/2-x,1/2+y,-z
1/2-x,1/2-y,-z
1/2+x,1/2-y,z
loop_
_atom_site_type_symbol
_atom_site_label
_atom_site_fract_x
_atom_site_fract_y
_atom_site_fract_z
Si Si1 0.650584 0.789870 0.308294
Si Si2 0.774469 0.614693 0.300492
Si Si3 0.142326 0.391715 0.308934
Si Si4 0.655100 0.711679 0.177399
Si Si5 0.697600 0.947082 0.014029
O O1 0.582738 0.840859 0.244737
O O2 0.562173 0.752134 0.191911
O O3 0.495819 0.782818 0.323112
O O4 0.000000 0.786946 0.500000
O O5 0.632255 0.663841 0.212544
O O6 0.000000 0.615431 0.500000
O O7 0.972138 0.604990 0.315062
O O8 0.509597 0.579459 0.177138
O O9 0.500000 0.397282 0.500000
O O10 0.994618 0.426984 0.166544
O O11 0.500000 0.711005 0.000000
O O12 0.748126 0.000000 0.030458
O O13 0.500000 0.939840 0.000000
#
# Coordination Sequence:
#
# PCOD9225200 Si02
#       5
#     8   8   8   8   8
#     4  10  21  36  56  85 121 159 200 242 293 355
#     4  11  23  41  64  90 124 165 208 253 303 360
#     4  10  22  41  64  94 126 162 205 250 303 364
#     4  11  22  37  57  87 122 159 204 248 297 354
#     4  11  25  44  66  93 122 155 200 254 313 373
#
# _framework density 9.8765429999999999
#
# number of rings (size 3 to 8) (size 9 to 14) (size 15 to 20)
#    0.000    1.400    0.000    6.000    0.000    8.000 
#    0.000    0.000    0.000    0.000    0.000    0.000 
#    0.000    0.000    0.000    0.000    0.000    0.000 
#
# Total GULP energy -111757.856355 kJ/mol
# GULP energy per Si atom -5587.892818 kJ/mol
# Density = 0.985406 g / cm^3
# Si number density = 9.876543 Si / 1000 Ang^3
#
#
#
# Elastic Constant Matrix: (Units=GPa)
#
#
# Indices 1 2 3 4 5 6 
#
# 1 116.2001 96.3053 52.2751 0.0000 0.8390 0.0000
# 2 96.3053 169.4006 83.6062 0.0000 -8.1640 0.0000
# 3 52.2751 83.6062 114.6791 0.0000 -1.0682 0.0000
# 4 0.0000 0.0000 0.0000 29.6062 0.0000 4.0911
# 5 0.8390 -8.1640 -1.0682 0.0000 41.3823 0.0000
# 6 0.0000 0.0000 0.0000 4.0911 0.0000 27.7031
#
#
#
# Elastic Compliance Matrix: (Units=1/GPa)
#
#
# Indices 1 2 3 4 5 6 
#
# 1 0.016540 -0.009021 -0.000983 0.000000 -0.002140 0.000000
# 2 -0.009021 0.014255 -0.006254 0.000000 0.002834 0.000000
# 3 -0.000983 -0.006254 0.013719 0.000000 -0.000860 0.000000
# 4 0.000000 0.000000 0.000000 0.034480 0.000000 -0.005092
# 5 -0.002140 0.002834 -0.000860 0.000000 0.024745 0.000000
# 6 0.000000 0.000000 0.000000 -0.005092 0.000000 0.036849
#
#
# Mechanical properties :
#
#
# Convention : Reuss Voigt Hill
#
# Bulk Modulus (GPa) = 83.34207 96.07255 89.70731
# Shear Modulus (GPa) = 28.23199 30.94453 29.58826
#
# Velocity S-wave (km/s) = 3.78464 3.96228 3.87448
# Velocity P-wave (km/s) = 7.83463 8.34717 8.09496
#
# Compressibility (1/GPa) = 0.01199874
#
# Stress axis : x y z
#
# Youngs Moduli (GPa) = 60.45884 70.15084 72.89068
#
# Poissons Ratio (x) = 0.63286 0.07162
# Poissons Ratio (y) = 0.54542 0.45585
# Poissons Ratio (z) = 0.05940 0.43871
#
# Static dielectric constant tensor:
#      x y z
#    x 1.701220 0.000000 0.042120 
#    y 0.000000 1.677690 0.000000 
#    z 0.042120 0.000000 1.745350 
# 
# From -- ./inp_files/41449.got.cif
#   From: 2010.05.17/outbox.ucp.g08.bks.cvg/sg12_21_cif.got.tgz:41449.got - 2010.06.11 11:47:21.
