data_PCOD9225005
_publ_section_title
;
Structure prediction by ZEFSAII (Michael W. Deem and Ramdas Pophale) SiO2 
 PCOD9225005
Probable space group: C 2/M
;
_chemical_formula_sum "Si O2"
_cell_formula_units_Z 28
_cell_length_a 21.000000
_cell_length_b 18.000000
_cell_length_c 21.000000
_cell_angle_alpha 90.000000
_cell_angle_beta 20.000000
_cell_angle_gamma 90.000000
_cell_volume 2714.955898
_symmetry_space_group_name_H-M "C 2/M"
_symmetry_group_IT_number 12
_symmetry_cell_setting 'monoclinic'
loop_
_space_group_symop_operation_xyz
x,y,z
-x,y,-z
-x,-y,-z
x,-y,z
1/2+x,1/2+y,z
1/2-x,1/2+y,-z
1/2-x,1/2-y,-z
1/2+x,1/2-y,z
loop_
_atom_site_type_symbol
_atom_site_label
_atom_site_fract_x
_atom_site_fract_y
_atom_site_fract_z
Si Si1 0.121931 0.086957 0.277349
Si Si2 0.167331 0.587355 0.053978
Si Si3 0.799516 0.659949 0.624569
Si Si4 0.177117 0.585743 0.263624
Si Si5 0.460510 0.588237 0.882882
Si Si6 0.694446 0.813304 0.786626
Si Si7 0.308179 0.088726 0.331959
O O1 0.250357 0.093174 0.094501
O O2 0.183588 0.144112 0.274502
O O3 0.910839 0.101830 0.452786
O O4 0.130585 0.000000 0.291661
O O5 0.153738 0.500000 0.084356
O O6 0.318827 0.616617 0.961484
O O7 0.955633 0.616167 0.246420
O O8 0.769119 0.607257 0.715108
O O9 0.644275 0.637323 0.719400
O O10 0.785173 0.743115 0.665558
O O11 0.005554 0.639347 0.407339
O O12 0.114560 0.500000 0.319908
O O13 0.345182 0.593695 0.056901
O O14 0.505842 0.500000 0.829355
O O15 0.647388 0.873575 0.776982
O O16 0.500000 0.787203 0.000000
O O17 0.333724 0.000000 0.303025
#
# Coordination Sequence:
#
# PCOD9225005 Si02
#       7
#     8   8   8   8   8   8   8
#     4  10  21  37  60  90 120 155 198 241 289 344
#     4   9  19  37  61  89 118 152 196 244 286 342
#     4  11  23  37  56  89 122 151 193 242 296 354
#     4  10  21  38  62  88 115 150 193 248 302 348
#     4  10  20  38  65  90 117 153 195 242 295 349
#     4  12  23  36  59  86 119 163 193 240 297 344
#     4  10  21  37  58  86 118 154 200 244 287 342
#
# _framework density 10.313243
#
# number of rings (size 3 to 8) (size 9 to 14) (size 15 to 20)
#    0.000    1.714    1.429    3.857    4.000    4.000 
#    0.000    5.000    0.000    1.714    0.000    0.000 
#    0.000    0.000    0.000    0.000    0.000    0.000 
#
# Total GULP energy -156374.134924 kJ/mol
# GULP energy per Si atom -5584.790533 kJ/mol
# Density = 1.028977 g / cm^3
# Si number density = 10.313243 Si / 1000 Ang^3
#
#
#
# Elastic Constant Matrix: (Units=GPa)
#
#
# Indices 1 2 3 4 5 6 
#
# 1 72.2401 10.5985 15.4471 -0.5028 -48.4676 -0.4602
# 2 10.5985 51.3751 23.0040 -1.8119 -18.6004 -1.6406
# 3 15.4471 23.0040 65.6652 0.2721 -36.2512 0.2417
# 4 -0.5028 -1.8119 0.2721 131.5102 0.4924 104.7668
# 5 -48.4676 -18.6004 -36.2512 0.4924 41.8135 0.4586
# 6 -0.4602 -1.6406 0.2417 104.7668 0.4586 104.5642
#
#
#
# Elastic Compliance Matrix: (Units=1/GPa)
#
#
# Indices 1 2 3 4 5 6 
#
# 1 -0.187797 -0.025289 -0.140693 0.000140 -0.350917 0.000501
# 2 -0.025289 0.020578 -0.023771 0.000168 -0.040774 0.000277
# 3 -0.140693 -0.023771 -0.075221 0.000010 -0.238875 0.000219
# 4 0.000140 0.000168 0.000010 0.037679 0.000216 -0.037750
# 5 -0.350917 -0.040774 -0.238875 0.000216 -0.608093 0.000818
# 6 0.000501 0.000277 0.000219 -0.037750 0.000818 0.047389
#
#
# Mechanical properties :
#
#
# Convention : Reuss Voigt Hill
#
# Bulk Modulus (GPa) = -1.60785 31.93105 15.16160
# Shear Modulus (GPa) = -8.42782 64.92630 28.24924
#
# Velocity S-wave (km/s) = -2.02356 5.61654 3.70477
# Velocity P-wave (km/s) = 2.49818 7.58781 5.06626
#
# Compressibility (1/GPa) = -0.62194819
#
# Stress axis : x y z
#
# Youngs Moduli (GPa) = -5.32489 48.59480 -13.29414
#
# Poissons Ratio (x) = 1.22893 -1.87039
# Poissons Ratio (y) = -0.13466 -0.31602
# Poissons Ratio (z) = -0.74918 1.15517
#
# Static dielectric constant tensor:
#      x y z
#    x 1.735550 -0.000020 -0.029610 
#    y -0.000020 1.720270 0.000020 
#    z -0.029610 0.000020 1.811630 
# 
# From -- ./inp_files/322639.got.cif
#   From: 2010.05.17/outbox.ucp.g08.bks.cvg/sg12_162_cif.got.tgz:322639.got - 2010.06.11 11:47:21.
