data_PCOD9225553
_publ_section_title
;
Structure prediction by ZEFSAII (Michael W. Deem and Ramdas Pophale) SiO2 
 PCOD9225553
Probable space group: C 2/M
;
_chemical_formula_sum "Si O2"
_cell_formula_units_Z 20
_cell_length_a 18.000000
_cell_length_b 15.000000
_cell_length_c 21.000000
_cell_angle_alpha 90.000000
_cell_angle_beta 20.000000
_cell_angle_gamma 90.000000
_cell_volume 1939.254213
_symmetry_space_group_name_H-M "C 2/M"
_symmetry_group_IT_number 12
_symmetry_cell_setting 'monoclinic'
loop_
_space_group_symop_operation_xyz
x,y,z
-x,y,-z
-x,-y,-z
x,-y,z
1/2+x,1/2+y,z
1/2-x,1/2+y,-z
1/2-x,1/2-y,-z
1/2+x,1/2-y,z
loop_
_atom_site_type_symbol
_atom_site_label
_atom_site_fract_x
_atom_site_fract_y
_atom_site_fract_z
Si Si1 0.076524 0.896392 0.555167
Si Si2 0.453908 0.830496 0.865963
Si Si3 0.471020 0.104074 0.448395
Si Si4 0.276340 0.752405 0.145358
Si Si5 0.014254 0.143127 0.754876
O O1 0.307137 0.876044 0.333521
O O2 0.086095 0.879520 0.624607
O O3 0.872838 0.831413 0.703353
O O4 0.024052 0.000000 0.586938
O O5 0.487936 0.748907 0.789233
O O6 0.373713 0.787934 0.998653
O O7 0.233904 0.888296 0.028940
O O8 0.500000 0.129700 0.500000
O O9 0.614647 0.167533 0.285992
O O10 0.215801 0.112952 0.635947
O O11 0.533696 0.000000 0.391231
O O12 0.500000 0.730722 0.000000
#
# Coordination Sequence:
#
# PCOD9225553 Si02
#       5
#     8   8   8   8   8
#     4  11  24  42  67  99 132 169 219 268 322 384
#     4  10  22  39  71  95 129 174 216 261 325 387
#     4  11  24  43  68  97 132 172 215 264 325 392
#     4  11  25  43  69  94 132 172 216 269 323 385
#     4  10  21  41  66  96 131 168 214 265 319 381
#
# _framework density 10.313243
#
# number of rings (size 3 to 8) (size 9 to 14) (size 15 to 20)
#    0.000    1.400    2.000    2.400    5.600    4.800 
#    0.000    3.000    0.000    0.000    0.000    0.000 
#    0.000    0.000    0.000    0.000    0.000    0.000 
#
# Total GULP energy -111432.428774 kJ/mol
# GULP energy per Si atom -5571.621439 kJ/mol
# Density = 1.028977 g / cm^3
# Si number density = 10.313243 Si / 1000 Ang^3
#
#
#
# Elastic Constant Matrix: (Units=GPa)
#
#
# Indices 1 2 3 4 5 6 
#
# 1 35.1934 -5.6294 19.3277 0.0357 0.6445 -0.0302
# 2 -5.6294 118.8295 48.0876 0.0530 9.0382 -0.0137
# 3 19.3277 48.0876 186.0327 0.0857 3.1999 -0.0452
# 4 0.0357 0.0530 0.0857 21.9267 -0.0277 2.0700
# 5 0.6445 9.0382 3.1999 -0.0277 38.9431 0.0076
# 6 -0.0302 -0.0137 -0.0452 2.0700 0.0076 6.7102
#
#
#
# Elastic Compliance Matrix: (Units=1/GPa)
#
#
# Indices 1 2 3 4 5 6 
#
# 1 0.031162 0.003183 -0.004044 -0.000057 -0.000922 0.000138
# 2 0.003183 0.009879 -0.002848 -0.000023 -0.002112 0.000025
# 3 -0.004044 -0.002848 0.006529 -0.000014 0.000191 0.000024
# 4 -0.000057 -0.000023 -0.000014 0.046975 0.000044 -0.014492
# 5 -0.000922 -0.002112 0.000191 0.000044 0.026168 -0.000050
# 6 0.000138 0.000025 0.000024 -0.014492 -0.000050 0.153498
#
#
# Mechanical properties :
#
#
# Convention : Reuss Voigt Hill
#
# Bulk Modulus (GPa) = 24.90603 51.51415 38.21009
# Shear Modulus (GPa) = 16.94841 32.06732 24.50786
#
# Velocity S-wave (km/s) = 2.86961 3.94720 3.45073
# Velocity P-wave (km/s) = 4.80422 6.76778 5.86871
#
# Compressibility (1/GPa) = 0.04015093
#
# Stress axis : x y z
#
# Youngs Moduli (GPa) = 32.09059 101.22076 153.17418
#
# Poissons Ratio (x) = -0.32220 0.61950
# Poissons Ratio (y) = -0.10215 0.43626
# Poissons Ratio (z) = 0.12979 0.28829
#
# Static dielectric constant tensor:
#      x y z
#    x 1.844360 -0.000020 -0.046830 
#    y -0.000020 1.762770 0.000020 
#    z -0.046830 0.000020 1.712840 
# 
# From -- ./inp_files/316627.got.cif
#   From: 2010.05.17/outbox.ucp.g08.bks.cvg/sg12_159_cif.got.tgz:316627.got - 2010.06.11 11:47:21.
