data_PCOD9225729
_publ_section_title
;
Structure prediction by ZEFSAII (Michael W. Deem and Ramdas Pophale) SiO2 
 PCOD9225729
Probable space group: C 2/M
;
_chemical_formula_sum "Si O2"
_cell_formula_units_Z 32
_cell_length_a 9.000000
_cell_length_b 30.000000
_cell_length_c 24.000000
_cell_angle_alpha 90.000000
_cell_angle_beta 150.000000
_cell_angle_gamma 90.000000
_cell_volume 3240.000000
_symmetry_space_group_name_H-M "C 2/M"
_symmetry_group_IT_number 12
_symmetry_cell_setting 'monoclinic'
loop_
_space_group_symop_operation_xyz
x,y,z
-x,y,-z
-x,-y,-z
x,-y,z
1/2+x,1/2+y,z
1/2-x,1/2+y,-z
1/2-x,1/2-y,-z
1/2+x,1/2-y,z
loop_
_atom_site_type_symbol
_atom_site_label
_atom_site_fract_x
_atom_site_fract_y
_atom_site_fract_z
Si Si1 0.154191 0.138993 0.873104
Si Si2 0.319748 0.865535 0.578255
Si Si3 0.828776 0.549229 0.134070
Si Si4 0.300017 0.296651 0.213721
Si Si5 0.853256 0.355621 0.117567
Si Si6 0.735619 0.705178 0.457283
Si Si7 0.252655 0.945006 0.244019
Si Si8 0.322304 0.808688 0.219391
O O1 0.074630 0.167729 0.790988
O O2 0.031440 0.087806 0.835729
O O3 0.991284 0.169538 0.866040
O O4 0.500000 0.138186 0.000000
O O5 0.276471 0.840740 0.505046
O O6 0.502047 0.912333 0.645680
O O7 0.469793 0.825264 0.662743
O O8 0.000000 0.874523 0.500000
O O9 0.966606 0.500000 0.169494
O O10 0.971472 0.593448 0.152550
O O11 0.803096 0.556291 0.192884
O O12 0.500000 0.547019 0.000000
O O13 0.456849 0.297752 0.325001
O O14 0.311621 0.244049 0.202763
O O15 0.976818 0.318173 0.116838
O O16 0.932638 0.336928 0.203451
O O17 0.500000 0.358238 0.000000
O O18 0.750000 0.750000 0.500000
O O19 0.000000 0.710178 0.500000
O O20 0.241458 0.000000 0.253675
#
# Coordination Sequence:
#
# PCOD9225729 Si02
#       8
#     8   8   8   8   8   8   8   8
#     4  11  24  41  61  93 128 167 211 252 308 383
#     4  11  22  40  65  93 125 157 210 263 315 375
#     4   9  18  35  63  89 115 150 197 254 313 361
#     4  12  26  37  63  90 129 167 211 257 306 372
#     4  11  22  37  60  89 123 164 202 252 310 369
#     4  12  25  40  64  90 122 167 214 265 312 364
#     4  10  22  43  67  90 125 165 206 263 317 372
#     4  11  22  40  58  85 129 167 206 251 302 373
#
# _framework density 9.8765429999999999
#
# number of rings (size 3 to 8) (size 9 to 14) (size 15 to 20)
#    0.000    1.125    3.750    4.125    3.500    3.500 
#    0.000    0.625    0.000    3.375    0.000    0.000 
#    0.000    0.000    0.000    0.000    0.000    0.000 
#
# Total GULP energy -178138.367028 kJ/mol
# GULP energy per Si atom -5566.823970 kJ/mol
# Density = 0.985406 g / cm^3
# Si number density = 9.876543 Si / 1000 Ang^3
#
#
#
# Elastic Constant Matrix: (Units=GPa)
#
#
# Indices 1 2 3 4 5 6 
#
# 1 46.1741 17.4924 23.2028 0.0003 2.1712 0.0003
# 2 17.4924 196.3413 37.1356 0.0005 -1.6112 0.0001
# 3 23.2028 37.1356 90.6802 -0.0118 5.2233 0.0003
# 4 0.0003 0.0005 -0.0118 43.5312 -0.0004 -6.4551
# 5 2.1712 -1.6112 5.2233 -0.0004 33.4266 0.0006
# 6 0.0003 0.0001 0.0003 -6.4551 0.0006 25.6829
#
#
#
# Elastic Compliance Matrix: (Units=1/GPa)
#
#
# Indices 1 2 3 4 5 6 
#
# 1 0.025091 -0.001123 -0.005917 -0.000002 -0.000759 -0.000001
# 2 -0.001123 0.005584 -0.002038 -0.000001 0.000660 0.000000
# 3 -0.005917 -0.002038 0.013481 0.000004 -0.001820 0.000001
# 4 -0.000002 -0.000001 0.000004 0.023861 0.000000 0.005997
# 5 -0.000759 0.000660 -0.001820 0.000000 0.030282 -0.000001
# 6 -0.000001 0.000000 0.000001 0.005997 -0.000001 0.040444
#
#
# Mechanical properties :
#
#
# Convention : Reuss Voigt Hill
#
# Bulk Modulus (GPa) = 38.45785 54.31744 46.38765
# Shear Modulus (GPa) = 30.19964 37.55245 33.87605
#
# Velocity S-wave (km/s) = 3.91430 4.36488 4.14572
# Velocity P-wave (km/s) = 6.31985 7.27742 6.81548
#
# Compressibility (1/GPa) = 0.02600249
#
# Stress axis : x y z
#
# Youngs Moduli (GPa) = 39.85435 179.08354 74.17834
#
# Poissons Ratio (x) = 0.20103 0.43890
# Poissons Ratio (y) = 0.04474 0.15114
# Poissons Ratio (z) = 0.23581 0.36490
#
# Static dielectric constant tensor:
#      x y z
#    x 1.824840 0.000000 0.012680 
#    y 0.000000 1.686120 0.000000 
#    z 0.012680 0.000000 1.784240 
# 
# From -- ./inp_files/334367.got.cif
#   From: 2010.05.17/outbox.ucp.g08.bks.cvg/sg12_168_cif.got.tgz:334367.got - 2010.06.11 11:47:21.
