data_PCOD9225069
_publ_section_title
;
Structure prediction by ZEFSAII (Michael W. Deem and Ramdas Pophale) SiO2 
 PCOD9225069
Probable space group: C 2/M
;
_chemical_formula_sum "Si O2"
_cell_formula_units_Z 32
_cell_length_a 30.000000
_cell_length_b 9.000000
_cell_length_c 24.000000
_cell_angle_alpha 90.000000
_cell_angle_beta 30.000000
_cell_angle_gamma 90.000000
_cell_volume 3240.000000
_symmetry_space_group_name_H-M "C 2/M"
_symmetry_group_IT_number 12
_symmetry_cell_setting 'monoclinic'
loop_
_space_group_symop_operation_xyz
x,y,z
-x,y,-z
-x,-y,-z
x,-y,z
1/2+x,1/2+y,z
1/2-x,1/2+y,-z
1/2-x,1/2-y,-z
1/2+x,1/2-y,z
loop_
_atom_site_type_symbol
_atom_site_label
_atom_site_fract_x
_atom_site_fract_y
_atom_site_fract_z
Si Si1 0.919067 0.673727 0.213794
Si Si2 0.938624 0.169310 0.419164
Si Si3 0.982335 0.337165 0.269973
Si Si4 0.943377 0.678465 0.615833
Si Si5 0.191935 0.668014 0.016470
Si Si6 0.742161 0.830809 0.362971
Si Si7 0.244195 0.329819 0.228899
Si Si8 0.381623 0.822348 0.017145
O O1 0.910353 0.500000 0.207065
O O2 0.928753 0.677218 0.270439
O O3 0.836521 0.762881 0.278802
O O4 0.016924 0.731245 0.089851
O O5 0.967593 0.198727 0.325077
O O6 0.839855 0.234946 0.527169
O O7 0.008023 0.254535 0.383644
O O8 0.938180 0.000000 0.436677
O O9 0.958439 0.500000 0.320902
O O10 0.088190 0.342004 0.145549
O O11 0.944203 0.500000 0.619848
O O12 0.842298 0.723179 0.711595
O O13 0.000000 0.719120 0.500000
O O14 0.228009 0.500000 0.972254
O O15 0.250000 0.750000 0.000000
O O16 0.178747 0.737021 0.969144
O O17 0.726629 0.832589 0.313414
O O18 0.737060 0.000000 0.388698
O O19 0.264474 0.500000 0.190005
O O20 0.327308 0.223996 0.129330
O O21 0.386931 0.000000 0.003467
#
# Coordination Sequence:
#
# PCOD9225069 Si02
#       8
#     8   8   8   8   8   8   8   8
#     4   9  20  41  64  86 114 152 195 241 290 341
#     4  12  25  38  58  90 120 149 194 243 290 346
#     4   9  20  40  61  81 115 157 193 232 288 348
#     4  10  20  40  62  80 115 159 195 235 287 345
#     4   9  19  35  55  81 112 150 191 233 281 337
#     4  11  23  41  62  85 115 153 196 241 290 346
#     4  10  22  38  59  86 115 154 198 234 280 348
#     4   9  20  38  58  83 119 152 186 237 292 339
#
# _framework density 9.8765429999999999
#
# number of rings (size 3 to 8) (size 9 to 14) (size 15 to 20)
#    0.000    2.125    1.250    3.000    1.750    4.750 
#    0.000    5.000    0.000    0.000    0.000    0.000 
#    0.000    0.000    0.000    0.000    0.000    0.000 
#
# Total GULP energy -178320.385283 kJ/mol
# GULP energy per Si atom -5572.512040 kJ/mol
# Density = 0.985406 g / cm^3
# Si number density = 9.876543 Si / 1000 Ang^3
#
#
#
# Elastic Constant Matrix: (Units=GPa)
#
#
# Indices 1 2 3 4 5 6 
#
# 1 -168.2649 -7.5998 107.7897 0.0017 -88.8534 0.0089
# 2 -7.5998 14.3118 27.0909 0.0069 -11.6399 -0.0029
# 3 107.7897 27.0909 28.5355 0.0017 12.5574 -0.0062
# 4 0.0017 0.0069 0.0017 19.4070 -0.0018 2.4906
# 5 -88.8534 -11.6399 12.5574 -0.0018 11.0432 0.0032
# 6 0.0089 -0.0029 -0.0062 2.4906 0.0032 12.3113
#
#
#
# Elastic Compliance Matrix: (Units=1/GPa)
#
#
# Indices 1 2 3 4 5 6 
#
# 1 0.003013 -0.018610 0.008508 0.000005 -0.005048 -0.000002
# 2 -0.018610 0.106018 -0.027300 -0.000038 -0.006944 0.000034
# 3 0.008508 -0.027300 0.022745 0.000009 0.013816 -0.000007
# 4 0.000005 -0.000038 0.000009 0.052901 0.000004 -0.010702
# 5 -0.005048 -0.006944 0.013816 0.000004 0.026912 0.000001
# 6 -0.000002 0.000034 -0.000007 -0.010702 0.000001 0.083391
#
#
# Mechanical properties :
#
#
# Convention : Reuss Voigt Hill
#
# Bulk Modulus (GPa) = 17.55215 14.34936 15.95075
# Shear Modulus (GPa) = 12.86092 -8.29426 2.28333
#
# Velocity S-wave (km/s) = 2.55440 -2.05136 1.07631
# Velocity P-wave (km/s) = 4.19584 1.29203 3.10438
#
# Compressibility (1/GPa) = 0.05697308
#
# Stress axis : x y z
#
# Youngs Moduli (GPa) = 331.90363 9.43234 43.96630
#
# Poissons Ratio (x) = 0.17553 -0.37406
# Poissons Ratio (y) = 6.17661 1.20026
# Poissons Ratio (z) = -2.82376 0.25750
#
# Static dielectric constant tensor:
#      x y z
#    x 1.661190 0.000000 0.058940 
#    y 0.000000 1.712080 0.000010 
#    z 0.058940 0.000010 1.712510 
# 
# From -- ./inp_files/249974.got.cif
#   From: 2010.05.17/outbox.ucp.g08.bks.cvg/sg12_125_cif.got.tgz:249974.got - 2010.06.11 11:47:21.
