data_PCOD9225241
_publ_section_title
;
Structure prediction by ZEFSAII (Michael W. Deem and Ramdas Pophale) SiO2 
 PCOD9225241
Probable space group: C 2/M
;
_chemical_formula_sum "Si O2"
_cell_formula_units_Z 28
_cell_length_a 24.000000
_cell_length_b 15.000000
_cell_length_c 24.000000
_cell_angle_alpha 90.000000
_cell_angle_beta 20.000000
_cell_angle_gamma 90.000000
_cell_volume 2955.054038
_symmetry_space_group_name_H-M "C 2/M"
_symmetry_group_IT_number 12
_symmetry_cell_setting 'monoclinic'
loop_
_space_group_symop_operation_xyz
x,y,z
-x,y,-z
-x,-y,-z
x,-y,z
1/2+x,1/2+y,z
1/2-x,1/2+y,-z
1/2-x,1/2-y,-z
1/2+x,1/2-y,z
loop_
_atom_site_type_symbol
_atom_site_label
_atom_site_fract_x
_atom_site_fract_y
_atom_site_fract_z
Si Si1 0.074996 0.098713 0.867941
Si Si2 0.842236 0.102630 0.876361
Si Si3 0.536807 0.728728 0.325646
Si Si4 0.790037 0.104939 0.744296
Si Si5 0.263462 0.604793 0.080221
Si Si6 0.257468 0.225231 0.320072
Si Si7 0.959848 0.401319 0.925437
O O1 0.197340 0.180494 0.749179
O O2 0.147015 0.000000 0.790648
O O3 0.000000 0.099748 0.000000
O O4 0.928713 0.111404 0.961118
O O5 0.959113 0.172868 0.735733
O O6 0.902864 0.000000 0.816173
O O7 0.801144 0.121853 0.979327
O O8 0.680219 0.105768 0.989712
O O9 0.608818 0.662658 0.305905
O O10 0.640702 0.819067 0.218237
O O11 0.363177 0.745767 0.516001
O O12 0.793533 0.156729 0.682110
O O13 0.837630 0.000000 0.694512
O O14 0.618433 0.104066 0.939149
O O15 0.208277 0.500000 0.136729
O O16 0.414858 0.177629 0.197804
O O17 0.035639 0.500000 0.849049
#
# Coordination Sequence:
#
# PCOD9225241 Si02
#       7
#     8   8   8   8   8   8   8
#     4  10  21  38  59  80 104 139 185 231 268 313
#     4   9  19  38  60  79 103 142 189 226 260 316
#     4  11  22  34  54  83 114 143 175 225 275 319
#     4  10  21  37  56  79 111 151 187 214 253 321
#     4  10  21  40  63  78  98 143 192 226 263 319
#     4  12  22  32  52  83 117 145 172 220 281 326
#     4   9  18  33  54  79 108 143 182 221 259 313
#
# _framework density 9.4752919999999996
#
# number of rings (size 3 to 8) (size 9 to 14) (size 15 to 20)
#    0.000    1.857    0.000    6.429    0.000    4.571 
#    0.000    2.857    0.000    9.429    0.000    0.000 
#    0.000    0.000    0.000    0.000    0.000    0.000 
#
# Total GULP energy -156151.248406 kJ/mol
# GULP energy per Si atom -5576.830300 kJ/mol
# Density = 0.945373 g / cm^3
# Si number density = 9.475292 Si / 1000 Ang^3
#
#
#
# Elastic Constant Matrix: (Units=GPa)
#
#
# Indices 1 2 3 4 5 6 
#
# 1 96.1325 18.8137 16.9885 -0.0094 24.7269 0.0016
# 2 18.8137 141.2453 53.9682 -0.0211 24.5162 0.0304
# 3 16.9885 53.9682 61.0159 -0.0092 27.2010 0.0384
# 4 -0.0094 -0.0211 -0.0092 -30.2386 0.0000 -25.1567
# 5 24.7269 24.5162 27.2010 0.0000 19.7043 -0.0099
# 6 0.0016 0.0304 0.0384 -25.1567 -0.0099 -1.2696
#
#
#
# Elastic Compliance Matrix: (Units=1/GPa)
#
#
# Indices 1 2 3 4 5 6 
#
# 1 0.019050 -0.000561 0.014401 0.000043 -0.043087 -0.000063
# 2 -0.000561 0.010714 -0.009598 -0.000002 0.000624 -0.000003
# 3 0.014401 -0.009598 0.061369 0.000128 -0.090846 -0.000173
# 4 0.000043 -0.000002 0.000128 0.002136 -0.000249 -0.042318
# 5 -0.043087 0.000624 -0.090846 -0.000249 0.229454 0.000348
# 6 -0.000063 -0.000003 -0.000173 -0.042318 0.000348 0.050867
#
#
# Mechanical properties :
#
#
# Convention : Reuss Voigt Hill
#
# Bulk Modulus (GPa) = 10.03862 53.10385 31.57124
# Shear Modulus (GPa) = 12.55299 11.54745 12.05022
#
# Velocity S-wave (km/s) = 2.57652 2.47117 2.52439
# Velocity P-wave (km/s) = 3.76298 6.01875 5.01923
#
# Compressibility (1/GPa) = 0.09961528
#
# Stress axis : x y z
#
# Youngs Moduli (GPa) = 52.49358 93.33893 16.29495
#
# Poissons Ratio (x) = 0.05236 -0.23466
# Poissons Ratio (y) = 0.02945 0.15640
# Poissons Ratio (z) = -0.75593 0.89587
#
# Static dielectric constant tensor:
#      x y z
#    x 1.645820 0.000000 -0.028420 
#    y 0.000000 1.686460 0.000010 
#    z -0.028420 0.000010 1.699740 
# 
# From -- ./inp_files/349728.got.cif
#   From: 2010.05.17/outbox.ucp.g08.bks.cvg/sg12_175_cif.got.tgz:349728.got - 2010.06.11 11:47:21.
