data_PCOD9225261
_publ_section_title
;
Structure prediction by ZEFSAII (Michael W. Deem and Ramdas Pophale) SiO2 
 PCOD9225261
Probable space group: C 2/M
;
_chemical_formula_sum "Si O2"
_cell_formula_units_Z 32
_cell_length_a 15.000000
_cell_length_b 9.000000
_cell_length_c 30.000000
_cell_angle_alpha 90.000000
_cell_angle_beta 130.000000
_cell_angle_gamma 90.000000
_cell_volume 3102.479995
_symmetry_space_group_name_H-M "C 2/M"
_symmetry_group_IT_number 12
_symmetry_cell_setting 'monoclinic'
loop_
_space_group_symop_operation_xyz
x,y,z
-x,y,-z
-x,-y,-z
x,-y,z
1/2+x,1/2+y,z
1/2-x,1/2+y,-z
1/2-x,1/2-y,-z
1/2+x,1/2-y,z
loop_
_atom_site_type_symbol
_atom_site_label
_atom_site_fract_x
_atom_site_fract_y
_atom_site_fract_z
Si Si1 0.865409 0.176881 0.056025
Si Si2 0.912303 0.820078 0.357383
Si Si3 0.128333 0.821416 0.557259
Si Si4 0.655626 0.823609 0.856959
Si Si5 0.116168 0.823591 0.116442
Si Si6 0.035139 0.177948 0.257710
Si Si7 0.641845 0.677824 0.389449
Si Si8 0.195503 0.678183 0.233226
O O1 0.885403 0.240705 0.111933
O O2 0.981412 0.211799 0.065098
O O3 0.851436 0.000000 0.053180
O O4 0.750000 0.250000 0.000000
O O5 0.861234 0.770501 0.387988
O O6 0.827811 0.783974 0.289426
O O7 0.043163 0.768658 0.391749
O O8 0.916877 0.000000 0.360674
O O9 0.234238 0.752143 0.564707
O O10 0.000000 0.780019 0.500000
O O11 0.137023 0.000000 0.558116
O O12 0.792758 0.797369 0.893676
O O13 0.586609 0.757145 0.792727
O O14 0.634696 0.000000 0.853907
O O15 0.159095 0.734825 0.173379
O O16 0.122331 0.000000 0.128928
O O17 0.089230 0.211204 0.323368
O O18 0.118600 0.242216 0.246172
O O19 0.022300 0.000000 0.249980
O O20 0.653518 0.500000 0.396380
O O21 0.180965 0.500000 0.231536
#
# Coordination Sequence:
#
# PCOD9225261 Si02
#       8
#     8   8   8   8   8   8   8   8
#     4  11  24  43  64  87 120 160 201 252 297 343
#     4   9  19  36  56  82 115 150 188 233 290 346
#     4  10  21  38  58  80 111 150 194 244 293 343
#     4  11  23  40  63  91 120 157 197 239 294 353
#     4  10  23  41  61  88 124 156 190 242 298 346
#     4  11  21  35  57  87 121 153 188 238 298 348
#     4  10  21  37  58  82 114 152 189 235 288 348
#     4  11  20  34  61  88 116 156 195 233 288 358
#
# _framework density 10.314329000000001
#
# number of rings (size 3 to 8) (size 9 to 14) (size 15 to 20)
#    0.000    1.625    2.500    2.250    0.000    4.250 
#    0.000    4.375    0.000    0.000    0.000    0.000 
#    0.000    0.000    0.000    0.000    0.000    0.000 
#
# Total GULP energy -178742.562737 kJ/mol
# GULP energy per Si atom -5585.705086 kJ/mol
# Density = 1.029085 g / cm^3
# Si number density = 10.314329 Si / 1000 Ang^3
#
#
#
# Elastic Constant Matrix: (Units=GPa)
#
#
# Indices 1 2 3 4 5 6 
#
# 1 101.2227 21.4656 7.2996 0.0000 38.4852 0.0000
# 2 21.4656 25.0700 11.9359 0.0000 15.5229 0.0000
# 3 7.2996 11.9359 49.4094 0.0000 31.1416 0.0000
# 4 0.0000 0.0000 0.0000 26.4804 0.0000 6.5676
# 5 38.4852 15.5229 31.1416 0.0000 35.1602 0.0000
# 6 0.0000 0.0000 0.0000 6.5676 0.0000 23.8559
#
#
#
# Elastic Compliance Matrix: (Units=1/GPa)
#
#
# Indices 1 2 3 4 5 6 
#
# 1 0.038545 -0.004800 0.046905 0.000000 -0.081614 0.000000
# 2 -0.004800 0.055950 -0.001244 0.000000 -0.018345 0.000000
# 3 0.046905 -0.001244 0.103275 0.000000 -0.142262 0.000000
# 4 0.000000 0.000000 0.000000 0.040531 0.000000 -0.011158
# 5 -0.081614 -0.018345 -0.142262 0.000000 0.251875 0.000000
# 6 0.000000 0.000000 0.000000 -0.011158 0.000000 0.044990
#
#
# Mechanical properties :
#
#
# Convention : Reuss Voigt Hill
#
# Bulk Modulus (GPa) = 3.57795 28.56715 16.07255
# Shear Modulus (GPa) = 9.14732 26.09938 17.62335
#
# Velocity S-wave (km/s) = 2.10806 3.56082 2.92604
# Velocity P-wave (km/s) = 2.76829 5.54836 4.38450
#
# Compressibility (1/GPa) = 0.27948952
#
# Stress axis : x y z
#
# Youngs Moduli (GPa) = 25.94391 17.87318 9.68293
#
# Poissons Ratio (x) = 0.08580 -0.45418
# Poissons Ratio (y) = 0.12454 0.01205
# Poissons Ratio (z) = -1.21689 0.02224
#
# Static dielectric constant tensor:
#      x y z
#    x 1.772260 0.000000 0.028420 
#    y 0.000000 1.682660 0.000000 
#    z 0.028420 0.000000 1.743720 
# 
# From -- ./inp_files/359999.got.cif
#   From: 2010.05.17/outbox.ucp.g08.bks.cvg/sg12_180_cif.got.tgz:359999.got - 2010.06.11 11:47:21.
