data_PCOD9225506
_publ_section_title
;
Structure prediction by ZEFSAII (Michael W. Deem and Ramdas Pophale) SiO2 
 PCOD9225506
Probable space group: C 2/M
;
_chemical_formula_sum "Si O2"
_cell_formula_units_Z 28
_cell_length_a 12.000000
_cell_length_b 21.000000
_cell_length_c 12.000000
_cell_angle_alpha 90.000000
_cell_angle_beta 110.000000
_cell_angle_gamma 90.000000
_cell_volume 2841.630485
_symmetry_space_group_name_H-M "C 2/M"
_symmetry_group_IT_number 12
_symmetry_cell_setting 'monoclinic'
loop_
_space_group_symop_operation_xyz
x,y,z
-x,y,-z
-x,-y,-z
x,-y,z
1/2+x,1/2+y,z
1/2-x,1/2+y,-z
1/2-x,1/2-y,-z
1/2+x,1/2-y,z
loop_
_atom_site_type_symbol
_atom_site_label
_atom_site_fract_x
_atom_site_fract_y
_atom_site_fract_z
Si Si1 0.018283 0.334629 0.634156
Si Si2 0.984338 0.893877 0.865007
Si Si3 0.713716 0.427981 0.818759
Si Si4 0.978377 0.256171 0.827730
Si Si5 0.297434 0.925463 0.599785
Si Si6 0.176334 0.301720 0.045980
Si Si7 0.761487 0.425550 0.332664
O O1 0.137899 0.376552 0.674240
O O2 0.000000 0.315473 0.500000
O O3 0.004771 0.274652 0.710730
O O4 0.913347 0.381757 0.636987
O O5 0.079990 0.926175 0.817567
O O6 0.003124 0.817521 0.860471
O O7 0.855292 0.912388 0.777928
O O8 0.000000 0.911038 0.000000
O O9 0.761404 0.500000 0.853101
O O10 0.726356 0.413950 0.690469
O O11 0.774882 0.371572 0.910933
O O12 0.852468 0.270819 0.842804
O O13 0.062256 0.303411 0.926995
O O14 0.238364 0.914538 0.457731
O O15 0.330861 0.000000 0.612609
O O16 0.250000 0.250000 0.000000
O O17 0.798148 0.500000 0.333606
#
# Coordination Sequence:
#
# PCOD9225506 Si02
#       7
#     8   8   8   8   8   8   8
#     4  10  21  40  64  96 126 159 208 265 314 371
#     4  12  25  43  60  88 128 171 213 256 311 380
#     4  11  23  40  66  94 126 161 207 270 316 368
#     4  11  23  39  63  90 121 167 215 255 314 378
#     4   9  19  41  66  92 125 161 205 259 322 376
#     4  11  21  42  65  87 123 172 212 253 314 383
#     4  10  23  41  65  92 124 168 208 253 317 382
#
# _framework density 9.8534980000000001
#
# number of rings (size 3 to 8) (size 9 to 14) (size 15 to 20)
#    0.000    1.429    4.286    0.857    4.000    3.429 
#    2.571    5.714    0.000    0.000    0.000    0.000 
#    0.000    0.000    0.000    0.000    0.000    0.000 
#
# Total GULP energy -156093.964723 kJ/mol
# GULP energy per Si atom -5574.784454 kJ/mol
# Density = 0.983107 g / cm^3
# Si number density = 9.853498 Si / 1000 Ang^3
#
#
#
# Elastic Constant Matrix: (Units=GPa)
#
#
# Indices 1 2 3 4 5 6 
#
# 1 91.4493 23.4038 59.5536 0.0000 -32.4173 0.0000
# 2 23.4038 77.9414 30.2841 0.0000 -11.6413 0.0000
# 3 59.5536 30.2841 93.3029 0.0000 -24.5565 0.0000
# 4 0.0000 0.0000 0.0000 28.6054 0.0000 -9.4093
# 5 -32.4173 -11.6413 -24.5565 0.0000 36.9802 0.0000
# 6 0.0000 0.0000 0.0000 -9.4093 0.0000 22.3893
#
#
#
# Elastic Compliance Matrix: (Units=1/GPa)
#
#
# Indices 1 2 3 4 5 6 
#
# 1 0.022630 -0.000689 -0.010975 0.000000 0.012333 0.000000
# 2 -0.000689 0.014799 -0.003995 0.000000 0.001402 0.000000
# 3 -0.010975 -0.003995 0.019578 0.000000 0.002122 0.000000
# 4 0.000000 0.000000 0.000000 0.040566 0.000000 0.017048
# 5 0.012333 0.001402 0.002122 0.000000 0.039704 0.000000
# 6 0.000000 0.000000 0.000000 0.017048 0.000000 0.051829
#
#
# Mechanical properties :
#
#
# Convention : Reuss Voigt Hill
#
# Bulk Modulus (GPa) = 38.92544 54.35295 46.63919
# Shear Modulus (GPa) = 21.83540 27.55845 24.69693
#
# Velocity S-wave (km/s) = 3.33228 3.74359 3.54391
# Velocity P-wave (km/s) = 5.88221 6.80635 6.36108
#
# Compressibility (1/GPa) = 0.02569014
#
# Stress axis : x y z
#
# Youngs Moduli (GPa) = 44.18837 67.57441 51.07762
#
# Poissons Ratio (x) = 0.04655 0.56057
# Poissons Ratio (y) = 0.03044 0.20403
# Poissons Ratio (z) = 0.48496 0.26993
#
# Static dielectric constant tensor:
#      x y z
#    x 1.834760 0.000000 0.023000 
#    y 0.000000 1.687870 0.000000 
#    z 0.023000 0.000000 1.711080 
# 
# From -- ./inp_files/133959.got.cif
#   From: 2010.05.17/outbox.ucp.g08.bks.cvg/sg12_67_cif.got.tgz:133959.got - 2010.06.11 11:47:21.
