data_PCOD9225137
_publ_section_title
;
Structure prediction by ZEFSAII (Michael W. Deem and Ramdas Pophale) SiO2 
 PCOD9225137
Probable space group: C 2/M
;
_chemical_formula_sum "Si O2"
_cell_formula_units_Z 28
_cell_length_a 18.000000
_cell_length_b 9.000000
_cell_length_c 24.000000
_cell_angle_alpha 90.000000
_cell_angle_beta 130.000000
_cell_angle_gamma 90.000000
_cell_volume 2978.380795
_symmetry_space_group_name_H-M "C 2/M"
_symmetry_group_IT_number 12
_symmetry_cell_setting 'monoclinic'
loop_
_space_group_symop_operation_xyz
x,y,z
-x,y,-z
-x,-y,-z
x,-y,z
1/2+x,1/2+y,z
1/2-x,1/2+y,-z
1/2-x,1/2-y,-z
1/2+x,1/2-y,z
loop_
_atom_site_type_symbol
_atom_site_label
_atom_site_fract_x
_atom_site_fract_y
_atom_site_fract_z
Si Si1 0.104414 0.179016 0.025277
Si Si2 0.318916 0.176672 0.164976
Si Si3 0.664992 0.176108 0.603471
Si Si4 0.869587 0.321041 0.730523
Si Si5 0.499755 0.676529 0.696617
Si Si6 0.044427 0.676865 0.438425
Si Si7 0.944687 0.324601 0.112749
O O1 0.206340 0.226233 0.103756
O O2 0.106221 0.000000 0.027587
O O3 0.099468 0.234521 0.959555
O O4 0.000000 0.228285 0.000000
O O5 0.390279 0.261233 0.242063
O O6 0.375424 0.195359 0.133230
O O7 0.319608 0.000000 0.178591
O O8 0.759625 0.259049 0.673434
O O9 0.629062 0.216822 0.523457
O O10 0.563802 0.196330 0.587962
O O11 0.687221 0.000000 0.614513
O O12 0.867047 0.500000 0.726265
O O13 0.929997 0.254254 0.708059
O O14 0.943524 0.282431 0.817446
O O15 0.500059 0.500000 0.704371
O O16 0.456619 0.724552 0.616740
O O17 0.054310 0.500000 0.431088
O O18 0.944749 0.500000 0.099499
#
# Coordination Sequence:
#
# PCOD9225137 Si02
#       7
#     8   8   8   8   8   8   8
#     4  10  21  35  53  79 107 136 172 213 259 313
#     4   9  19  37  56  75 104 139 174 215 267 317
#     4   9  19  36  58  81 105 141 184 219 261 321
#     4  10  21  37  56  80 111 142 174 220 274 318
#     4  11  22  35  55  82 107 138 184 225 262 317
#     4   9  19  37  57  78 109 144 177 219 270 317
#     4   9  19  35  54  75 101 137 175 212 260 312
#
# _framework density 9.4010809999999996
#
# number of rings (size 3 to 8) (size 9 to 14) (size 15 to 20)
#    0.000    2.429    0.000    3.857    0.000    6.571 
#    0.000    5.714    0.000    0.000    0.000    0.000 
#    0.000    0.000    0.000    0.000    0.000    0.000 
#
# Total GULP energy -156112.101277 kJ/mol
# GULP energy per Si atom -5575.432188 kJ/mol
# Density = 0.937968 g / cm^3
# Si number density = 9.401081 Si / 1000 Ang^3
#
#
#
# Elastic Constant Matrix: (Units=GPa)
#
#
# Indices 1 2 3 4 5 6 
#
# 1 20.8244 3.2282 -5.1795 0.0000 21.4797 0.0000
# 2 3.2282 28.8210 9.4165 0.0000 7.0419 0.0000
# 3 -5.1795 9.4165 48.8131 0.0000 23.8037 0.0000
# 4 0.0000 0.0000 0.0000 39.0351 0.0000 6.7097
# 5 21.4797 7.0419 23.8037 0.0000 41.3441 0.0000
# 6 0.0000 0.0000 0.0000 6.7097 0.0000 21.3739
#
#
#
# Elastic Compliance Matrix: (Units=1/GPa)
#
#
# Indices 1 2 3 4 5 6 
#
# 1 1.414697 -0.118737 0.725172 0.000000 -1.132274 0.000000
# 2 -0.118737 0.047275 -0.066563 0.000000 0.091959 0.000000
# 3 0.725172 -0.066563 0.401076 0.000000 -0.596332 0.000000
# 4 0.000000 0.000000 0.000000 0.027079 0.000000 -0.008501
# 5 -1.132274 0.091959 -0.596332 0.000000 0.940115 0.000000
# 6 0.000000 0.000000 0.000000 -0.008501 0.000000 0.049455
#
#
# Mechanical properties :
#
#
# Convention : Reuss Voigt Hill
#
# Bulk Modulus (GPa) = 0.33981 12.59875 6.46928
# Shear Modulus (GPa) = 1.79799 26.41684 14.10741
#
# Velocity S-wave (km/s) = 0.97895 3.75239 2.74215
# Velocity P-wave (km/s) = 1.20786 5.04867 3.67070
#
# Compressibility (1/GPa) = 2.94279202
#
# Stress axis : x y z
#
# Youngs Moduli (GPa) = 0.70687 21.15262 2.49330
#
# Poissons Ratio (x) = 2.51160 -1.80807
# Poissons Ratio (y) = 0.08393 0.16596
# Poissons Ratio (z) = -0.51260 1.40798
#
# Static dielectric constant tensor:
#      x y z
#    x 1.679510 0.000000 -0.019360 
#    y 0.000000 1.628690 0.000000 
#    z -0.019360 0.000000 1.658140 
# 
# From -- ./inp_files/342587.got.cif
#   From: 2010.05.17/outbox.ucp.g08.bks.cvg/sg12_172_cif.got.tgz:342587.got - 2010.06.11 11:47:21.
