data_PCOD9225745
_publ_section_title
;
Structure prediction by ZEFSAII (Michael W. Deem and Ramdas Pophale) SiO2 
 PCOD9225745
Probable space group: C 2/M
;
_chemical_formula_sum "Si O2"
_cell_formula_units_Z 28
_cell_length_a 9.000000
_cell_length_b 27.000000
_cell_length_c 12.000000
_cell_angle_alpha 90.000000
_cell_angle_beta 110.000000
_cell_angle_gamma 90.000000
_cell_volume 2740.143682
_symmetry_space_group_name_H-M "C 2/M"
_symmetry_group_IT_number 12
_symmetry_cell_setting 'monoclinic'
loop_
_space_group_symop_operation_xyz
x,y,z
-x,y,-z
-x,-y,-z
x,-y,z
1/2+x,1/2+y,z
1/2-x,1/2+y,-z
1/2-x,1/2-y,-z
1/2+x,1/2-y,z
loop_
_atom_site_type_symbol
_atom_site_label
_atom_site_fract_x
_atom_site_fract_y
_atom_site_fract_z
Si Si1 0.422176 0.338170 0.641173
Si Si2 0.745473 0.638827 0.612699
Si Si3 0.281753 0.263861 0.882390
Si Si4 0.562781 0.229947 0.279169
Si Si5 0.688884 0.943980 0.935780
Si Si6 0.311962 0.056656 0.814241
Si Si7 0.108964 0.874144 0.126326
O O1 0.305647 0.367520 0.528638
O O2 0.592026 0.335001 0.627049
O O3 0.369976 0.281483 0.653285
O O4 0.445096 0.367737 0.761809
O O5 0.882430 0.679556 0.651769
O O6 0.774417 0.592019 0.700363
O O7 0.393240 0.227793 0.841065
O O8 0.350381 0.318545 0.898981
O O9 0.123114 0.264265 0.770403
O O10 0.250000 0.250000 0.000000
O O11 0.500501 0.945832 0.877198
O O12 0.741788 0.909014 0.849549
O O13 0.750065 0.000000 0.940373
O O14 0.736735 0.925922 0.073110
O O15 0.253693 0.000000 0.782830
O O16 0.000000 0.894792 0.000000
#
# Coordination Sequence:
#
# PCOD9225745 Si02
#       7
#     8   8   8   8   8   8   8
#     4  10  23  39  54  89 116 153 202 249 282 372
#     4  11  21  39  63  79 118 162 198 241 310 343
#     4  11  22  35  53  85 117 152 189 246 292 351
#     4  11  21  38  57  81 116 156 204 237 296 358
#     4   9  19  37  61  88 118 150 195 247 297 361
#     4   9  19  37  62  92 115 149 203 247 294 361
#     4  11  22  37  56  83 122 148 193 246 302 350
#
# _framework density 10.218442
#
# number of rings (size 3 to 8) (size 9 to 14) (size 15 to 20)
#    0.000    1.714    1.429    5.143    2.000    0.286 
#    0.000    6.429    0.000    1.714    0.000    0.000 
#    0.000    0.000    0.000    0.000    0.000    0.000 
#
# Total GULP energy -155958.229181 kJ/mol
# GULP energy per Si atom -5569.936756 kJ/mol
# Density = 1.019518 g / cm^3
# Si number density = 10.218442 Si / 1000 Ang^3
#
#
#
# Elastic Constant Matrix: (Units=GPa)
#
#
# Indices 1 2 3 4 5 6 
#
# 1 44.5450 2.6107 21.7791 0.0000 -2.7330 0.0000
# 2 2.6107 29.1765 44.7823 0.0000 10.4826 0.0000
# 3 21.7791 44.7823 109.7014 0.0000 -1.4079 0.0000
# 4 0.0000 0.0000 0.0000 28.6551 0.0000 -0.3315
# 5 -2.7330 10.4826 -1.4079 0.0000 21.8566 0.0000
# 6 0.0000 0.0000 0.0000 -0.3315 0.0000 24.0007
#
#
#
# Elastic Compliance Matrix: (Units=1/GPa)
#
#
# Indices 1 2 3 4 5 6 
#
# 1 0.028446 0.027053 -0.016826 0.000000 -0.010502 0.000000
# 2 0.027053 0.214515 -0.094295 0.000000 -0.105574 0.000000
# 3 -0.016826 -0.094295 0.051545 0.000000 0.046441 0.000000
# 4 0.000000 0.000000 0.000000 0.034903 0.000000 0.000482
# 5 -0.010502 -0.105574 0.046441 0.000000 0.098065 0.000000
# 6 0.000000 0.000000 0.000000 0.000482 0.000000 0.041672
#
#
# Mechanical properties :
#
#
# Convention : Reuss Voigt Hill
#
# Bulk Modulus (GPa) = 7.91321 35.75191 21.83256
# Shear Modulus (GPa) = 7.35936 22.51919 14.93927
#
# Velocity S-wave (km/s) = 1.89969 3.32307 2.70663
# Velocity P-wave (km/s) = 2.94826 5.67940 4.52481
#
# Compressibility (1/GPa) = 0.12637098
#
# Stress axis : x y z
#
# Youngs Moduli (GPa) = 35.15450 4.66167 19.40041
#
# Poissons Ratio (x) = -0.12611 0.32643
# Poissons Ratio (y) = -0.95105 1.82937
# Poissons Ratio (z) = 0.59150 0.43957
#
# Static dielectric constant tensor:
#      x y z
#    x 1.691810 0.000000 0.066960 
#    y 0.000000 1.707830 0.000000 
#    z 0.066960 0.000000 1.747710 
# 
# From -- ./inp_files/124216.got.cif
#   From: 2010.05.17/outbox.ucp.g08.bks.cvg/sg12_63_cif.got.tgz:124216.got - 2010.06.11 11:47:21.
