data_PCOD9225861
_publ_section_title
;
Structure prediction by ZEFSAII (Michael W. Deem and Ramdas Pophale) SiO2 
 PCOD9225861
Probable space group: C 2/M
;
_chemical_formula_sum "Si O2"
_cell_formula_units_Z 32
_cell_length_a 24.000000
_cell_length_b 21.000000
_cell_length_c 9.000000
_cell_angle_alpha 90.000000
_cell_angle_beta 130.000000
_cell_angle_gamma 90.000000
_cell_volume 3474.777594
_symmetry_space_group_name_H-M "C 2/M"
_symmetry_group_IT_number 12
_symmetry_cell_setting 'monoclinic'
loop_
_space_group_symop_operation_xyz
x,y,z
-x,y,-z
-x,-y,-z
x,-y,z
1/2+x,1/2+y,z
1/2-x,1/2+y,-z
1/2-x,1/2-y,-z
1/2+x,1/2-y,z
loop_
_atom_site_type_symbol
_atom_site_label
_atom_site_fract_x
_atom_site_fract_y
_atom_site_fract_z
Si Si1 0.380061 0.221630 0.934427
Si Si2 0.325644 0.647526 0.757000
Si Si3 0.571782 0.570395 0.910449
Si Si4 0.240169 0.199774 0.847357
Si Si5 0.856397 0.926575 0.279343
Si Si6 0.024384 0.280587 0.372128
Si Si7 0.331890 0.201488 0.509366
Si Si8 0.432701 0.642033 0.664496
O O1 0.356765 0.295584 0.914503
O O2 0.319904 0.182805 0.922524
O O3 0.364530 0.212461 0.731504
O O4 0.459112 0.209831 0.140732
O O5 0.239815 0.658045 0.594128
O O6 0.371840 0.651324 0.685178
O O7 0.351838 0.583265 0.877898
O O8 0.545610 0.500000 0.896874
O O9 0.589830 0.578218 0.768443
O O10 0.510367 0.618988 0.855947
O O11 0.198448 0.134520 0.818450
O O12 0.201085 0.239045 0.644710
O O13 0.250000 0.250000 0.000000
O O14 0.903332 0.912371 0.505642
O O15 0.827488 0.000000 0.230798
O O16 0.097234 0.320590 0.460353
O O17 0.050407 0.207540 0.392469
O O18 0.000000 0.289421 0.500000
#
# Coordination Sequence:
#
# PCOD9225861 Si02
#       8
#     8   8   8   8   8   8   8   8
#     4  11  21  36  54  81 112 148 191 245 303 353
#     4  11  22  37  55  79 109 153 194 245 287 349
#     4  11  24  37  53  80 116 158 201 236 276 336
#     4  11  21  36  58  84 115 156 202 255 302 353
#     4  11  22  38  56  81 117 164 206 243 291 349
#     4  12  23  34  55  85 114 149 189 237 298 363
#     4  11  22  37  56  80 113 150 194 239 309 350
#     4  12  22  35  55  79 118 155 198 236 284 345
#
# _framework density 9.2092220000000005
#
# number of rings (size 3 to 8) (size 9 to 14) (size 15 to 20)
#    0.000    0.750    3.750    6.750    0.000    2.500 
#    0.000    0.000    0.000    0.000    0.000    0.875 
#    0.000    7.000    0.000    0.125    0.000    0.000 
#
# Total GULP energy -178410.659013 kJ/mol
# GULP energy per Si atom -5575.333094 kJ/mol
# Density = 0.918826 g / cm^3
# Si number density = 9.209222 Si / 1000 Ang^3
#
#
#
# Elastic Constant Matrix: (Units=GPa)
#
#
# Indices 1 2 3 4 5 6 
#
# 1 141.5054 33.1756 53.7636 0.0000 11.9604 0.0000
# 2 33.1756 54.5466 29.3339 0.0000 0.7271 0.0000
# 3 53.7636 29.3339 104.3647 0.0000 14.4045 0.0000
# 4 0.0000 0.0000 0.0000 18.0158 0.0000 9.2765
# 5 11.9604 0.7271 14.4045 0.0000 38.4031 0.0000
# 6 0.0000 0.0000 0.0000 9.2765 0.0000 13.1101
#
#
#
# Elastic Compliance Matrix: (Units=1/GPa)
#
#
# Indices 1 2 3 4 5 6 
#
# 1 0.009450 -0.003796 -0.003591 0.000000 -0.001524 0.000000
# 2 -0.003796 0.023265 -0.004942 0.000000 0.002595 0.000000
# 3 -0.003591 -0.004942 0.013344 0.000000 -0.003793 0.000000
# 4 0.000000 0.000000 0.000000 0.087322 0.000000 -0.061788
# 5 -0.001524 0.002595 -0.003793 0.000000 0.027888 0.000000
# 6 0.000000 0.000000 0.000000 -0.061788 0.000000 0.119997
#
#
# Mechanical properties :
#
#
# Convention : Reuss Voigt Hill
#
# Bulk Modulus (GPa) = 46.72554 59.21811 52.97182
# Shear Modulus (GPa) = 15.97150 26.18204 21.07677
#
# Velocity S-wave (km/s) = 2.94793 3.77438 3.38646
# Velocity P-wave (km/s) = 6.08367 7.15653 6.64180
#
# Compressibility (1/GPa) = 0.02140157
#
# Stress axis : x y z
#
# Youngs Moduli (GPa) = 105.81999 42.98356 74.93961
#
# Poissons Ratio (x) = 0.16317 0.26909
# Poissons Ratio (y) = 0.40171 0.37032
# Poissons Ratio (z) = 0.37998 0.21241
#
# Static dielectric constant tensor:
#      x y z
#    x 1.682300 0.000000 0.002950 
#    y 0.000000 1.654050 0.000000 
#    z 0.002950 0.000000 1.704810 
# 
# From -- ./inp_files/99134.got.cif
#   From: 2010.05.17/outbox.ucp.g08.bks.cvg/sg12_50_cif.got.tgz:99134.got - 2010.06.11 11:47:21.
