data_PCOD9225763
_publ_section_title
;
Structure prediction by ZEFSAII (Michael W. Deem and Ramdas Pophale) SiO2 
 PCOD9225763
Probable space group: C 2/M
;
_chemical_formula_sum "Si O2"
_cell_formula_units_Z 32
_cell_length_a 24.000000
_cell_length_b 9.000000
_cell_length_c 30.000000
_cell_angle_alpha 90.000000
_cell_angle_beta 30.000000
_cell_angle_gamma 90.000000
_cell_volume 3240.000000
_symmetry_space_group_name_H-M "C 2/M"
_symmetry_group_IT_number 12
_symmetry_cell_setting 'monoclinic'
loop_
_space_group_symop_operation_xyz
x,y,z
-x,y,-z
-x,-y,-z
x,-y,z
1/2+x,1/2+y,z
1/2-x,1/2+y,-z
1/2-x,1/2-y,-z
1/2+x,1/2-y,z
loop_
_atom_site_type_symbol
_atom_site_label
_atom_site_fract_x
_atom_site_fract_y
_atom_site_fract_z
Si Si1 0.438428 0.822416 0.435303
Si Si2 0.046766 0.321387 0.266426
Si Si3 0.528804 0.321098 0.774876
Si Si4 0.712933 0.822712 0.889895
Si Si5 0.852007 0.175873 0.153963
Si Si6 0.268991 0.322523 0.616234
Si Si7 0.358091 0.322327 0.651959
Si Si8 0.575049 0.325787 0.058858
O O1 0.464115 0.791849 0.365435
O O2 0.331361 0.741126 0.529833
O O3 0.540718 0.761361 0.394275
O O4 0.428933 0.000000 0.447266
O O5 0.059234 0.500000 0.253992
O O6 0.163832 0.246255 0.198498
O O7 0.008610 0.253265 0.245645
O O8 0.532315 0.500000 0.767697
O O9 0.650692 0.258330 0.702469
O O10 0.450487 0.287720 0.872000
O O11 0.641433 0.747154 0.899745
O O12 0.714562 0.000000 0.883648
O O13 0.663527 0.775151 0.971905
O O14 0.753223 0.262620 0.247255
O O15 0.961635 0.189252 0.108424
O O16 0.826270 0.000000 0.167531
O O17 0.253478 0.500000 0.623653
O O18 0.342472 0.294106 0.609916
O O19 0.370462 0.500000 0.649510
O O20 0.608343 0.500000 0.033581
#
# Coordination Sequence:
#
# PCOD9225763 Si02
#       8
#     8   8   8   8   8   8   8   8
#     4  11  24  41  65  93 125 168 212 256 311 376
#     4  11  25  45  66  90 123 165 212 263 316 368
#     4  11  24  44  68  93 122 163 214 262 311 371
#     4  12  25  40  64  96 128 165 208 257 311 373
#     4  11  21  38  64  93 128 168 204 251 311 373
#     4  11  24  41  64  95 131 166 204 257 316 373
#     4  11  22  37  62  95 130 165 203 254 314 374
#     4  10  23  42  65  93 127 166 207 254 311 375
#
# _framework density 9.8765429999999999
#
# number of rings (size 3 to 8) (size 9 to 14) (size 15 to 20)
#    0.000    1.000    2.500    4.125    0.000    9.000 
#    0.000    0.000    0.000    0.000    0.000    0.000 
#    0.000    0.000    0.000    0.000    0.000    0.000 
#
# Total GULP energy -179015.471398 kJ/mol
# GULP energy per Si atom -5594.233481 kJ/mol
# Density = 0.985406 g / cm^3
# Si number density = 9.876543 Si / 1000 Ang^3
#
#
#
# Elastic Constant Matrix: (Units=GPa)
#
#
# Indices 1 2 3 4 5 6 
#
# 1 92.0214 36.2516 8.9877 0.0001 34.4330 -0.0007
# 2 36.2516 90.8447 28.1169 -0.0001 27.5403 0.0000
# 3 8.9877 28.1169 80.6080 -0.0004 36.1863 0.0006
# 4 0.0001 -0.0001 -0.0004 25.4207 0.0001 -1.5187
# 5 34.4330 27.5403 36.1863 0.0001 34.8326 0.0003
# 6 -0.0007 0.0000 0.0006 -1.5187 0.0003 34.3886
#
#
#
# Elastic Compliance Matrix: (Units=1/GPa)
#
#
# Indices 1 2 3 4 5 6 
#
# 1 0.024872 -0.003140 0.015451 0.000000 -0.038155 0.000001
# 2 -0.003140 0.014876 -0.001785 0.000000 -0.006803 0.000000
# 3 0.015451 -0.001785 0.032847 0.000001 -0.047986 0.000000
# 4 0.000000 0.000000 0.000001 0.039442 -0.000001 0.001742
# 5 -0.038155 -0.006803 -0.047986 -0.000001 0.121657 -0.000001
# 6 0.000001 0.000000 0.000000 0.001742 -0.000001 0.029156
#
#
# Mechanical properties :
#
#
# Convention : Reuss Voigt Hill
#
# Bulk Modulus (GPa) = 10.67840 45.57626 28.12733
# Shear Modulus (GPa) = 18.31408 31.60292 24.95850
#
# Velocity S-wave (km/s) = 3.04822 4.00421 3.55846
# Velocity P-wave (km/s) = 4.21978 6.67093 5.58157
#
# Compressibility (1/GPa) = 0.09364696
#
# Stress axis : x y z
#
# Youngs Moduli (GPa) = 40.20567 67.22362 30.44380
#
# Poissons Ratio (x) = 0.21110 -0.47038
# Poissons Ratio (y) = 0.12626 0.05433
# Poissons Ratio (z) = -0.62120 0.11996
#
# Static dielectric constant tensor:
#      x y z
#    x 1.682490 0.000000 0.004020 
#    y 0.000000 1.650690 0.000000 
#    z 0.004020 0.000000 1.711680 
# 
# From -- ./inp_files/382344.got.cif
#   From: 2010.05.17/outbox.ucp.g08.bks.cvg/sg12_192_cif.got.tgz:382344.got - 2010.06.11 11:47:21.
