data_PCOD9225547
_publ_section_title
;
Structure prediction by ZEFSAII (Michael W. Deem and Ramdas Pophale) SiO2 
 PCOD9225547
Probable space group: C 2/M
;
_chemical_formula_sum "Si O2"
_cell_formula_units_Z 32
_cell_length_a 9.000000
_cell_length_b 30.000000
_cell_length_c 18.000000
_cell_angle_alpha 90.000000
_cell_angle_beta 140.000000
_cell_angle_gamma 90.000000
_cell_volume 3123.947783
_symmetry_space_group_name_H-M "C 2/M"
_symmetry_group_IT_number 12
_symmetry_cell_setting 'monoclinic'
loop_
_space_group_symop_operation_xyz
x,y,z
-x,y,-z
-x,-y,-z
x,-y,z
1/2+x,1/2+y,z
1/2-x,1/2+y,-z
1/2-x,1/2-y,-z
1/2+x,1/2-y,z
loop_
_atom_site_type_symbol
_atom_site_label
_atom_site_fract_x
_atom_site_fract_y
_atom_site_fract_z
Si Si1 0.154332 0.699459 0.314419
Si Si2 0.113232 0.381753 0.622547
Si Si3 0.074981 0.713912 0.615748
Si Si4 0.983815 0.948782 0.220780
Si Si5 0.407806 0.950035 0.808321
Si Si6 0.688035 0.118302 0.010848
Si Si7 0.774604 0.793776 0.960109
Si Si8 0.744026 0.898870 0.384111
O O1 0.301862 0.738614 0.333556
O O2 0.261880 0.650039 0.352287
O O3 0.102622 0.711034 0.382059
O O4 0.926184 0.698562 0.177056
O O5 0.218730 0.332516 0.680768
O O6 0.277584 0.423750 0.679531
O O7 0.000000 0.376769 0.500000
O O8 0.916992 0.390637 0.607466
O O9 0.000000 0.713116 0.500000
O O10 0.832280 0.948110 0.237895
O O11 0.000852 0.000000 0.203279
O O12 0.852452 0.917215 0.112863
O O13 0.563154 0.911178 0.901069
O O14 0.368024 0.936538 0.709248
O O15 0.501516 0.000000 0.854689
O O16 0.795722 0.162076 0.017806
O O17 0.500000 0.132572 0.000000
O O18 0.750000 0.750000 0.000000
O O19 0.000000 0.787056 0.000000
O O20 0.000000 0.913440 0.500000
#
# Coordination Sequence:
#
# PCOD9225547 Si02
#       8
#     8   8   8   8   8   8   8   8
#     4  11  23  40  62  89 124 164 204 256 305 367
#     4  10  23  41  61  92 126 164 205 257 313 371
#     4  10  22  39  62  91 120 161 205 254 306 364
#     4  10  22  39  66  93 122 162 207 258 312 371
#     4  10  21  41  64  93 125 159 205 258 313 373
#     4  10  22  41  66  94 124 164 208 256 311 369
#     4  12  26  42  62  93 131 170 209 253 308 371
#     4  11  23  40  63  91 124 163 209 257 311 372
#
# _framework density 10.243449
#
# number of rings (size 3 to 8) (size 9 to 14) (size 15 to 20)
#    0.000    1.500    1.250    3.000    5.250    5.500 
#    0.000    0.000    0.000    2.250    0.000    0.000 
#    0.000    0.000    0.000    0.000    0.000    0.000 
#
# Total GULP energy -178423.416691 kJ/mol
# GULP energy per Si atom -5575.731772 kJ/mol
# Density = 1.022013 g / cm^3
# Si number density = 10.243449 Si / 1000 Ang^3
#
#
#
# Elastic Constant Matrix: (Units=GPa)
#
#
# Indices 1 2 3 4 5 6 
#
# 1 -42.2261 105.9191 43.6651 0.0000 -1.5628 0.0000
# 2 105.9191 96.8460 -30.9437 0.0000 1.7163 0.0000
# 3 43.6651 -30.9437 21.1083 0.0000 -7.2611 0.0001
# 4 0.0000 0.0000 0.0000 0.4669 0.0000 20.3329
# 5 -1.5628 1.7163 -7.2611 0.0000 15.4754 0.0000
# 6 0.0000 0.0000 0.0001 20.3329 0.0000 40.2405
#
#
#
# Elastic Compliance Matrix: (Units=1/GPa)
#
#
# Indices 1 2 3 4 5 6 
#
# 1 -0.001170 0.004624 0.010711 0.000000 0.004394 0.000000
# 2 0.004624 0.003781 -0.004778 0.000000 -0.002194 0.000000
# 3 0.010711 -0.004778 0.022381 0.000000 0.012113 0.000000
# 4 0.000000 0.000000 0.000000 -0.101967 0.000000 0.051523
# 5 0.004394 -0.002194 0.012113 0.000000 0.070989 0.000000
# 6 0.000000 0.000000 0.000000 0.051523 0.000000 -0.001183
#
#
# Mechanical properties :
#
#
# Convention : Reuss Voigt Hill
#
# Bulk Modulus (GPa) = 21.68939 34.77881 28.23410
# Shear Modulus (GPa) = -387.14433 8.37574 -189.38430
#
# Velocity S-wave (km/s) = -13.76161 2.02416 -9.62509
# Velocity P-wave (km/s) = 15.55311 4.74088 10.47433
#
# Compressibility (1/GPa) = 0.04610549
#
# Stress axis : x y z
#
# Youngs Moduli (GPa) = -854.64269 264.50001 44.68088
#
# Poissons Ratio (x) = -1.22306 -0.47857
# Poissons Ratio (y) = 3.95191 0.21348
# Poissons Ratio (z) = 9.15385 1.26373
#
# Static dielectric constant tensor:
#      x y z
#    x 1.699450 0.000000 0.010170 
#    y 0.000000 1.745830 0.000000 
#    z 0.010170 0.000000 1.794070 
# 
# From -- ./inp_files/260364.got.cif
#   From: 2010.05.17/outbox.ucp.g08.bks.cvg/sg12_131_cif.got.tgz:260364.got - 2010.06.11 11:47:21.
