data_PCOD9225536
_publ_section_title
;
Structure prediction by ZEFSAII (Michael W. Deem and Ramdas Pophale) SiO2 
 PCOD9225536
Probable space group: C 2/M
;
_chemical_formula_sum "Si O2"
_cell_formula_units_Z 32
_cell_length_a 12.000000
_cell_length_b 27.000000
_cell_length_c 15.000000
_cell_angle_alpha 90.000000
_cell_angle_beta 40.000000
_cell_angle_gamma 90.000000
_cell_volume 3123.947783
_symmetry_space_group_name_H-M "C 2/M"
_symmetry_group_IT_number 12
_symmetry_cell_setting 'monoclinic'
loop_
_space_group_symop_operation_xyz
x,y,z
-x,y,-z
-x,-y,-z
x,-y,z
1/2+x,1/2+y,z
1/2-x,1/2+y,-z
1/2-x,1/2-y,-z
1/2+x,1/2-y,z
loop_
_atom_site_type_symbol
_atom_site_label
_atom_site_fract_x
_atom_site_fract_y
_atom_site_fract_z
Si Si1 0.960495 0.315202 0.213641
Si Si2 0.045484 0.780460 0.874540
Si Si3 0.802827 0.841180 0.764391
Si Si4 0.795918 0.650167 0.642210
Si Si5 0.569118 0.554742 0.355960
Si Si6 0.201795 0.865724 0.028949
Si Si7 0.429382 0.557769 0.245511
Si Si8 0.820094 0.194712 0.470145
O O1 0.009966 0.256872 0.172399
O O2 0.860290 0.318493 0.182304
O O3 0.813090 0.326024 0.375956
O O4 0.113733 0.354515 0.128096
O O5 0.238033 0.804504 0.743094
O O6 0.932280 0.830260 0.937473
O O7 0.000000 0.761098 0.000000
O O8 0.811330 0.897900 0.727050
O O9 0.783776 0.843321 0.881018
O O10 0.979444 0.813029 0.627949
O O11 0.715963 0.595163 0.705224
O O12 0.703501 0.666412 0.607500
O O13 0.000000 0.649047 0.500000
O O14 0.500000 0.556275 0.500000
O O15 0.647992 0.500000 0.295509
O O16 0.440390 0.560483 0.348363
O O17 0.111788 0.919099 0.097432
O O18 0.407197 0.500000 0.236291
O O19 0.750000 0.250000 0.500000
#
# Coordination Sequence:
#
# PCOD9225536 Si02
#       8
#     8   8   8   8   8   8   8   8
#     4  12  24  34  60  87 122 160 200 246 292 365
#     4  11  23  40  58  82 119 168 203 244 297 354
#     4  11  21  38  55  84 120 157 198 240 304 360
#     4  11  24  41  61  93 122 154 211 256 302 368
#     4   9  16  30  54  82 111 146 189 234 292 360
#     4  10  21  41  56  86 117 155 207 246 294 364
#     4   9  19  40  67  86 118 161 200 257 319 362
#     4  12  23  39  57  87 127 162 195 248 306 359
#
# _framework density 10.243449
#
# number of rings (size 3 to 8) (size 9 to 14) (size 15 to 20)
#    0.000    1.375    5.000    2.625    3.500    0.250 
#    0.000    0.625    0.000   10.500    0.000    0.000 
#    0.000    0.000    0.000    0.000    0.000    0.000 
#
# Total GULP energy -178274.727130 kJ/mol
# GULP energy per Si atom -5571.085223 kJ/mol
# Density = 1.022013 g / cm^3
# Si number density = 10.243449 Si / 1000 Ang^3
#
#
#
# Elastic Constant Matrix: (Units=GPa)
#
#
# Indices 1 2 3 4 5 6 
#
# 1 14.3147 1.6760 -2.6025 0.0000 -12.8836 0.0000
# 2 1.6760 88.4417 18.4363 0.0000 -8.0013 0.0000
# 3 -2.6025 18.4363 41.9851 0.0000 -15.3763 0.0000
# 4 0.0000 0.0000 0.0000 12.0381 0.0000 8.5742
# 5 -12.8836 -8.0013 -15.3763 0.0000 37.0386 0.0000
# 6 0.0000 0.0000 0.0000 8.5742 0.0000 15.6328
#
#
#
# Elastic Compliance Matrix: (Units=1/GPa)
#
#
# Indices 1 2 3 4 5 6 
#
# 1 0.125103 -0.003534 0.029440 0.000000 0.054974 0.000000
# 2 -0.003534 0.012554 -0.006119 0.000000 -0.001058 0.000000
# 3 0.029440 -0.006119 0.037261 0.000000 0.024387 0.000000
# 4 0.000000 0.000000 0.000000 0.136327 0.000000 -0.074772
# 5 0.054974 -0.001058 0.024387 0.000000 0.056017 0.000000
# 6 0.000000 0.000000 0.000000 -0.074772 0.000000 0.104979
#
#
# Mechanical properties :
#
#
# Convention : Reuss Voigt Hill
#
# Bulk Modulus (GPa) = 4.66219 19.97346 12.31782
# Shear Modulus (GPa) = 9.91741 21.42401 15.67071
#
# Velocity S-wave (km/s) = 2.20258 3.23730 2.76871
# Velocity P-wave (km/s) = 2.95789 4.87279 4.03070
#
# Compressibility (1/GPa) = 0.21449137
#
# Stress axis : x y z
#
# Youngs Moduli (GPa) = 7.99342 79.65778 26.83761
#
# Poissons Ratio (x) = 0.28153 -0.79010
# Poissons Ratio (y) = 0.02825 0.16422
# Poissons Ratio (z) = -0.23533 0.48742
#
# Static dielectric constant tensor:
#      x y z
#    x 1.777980 0.000000 0.038710 
#    y 0.000000 1.820730 0.000000 
#    z 0.038710 0.000000 1.834570 
# 
# From -- ./inp_files/209398.got.cif
#   From: 2010.05.17/outbox.ucp.g08.bks.cvg/sg12_105_cif.got.tgz:209398.got - 2010.06.11 11:47:21.
