data_PCOD9225528
_publ_section_title
;
Structure prediction by ZEFSAII (Michael W. Deem and Ramdas Pophale) SiO2 
 PCOD9225528
Probable space group: C 2/M
;
_chemical_formula_sum "Si O2"
_cell_formula_units_Z 28
_cell_length_a 9.000000
_cell_length_b 30.000000
_cell_length_c 12.000000
_cell_angle_alpha 90.000000
_cell_angle_beta 120.000000
_cell_angle_gamma 90.000000
_cell_volume 2805.922308
_symmetry_space_group_name_H-M "C 2/M"
_symmetry_group_IT_number 12
_symmetry_cell_setting 'monoclinic'
loop_
_space_group_symop_operation_xyz
x,y,z
-x,y,-z
-x,-y,-z
x,-y,z
1/2+x,1/2+y,z
1/2-x,1/2+y,-z
1/2-x,1/2-y,-z
1/2+x,1/2-y,z
loop_
_atom_site_type_symbol
_atom_site_label
_atom_site_fract_x
_atom_site_fract_y
_atom_site_fract_z
Si Si1 0.764113 0.293798 0.928385
Si Si2 0.629240 0.201906 0.267593
Si Si3 0.176573 0.133529 0.518747
Si Si4 0.388102 0.697578 0.712871
Si Si5 0.794996 0.548630 0.439056
Si Si6 0.821581 0.948027 0.859158
Si Si7 0.712804 0.849061 0.850245
O O1 0.896331 0.294421 0.875205
O O2 0.589832 0.294324 0.791717
O O3 0.750000 0.250000 0.000000
O O4 0.759229 0.334754 0.011664
O O5 0.757462 0.164302 0.356616
O O6 0.681761 0.251777 0.322684
O O7 0.454227 0.179771 0.247959
O O8 0.166092 0.166691 0.409208
O O9 0.273235 0.090272 0.511929
O O10 0.000000 0.115693 0.500000
O O11 0.347296 0.671687 0.813025
O O12 0.742034 0.500000 0.464448
O O13 0.690152 0.554401 0.281993
O O14 0.000000 0.546701 0.500000
O O15 0.713691 0.902886 0.846856
O O16 0.764329 0.000000 0.861221
O O17 0.000000 0.943303 0.000000
#
# Coordination Sequence:
#
# PCOD9225528 Si02
#       7
#     8   8   8   8   8   8   8
#     4  12  23  41  63  89 130 172 216 258 324 389
#     4  12  25  42  60  92 131 172 215 268 320 383
#     4  12  26  42  61  91 133 169 213 265 331 392
#     4  12  23  42  61  90 126 175 214 264 316 387
#     4  10  22  44  71  96 126 168 222 276 329 397
#     4  10  21  40  67 101 130 163 219 283 335 385
#     4  12  24  37  69  95 126 168 219 270 322 389
#
# _framework density 9.9788940000000004
#
# number of rings (size 3 to 8) (size 9 to 14) (size 15 to 20)
#    0.000    0.571    5.714    3.000    0.000    0.286 
#    0.000    0.000    0.000    2.571    0.000    0.000 
#    0.000    0.000    0.000    0.000    0.000    0.000 
#
# Total GULP energy -155879.205705 kJ/mol
# GULP energy per Si atom -5567.114489 kJ/mol
# Density = 0.995618 g / cm^3
# Si number density = 9.978894 Si / 1000 Ang^3
#
#
#
# Elastic Constant Matrix: (Units=GPa)
#
#
# Indices 1 2 3 4 5 6 
#
# 1 50.9646 39.5295 -1.4674 0.0000 -10.4595 0.0000
# 2 39.5295 195.7555 20.6297 0.0000 -23.3818 0.0000
# 3 -1.4674 20.6297 51.3254 0.0000 -15.5073 0.0000
# 4 0.0000 0.0000 0.0000 17.7300 0.0000 -3.8687
# 5 -10.4595 -23.3818 -15.5073 0.0000 24.0697 0.0000
# 6 0.0000 0.0000 0.0000 -3.8687 0.0000 23.3108
#
#
#
# Elastic Compliance Matrix: (Units=1/GPa)
#
#
# Indices 1 2 3 4 5 6 
#
# 1 0.025381 -0.004489 0.005643 0.000000 0.010304 0.000000
# 2 -0.004489 0.006598 -0.001780 0.000000 0.003312 0.000000
# 3 0.005643 -0.001780 0.025553 0.000000 0.017186 0.000000
# 4 0.000000 0.000000 0.000000 0.058521 0.000000 0.009712
# 5 0.010304 0.003312 0.017186 0.000000 0.060314 0.000000
# 6 0.000000 0.000000 0.000000 0.009712 0.000000 0.044510
#
#
# Mechanical properties :
#
#
# Convention : Reuss Voigt Hill
#
# Bulk Modulus (GPa) = 17.76821 46.15879 31.96350
# Shear Modulus (GPa) = 20.75656 28.97899 24.86778
#
# Velocity S-wave (km/s) = 3.22844 3.81466 3.53373
# Velocity P-wave (km/s) = 4.77696 6.52538 5.71839
#
# Compressibility (1/GPa) = 0.05628029
#
# Stress axis : x y z
#
# Youngs Moduli (GPa) = 39.40030 151.55907 39.13467
#
# Poissons Ratio (x) = 0.68037 -0.22085
# Poissons Ratio (y) = 0.17687 0.06965
# Poissons Ratio (z) = -0.22234 0.26972
#
# Static dielectric constant tensor:
#      x y z
#    x 0.808920 0.000000 -0.523500 
#    y 0.000000 1.684990 0.000000 
#    z -0.523500 0.000000 1.388780 
# 
# From -- ./inp_files/125632.got.cif
#   From: 2010.05.17/outbox.ucp.g08.bks.cvg/sg12_63_cif.got.tgz:125632.got - 2010.06.11 11:47:21.
