data_PCOD9225639
_publ_section_title
;
Structure prediction by ZEFSAII (Michael W. Deem and Ramdas Pophale) SiO2 
 PCOD9225639
Probable space group: C 2/M
;
_chemical_formula_sum "Si O2"
_cell_formula_units_Z 32
_cell_length_a 30.000000
_cell_length_b 15.000000
_cell_length_c 21.000000
_cell_angle_alpha 90.000000
_cell_angle_beta 20.000000
_cell_angle_gamma 90.000000
_cell_volume 3232.090354
_symmetry_space_group_name_H-M "C 2/M"
_symmetry_group_IT_number 12
_symmetry_cell_setting 'monoclinic'
loop_
_space_group_symop_operation_xyz
x,y,z
-x,y,-z
-x,-y,-z
x,-y,z
1/2+x,1/2+y,z
1/2-x,1/2+y,-z
1/2-x,1/2-y,-z
1/2+x,1/2-y,z
loop_
_atom_site_type_symbol
_atom_site_label
_atom_site_fract_x
_atom_site_fract_y
_atom_site_fract_z
Si Si1 0.695923 0.095222 0.516848
Si Si2 0.968815 0.844741 0.185626
Si Si3 0.307524 0.099360 0.252914
Si Si4 0.272824 0.894292 0.903492
Si Si5 0.750261 0.896357 0.212335
Si Si6 0.446847 0.841587 0.414468
Si Si7 0.475639 0.643999 0.325294
Si Si8 0.982648 0.651231 0.128502
O O1 0.822729 0.157393 0.352943
O O2 0.616019 0.101996 0.558734
O O3 0.596056 0.101940 0.709814
O O4 0.763675 0.000000 0.429291
O O5 0.954926 0.874810 0.277810
O O6 0.016202 0.743554 0.116996
O O7 0.092729 0.893779 0.987184
O O8 0.150075 0.103882 0.468184
O O9 0.378590 0.160836 0.210037
O O10 0.344085 0.000000 0.225247
O O11 0.384776 0.115239 0.082831
O O12 0.268613 0.861955 0.835209
O O13 0.406924 0.864662 0.757652
O O14 0.280770 0.000000 0.888625
O O15 0.130641 0.876212 0.126963
O O16 0.657751 0.846181 0.387077
O O17 0.708610 0.000000 0.271256
O O18 0.458471 0.746226 0.365986
#
# Coordination Sequence:
#
# PCOD9225639 Si02
#       8
#     8   8   8   8   8   8   8   8
#     4  12  23  36  59  86 125 161 190 238 291 354
#     4  11  22  39  58  88 122 157 192 234 294 350
#     4  11  22  37  60  85 113 152 202 244 283 337
#     4  10  22  41  65  88 114 150 198 249 292 342
#     4  10  22  40  63  88 117 153 197 244 289 345
#     4  12  23  39  59  90 121 154 197 235 297 354
#     4  11  22  39  62  88 116 153 195 244 292 344
#     4  11  21  37  55  85 119 152 194 237 288 342
#
# _framework density 9.9007129999999997
#
# number of rings (size 3 to 8) (size 9 to 14) (size 15 to 20)
#    0.000    1.000    2.500    6.000    0.000    3.500 
#    0.000    1.250    0.000    0.000    0.000    2.625 
#    0.000    0.000    0.000    0.000    0.000    0.000 
#
# Total GULP energy -178218.904512 kJ/mol
# GULP energy per Si atom -5569.340766 kJ/mol
# Density = 0.987818 g / cm^3
# Si number density = 9.900713 Si / 1000 Ang^3
#
#
#
# Elastic Constant Matrix: (Units=GPa)
#
#
# Indices 1 2 3 4 5 6 
#
# 1 69.4327 -3.9480 52.2514 0.0000 -2.7693 0.0000
# 2 -3.9480 58.1108 6.1495 -0.0001 2.9425 0.0000
# 3 52.2514 6.1495 182.4971 -0.0002 0.7532 0.0001
# 4 0.0000 -0.0001 -0.0002 64.5307 0.0000 -1.0190
# 5 -2.7693 2.9425 0.7532 0.0000 29.1926 0.0000
# 6 0.0000 0.0000 0.0001 -1.0190 0.0000 33.5087
#
#
#
# Elastic Compliance Matrix: (Units=1/GPa)
#
#
# Indices 1 2 3 4 5 6 
#
# 1 0.018636 0.001750 -0.005402 0.000000 0.001731 0.000000
# 2 0.001750 0.017522 -0.001085 0.000000 -0.001572 0.000000
# 3 -0.005402 -0.001085 0.007065 0.000000 -0.000585 0.000000
# 4 0.000000 0.000000 0.000000 0.015504 0.000000 0.000471
# 5 0.001731 -0.001572 -0.000585 0.000000 0.034593 0.000000
# 6 0.000000 0.000000 0.000000 0.000471 0.000000 0.029857
#
#
# Mechanical properties :
#
#
# Convention : Reuss Voigt Hill
#
# Bulk Modulus (GPa) = 29.63000 46.54960 38.08980
# Shear Modulus (GPa) = 34.74614 42.48558 38.61586
#
# Velocity S-wave (km/s) = 4.19349 4.63707 4.42085
# Velocity P-wave (km/s) = 6.20026 7.22697 6.73321
#
# Compressibility (1/GPa) = 0.03374957
#
# Stress axis : x y z
#
# Youngs Moduli (GPa) = 53.65909 57.07169 141.53974
#
# Poissons Ratio (x) = -0.09988 0.76458
# Poissons Ratio (y) = -0.09391 0.15357
# Poissons Ratio (z) = 0.28986 0.06192
#
# Static dielectric constant tensor:
#      x y z
#    x 1.713850 0.000000 -0.023720 
#    y 0.000000 1.756080 0.000000 
#    z -0.023720 0.000000 1.717790 
# 
# From -- ./inp_files/330368.got.cif
#   From: 2010.05.17/outbox.ucp.g08.bks.cvg/sg12_166_cif.got.tgz:330368.got - 2010.06.11 11:47:21.
