data_PCOD9225962
_publ_section_title
;
Structure prediction by ZEFSAII (Michael W. Deem and Ramdas Pophale) SiO2 
 PCOD9225962
Probable space group: C 2/M
;
_chemical_formula_sum "Si O2"
_cell_formula_units_Z 20
_cell_length_a 12.000000
_cell_length_b 18.000000
_cell_length_c 18.000000
_cell_angle_alpha 90.000000
_cell_angle_beta 150.000000
_cell_angle_gamma 90.000000
_cell_volume 1944.000000
_symmetry_space_group_name_H-M "C 2/M"
_symmetry_group_IT_number 12
_symmetry_cell_setting 'monoclinic'
loop_
_space_group_symop_operation_xyz
x,y,z
-x,y,-z
-x,-y,-z
x,-y,z
1/2+x,1/2+y,z
1/2-x,1/2+y,-z
1/2-x,1/2-y,-z
1/2+x,1/2-y,z
loop_
_atom_site_type_symbol
_atom_site_label
_atom_site_fract_x
_atom_site_fract_y
_atom_site_fract_z
Si Si1 0.092534 0.587632 0.238560
Si Si2 0.143210 0.088006 0.764279
Si Si3 0.199354 0.662887 0.450237
Si Si4 0.828114 0.836245 0.064577
Si Si5 0.323447 0.909645 0.328974
O O1 0.112839 0.500000 0.271402
O O2 0.213865 0.596669 0.228667
O O3 0.197590 0.641694 0.361719
O O4 0.837097 0.612189 0.079148
O O5 0.216961 0.140450 0.875227
O O6 0.893438 0.113396 0.599640
O O7 0.151165 0.000000 0.790296
O O8 0.250000 0.750000 0.500000
O O9 0.963498 0.631882 0.345006
O O10 0.087500 0.864389 0.202857
O O11 0.750000 0.750000 0.000000
O O12 0.500000 0.903569 0.500000
O O13 0.286471 0.000000 0.296511
#
# Coordination Sequence:
#
# PCOD9225962 Si02
#       5
#     8   8   8   8   8
#     4  11  25  45  72 105 144 188 242 304 367 435
#     4  11  23  46  76 102 142 195 247 296 362 446
#     4  12  26  43  72 107 150 190 244 307 363 432
#     4  12  26  45  71 109 150 188 241 307 370 437
#     4  11  24  46  78 105 141 197 252 297 362 451
#
# _framework density 10.288066000000001
#
# number of rings (size 3 to 8) (size 9 to 14) (size 15 to 20)
#    0.000    0.600    2.000    6.000    2.800    4.000 
#    3.600    2.000    0.000    0.000    0.000    0.000 
#    0.000    0.000    0.000    0.000    0.000    0.000 
#
# Total GULP energy -111783.642548 kJ/mol
# GULP energy per Si atom -5589.182127 kJ/mol
# Density = 1.026465 g / cm^3
# Si number density = 10.288066 Si / 1000 Ang^3
#
#
#
# Elastic Constant Matrix: (Units=GPa)
#
#
# Indices 1 2 3 4 5 6 
#
# 1 112.4213 73.5861 37.1266 -0.0001 0.9951 -0.0004
# 2 73.5861 187.3273 54.6863 0.0041 -0.2476 0.0005
# 3 37.1266 54.6863 128.0358 0.0042 0.0219 0.0004
# 4 -0.0001 0.0041 0.0042 51.5254 0.0005 -6.1267
# 5 0.9951 -0.2476 0.0219 0.0005 52.9479 -0.0002
# 6 -0.0004 0.0005 0.0004 -6.1267 -0.0002 39.6191
#
#
#
# Elastic Compliance Matrix: (Units=1/GPa)
#
#
# Indices 1 2 3 4 5 6 
#
# 1 0.012299 -0.004330 -0.001717 0.000001 -0.000251 0.000000
# 2 -0.004330 0.007623 -0.002000 0.000000 0.000118 0.000000
# 3 -0.001717 -0.002000 0.009163 -0.000001 0.000019 0.000000
# 4 0.000001 0.000000 -0.000001 0.019771 0.000000 0.003057
# 5 -0.000251 0.000118 0.000019 0.000000 0.018892 0.000000
# 6 0.000000 0.000000 0.000000 0.003057 0.000000 0.025713
#
#
# Mechanical properties :
#
#
# Convention : Reuss Voigt Hill
#
# Bulk Modulus (GPa) = 76.98381 84.28694 80.63538
# Shear Modulus (GPa) = 43.90356 46.31082 45.10719
#
# Velocity S-wave (km/s) = 4.62422 4.74931 4.68718
# Velocity P-wave (km/s) = 8.12445 8.43368 8.28051
#
# Compressibility (1/GPa) = 0.01298974
#
# Stress axis : x y z
#
# Youngs Moduli (GPa) = 81.30920 131.17393 109.14029
#
# Poissons Ratio (x) = 0.56803 0.18736
# Poissons Ratio (y) = 0.35210 0.21833
# Poissons Ratio (z) = 0.13958 0.26241
#
# Static dielectric constant tensor:
#      x y z
#    x 1.801230 0.000000 -0.005690 
#    y 0.000000 1.716610 0.000000 
#    z -0.005690 0.000000 1.753660 
# 
# From -- ./inp_files/264442.got.cif
#   From: 2010.05.17/outbox.ucp.g08.bks.cvg/sg12_133_cif.got.tgz:264442.got - 2010.06.11 11:47:21.
