data_PCOD9225607
_publ_section_title
;
Structure prediction by ZEFSAII (Michael W. Deem and Ramdas Pophale) SiO2 
 PCOD9225607
Probable space group: C 2/M
;
_chemical_formula_sum "Si O2"
_cell_formula_units_Z 32
_cell_length_a 30.000000
_cell_length_b 18.000000
_cell_length_c 9.000000
_cell_angle_alpha 90.000000
_cell_angle_beta 40.000000
_cell_angle_gamma 90.000000
_cell_volume 3123.947783
_symmetry_space_group_name_H-M "C 2/M"
_symmetry_group_IT_number 12
_symmetry_cell_setting 'monoclinic'
loop_
_space_group_symop_operation_xyz
x,y,z
-x,y,-z
-x,-y,-z
x,-y,z
1/2+x,1/2+y,z
1/2-x,1/2+y,-z
1/2-x,1/2-y,-z
1/2+x,1/2-y,z
loop_
_atom_site_type_symbol
_atom_site_label
_atom_site_fract_x
_atom_site_fract_y
_atom_site_fract_z
Si Si1 0.161229 0.328814 0.419601
Si Si2 0.946174 0.185796 0.766160
Si Si3 0.806108 0.184782 0.506091
Si Si4 0.108890 0.582837 0.016986
Si Si5 0.236309 0.584265 0.459445
Si Si6 0.573755 0.411892 0.889766
Si Si7 0.830212 0.704534 0.940965
Si Si8 0.005589 0.683677 0.817331
O O1 0.160930 0.265160 0.549519
O O2 0.207848 0.393153 0.370966
O O3 0.183573 0.299498 0.200065
O O4 0.081629 0.348696 0.600770
O O5 0.876471 0.223703 0.872560
O O6 0.987139 0.250993 0.749855
O O7 0.000000 0.159619 0.500000
O O8 0.927547 0.126609 0.943181
O O9 0.779508 0.154647 0.414338
O O10 0.867931 0.125247 0.366177
O O11 0.740671 0.191658 0.784497
O O12 0.092612 0.500000 0.106280
O O13 0.124177 0.634906 0.118561
O O14 0.049097 0.619536 0.073121
O O15 0.174664 0.580862 0.738054
O O16 0.266693 0.500000 0.379535
O O17 0.584966 0.500000 0.874054
O O18 0.500000 0.399776 0.000000
O O19 0.000000 0.711700 0.000000
#
# Coordination Sequence:
#
# PCOD9225607 Si02
#       8
#     8   8   8   8   8   8   8   8
#     4  12  22  37  62  95 128 167 219 269 316 386
#     4  11  22  40  67  97 141 171 209 277 332 387
#     4  11  24  44  67  92 126 169 215 277 321 392
#     4   9  20  37  58  86 129 176 211 253 316 384
#     4  10  22  39  60  90 125 168 214 260 317 382
#     4  11  26  46  71  99 124 168 226 276 339 399
#     4  10  24  40  64  99 133 170 220 258 331 391
#     4  11  20  35  59  94 128 173 220 269 316 376
#
# _framework density 10.243449
#
# number of rings (size 3 to 8) (size 9 to 14) (size 15 to 20)
#    0.000    1.375    2.500    3.000    5.250    2.000 
#    0.000    0.625    0.000    0.000    0.000    0.000 
#    0.000    0.000    0.000    0.000    0.000    0.000 
#
# Total GULP energy -178488.610200 kJ/mol
# GULP energy per Si atom -5577.769069 kJ/mol
# Density = 1.022013 g / cm^3
# Si number density = 10.243449 Si / 1000 Ang^3
#
#
#
# Elastic Constant Matrix: (Units=GPa)
#
#
# Indices 1 2 3 4 5 6 
#
# 1 106.4603 29.9699 30.0842 0.0000 3.8390 0.0000
# 2 29.9699 98.9871 14.1475 0.0000 3.9171 0.0000
# 3 30.0842 14.1475 96.5006 0.0000 -3.5402 0.0000
# 4 0.0000 0.0000 0.0000 32.3412 0.0000 -8.5464
# 5 3.8390 3.9171 -3.5402 0.0000 33.5891 0.0000
# 6 0.0000 0.0000 0.0000 -8.5464 0.0000 20.2849
#
#
#
# Elastic Compliance Matrix: (Units=1/GPa)
#
#
# Indices 1 2 3 4 5 6 
#
# 1 0.011122 -0.002875 -0.003092 0.000000 -0.001262 0.000000
# 2 -0.002875 0.011125 -0.000773 0.000000 -0.001050 0.000000
# 3 -0.003092 -0.000773 0.011501 0.000000 0.001656 0.000000
# 4 0.000000 0.000000 0.000000 0.034794 0.000000 0.014660
# 5 -0.001262 -0.001050 0.001656 0.000000 0.030213 0.000000
# 6 0.000000 0.000000 0.000000 0.014660 0.000000 0.055474
#
#
# Mechanical properties :
#
#
# Convention : Reuss Voigt Hill
#
# Bulk Modulus (GPa) = 49.34273 50.03904 49.69088
# Shear Modulus (GPa) = 28.65900 32.42612 30.54256
#
# Velocity S-wave (km/s) = 3.74424 3.98272 3.86532
# Velocity P-wave (km/s) = 6.54444 6.75480 6.65045
#
# Compressibility (1/GPa) = 0.02026641
#
# Stress axis : x y z
#
# Youngs Moduli (GPa) = 89.91260 89.88786 86.95165
#
# Poissons Ratio (x) = 0.25847 0.26885
# Poissons Ratio (y) = 0.25854 0.06722
# Poissons Ratio (z) = 0.27801 0.06949
#
# Static dielectric constant tensor:
#      x y z
#    x 1.774540 0.000000 -0.057840 
#    y 0.000000 1.726890 0.000000 
#    z -0.057840 0.000000 1.761710 
# 
# From -- ./inp_files/112809.got.cif
#   From: 2010.05.17/outbox.ucp.g08.bks.cvg/sg12_57_cif.got.tgz:112809.got - 2010.06.11 11:47:21.
