data_PCOD9225792
_publ_section_title
;
Structure prediction by ZEFSAII (Michael W. Deem and Ramdas Pophale) SiO2 
 PCOD9225792
Probable space group: C 2/M
;
_chemical_formula_sum "Si O2"
_cell_formula_units_Z 32
_cell_length_a 21.000000
_cell_length_b 18.000000
_cell_length_c 27.000000
_cell_angle_alpha 90.000000
_cell_angle_beta 20.000000
_cell_angle_gamma 90.000000
_cell_volume 3490.657583
_symmetry_space_group_name_H-M "C 2/M"
_symmetry_group_IT_number 12
_symmetry_cell_setting 'monoclinic'
loop_
_space_group_symop_operation_xyz
x,y,z
-x,y,-z
-x,-y,-z
x,-y,z
1/2+x,1/2+y,z
1/2-x,1/2+y,-z
1/2-x,1/2-y,-z
1/2+x,1/2-y,z
loop_
_atom_site_type_symbol
_atom_site_label
_atom_site_fract_x
_atom_site_fract_y
_atom_site_fract_z
Si Si1 0.567759 0.586723 0.582978
Si Si2 0.882125 0.692307 0.689054
Si Si3 0.043569 0.411398 0.654467
Si Si4 0.747961 0.855461 0.054109
Si Si5 0.568031 0.585969 0.892391
Si Si6 0.854785 0.196443 0.562706
Si Si7 0.074756 0.308832 0.084355
Si Si8 0.807064 0.668937 0.114023
O O1 0.556397 0.500000 0.579884
O O2 0.735475 0.597647 0.499577
O O3 0.632492 0.632330 0.487638
O O4 0.368981 0.616018 0.747082
O O5 0.727352 0.648586 0.769924
O O6 0.772004 0.752336 0.804824
O O7 0.973223 0.629456 0.656931
O O8 0.044836 0.733253 0.538702
O O9 0.000131 0.500000 0.686821
O O10 0.933024 0.369922 0.779506
O O11 0.672264 0.864155 0.053107
O O12 0.831704 0.772899 0.987257
O O13 0.906758 0.899897 0.969209
O O14 0.630845 0.500000 0.841962
O O15 0.500000 0.594492 0.000000
O O16 0.643757 0.201380 0.739250
O O17 0.000000 0.178494 0.500000
O O18 0.126189 0.334473 0.991547
O O19 0.000000 0.650942 0.000000
#
# Coordination Sequence:
#
# PCOD9225792 Si02
#       8
#     8   8   8   8   8   8   8   8
#     4  10  24  43  63  91 124 162 213 260 313 383
#     4  11  22  38  64  97 125 163 215 260 305 375
#     4  11  21  39  64  92 128 169 211 256 309 376
#     4  11  21  35  58  91 129 164 214 261 308 364
#     4  11  20  34  60  92 126 167 212 256 307 372
#     4  11  23  40  64  92 125 163 207 263 323 374
#     4  11  22  38  61  93 127 164 207 268 317 364
#     4  11  22  41  67  93 127 158 212 267 317 370
#
# _framework density 9.1673270000000002
#
# number of rings (size 3 to 8) (size 9 to 14) (size 15 to 20)
#    0.000    1.125    3.750    4.125    0.000    4.500 
#    0.000    1.875    0.000    9.750    0.000    0.000 
#    0.000    0.000    0.000    0.000    0.000    0.000 
#
# Total GULP energy -178311.290387 kJ/mol
# GULP energy per Si atom -5572.227825 kJ/mol
# Density = 0.914646 g / cm^3
# Si number density = 9.167327 Si / 1000 Ang^3
#
#
#
# Elastic Constant Matrix: (Units=GPa)
#
#
# Indices 1 2 3 4 5 6 
#
# 1 104.3114 16.5975 50.4332 -0.0122 -13.5757 0.0318
# 2 16.5975 67.2236 60.4210 -0.0076 -15.9020 -0.0311
# 3 50.4332 60.4210 146.4410 -0.0323 -3.5814 -0.1332
# 4 -0.0122 -0.0076 -0.0323 23.0971 0.0024 -9.0153
# 5 -13.5757 -15.9020 -3.5814 0.0024 31.3348 0.0809
# 6 0.0318 -0.0311 -0.1332 -9.0153 0.0809 6.8964
#
#
#
# Elastic Compliance Matrix: (Units=1/GPa)
#
#
# Indices 1 2 3 4 5 6 
#
# 1 0.012609 0.003507 -0.005628 -0.000184 0.006600 -0.000469
# 2 0.003507 0.029038 -0.012828 -0.000261 0.014791 -0.000647
# 3 -0.005628 -0.012828 0.013880 0.000284 -0.007364 0.000693
# 4 -0.000184 -0.000261 0.000284 0.088412 -0.000485 0.115588
# 5 0.006600 0.014791 -0.007364 -0.000485 0.041441 -0.001226
# 6 -0.000469 -0.000647 0.000693 0.115588 -0.001226 0.296132
#
#
# Mechanical properties :
#
#
# Convention : Reuss Voigt Hill
#
# Bulk Modulus (GPa) = 39.01826 63.65326 51.33576
# Shear Modulus (GPa) = 9.61623 24.96727 17.29175
#
# Velocity S-wave (km/s) = 2.29265 3.69420 3.07436
# Velocity P-wave (km/s) = 5.32312 7.27935 6.37670
#
# Compressibility (1/GPa) = 0.02562903
#
# Stress axis : x y z
#
# Youngs Moduli (GPa) = 79.30770 34.43750 72.04441
#
# Poissons Ratio (x) = -0.12077 0.40550
# Poissons Ratio (y) = -0.27812 0.92416
# Poissons Ratio (z) = 0.44638 0.44175
#
# Static dielectric constant tensor:
#      x y z
#    x 1.695870 -0.000010 -0.022830 
#    y -0.000010 1.629290 0.000030 
#    z -0.022830 0.000030 1.617980 
# 
# From -- ./inp_files/366793.got.cif
#   From: 2010.05.17/outbox.ucp.g08.bks.cvg/sg12_184_cif.got.tgz:366793.got - 2010.06.11 11:47:21.
