data_PCOD9225788
_publ_section_title
;
Structure prediction by ZEFSAII (Michael W. Deem and Ramdas Pophale) SiO2 
 PCOD9225788
Probable space group: C 2/M
;
_chemical_formula_sum "Si O2"
_cell_formula_units_Z 24
_cell_length_a 15.000000
_cell_length_b 15.000000
_cell_length_c 12.000000
_cell_angle_alpha 90.000000
_cell_angle_beta 70.000000
_cell_angle_gamma 90.000000
_cell_volume 2537.170076
_symmetry_space_group_name_H-M "C 2/M"
_symmetry_group_IT_number 12
_symmetry_cell_setting 'monoclinic'
loop_
_space_group_symop_operation_xyz
x,y,z
-x,y,-z
-x,-y,-z
x,-y,z
1/2+x,1/2+y,z
1/2-x,1/2+y,-z
1/2-x,1/2-y,-z
1/2+x,1/2-y,z
loop_
_atom_site_type_symbol
_atom_site_label
_atom_site_fract_x
_atom_site_fract_y
_atom_site_fract_z
Si Si1 0.670470 0.749214 0.437052
Si Si2 0.255421 0.643798 0.981922
Si Si3 0.545875 0.775380 0.701570
Si Si4 0.641559 0.894114 0.257071
Si Si5 0.285482 0.892291 0.256057
Si Si6 0.022080 0.104483 0.121796
O O1 0.750000 0.750000 0.500000
O O2 0.578893 0.752931 0.559517
O O3 0.676837 0.834827 0.349611
O O4 0.694732 0.662106 0.348999
O O5 0.210216 0.618771 0.880721
O O6 0.364126 0.613485 0.921088
O O7 0.250000 0.750000 0.000000
O O8 0.208504 0.608068 0.117370
O O9 0.453243 0.838798 0.735345
O O10 0.626426 0.836469 0.727933
O O11 0.523988 0.683420 0.781003
O O12 0.626653 0.000000 0.290691
O O13 0.285231 0.000000 0.280716
O O14 0.995425 0.000000 0.160280
O O15 0.000000 0.119838 0.000000
#
# Coordination Sequence:
#
# PCOD9225788 Si02
#       6
#     8   8   8   8   8   8
#     4  10  24  42  62  92 128 172 215 261 319 382
#     4  12  22  43  68  94 132 173 214 273 332 387
#     4  11  24  42  66  99 135 171 219 270 326 389
#     4  12  25  42  69  98 130 173 219 271 329 392
#     4  11  23  42  67  96 132 171 216 272 329 389
#     4  11  24  41  65  95 131 173 220 272 324 385
#
# _framework density 9.4593579999999999
#
# number of rings (size 3 to 8) (size 9 to 14) (size 15 to 20)
#    0.000    0.833    3.333    3.500    2.333    4.667 
#    0.000    1.667    0.000    4.000    0.000    0.000 
#    0.000    0.000    0.000    0.000    0.000    0.000 
#
# Total GULP energy -133854.514710 kJ/mol
# GULP energy per Si atom -5577.271446 kJ/mol
# Density = 0.943783 g / cm^3
# Si number density = 9.459358 Si / 1000 Ang^3
#
#
#
# Elastic Constant Matrix: (Units=GPa)
#
#
# Indices 1 2 3 4 5 6 
#
# 1 79.4514 32.7761 38.3818 0.0000 13.2970 0.0000
# 2 32.7761 218.2078 74.4580 0.0000 1.1381 0.0000
# 3 38.3818 74.4580 174.2348 0.0000 3.2307 0.0000
# 4 0.0000 0.0000 0.0000 38.0293 0.0000 1.0315
# 5 13.2970 1.1381 3.2307 0.0000 41.1164 0.0000
# 6 0.0000 0.0000 0.0000 1.0315 0.0000 31.4429
#
#
#
# Elastic Compliance Matrix: (Units=1/GPa)
#
#
# Indices 1 2 3 4 5 6 
#
# 1 0.015224 -0.001343 -0.002693 0.000000 -0.004675 0.000000
# 2 -0.001343 0.005484 -0.002056 0.000000 0.000444 0.000000
# 3 -0.002693 -0.002056 0.007204 0.000000 0.000362 0.000000
# 4 0.000000 0.000000 0.000000 0.026319 0.000000 -0.000863
# 5 -0.004675 0.000444 0.000362 0.000000 0.025792 0.000000
# 6 0.000000 0.000000 0.000000 -0.000863 0.000000 0.031832
#
#
# Mechanical properties :
#
#
# Convention : Reuss Voigt Hill
#
# Bulk Modulus (GPa) = 63.58151 84.79174 74.18663
# Shear Modulus (GPa) = 38.67531 43.86962 41.27246
#
# Velocity S-wave (km/s) = 4.52629 4.82067 4.67579
# Velocity P-wave (km/s) = 7.81006 8.71214 8.27340
#
# Compressibility (1/GPa) = 0.01572784
#
# Stress axis : x y z
#
# Youngs Moduli (GPa) = 65.68703 182.35770 138.80482
#
# Poissons Ratio (x) = 0.24499 0.37377
# Poissons Ratio (y) = 0.08825 0.28534
# Poissons Ratio (z) = 0.17688 0.37488
#
# Static dielectric constant tensor:
#      x y z
#    x 1.740460 0.000000 -0.012150 
#    y 0.000000 1.653860 0.000000 
#    z -0.012150 0.000000 1.664400 
# 
# From -- ./inp_files/142690.got.cif
#   From: 2010.05.17/outbox.ucp.g08.bks.cvg/sg12_72_cif.got.tgz:142690.got - 2010.06.11 11:47:21.
