data_PCOD9225666
_publ_section_title
;
Structure prediction by ZEFSAII (Michael W. Deem and Ramdas Pophale) SiO2 
 PCOD9225666
Probable space group: C 2/M
;
_chemical_formula_sum "Si O2"
_cell_formula_units_Z 25
_cell_length_a 9.000000
_cell_length_b 18.000000
_cell_length_c 18.000000
_cell_angle_alpha 90.000000
_cell_angle_beta 120.000000
_cell_angle_gamma 90.000000
_cell_volume 2525.330077
_symmetry_space_group_name_H-M "C 2/M"
_symmetry_group_IT_number 12
_symmetry_cell_setting 'monoclinic'
loop_
_space_group_symop_operation_xyz
x,y,z
-x,y,-z
-x,-y,-z
x,-y,z
1/2+x,1/2+y,z
1/2-x,1/2+y,-z
1/2-x,1/2-y,-z
1/2+x,1/2-y,z
loop_
_atom_site_type_symbol
_atom_site_label
_atom_site_fract_x
_atom_site_fract_y
_atom_site_fract_z
Si Si1 0.021774 0.323892 0.320617
Si Si2 0.000000 0.000000 0.500000
Si Si3 0.312640 0.168883 0.990197
Si Si4 0.697225 0.332410 0.338460
Si Si5 0.507688 0.586959 0.833537
Si Si6 0.334371 0.087647 0.151974
Si Si7 0.706582 0.917265 0.493207
O O1 0.839363 0.313309 0.313551
O O2 0.978005 0.365954 0.233015
O O3 0.108095 0.244267 0.336429
O O4 0.129736 0.375232 0.403496
O O5 0.903636 0.936164 0.525419
O O6 0.320952 0.117254 0.065286
O O7 0.500000 0.173062 0.000000
O O8 0.250000 0.250000 0.000000
O O9 0.170204 0.134783 0.899528
O O10 0.564672 0.387288 0.264326
O O11 0.793596 0.371209 0.431382
O O12 0.551102 0.500000 0.843551
O O13 0.349841 0.597207 0.852559
O O14 0.374467 0.000000 0.164608
O O15 0.626267 0.000000 0.476228
#
# Coordination Sequence:
#
# PCOD9225666 Si02
#       7
#     8   2   8   8   8   8   8
#     4  11  24  39  63  92 125 163 205 252 304 362
#     4   8  24  40  62  92 120 162 208 252 312 364
#     4  12  25  42  63  93 123 161 205 252 307 362
#     4  11  24  39  63  92 125 163 205 252 304 362
#     4  10  22  42  65  92 124 162 202 249 307 365
#     4  10  22  42  65  92 124 162 202 249 307 365
#     4  10  22  41  62  88 123 161 206 248 306 360
#
# _framework density 9.8996960000000005
#
# number of rings (size 3 to 8) (size 9 to 14) (size 15 to 20)
#    0.480    0.960    0.000    4.800    2.240    8.960 
#    0.000    0.000    0.000    0.000    0.000    0.000 
#    0.000    0.000    0.000    0.000    0.000    0.000 
#
# Total GULP energy -139300.818220 kJ/mol
# GULP energy per Si atom -5572.032729 kJ/mol
# Density = 0.987716 g / cm^3
# Si number density = 9.899696 Si / 1000 Ang^3
#
#
#
# Elastic Constant Matrix: (Units=GPa)
#
#
# Indices 1 2 3 4 5 6 
#
# 1 39.6419 32.5834 8.2956 0.0000 -1.6049 0.0000
# 2 32.5834 94.9957 5.3649 0.0000 21.4476 0.0000
# 3 8.2956 5.3649 83.5266 0.0000 22.4581 0.0000
# 4 0.0000 0.0000 0.0000 39.6181 0.0000 -3.4731
# 5 -1.6049 21.4476 22.4581 0.0000 18.1200 0.0000
# 6 0.0000 0.0000 0.0000 -3.4731 0.0000 27.3910
#
#
#
# Elastic Compliance Matrix: (Units=1/GPa)
#
#
# Indices 1 2 3 4 5 6 
#
# 1 0.073356 -0.045785 -0.030990 0.000000 0.099100 0.000000
# 2 -0.045785 0.044830 0.025535 0.000000 -0.088766 0.000000
# 3 -0.030990 0.025535 0.033407 0.000000 -0.074374 0.000000
# 4 0.000000 0.000000 0.000000 0.025525 0.000000 0.003236
# 5 0.099100 -0.088766 -0.074374 0.000000 0.261212 0.000000
# 6 0.000000 0.000000 0.000000 0.003236 0.000000 0.036919
#
#
# Mechanical properties :
#
#
# Convention : Reuss Voigt Hill
#
# Bulk Modulus (GPa) = 20.36155 34.51690 27.43923
# Shear Modulus (GPa) = 8.41609 28.48716 18.45163
#
# Velocity S-wave (km/s) = 2.06396 3.79725 3.05606
# Velocity P-wave (km/s) = 3.99827 6.05778 5.13239
#
# Compressibility (1/GPa) = 0.04911217
#
# Stress axis : x y z
#
# Youngs Moduli (GPa) = 13.63223 22.30653 29.93368
#
# Poissons Ratio (x) = 1.02130 0.92764
# Poissons Ratio (y) = 0.62415 -0.76434
# Poissons Ratio (z) = 0.42246 -0.56959
#
# Static dielectric constant tensor:
#      x y z
#    x 1.713460 0.000000 -0.005410 
#    y 0.000000 1.681750 0.000000 
#    z -0.005410 0.000000 1.699760 
# 
# From -- ./inp_files/257245.got.cif
#   From: 2010.05.17/outbox.ucp.g08.bks.cvg/sg12_129_cif.got.tgz:257245.got - 2010.06.11 11:47:21.
