data_PCOD9225579
_publ_section_title
;
Structure prediction by ZEFSAII (Michael W. Deem and Ramdas Pophale) SiO2 
 PCOD9225579
Probable space group: C 2/M
;
_chemical_formula_sum "Si O2"
_cell_formula_units_Z 32
_cell_length_a 18.000000
_cell_length_b 9.000000
_cell_length_c 30.000000
_cell_angle_alpha 90.000000
_cell_angle_beta 40.000000
_cell_angle_gamma 90.000000
_cell_volume 3123.947783
_symmetry_space_group_name_H-M "C 2/M"
_symmetry_group_IT_number 12
_symmetry_cell_setting 'monoclinic'
loop_
_space_group_symop_operation_xyz
x,y,z
-x,y,-z
-x,-y,-z
x,-y,z
1/2+x,1/2+y,z
1/2-x,1/2+y,-z
1/2-x,1/2-y,-z
1/2+x,1/2-y,z
loop_
_atom_site_type_symbol
_atom_site_label
_atom_site_fract_x
_atom_site_fract_y
_atom_site_fract_z
Si Si1 0.391223 0.176660 0.210903
Si Si2 0.936949 0.682265 0.789839
Si Si3 0.835239 0.170264 0.570309
Si Si4 0.514776 0.321241 0.920960
Si Si5 0.337486 0.167406 0.657716
Si Si6 0.681567 0.679922 0.927074
Si Si7 0.408189 0.174748 0.355142
Si Si8 0.097278 0.327275 0.550070
O O1 0.470507 0.226526 0.215713
O O2 0.445126 0.244913 0.142001
O O3 0.260162 0.228418 0.277788
O O4 0.395140 0.000000 0.207378
O O5 0.935747 0.500000 0.788371
O O6 0.810733 0.734933 0.861509
O O7 0.981032 0.735231 0.721301
O O8 0.868678 0.281543 0.593591
O O9 0.696802 0.177735 0.631244
O O10 0.881389 0.224738 0.501863
O O11 0.867713 0.000000 0.564794
O O12 0.514165 0.500000 0.915905
O O13 0.605497 0.286000 0.918599
O O14 0.390015 0.271281 0.996804
O O15 0.460507 0.171467 0.624757
O O16 0.292466 0.000000 0.678844
O O17 0.686222 0.500000 0.927386
O O18 0.358073 0.239781 0.423878
O O19 0.425762 0.000000 0.357024
O O20 0.131619 0.500000 0.524955
#
# Coordination Sequence:
#
# PCOD9225579 Si02
#       8
#     8   8   8   8   8   8   8   8
#     4  11  22  36  55  80 111 148 183 219 271 328
#     4   9  17  32  55  79 107 145 185 222 265 320
#     4  11  21  37  59  81 110 145 176 219 277 331
#     4   9  18  34  57  87 113 139 180 226 268 313
#     4  11  23  38  57  81 109 142 183 231 272 315
#     4   8  16  32  57  84 111 143 182 224 264 314
#     4   9  18  34  55  80 108 141 182 224 268 321
#     4  10  22  37  57  83 106 139 186 228 269 320
#
# _framework density 10.243449
#
# number of rings (size 3 to 8) (size 9 to 14) (size 15 to 20)
#    0.000    2.250    1.250    2.625    1.750    3.000 
#    0.000    1.875    0.000    2.250    0.000    0.000 
#    0.000    0.000    0.000    0.000    0.000    0.000 
#
# Total GULP energy -178331.354135 kJ/mol
# GULP energy per Si atom -5572.854817 kJ/mol
# Density = 1.022013 g / cm^3
# Si number density = 10.243449 Si / 1000 Ang^3
#
#
#
# Elastic Constant Matrix: (Units=GPa)
#
#
# Indices 1 2 3 4 5 6 
#
# 1 24.0273 -6.4501 37.9507 0.0000 7.8360 -0.0001
# 2 -6.4501 12.2270 10.0223 0.0001 7.0259 -0.0005
# 3 37.9507 10.0223 132.7072 0.0000 2.0331 0.0001
# 4 0.0000 0.0001 0.0000 21.2858 0.0000 4.0091
# 5 7.8360 7.0259 2.0331 0.0000 32.1221 0.0000
# 6 -0.0001 -0.0005 0.0001 4.0091 0.0000 16.9387
#
#
#
# Elastic Compliance Matrix: (Units=1/GPa)
#
#
# Indices 1 2 3 4 5 6 
#
# 1 -3.538694 -3.847090 1.277634 0.000043 1.623827 -0.000136
# 2 -3.847090 -4.082346 1.381754 0.000046 1.743925 -0.000144
# 3 1.277634 1.381754 -0.453221 -0.000016 -0.585208 0.000049
# 4 0.000043 0.000046 -0.000016 0.049172 -0.000020 -0.011638
# 5 1.623827 1.743925 -0.585208 -0.000020 -0.709390 0.000062
# 6 -0.000136 -0.000144 0.000049 -0.011638 0.000062 0.061791
#
#
# Mechanical properties :
#
#
# Convention : Reuss Voigt Hill
#
# Bulk Modulus (GPa) = -0.09570 28.00083 13.95257
# Shear Modulus (GPa) = -0.51122 22.56522 11.02700
#
# Velocity S-wave (km/s) = -0.50008 3.32240 2.32253
# Velocity P-wave (km/s) = 0.61664 5.33059 3.74399
#
# Compressibility (1/GPa) = -10.44966321
#
# Stress axis : x y z
#
# Youngs Moduli (GPa) = -0.28259 -0.24496 -2.20643
#
# Poissons Ratio (x) = -0.94237 2.81901
# Poissons Ratio (y) = -1.08715 3.04874
# Poissons Ratio (z) = 0.36105 0.33847
#
# Static dielectric constant tensor:
#      x y z
#    x 1.808000 0.000000 -0.006980 
#    y 0.000000 1.675190 0.000000 
#    z -0.006980 0.000000 1.756590 
# 
# From -- ./inp_files/378141.got.cif
#   From: 2010.05.17/outbox.ucp.g08.bks.cvg/sg12_190_cif.got.tgz:378141.got - 2010.06.11 11:47:21.
