data_PCOD9225184
_publ_section_title
;
Structure prediction by ZEFSAII (Michael W. Deem and Ramdas Pophale) SiO2 
 PCOD9225184
Probable space group: C 2/M
;
_chemical_formula_sum "Si O2"
_cell_formula_units_Z 32
_cell_length_a 27.000000
_cell_length_b 9.000000
_cell_length_c 15.000000
_cell_angle_alpha 90.000000
_cell_angle_beta 70.000000
_cell_angle_gamma 90.000000
_cell_volume 3425.179603
_symmetry_space_group_name_H-M "C 2/M"
_symmetry_group_IT_number 12
_symmetry_cell_setting 'monoclinic'
loop_
_space_group_symop_operation_xyz
x,y,z
-x,y,-z
-x,-y,-z
x,-y,z
1/2+x,1/2+y,z
1/2-x,1/2+y,-z
1/2-x,1/2-y,-z
1/2+x,1/2-y,z
loop_
_atom_site_type_symbol
_atom_site_label
_atom_site_fract_x
_atom_site_fract_y
_atom_site_fract_z
Si Si1 0.620157 0.178764 0.751623
Si Si2 0.032421 0.172868 0.389097
Si Si3 0.705875 0.178399 0.187899
Si Si4 0.497983 0.178651 0.232921
Si Si5 0.828497 0.177962 0.104992
Si Si6 0.191553 0.321902 0.533067
Si Si7 0.384600 0.179133 0.902980
Si Si8 0.351650 0.321673 0.618022
O O1 0.558629 0.226268 0.773838
O O2 0.648703 0.256232 0.817183
O O3 0.656205 0.208570 0.642428
O O4 0.619631 0.000000 0.765934
O O5 0.003763 0.264824 0.330285
O O6 0.091792 0.223180 0.375156
O O7 0.000000 0.180860 0.500000
O O8 0.035000 0.000000 0.359096
O O9 0.766455 0.214685 0.125897
O O10 0.659480 0.215688 0.145597
O O11 0.692104 0.266301 0.285896
O O12 0.703197 0.000000 0.204313
O O13 0.554699 0.224678 0.155136
O O14 0.497260 0.000000 0.232019
O O15 0.832354 0.000000 0.104384
O O16 0.863615 0.245286 0.004846
O O17 0.196947 0.500000 0.521046
O O18 0.250000 0.250000 0.500000
O O19 0.160415 0.254809 0.468223
O O20 0.384421 0.000000 0.911844
O O21 0.351403 0.500000 0.608467
#
# Coordination Sequence:
#
# PCOD9225184 Si02
#       8
#     8   8   8   8   8   8   8   8
#     4  10  23  42  61  85 117 156 202 246 292 349
#     4  10  21  36  55  84 120 155 190 233 289 348
#     4  10  21  39  61  88 120 154 197 245 295 351
#     4  10  21  39  63  87 114 153 199 244 291 345
#     4  11  24  39  60  88 117 154 197 244 299 356
#     4  11  23  39  60  86 119 158 201 247 293 346
#     4  10  21  39  63  88 117 152 193 247 301 350
#     4  11  22  35  57  88 120 156 193 235 292 351
#
# _framework density 9.3425759999999993
#
# number of rings (size 3 to 8) (size 9 to 14) (size 15 to 20)
#    0.000    1.625    1.250    3.000    0.000    6.750 
#    0.000    2.500    0.000    0.000    0.000    0.000 
#    0.000    0.000    0.000    0.000    0.000    0.000 
#
# Total GULP energy -178683.653960 kJ/mol
# GULP energy per Si atom -5583.864186 kJ/mol
# Density = 0.932131 g / cm^3
# Si number density = 9.342576 Si / 1000 Ang^3
#
#
#
# Elastic Constant Matrix: (Units=GPa)
#
#
# Indices 1 2 3 4 5 6 
#
# 1 142.9807 32.9160 49.0907 0.0000 -10.6025 0.0000
# 2 32.9160 25.4793 40.4841 0.0000 1.5294 0.0000
# 3 49.0907 40.4841 109.3561 0.0000 0.9468 0.0000
# 4 0.0000 0.0000 0.0000 26.3244 0.0000 2.7420
# 5 -10.6025 1.5294 0.9468 0.0000 33.6945 0.0000
# 6 0.0000 0.0000 0.0000 2.7420 0.0000 31.2756
#
#
#
# Elastic Compliance Matrix: (Units=1/GPa)
#
#
# Indices 1 2 3 4 5 6 
#
# 1 0.010478 -0.015169 0.000877 0.000000 0.003961 0.000000
# 2 -0.015169 0.117646 -0.036665 0.000000 -0.009083 0.000000
# 3 0.000877 -0.036665 0.022313 0.000000 0.001313 0.000000
# 4 0.000000 0.000000 0.000000 0.038338 0.000000 -0.003361
# 5 0.003961 -0.009083 0.001313 0.000000 0.031300 0.000000
# 6 0.000000 0.000000 0.000000 -0.003361 0.000000 0.032268
#
#
# Mechanical properties :
#
#
# Convention : Reuss Voigt Hill
#
# Bulk Modulus (GPa) = 20.60821 58.08864 39.34842
# Shear Modulus (GPa) = 13.49781 28.61393 21.05587
#
# Velocity S-wave (km/s) = 2.69063 3.91752 3.36054
# Velocity P-wave (km/s) = 4.55036 7.18458 6.01349
#
# Compressibility (1/GPa) = 0.04852436
#
# Stress axis : x y z
#
# Youngs Moduli (GPa) = 95.43396 8.50011 44.81733
#
# Poissons Ratio (x) = 0.12893 -0.03932
# Poissons Ratio (y) = 1.44759 1.64323
# Poissons Ratio (z) = -0.08372 0.31166
#
# Static dielectric constant tensor:
#      x y z
#    x 1.643530 0.000000 -0.015440 
#    y 0.000000 1.625150 0.000000 
#    z -0.015440 0.000000 1.642250 
# 
# From -- ./inp_files/243775.got.cif
#   From: 2010.05.17/outbox.ucp.g08.bks.cvg/sg12_122_cif.got.tgz:243775.got - 2010.06.11 11:47:21.
