data_PCOD9225377
_publ_section_title
;
Structure prediction by ZEFSAII (Michael W. Deem and Ramdas Pophale) SiO2 
 PCOD9225377
Probable space group: C 2/M
;
_chemical_formula_sum "Si O2"
_cell_formula_units_Z 28
_cell_length_a 30.000000
_cell_length_b 9.000000
_cell_length_c 12.000000
_cell_angle_alpha 90.000000
_cell_angle_beta 60.000000
_cell_angle_gamma 90.000000
_cell_volume 2805.922308
_symmetry_space_group_name_H-M "C 2/M"
_symmetry_group_IT_number 12
_symmetry_cell_setting 'monoclinic'
loop_
_space_group_symop_operation_xyz
x,y,z
-x,y,-z
-x,-y,-z
x,-y,z
1/2+x,1/2+y,z
1/2-x,1/2+y,-z
1/2-x,1/2-y,-z
1/2+x,1/2-y,z
loop_
_atom_site_type_symbol
_atom_site_label
_atom_site_fract_x
_atom_site_fract_y
_atom_site_fract_z
Si Si1 0.273271 0.323433 0.584764
Si Si2 0.827927 0.325359 0.140809
Si Si3 0.486790 0.678304 0.827947
Si Si4 0.552338 0.329657 0.366654
Si Si5 0.352940 0.821237 0.652076
Si Si6 0.578998 0.321623 0.863870
Si Si7 0.193768 0.820910 0.064950
O O1 0.282952 0.500000 0.553510
O O2 0.250000 0.250000 0.500000
O O3 0.228604 0.310300 0.734599
O O4 0.323030 0.246087 0.581395
O O5 0.837578 0.500000 0.107574
O O6 0.867758 0.262217 0.182397
O O7 0.831092 0.235267 0.020492
O O8 0.491054 0.500000 0.809078
O O9 0.461794 0.728870 0.741397
O O10 0.543195 0.727728 0.804018
O O11 0.451200 0.704637 0.981090
O O12 0.500000 0.341990 0.500000
O O13 0.573824 0.500000 0.327573
O O14 0.588355 0.229653 0.401005
O O15 0.331043 0.746803 0.792947
O O16 0.347175 0.000000 0.659370
O O17 0.586698 0.500000 0.844796
O O18 0.194754 0.000000 0.066126
O O19 0.250000 0.750000 0.000000
#
# Coordination Sequence:
#
# PCOD9225377 Si02
#       7
#     8   8   8   8   8   8   8
#     4  11  25  44  64  86 121 163 207 256 307 373
#     4  11  23  38  58  90 126 160 200 249 308 372
#     4   8  16  33  55  82 113 150 198 247 298 356
#     4  10  21  38  61  88 120 161 207 255 308 369
#     4  12  25  42  65  93 127 166 208 258 316 374
#     4   9  17  32  57  83 112 153 199 247 297 358
#     4  12  23  38  63  93 125 161 203 254 311 372
#
# _framework density 9.9788940000000004
#
# number of rings (size 3 to 8) (size 9 to 14) (size 15 to 20)
#    0.000    1.571    1.429    5.143    0.000    4.286 
#    0.000    3.571    0.000    0.000    0.000    0.000 
#    0.000    0.000    0.000    0.000    0.000    0.000 
#
# Total GULP energy -156250.126721 kJ/mol
# GULP energy per Si atom -5580.361669 kJ/mol
# Density = 0.995618 g / cm^3
# Si number density = 9.978894 Si / 1000 Ang^3
#
#
#
# Elastic Constant Matrix: (Units=GPa)
#
#
# Indices 1 2 3 4 5 6 
#
# 1 164.9146 63.5378 21.9333 0.0000 26.2862 0.0000
# 2 63.5378 140.6864 26.2862 0.0000 13.7764 0.0000
# 3 21.9333 26.2862 45.6026 0.0000 18.6449 0.0000
# 4 0.0000 0.0000 0.0000 22.6778 0.0000 5.5360
# 5 26.2862 13.7764 18.6449 0.0000 46.7959 0.0000
# 6 0.0000 0.0000 0.0000 5.5360 0.0000 30.4411
#
#
#
# Elastic Compliance Matrix: (Units=1/GPa)
#
#
# Indices 1 2 3 4 5 6 
#
# 1 0.007867 -0.003111 -0.000667 0.000000 -0.003238 0.000000
# 2 -0.003111 0.009211 -0.004084 0.000000 0.000663 0.000000
# 3 -0.000667 -0.004084 0.028621 0.000000 -0.009827 0.000000
# 4 0.000000 0.000000 0.000000 0.046145 0.000000 -0.008392
# 5 -0.003238 0.000663 -0.009827 0.000000 0.026908 0.000000
# 6 0.000000 0.000000 0.000000 -0.008392 0.000000 0.034377
#
#
# Mechanical properties :
#
#
# Convention : Reuss Voigt Hill
#
# Bulk Modulus (GPa) = 33.36118 63.85758 48.60938
# Shear Modulus (GPa) = 27.95710 35.94603 31.95156
#
# Velocity S-wave (km/s) = 3.74680 4.24854 4.00554
# Velocity P-wave (km/s) = 5.95569 7.49217 6.76767
#
# Compressibility (1/GPa) = 0.02997496
#
# Stress axis : x y z
#
# Youngs Moduli (GPa) = 127.10957 108.56123 34.93914
#
# Poissons Ratio (x) = 0.33778 0.02329
# Poissons Ratio (y) = 0.39550 0.14270
# Poissons Ratio (z) = 0.08474 0.44340
#
# Static dielectric constant tensor:
#      x y z
#    x 1.812330 0.000000 -0.108430 
#    y 0.000000 1.694980 0.000000 
#    z -0.108430 0.000000 1.796860 
# 
# From -- ./inp_files/187267.got.cif
#   From: 2010.05.17/outbox.ucp.g08.bks.cvg/sg12_94_cif.got.tgz:187267.got - 2010.06.11 11:47:21.
