data_PCOD9225923
_publ_section_title
;
Structure prediction by ZEFSAII (Michael W. Deem and Ramdas Pophale) SiO2 
 PCOD9225923
Probable space group: C 2/M
;
_chemical_formula_sum "Si O2"
_cell_formula_units_Z 20
_cell_length_a 12.000000
_cell_length_b 15.000000
_cell_length_c 12.000000
_cell_angle_alpha 90.000000
_cell_angle_beta 110.000000
_cell_angle_gamma 90.000000
_cell_volume 2029.736061
_symmetry_space_group_name_H-M "C 2/M"
_symmetry_group_IT_number 12
_symmetry_cell_setting 'monoclinic'
loop_
_space_group_symop_operation_xyz
x,y,z
-x,y,-z
-x,-y,-z
x,-y,z
1/2+x,1/2+y,z
1/2-x,1/2+y,-z
1/2-x,1/2-y,-z
1/2+x,1/2-y,z
loop_
_atom_site_type_symbol
_atom_site_label
_atom_site_fract_x
_atom_site_fract_y
_atom_site_fract_z
Si Si1 0.531342 0.500000 0.736381
Si Si2 0.290004 0.360015 0.272131
Si Si3 0.516007 0.895594 0.131586
Si Si4 0.157698 0.000000 0.521596
Si Si5 0.689764 0.848561 0.780292
Si Si6 0.634748 0.000000 0.584439
Si Si7 0.126074 0.000000 0.107588
O O1 0.617905 0.413839 0.776840
O O2 0.459449 0.500000 0.595089
O O3 0.423784 0.500000 0.784578
O O4 0.153711 0.387836 0.208550
O O5 0.329439 0.408888 0.400852
O O6 0.289453 0.253157 0.253740
O O7 0.424880 0.845265 0.179528
O O8 0.482084 0.000000 0.126396
O O9 0.500000 0.864371 0.000000
O O10 0.273748 0.000000 0.484545
O O11 0.793766 0.909164 0.876408
O O12 0.657580 0.912358 0.666209
O O13 0.500000 0.000000 0.500000
O O14 0.000000 0.000000 0.000000
#
# Coordination Sequence:
#
# PCOD9225923 Si02
#       7
#     4   8   8   4   8   4   4
#     4  11  24  46  65  97 138 185 224 272 341 405
#     4  11  25  41  69  97 133 177 225 278 332 396
#     4  11  23  43  69  94 132 177 224 273 334 399
#     4  11  22  45  66  95 139 181 227 271 340 399
#     4  11  25  44  65 105 131 170 231 275 330 405
#     4  11  22  41  66  93 136 172 218 277 334 388
#     4  11  26  46  69  94 142 181 214 280 348 396
#
# _framework density 9.8534980000000001
#
# number of rings (size 3 to 8) (size 9 to 14) (size 15 to 20)
#    0.000    1.000    6.000    2.400    5.600    4.000 
#    0.000    0.000    0.000    0.000    0.000    0.000 
#    0.000    0.000    0.000    0.000    0.000    0.000 
#
# Total GULP energy -111495.848286 kJ/mol
# GULP energy per Si atom -5574.792414 kJ/mol
# Density = 0.983107 g / cm^3
# Si number density = 9.853498 Si / 1000 Ang^3
#
#
#
# Elastic Constant Matrix: (Units=GPa)
#
#
# Indices 1 2 3 4 5 6 
#
# 1 132.8422 32.7037 33.5073 0.0000 11.1134 0.0000
# 2 32.7037 154.3455 29.2096 0.0000 3.4241 0.0000
# 3 33.5073 29.2096 69.7751 0.0000 18.8995 0.0000
# 4 0.0000 0.0000 0.0000 -12.2441 0.0000 7.4574
# 5 11.1134 3.4241 18.8995 0.0000 50.7401 0.0000
# 6 0.0000 0.0000 0.0000 7.4574 0.0000 23.0733
#
#
#
# Elastic Compliance Matrix: (Units=1/GPa)
#
#
# Indices 1 2 3 4 5 6 
#
# 1 0.008761 -0.001167 -0.003581 0.000000 -0.000506 0.000000
# 2 -0.001167 0.007214 -0.002666 0.000000 0.000762 0.000000
# 3 -0.003581 -0.002666 0.018803 0.000000 -0.006040 0.000000
# 4 0.000000 0.000000 0.000000 -0.068239 0.000000 0.022055
# 5 -0.000506 0.000762 -0.006040 0.000000 0.022017 0.000000
# 6 0.000000 0.000000 0.000000 0.022055 0.000000 0.036212
#
#
# Mechanical properties :
#
#
# Convention : Reuss Voigt Hill
#
# Bulk Modulus (GPa) = 50.12681 60.86713 55.49697
# Shear Modulus (GPa) = 108.11597 29.75000 68.93298
#
# Velocity S-wave (km/s) = 7.41491 3.88959 5.92072
# Velocity P-wave (km/s) = 9.93977 7.15018 8.65806
#
# Compressibility (1/GPa) = 0.01994940
#
# Stress axis : x y z
#
# Youngs Moduli (GPa) = 114.14521 138.62160 53.18187
#
# Poissons Ratio (x) = 0.16181 0.19046
# Poissons Ratio (y) = 0.13324 0.14177
# Poissons Ratio (z) = 0.40879 0.36952
#
# Static dielectric constant tensor:
#      x y z
#    x 1.721150 0.000000 -0.045730 
#    y 0.000000 1.657840 0.000000 
#    z -0.045730 0.000000 1.783330 
# 
# From -- ./inp_files/129870.got.cif
#   From: 2010.05.17/outbox.ucp.g08.bks.cvg/sg12_65_cif.got.tgz:129870.got - 2010.06.11 11:47:21.
