data_PCOD9225408
_publ_section_title
;
Structure prediction by ZEFSAII (Michael W. Deem and Ramdas Pophale) SiO2 
 PCOD9225408
Probable space group: C 2/M
;
_chemical_formula_sum "Si O2"
_cell_formula_units_Z 32
_cell_length_a 18.000000
_cell_length_b 9.000000
_cell_length_c 30.000000
_cell_angle_alpha 90.000000
_cell_angle_beta 40.000000
_cell_angle_gamma 90.000000
_cell_volume 3123.947783
_symmetry_space_group_name_H-M "C 2/M"
_symmetry_group_IT_number 12
_symmetry_cell_setting 'monoclinic'
loop_
_space_group_symop_operation_xyz
x,y,z
-x,y,-z
-x,-y,-z
x,-y,z
1/2+x,1/2+y,z
1/2-x,1/2+y,-z
1/2-x,1/2-y,-z
1/2+x,1/2-y,z
loop_
_atom_site_type_symbol
_atom_site_label
_atom_site_fract_x
_atom_site_fract_y
_atom_site_fract_z
Si Si1 0.013875 0.329219 0.218361
Si Si2 0.906334 0.172006 0.003013
Si Si3 0.415715 0.180142 0.499847
Si Si4 0.993263 0.321916 0.365679
Si Si5 0.846396 0.822024 0.354449
Si Si6 0.264016 0.327575 0.858712
Si Si7 0.984418 0.331510 0.130798
Si Si8 0.738834 0.673094 0.779055
O O1 0.031191 0.500000 0.226464
O O2 0.890520 0.269202 0.291293
O O3 0.039513 0.328865 0.154165
O O4 0.102301 0.211538 0.198176
O O5 0.802977 0.277665 0.066354
O O6 0.870113 0.000000 0.016690
O O7 0.000000 0.183614 0.000000
O O8 0.958727 0.226955 0.932331
O O9 0.500000 0.235370 0.500000
O O10 0.452554 0.227268 0.433413
O O11 0.284538 0.216119 0.572371
O O12 0.424425 0.000000 0.495278
O O13 0.971030 0.500000 0.370892
O O14 0.926030 0.232336 0.358724
O O15 0.130493 0.301078 0.296383
O O16 0.854611 0.000000 0.343819
O O17 0.244056 0.500000 0.857749
O O18 0.224982 0.219476 0.836974
O O19 0.985048 0.500000 0.113229
O O20 0.854935 0.276934 0.200413
O O21 0.711209 0.500000 0.785529
#
# Coordination Sequence:
#
# PCOD9225408 Si02
#       8
#     8   8   8   8   8   8   8   8
#     4  11  25  44  63  89 128 166 205 256 317 370
#     4  11  23  40  65  93 124 164 206 252 310 375
#     4   9  20  38  60  91 125 161 206 254 306 365
#     4  10  21  38  63  89 123 166 204 252 309 366
#     4  11  22  37  64  92 120 162 210 258 304 366
#     4  12  24  40  66  94 124 161 208 259 306 365
#     4  11  25  42  63  91 124 164 208 261 312 365
#     4  11  22  37  62  93 125 164 207 255 312 373
#
# _framework density 10.243449
#
# number of rings (size 3 to 8) (size 9 to 14) (size 15 to 20)
#    0.000    1.250    2.500    3.375    1.750    3.500 
#    0.000    0.625    0.000    1.875    0.000    0.000 
#    0.000    0.000    0.000    0.000    0.000    0.000 
#
# Total GULP energy -178720.346909 kJ/mol
# GULP energy per Si atom -5585.010841 kJ/mol
# Density = 1.022013 g / cm^3
# Si number density = 10.243449 Si / 1000 Ang^3
#
#
#
# Elastic Constant Matrix: (Units=GPa)
#
#
# Indices 1 2 3 4 5 6 
#
# 1 32.9130 -10.2392 12.2252 0.0001 10.2998 0.0003
# 2 -10.2392 38.5401 13.4049 0.0003 0.9816 0.0003
# 3 12.2252 13.4049 113.5658 0.0000 12.7225 0.0000
# 4 0.0001 0.0003 0.0000 29.3552 0.0000 -2.2112
# 5 10.2998 0.9816 12.7225 0.0000 31.5870 0.0000
# 6 0.0003 0.0003 0.0000 -2.2112 0.0000 14.4511
#
#
#
# Elastic Compliance Matrix: (Units=1/GPa)
#
#
# Indices 1 2 3 4 5 6 
#
# 1 0.039438 0.012305 -0.004414 0.000000 -0.011465 -0.000001
# 2 0.012305 0.030904 -0.004624 0.000000 -0.003110 -0.000001
# 3 -0.004414 -0.004624 0.010105 0.000000 -0.002487 0.000000
# 4 0.000000 0.000000 0.000000 0.034463 0.000000 0.005273
# 5 -0.011465 -0.003110 -0.002487 0.000000 0.036495 0.000000
# 6 -0.000001 -0.000001 0.000000 0.005273 0.000000 0.070006
#
#
# Mechanical properties :
#
#
# Convention : Reuss Voigt Hill
#
# Bulk Modulus (GPa) = 11.49665 23.97788 17.73726
# Shear Modulus (GPa) = 20.50274 26.38720 23.44497
#
# Velocity S-wave (km/s) = 3.16693 3.59277 3.38655
# Velocity P-wave (km/s) = 4.35850 5.37960 4.89574
#
# Compressibility (1/GPa) = 0.08698189
#
# Stress axis : x y z
#
# Youngs Moduli (GPa) = 25.35603 32.35868 98.96081
#
# Poissons Ratio (x) = -0.39817 0.43677
# Poissons Ratio (y) = -0.31200 0.45759
# Poissons Ratio (z) = 0.11191 0.14962
#
# Static dielectric constant tensor:
#      x y z
#    x 1.801480 0.000000 -0.010740 
#    y 0.000000 1.680970 0.000000 
#    z -0.010740 0.000000 1.733520 
# 
# From -- ./inp_files/378248.got.cif
#   From: 2010.05.17/outbox.ucp.g08.bks.cvg/sg12_190_cif.got.tgz:378248.got - 2010.06.11 11:47:21.
