data_PCOD9225922
_publ_section_title
;
Structure prediction by ZEFSAII (Michael W. Deem and Ramdas Pophale) SiO2 
 PCOD9225922
Probable space group: C 2/M
;
_chemical_formula_sum "Si O2"
_cell_formula_units_Z 28
_cell_length_a 18.000000
_cell_length_b 24.000000
_cell_length_c 21.000000
_cell_angle_alpha 90.000000
_cell_angle_beta 20.000000
_cell_angle_gamma 90.000000
_cell_volume 3102.806740
_symmetry_space_group_name_H-M "C 2/M"
_symmetry_group_IT_number 12
_symmetry_cell_setting 'monoclinic'
loop_
_space_group_symop_operation_xyz
x,y,z
-x,y,-z
-x,-y,-z
x,-y,z
1/2+x,1/2+y,z
1/2-x,1/2+y,-z
1/2-x,1/2-y,-z
1/2+x,1/2-y,z
loop_
_atom_site_type_symbol
_atom_site_label
_atom_site_fract_x
_atom_site_fract_y
_atom_site_fract_z
Si Si1 0.185462 0.182479 0.639506
Si Si2 0.490514 0.435211 0.398287
Si Si3 0.947704 0.281814 0.754493
Si Si4 0.450678 0.725162 0.111950
Si Si5 0.321932 0.850992 0.197000
Si Si6 0.018475 0.612955 0.792138
Si Si7 0.556481 0.565484 0.196362
O O1 0.415812 0.198421 0.418833
O O2 0.035328 0.226060 0.719722
O O3 0.165761 0.195873 0.731927
O O4 0.102005 0.118181 0.695376
O O5 0.520581 0.500000 0.396423
O O6 0.612577 0.387969 0.343128
O O7 0.233821 0.421206 0.598541
O O8 0.579341 0.431501 0.254648
O O9 0.979350 0.333030 0.778770
O O10 0.698198 0.268674 0.938379
O O11 0.318652 0.783081 0.204616
O O12 0.500000 0.700556 0.000000
O O13 0.415628 0.868991 0.189596
O O14 0.500000 0.863585 0.000000
O O15 0.793211 0.578869 0.975819
O O16 0.492911 0.500000 0.233025
#
# Coordination Sequence:
#
# PCOD9225922 Si02
#       7
#     8   8   8   8   8   8   8
#     4  11  22  41  65  92 128 160 216 267 322 380
#     4  11  25  41  58  91 135 178 218 253 301 379
#     4  11  23  38  66  94 122 170 212 274 322 372
#     4  11  24  40  62  92 127 159 205 266 330 382
#     4  11  23  38  57  85 130 175 209 255 306 371
#     4  12  21  40  64  88 123 174 220 263 313 367
#     4  11  23  39  65  93 125 169 217 265 315 378
#
# _framework density 9.0240880000000008
#
# number of rings (size 3 to 8) (size 9 to 14) (size 15 to 20)
#    0.000    0.857    5.714    2.143    2.000    2.571 
#    5.143    0.000    0.000    0.429    0.000    1.000 
#    0.000    0.000    0.000    0.000    0.000    0.000 
#
# Total GULP energy -156097.573245 kJ/mol
# GULP energy per Si atom -5574.913330 kJ/mol
# Density = 0.900355 g / cm^3
# Si number density = 9.024088 Si / 1000 Ang^3
#
#
#
# Elastic Constant Matrix: (Units=GPa)
#
#
# Indices 1 2 3 4 5 6 
#
# 1 79.7952 31.6885 14.0881 0.0082 19.6762 0.0316
# 2 31.6885 138.5831 33.4189 -0.0573 0.0221 -0.0470
# 3 14.0881 33.4189 89.0838 0.2517 11.2683 -0.0518
# 4 0.0082 -0.0573 0.2517 25.5660 -0.0513 -2.8232
# 5 19.6762 0.0221 11.2683 -0.0513 37.6252 -0.0039
# 6 0.0316 -0.0470 -0.0518 -2.8232 -0.0039 37.1263
#
#
#
# Elastic Compliance Matrix: (Units=1/GPa)
#
#
# Indices 1 2 3 4 5 6 
#
# 1 0.016061 -0.003644 -0.000115 -0.000031 -0.008363 -0.000022
# 2 -0.003644 0.008791 -0.003079 0.000058 0.002822 0.000015
# 3 -0.000115 -0.003079 0.012879 -0.000141 -0.003795 0.000003
# 4 -0.000031 0.000058 -0.000141 0.039448 0.000113 0.003000
# 5 -0.008363 0.002822 -0.003795 0.000113 0.032086 0.000017
# 6 -0.000022 0.000015 0.000003 0.003000 0.000017 0.027163
#
#
# Mechanical properties :
#
#
# Convention : Reuss Voigt Hill
#
# Bulk Modulus (GPa) = 41.56915 51.76146 46.66530
# Shear Modulus (GPa) = 31.62099 35.28127 33.45113
#
# Velocity S-wave (km/s) = 4.19027 4.42615 4.30982
# Velocity P-wave (km/s) = 6.81861 7.40695 7.11886
#
# Compressibility (1/GPa) = 0.02405630
#
# Stress axis : x y z
#
# Youngs Moduli (GPa) = 62.26071 113.75209 77.64531
#
# Poissons Ratio (x) = 0.41446 0.00895
# Poissons Ratio (y) = 0.22685 0.23906
# Poissons Ratio (z) = 0.00718 0.35022
#
# Static dielectric constant tensor:
#      x y z
#    x 1.615280 -0.000010 0.028630 
#    y -0.000010 1.633050 0.000080 
#    z 0.028630 0.000080 1.674660 
# 
# From -- ./inp_files/286047.got.cif
#   From: 2010.05.17/outbox.ucp.g08.bks.cvg/sg12_144_cif.got.tgz:286047.got - 2010.06.11 11:47:21.
