data_PCOD9225548
_publ_section_title
;
Structure prediction by ZEFSAII (Michael W. Deem and Ramdas Pophale) SiO2 
 PCOD9225548
Probable space group: C 2/M
;
_chemical_formula_sum "Si O2"
_cell_formula_units_Z 28
_cell_length_a 12.000000
_cell_length_b 15.000000
_cell_length_c 30.000000
_cell_angle_alpha 90.000000
_cell_angle_beta 30.000000
_cell_angle_gamma 90.000000
_cell_volume 2700.000000
_symmetry_space_group_name_H-M "C 2/M"
_symmetry_group_IT_number 12
_symmetry_cell_setting 'monoclinic'
loop_
_space_group_symop_operation_xyz
x,y,z
-x,y,-z
-x,-y,-z
x,-y,z
1/2+x,1/2+y,z
1/2-x,1/2+y,-z
1/2-x,1/2-y,-z
1/2+x,1/2-y,z
loop_
_atom_site_type_symbol
_atom_site_label
_atom_site_fract_x
_atom_site_fract_y
_atom_site_fract_z
Si Si1 0.295093 0.645984 0.300947
Si Si2 0.698623 0.395483 0.219311
Si Si3 0.427300 0.105032 0.325379
Si Si4 0.416730 0.601888 0.161288
Si Si5 0.910282 0.609060 0.981992
Si Si6 0.645649 0.343962 0.338168
Si Si7 0.699984 0.103010 0.533417
O O1 0.473037 0.647493 0.278518
O O2 0.403509 0.600362 0.219885
O O3 0.234620 0.744428 0.306681
O O4 0.054253 0.605035 0.396006
O O5 0.677300 0.500000 0.216065
O O6 0.705938 0.385330 0.269804
O O7 0.915935 0.363248 0.116669
O O8 0.676940 0.143054 0.230923
O O9 0.271089 0.113560 0.337074
O O10 0.318172 0.139165 0.409290
O O11 0.462444 0.000000 0.322703
O O12 0.417744 0.500000 0.143988
O O13 0.654920 0.641671 0.065030
O O14 0.901290 0.500000 0.984957
O O15 0.000000 0.635023 0.000000
O O16 0.382934 0.347837 0.440328
O O17 0.775424 0.000000 0.508825
#
# Coordination Sequence:
#
# PCOD9225548 Si02
#       7
#     8   8   8   8   8   8   8
#     4  11  23  37  59  88 124 155 197 247 305 353
#     4  11  23  40  64  91 122 158 201 249 301 357
#     4   9  19  37  63  84 111 155 204 242 288 357
#     4   9  17  35  64  89 111 150 206 252 283 345
#     4   9  16  32  62  92 113 148 204 251 287 346
#     4  12  25  38  57  86 129 157 192 247 310 354
#     4  10  21  41  65  84 110 157 211 246 284 354
#
# _framework density 10.370369999999999
#
# number of rings (size 3 to 8) (size 9 to 14) (size 15 to 20)
#    0.000    1.857    1.429    4.286    4.000    1.714 
#    2.571    2.857    3.143    3.429    0.000    0.000 
#    0.000    0.000    0.000    0.000    0.000    0.000 
#
# Total GULP energy -156266.508586 kJ/mol
# GULP energy per Si atom -5580.946735 kJ/mol
# Density = 1.034677 g / cm^3
# Si number density = 10.370370 Si / 1000 Ang^3
#
#
#
# Elastic Constant Matrix: (Units=GPa)
#
#
# Indices 1 2 3 4 5 6 
#
# 1 59.0665 7.6679 52.1954 -0.0044 2.3650 0.0076
# 2 7.6679 38.9852 12.8567 0.0016 -6.3443 -0.0087
# 3 52.1954 12.8567 181.0541 0.0112 -0.3718 -0.0311
# 4 -0.0044 0.0016 0.0112 10.0881 0.0001 6.0357
# 5 2.3650 -6.3443 -0.3718 0.0001 25.3568 -0.0006
# 6 0.0076 -0.0087 -0.0311 6.0357 -0.0006 -38.8284
#
#
#
# Elastic Compliance Matrix: (Units=1/GPa)
#
#
# Indices 1 2 3 4 5 6 
#
# 1 0.023146 -0.002903 -0.006473 0.000011 -0.002980 0.000012
# 2 -0.002903 0.027763 -0.001120 -0.000001 0.007201 -0.000006
# 3 -0.006473 -0.001120 0.007470 -0.000006 0.000433 -0.000008
# 4 0.000011 -0.000001 -0.000006 0.090692 -0.000001 0.014098
# 5 -0.002980 0.007201 0.000433 -0.000001 0.041523 -0.000003
# 6 0.000012 -0.000006 -0.000008 0.014098 -0.000003 -0.023563
#
#
# Mechanical properties :
#
#
# Convention : Reuss Voigt Hill
#
# Bulk Modulus (GPa) = 26.74678 47.17174 36.95926
# Shear Modulus (GPa) = 24.93967 13.08234 19.01100
#
# Velocity S-wave (km/s) = 3.47140 2.51421 3.03083
# Velocity P-wave (km/s) = 5.38435 5.58760 5.48691
#
# Compressibility (1/GPa) = 0.03738768
#
# Stress axis : x y z
#
# Youngs Moduli (GPa) = 43.20417 36.01939 133.87623
#
# Poissons Ratio (x) = 0.10456 0.86653
# Poissons Ratio (y) = 0.12542 0.14991
# Poissons Ratio (z) = 0.27964 0.04033
#
# Static dielectric constant tensor:
#      x y z
#    x 1.733820 0.000000 -0.030310 
#    y 0.000000 1.697210 0.000000 
#    z -0.030310 0.000000 1.741490 
# 
# From -- ./inp_files/374184.got.cif
#   From: 2010.05.17/outbox.ucp.g08.bks.cvg/sg12_188_cif.got.tgz:374184.got - 2010.06.11 11:47:21.
