data_PCOD9225208
_publ_section_title
;
Structure prediction by ZEFSAII (Michael W. Deem and Ramdas Pophale) SiO2 
 PCOD9225208
Probable space group: C 2/M
;
_chemical_formula_sum "Si O2"
_cell_formula_units_Z 30
_cell_length_a 15.000000
_cell_length_b 18.000000
_cell_length_c 12.000000
_cell_angle_alpha 90.000000
_cell_angle_beta 110.000000
_cell_angle_gamma 90.000000
_cell_volume 3044.604091
_symmetry_space_group_name_H-M "C 2/M"
_symmetry_group_IT_number 12
_symmetry_cell_setting 'monoclinic'
loop_
_space_group_symop_operation_xyz
x,y,z
-x,y,-z
-x,-y,-z
x,-y,z
1/2+x,1/2+y,z
1/2-x,1/2+y,-z
1/2-x,1/2-y,-z
1/2+x,1/2-y,z
loop_
_atom_site_type_symbol
_atom_site_label
_atom_site_fract_x
_atom_site_fract_y
_atom_site_fract_z
Si Si1 0.018016 0.912155 0.765925
Si Si2 0.290999 0.296306 0.918110
Si Si3 0.807494 0.084148 0.635234
Si Si4 0.701959 0.822249 0.424161
Si Si5 0.817693 0.583360 0.197046
Si Si6 0.838621 0.802659 0.290902
Si Si7 0.500000 0.650060 0.000000
Si Si8 0.014618 0.324426 0.627771
O O1 0.105648 0.862561 0.760177
O O2 0.914320 0.883090 0.676868
O O3 0.029352 0.000000 0.745997
O O4 0.008549 0.899474 0.893795
O O5 0.244464 0.376295 0.921738
O O6 0.235869 0.256729 0.793033
O O7 0.250000 0.250000 0.000000
O O8 0.403330 0.301740 0.952687
O O9 0.725357 0.116158 0.524330
O O10 0.759981 0.086276 0.736276
O O11 0.823292 0.000000 0.609585
O O12 0.750000 0.750000 0.500000
O O13 0.770347 0.841140 0.350585
O O14 0.589075 0.813263 0.361674
O O15 0.841791 0.500000 0.181637
O O16 0.913694 0.626682 0.268201
O O17 0.925356 0.750826 0.370192
O O18 0.000000 0.360158 0.500000
#
# Coordination Sequence:
#
# PCOD9225208 Si02
#       8
#     8   8   8   8   8   8   4   8
#     4  11  24  41  63  93 123 161 209 260 315 374
#     4  11  23  41  61  93 119 153 197 262 322 365
#     4  10  21  36  57  87 122 159 199 249 301 354
#     4  12  22  36  59  87 123 168 205 247 301 367
#     4  10  21  38  60  89 124 154 200 259 304 355
#     4  11  25  39  59  90 128 159 204 258 312 366
#     4  12  23  40  70  90 119 152 210 262 319 376
#     4  11  21  36  59  90 118 164 210 244 296 362
#
# _framework density 9.8534980000000001
#
# number of rings (size 3 to 8) (size 9 to 14) (size 15 to 20)
#    0.000    1.067    5.333    1.800    1.867    1.867 
#    0.000    1.333    0.000    0.000    0.000    1.867 
#    0.000    0.000    0.000    0.000    0.000    0.000 
#
# Total GULP energy -167003.246017 kJ/mol
# GULP energy per Si atom -5566.774867 kJ/mol
# Density = 0.983107 g / cm^3
# Si number density = 9.853498 Si / 1000 Ang^3
#
#
#
# Elastic Constant Matrix: (Units=GPa)
#
#
# Indices 1 2 3 4 5 6 
#
# 1 171.5295 46.0801 26.7024 0.0000 30.5423 0.0000
# 2 46.0801 72.8542 16.4801 0.0000 9.9901 0.0000
# 3 26.7024 16.4801 30.5797 0.0000 14.5100 0.0000
# 4 0.0000 0.0000 0.0000 12.3859 0.0000 6.6104
# 5 30.5423 9.9901 14.5100 0.0000 36.1224 0.0000
# 6 0.0000 0.0000 0.0000 6.6104 0.0000 20.1709
#
#
#
# Elastic Compliance Matrix: (Units=1/GPa)
#
#
# Indices 1 2 3 4 5 6 
#
# 1 0.008141 -0.003873 -0.002796 0.000000 -0.004689 0.000000
# 2 -0.003873 0.017514 -0.006563 0.000000 0.001068 0.000000
# 3 -0.002796 -0.006563 0.045339 0.000000 -0.014033 0.000000
# 4 0.000000 0.000000 0.000000 0.097852 0.000000 -0.032068
# 5 -0.004689 0.001068 -0.014033 0.000000 0.036990 0.000000
# 6 0.000000 0.000000 0.000000 -0.032068 0.000000 0.060086
#
#
# Mechanical properties :
#
#
# Convention : Reuss Voigt Hill
#
# Bulk Modulus (GPa) = 22.45782 50.38762 36.42272
# Shear Modulus (GPa) = 16.27448 26.11588 21.19518
#
# Velocity S-wave (km/s) = 2.87683 3.64429 3.28306
# Velocity P-wave (km/s) = 4.73872 6.58268 5.73529
#
# Compressibility (1/GPa) = 0.04452793
#
# Stress axis : x y z
#
# Youngs Moduli (GPa) = 122.84082 57.09647 22.05628
#
# Poissons Ratio (x) = 0.22116 0.06167
# Poissons Ratio (y) = 0.47582 0.14476
# Poissons Ratio (z) = 0.34349 0.37473
#
# Static dielectric constant tensor:
#      x y z
#    x 1.630510 0.000000 -0.035000 
#    y 0.000000 1.663080 0.000000 
#    z -0.035000 0.000000 1.564240 
# 
# From -- ./inp_files/146187.got.cif
#   From: 2010.05.17/outbox.ucp.g08.bks.cvg/sg12_74_cif.got.tgz:146187.got - 2010.06.11 11:47:21.
