data_PCOD9225679
_publ_section_title
;
Structure prediction by ZEFSAII (Michael W. Deem and Ramdas Pophale) SiO2 
 PCOD9225679
Probable space group: C 2/M
;
_chemical_formula_sum "Si O2"
_cell_formula_units_Z 32
_cell_length_a 30.000000
_cell_length_b 9.000000
_cell_length_c 12.000000
_cell_angle_alpha 90.000000
_cell_angle_beta 90.000000
_cell_angle_gamma 90.000000
_cell_volume 3240.000000
_symmetry_space_group_name_H-M "C 2/M"
_symmetry_group_IT_number 12
_symmetry_cell_setting 'monoclinic'
loop_
_space_group_symop_operation_xyz
x,y,z
-x,y,-z
-x,-y,-z
x,-y,z
1/2+x,1/2+y,z
1/2-x,1/2+y,-z
1/2-x,1/2-y,-z
1/2+x,1/2-y,z
loop_
_atom_site_type_symbol
_atom_site_label
_atom_site_fract_x
_atom_site_fract_y
_atom_site_fract_z
Si Si1 0.566910 0.825540 0.562908
Si Si2 0.537922 0.321277 0.087203
Si Si3 0.690686 0.826384 0.816388
Si Si4 0.969385 0.326256 0.671921
Si Si5 0.362981 0.676983 0.990838
Si Si6 0.152279 0.174333 0.605336
Si Si7 0.209435 0.173716 0.197630
Si Si8 0.790677 0.324624 0.566687
O O1 0.519409 0.816289 0.623627
O O2 0.560644 0.777144 0.433727
O O3 0.601854 0.723501 0.626560
O O4 0.580221 0.000000 0.564455
O O5 0.534763 0.500000 0.094479
O O6 0.534217 0.257827 0.211788
O O7 0.586587 0.284204 0.039136
O O8 0.500000 0.269723 0.000000
O O9 0.682892 0.732740 0.704993
O O10 0.741639 0.806630 0.855929
O O11 0.684026 0.000000 0.791174
O O12 0.656270 0.768892 0.906994
O O13 0.959385 0.500000 0.691066
O O14 0.360666 0.500000 0.015930
O O15 0.330337 0.705072 0.886689
O O16 0.166069 0.262217 0.494991
O O17 0.157373 0.000000 0.591120
O O18 0.208161 0.273873 0.306462
O O19 0.206355 0.000000 0.231719
O O20 0.787226 0.500000 0.556424
O O21 0.750000 0.250000 0.500000
#
# Coordination Sequence:
#
# PCOD9225679 Si02
#       8
#     8   8   8   8   8   8   8   8
#     4   9  20  40  63  92 125 157 198 254 310 366
#     4  10  23  41  60  87 125 164 204 255 308 364
#     4  11  23  40  63  90 123 162 209 260 310 368
#     4   9  20  40  65  90 122 159 199 252 313 368
#     4  10  23  42  63  89 123 163 210 259 308 367
#     4  12  25  39  61  91 125 166 206 250 307 367
#     4  10  22  41  64  90 124 164 206 258 312 365
#     4  12  24  40  62  90 125 164 205 250 303 365
#
# _framework density 9.8765429999999999
#
# number of rings (size 3 to 8) (size 9 to 14) (size 15 to 20)
#    0.000    1.625    1.250    3.750    3.500    2.750 
#    0.000    1.250    0.000    0.000    0.000    0.000 
#    0.000    0.000    0.000    0.000    0.000    0.000 
#
# Total GULP energy -178751.881390 kJ/mol
# GULP energy per Si atom -5585.996293 kJ/mol
# Density = 0.985406 g / cm^3
# Si number density = 9.876543 Si / 1000 Ang^3
#
#
#
# Elastic Constant Matrix: (Units=GPa)
#
#
# Indices 1 2 3 4 5 6 
#
# 1 94.6016 34.8647 33.1366 0.0000 7.7785 0.0000
# 2 34.8647 55.8811 60.1683 0.0000 -9.7266 0.0000
# 3 33.1366 60.1683 71.8435 0.0000 -9.2293 0.0000
# 4 0.0000 0.0000 0.0000 34.7757 0.0000 2.3934
# 5 7.7785 -9.7266 -9.2293 0.0000 20.8168 0.0000
# 6 0.0000 0.0000 0.0000 2.3934 0.0000 10.3345
#
#
#
# Elastic Compliance Matrix: (Units=1/GPa)
#
#
# Indices 1 2 3 4 5 6 
#
# 1 0.017009 -0.026820 0.012926 0.000000 -0.013156 0.000000
# 2 -0.026820 0.231414 -0.176300 0.000000 0.039985 0.000000
# 3 0.012926 -0.176300 0.153125 0.000000 -0.019316 0.000000
# 4 0.000000 0.000000 0.000000 0.029222 0.000000 -0.006768
# 5 -0.013156 0.039985 -0.019316 0.000000 0.063073 0.000000
# 6 0.000000 0.000000 0.000000 -0.006768 0.000000 0.098330
#
#
# Mechanical properties :
#
#
# Convention : Reuss Voigt Hill
#
# Bulk Modulus (GPa) = 47.25764 53.18503 50.22133
# Shear Modulus (GPa) = 5.10405 19.46250 12.28328
#
# Velocity S-wave (km/s) = 1.60920 3.14234 2.49638
# Velocity P-wave (km/s) = 5.23725 6.33633 5.81283
#
# Compressibility (1/GPa) = 0.02116060
#
# Stress axis : x y z
#
# Youngs Moduli (GPa) = 58.79270 4.32127 6.53060
#
# Poissons Ratio (x) = 0.11590 -0.08442
# Poissons Ratio (y) = 1.57682 1.15134
# Poissons Ratio (z) = -0.75997 0.76184
#
# Static dielectric constant tensor:
#      x y z
#    x 1.762510 0.000000 -0.030660 
#    y 0.000000 1.662420 0.000000 
#    z -0.030660 0.000000 1.690150 
# 
# From -- ./inp_files/187420.got.cif
#   From: 2010.05.17/outbox.ucp.g08.bks.cvg/sg12_94_cif.got.tgz:187420.got - 2010.06.11 11:47:21.
