data_PCOD9225754
_publ_section_title
;
Structure prediction by ZEFSAII (Michael W. Deem and Ramdas Pophale) SiO2 
 PCOD9225754
Probable space group: C 2/M
;
_chemical_formula_sum "Si O2"
_cell_formula_units_Z 20
_cell_length_a 15.000000
_cell_length_b 18.000000
_cell_length_c 21.000000
_cell_angle_alpha 90.000000
_cell_angle_beta 160.000000
_cell_angle_gamma 90.000000
_cell_volume 1939.254213
_symmetry_space_group_name_H-M "C 2/M"
_symmetry_group_IT_number 12
_symmetry_cell_setting 'monoclinic'
loop_
_space_group_symop_operation_xyz
x,y,z
-x,y,-z
-x,-y,-z
x,-y,z
1/2+x,1/2+y,z
1/2-x,1/2+y,-z
1/2-x,1/2-y,-z
1/2+x,1/2-y,z
loop_
_atom_site_type_symbol
_atom_site_label
_atom_site_fract_x
_atom_site_fract_y
_atom_site_fract_z
Si Si1 0.307042 0.915333 0.553013
Si Si2 0.378509 0.715141 0.487099
Si Si3 0.223815 0.415110 0.102061
Si Si4 0.055509 0.817210 0.855727
Si Si5 0.766028 0.169697 0.792934
O O1 0.274437 0.853487 0.585656
O O2 0.543290 0.888608 0.665699
O O3 0.015158 0.915126 0.327369
O O4 0.359431 0.000000 0.609135
O O5 0.500000 0.696142 0.500000
O O6 0.612899 0.751467 0.685133
O O7 0.173952 0.782062 0.341039
O O8 0.145982 0.500000 0.037190
O O9 0.269267 0.373987 0.066187
O O10 0.000000 0.385066 0.000000
O O11 0.904640 0.845103 0.817675
O O12 0.250000 0.750000 0.000000
O O13 0.000000 0.172293 0.000000
#
# Coordination Sequence:
#
# PCOD9225754 Si02
#       5
#     8   8   8   8   8
#     4  11  24  42  66  96 136 180 220 273 339 399
#     4  10  23  41  64  99 130 168 223 277 330 392
#     4  10  24  43  66  96 134 180 224 272 333 405
#     4  11  24  40  68 102 129 173 224 276 337 392
#     4  11  24  42  69 100 132 176 221 278 336 394
#
# _framework density 10.313243
#
# number of rings (size 3 to 8) (size 9 to 14) (size 15 to 20)
#    0.000    1.400    2.000    1.800    8.400    1.600 
#    0.000    5.000    0.000    0.000    0.000    0.000 
#    0.000    0.000    0.000    0.000    0.000    0.000 
#
# Total GULP energy -111687.307754 kJ/mol
# GULP energy per Si atom -5584.365388 kJ/mol
# Density = 1.028977 g / cm^3
# Si number density = 10.313243 Si / 1000 Ang^3
#
#
#
# Elastic Constant Matrix: (Units=GPa)
#
#
# Indices 1 2 3 4 5 6 
#
# 1 154.4245 92.9686 38.6460 -0.0163 48.0694 0.0048
# 2 92.9686 113.3240 28.2360 0.0033 10.3944 -0.0279
# 3 38.6460 28.2360 112.5706 -0.1712 18.3247 -0.0644
# 4 -0.0163 0.0033 -0.1712 23.9945 -0.0329 6.9249
# 5 48.0694 10.3944 18.3247 -0.0329 42.9792 -0.0048
# 6 0.0048 -0.0279 -0.0644 6.9249 -0.0048 29.2768
#
#
#
# Elastic Compliance Matrix: (Units=1/GPa)
#
#
# Indices 1 2 3 4 5 6 
#
# 1 0.024423 -0.017893 -0.000166 -0.000007 -0.022917 -0.000024
# 2 -0.017893 0.022596 -0.002034 -0.000016 0.015414 0.000026
# 3 -0.000166 -0.002034 0.010037 0.000066 -0.003602 0.000004
# 4 -0.000007 -0.000016 0.000066 0.044730 0.000017 -0.010580
# 5 -0.022917 0.015414 -0.003602 0.000017 0.046706 0.000014
# 6 -0.000024 0.000026 0.000004 -0.010580 0.000014 0.036659
#
#
# Mechanical properties :
#
#
# Convention : Reuss Voigt Hill
#
# Bulk Modulus (GPa) = 59.27661 77.78004 68.52833
# Shear Modulus (GPa) = 21.64873 33.94802 27.79837
#
# Velocity S-wave (km/s) = 3.24321 4.06130 3.67509
# Velocity P-wave (km/s) = 6.54408 7.73194 7.16268
#
# Compressibility (1/GPa) = 0.01687006
#
# Stress axis : x y z
#
# Youngs Moduli (GPa) = 40.94531 44.25558 99.63181
#
# Poissons Ratio (x) = 0.79185 0.01653
# Poissons Ratio (y) = 0.73262 0.20268
# Poissons Ratio (z) = 0.00679 0.09003
#
# Static dielectric constant tensor:
#      x y z
#    x 1.751190 0.000020 -0.047330 
#    y 0.000020 1.742100 -0.000030 
#    z -0.047330 -0.000030 1.772920 
# 
# From -- ./inp_files/145267.got.cif
#   From: 2010.05.17/outbox.ucp.g08.bks.cvg/sg12_73_cif.got.tgz:145267.got - 2010.06.11 11:47:21.
