data_PCOD9225549
_publ_section_title
;
Structure prediction by ZEFSAII (Michael W. Deem and Ramdas Pophale) SiO2 
 PCOD9225549
Probable space group: C 2/M
;
_chemical_formula_sum "Si O2"
_cell_formula_units_Z 30
_cell_length_a 12.000000
_cell_length_b 21.000000
_cell_length_c 24.000000
_cell_angle_alpha 90.000000
_cell_angle_beta 150.000000
_cell_angle_gamma 90.000000
_cell_volume 3024.000000
_symmetry_space_group_name_H-M "C 2/M"
_symmetry_group_IT_number 12
_symmetry_cell_setting 'monoclinic'
loop_
_space_group_symop_operation_xyz
x,y,z
-x,y,-z
-x,-y,-z
x,-y,z
1/2+x,1/2+y,z
1/2-x,1/2+y,-z
1/2-x,1/2-y,-z
1/2+x,1/2-y,z
loop_
_atom_site_type_symbol
_atom_site_label
_atom_site_fract_x
_atom_site_fract_y
_atom_site_fract_z
Si Si1 0.225643 0.284720 0.572386
Si Si2 0.500000 0.124533 0.000000
Si Si3 0.698285 0.308907 0.781034
Si Si4 0.655029 0.424896 0.671561
Si Si5 0.648484 0.926798 0.849495
Si Si6 0.750134 0.342952 0.210077
Si Si7 0.261942 0.149572 0.542831
Si Si8 0.839605 0.073065 0.057764
O O1 0.451082 0.304519 0.700108
O O2 0.217339 0.208118 0.565561
O O3 0.247431 0.314953 0.520864
O O4 0.000000 0.309469 0.500000
O O5 0.630927 0.169500 0.098979
O O6 0.665754 0.084028 0.032664
O O7 0.692059 0.367237 0.733020
O O8 0.745512 0.234895 0.782796
O O9 0.638925 0.500000 0.684327
O O10 0.428647 0.403944 0.541793
O O11 0.879457 0.422586 0.732096
O O12 0.746657 0.872582 0.851498
O O13 0.712357 0.000000 0.860716
O O14 0.722716 0.918926 0.946215
O O15 0.537045 0.375414 0.146143
O O16 0.982585 0.369030 0.336224
O O17 0.921619 0.000000 0.095594
#
# Coordination Sequence:
#
# PCOD9225549 Si02
#       8
#     8   4   8   8   8   8   8   8
#     4   9  19  38  63  84 130 167 201 255 324 379
#     4  12  25  42  66  92 123 170 232 266 307 384
#     4  10  24  40  62 100 126 168 210 272 326 370
#     4  10  21  41  65  89 129 173 214 261 315 382
#     4  10  22  41  64  90 128 172 208 259 329 383
#     4  11  24  40  64  99 132 161 209 271 327 386
#     4   9  21  37  58  96 120 166 211 252 314 380
#     4  11  25  44  66  90 127 175 216 267 321 382
#
# _framework density 9.9206350000000008
#
# number of rings (size 3 to 8) (size 9 to 14) (size 15 to 20)
#    0.000    1.867    1.333    1.800    7.467    4.267 
#    0.000    1.333    0.000    1.600    0.000    0.000 
#    0.000    0.000    0.000    0.000    0.000    0.000 
#
# Total GULP energy -167276.302134 kJ/mol
# GULP energy per Si atom -5575.876738 kJ/mol
# Density = 0.989806 g / cm^3
# Si number density = 9.920635 Si / 1000 Ang^3
#
#
#
# Elastic Constant Matrix: (Units=GPa)
#
#
# Indices 1 2 3 4 5 6 
#
# 1 64.4954 37.1354 20.0170 0.0007 23.1571 0.0000
# 2 37.1354 135.6127 32.4670 0.0036 9.7650 -0.0003
# 3 20.0170 32.4670 99.6286 0.0097 13.4997 0.0003
# 4 0.0007 0.0036 0.0097 20.0355 0.0002 10.8632
# 5 23.1571 9.7650 13.4997 0.0002 30.8588 0.0006
# 6 0.0000 -0.0003 0.0003 10.8632 0.0006 16.6723
#
#
#
# Elastic Compliance Matrix: (Units=1/GPa)
#
#
# Indices 1 2 3 4 5 6 
#
# 1 0.024832 -0.005372 -0.001003 0.000001 -0.016496 0.000000
# 2 -0.005372 0.009224 -0.002208 -0.000001 0.002078 0.000001
# 3 -0.001003 -0.002208 0.011440 -0.000008 -0.003553 0.000005
# 4 0.000001 -0.000001 -0.000008 0.077176 0.000004 -0.050286
# 5 -0.016496 0.002078 -0.003553 0.000004 0.045681 -0.000004
# 6 0.000000 0.000001 0.000005 -0.050286 -0.000004 0.092745
#
#
# Mechanical properties :
#
#
# Convention : Reuss Voigt Hill
#
# Bulk Modulus (GPa) = 35.29943 53.21950 44.25946
# Shear Modulus (GPa) = 17.37872 27.52113 22.44993
#
# Velocity S-wave (km/s) = 2.96275 3.72837 3.36739
# Velocity P-wave (km/s) = 5.43446 6.73908 6.12163
#
# Compressibility (1/GPa) = 0.02832907
#
# Stress axis : x y z
#
# Youngs Moduli (GPa) = 40.27017 108.41328 87.41328
#
# Poissons Ratio (x) = 0.58238 0.08771
# Poissons Ratio (y) = 0.21633 0.19303
# Poissons Ratio (z) = 0.04041 0.23940
#
# Static dielectric constant tensor:
#      x y z
#    x 1.727210 0.000000 0.023070 
#    y 0.000000 1.685120 0.000000 
#    z 0.023070 0.000000 1.798930 
# 
# From -- ./inp_files/336886.got.cif
#   From: 2010.05.17/outbox.ucp.g08.bks.cvg/sg12_169_cif.got.tgz:336886.got - 2010.06.11 11:47:21.
