data_PCOD9225961
_publ_section_title
;
Structure prediction by ZEFSAII (Michael W. Deem and Ramdas Pophale) SiO2 
 PCOD9225961
Probable space group: C 2/M
;
_chemical_formula_sum "Si O2"
_cell_formula_units_Z 18
_cell_length_a 21.000000
_cell_length_b 9.000000
_cell_length_c 9.000000
_cell_angle_alpha 90.000000
_cell_angle_beta 90.000000
_cell_angle_gamma 90.000000
_cell_volume 1701.000000
_symmetry_space_group_name_H-M "C 2/M"
_symmetry_group_IT_number 12
_symmetry_cell_setting 'monoclinic'
loop_
_space_group_symop_operation_xyz
x,y,z
-x,y,-z
-x,-y,-z
x,-y,z
1/2+x,1/2+y,z
1/2-x,1/2+y,-z
1/2-x,1/2-y,-z
1/2+x,1/2-y,z
loop_
_atom_site_type_symbol
_atom_site_label
_atom_site_fract_x
_atom_site_fract_y
_atom_site_fract_z
Si Si1 0.678871 0.500000 0.811612
Si Si2 0.374644 0.000000 0.263412
Si Si3 0.926953 0.000000 0.966015
Si Si4 0.821436 0.769739 0.446797
Si Si5 0.617138 0.756899 0.246661
Si Si6 0.014838 0.500000 0.325854
Si Si7 0.808600 0.500000 0.939179
O O1 0.685332 0.368124 0.697860
O O2 0.732313 0.500000 0.938265
O O3 0.610314 0.500000 0.881331
O O4 0.357116 0.132523 0.373902
O O5 0.449663 0.000000 0.234072
O O6 0.337511 0.000000 0.105548
O O7 0.905665 0.861054 0.870557
O O8 0.000000 0.000000 0.000000
O O9 0.750000 0.750000 0.500000
O O10 0.857392 0.811652 0.599031
O O11 0.557731 0.859554 0.287759
O O12 0.668023 0.860250 0.159823
O O13 0.000000 0.500000 0.500000
#
# Coordination Sequence:
#
# PCOD9225961 Si02
#       7
#     4   4   4   8   8   4   4
#     4  12  27  46  70 102 147 184 228 286 354 413
#     4  12  26  42  73 104 133 179 238 283 345 413
#     4  12  31  46  66 105 149 186 225 282 356 416
#     4  12  24  44  72 103 137 179 232 289 346 412
#     4  11  25  47  71 100 141 180 233 288 338 415
#     4  11  23  46  75 100 130 181 246 286 332 409
#     4  11  25  45  72 105 133 180 233 287 346 403
#
# _framework density 10.582011
#
# number of rings (size 3 to 8) (size 9 to 14) (size 15 to 20)
#    0.000    0.444    4.444    3.333    9.333    2.667 
#    0.000    1.667    0.000    0.000    0.000    0.000 
#    0.000    0.000    0.000    0.000    0.000    0.000 
#
# Total GULP energy -100432.300857 kJ/mol
# GULP energy per Si atom -5579.572270 kJ/mol
# Density = 1.055793 g / cm^3
# Si number density = 10.582011 Si / 1000 Ang^3
#
#
#
# Elastic Constant Matrix: (Units=GPa)
#
#
# Indices 1 2 3 4 5 6 
#
# 1 154.8506 24.9508 46.0760 0.0000 -0.2487 0.0000
# 2 24.9508 54.8975 -0.8510 0.0000 -1.6246 0.0000
# 3 46.0760 -0.8510 127.3786 0.0000 5.1623 0.0000
# 4 0.0000 0.0000 0.0000 37.8893 0.0000 5.1497
# 5 -0.2487 -1.6246 5.1623 0.0000 50.2554 0.0000
# 6 0.0000 0.0000 0.0000 5.1497 0.0000 21.1425
#
#
#
# Elastic Compliance Matrix: (Units=1/GPa)
#
#
# Indices 1 2 3 4 5 6 
#
# 1 0.007904 -0.003631 -0.002892 0.000000 0.000219 0.000000
# 2 -0.003631 0.019902 0.001427 0.000000 0.000479 0.000000
# 3 -0.002892 0.001427 0.008942 0.000000 -0.000887 0.000000
# 4 0.000000 0.000000 0.000000 0.027296 0.000000 -0.006649
# 5 0.000219 0.000479 -0.000887 0.000000 0.020006 0.000000
# 6 0.000000 0.000000 0.000000 -0.006649 0.000000 0.048917
#
#
# Mechanical properties :
#
#
# Convention : Reuss Voigt Hill
#
# Bulk Modulus (GPa) = 37.65570 53.05315 45.35443
# Shear Modulus (GPa) = 32.89220 39.65418 36.27319
#
# Velocity S-wave (km/s) = 3.94656 4.33328 4.14443
# Velocity P-wave (km/s) = 6.21273 7.08226 6.66170
#
# Compressibility (1/GPa) = 0.02655640
#
# Stress axis : x y z
#
# Youngs Moduli (GPa) = 126.52268 50.24582 111.82902
#
# Poissons Ratio (x) = 0.18242 0.32342
# Poissons Ratio (y) = 0.45935 -0.15956
# Poissons Ratio (z) = 0.36592 -0.07169
#
# Static dielectric constant tensor:
#      x y z
#    x 1.745100 0.000000 -0.002760 
#    y 0.000000 1.660050 0.000000 
#    z -0.002760 0.000000 1.690260 
# 
# From -- ./inp_files/82106.got.cif
#   From: 2010.05.17/outbox.ucp.g08.bks.cvg/sg12_42_cif.got.tgz:82106.got - 2010.06.11 11:47:21.
