data_PCOD9225593
_publ_section_title
;
Structure prediction by ZEFSAII (Michael W. Deem and Ramdas Pophale) SiO2 
 PCOD9225593
Probable space group: C 2/M
;
_chemical_formula_sum "Si O2"
_cell_formula_units_Z 32
_cell_length_a 18.000000
_cell_length_b 21.000000
_cell_length_c 18.000000
_cell_angle_alpha 90.000000
_cell_angle_beta 30.000000
_cell_angle_gamma 90.000000
_cell_volume 3402.000000
_symmetry_space_group_name_H-M "C 2/M"
_symmetry_group_IT_number 12
_symmetry_cell_setting 'monoclinic'
loop_
_space_group_symop_operation_xyz
x,y,z
-x,y,-z
-x,-y,-z
x,-y,z
1/2+x,1/2+y,z
1/2-x,1/2+y,-z
1/2-x,1/2-y,-z
1/2+x,1/2-y,z
loop_
_atom_site_type_symbol
_atom_site_label
_atom_site_fract_x
_atom_site_fract_y
_atom_site_fract_z
Si Si1 0.548275 0.182381 0.145027
Si Si2 0.895293 0.576028 0.376724
Si Si3 0.921275 0.778866 0.641686
Si Si4 0.062161 0.632205 0.365804
Si Si5 0.396075 0.316738 0.822772
Si Si6 0.614313 0.258879 0.838313
Si Si7 0.333472 0.432152 0.171509
Si Si8 0.642894 0.373093 0.698414
O O1 0.464549 0.121894 0.253221
O O2 0.557787 0.245061 0.190537
O O3 0.468179 0.205798 0.139680
O O4 0.721726 0.170813 0.979830
O O5 0.878047 0.500000 0.375642
O O6 0.748760 0.610556 0.537721
O O7 0.004177 0.587185 0.352152
O O8 0.977350 0.706360 0.609618
O O9 0.941512 0.819783 0.697541
O O10 0.751470 0.769542 0.764637
O O11 0.000000 0.803718 0.500000
O O12 0.237691 0.623374 0.218475
O O13 0.000000 0.612539 0.500000
O O14 0.481640 0.363534 0.803609
O O15 0.667177 0.310278 0.729824
O O16 0.500000 0.283812 0.000000
O O17 0.265900 0.500000 0.208747
O O18 0.336608 0.426499 0.257477
O O19 0.500000 0.429970 0.000000
#
# Coordination Sequence:
#
# PCOD9225593 Si02
#       8
#     8   8   8   8   8   8   8   8
#     4  10  23  39  59  90 120 160 202 247 305 362
#     4  12  25  41  60  84 122 170 213 247 289 350
#     4  11  21  35  59  92 120 153 189 239 307 368
#     4  11  21  37  56  82 118 158 201 235 277 349
#     4  10  22  38  59  88 127 151 192 253 309 369
#     4  11  21  37  62  89 121 154 195 249 308 369
#     4  11  23  35  51  78 114 158 202 236 278 342
#     4  11  23  36  57  85 121 159 193 246 300 356
#
# _framework density 9.4062319999999993
#
# number of rings (size 3 to 8) (size 9 to 14) (size 15 to 20)
#    0.000    1.125    5.000    1.875    3.500    1.500 
#    0.000    0.625    0.000    0.375    0.000    0.875 
#    0.000    0.000    0.000    0.000    0.000    0.000 
#
# Total GULP energy -178353.949244 kJ/mol
# GULP energy per Si atom -5573.560914 kJ/mol
# Density = 0.938482 g / cm^3
# Si number density = 9.406232 Si / 1000 Ang^3
#
#
#
# Elastic Constant Matrix: (Units=GPa)
#
#
# Indices 1 2 3 4 5 6 
#
# 1 50.7683 10.9821 9.9757 -0.0049 -3.6798 0.0029
# 2 10.9821 59.0991 20.5741 -0.0097 2.6395 0.0076
# 3 9.9757 20.5741 74.6577 -0.0075 3.8079 0.0060
# 4 -0.0049 -0.0097 -0.0075 56.2443 0.0081 -23.9496
# 5 -3.6798 2.6395 3.8079 0.0081 32.0944 -0.0060
# 6 0.0029 0.0076 0.0060 -23.9496 -0.0060 45.7464
#
#
#
# Elastic Compliance Matrix: (Units=1/GPa)
#
#
# Indices 1 2 3 4 5 6 
#
# 1 0.021031 -0.003328 -0.002042 0.000001 0.002927 0.000000
# 2 -0.003328 0.019271 -0.004795 0.000002 -0.001398 -0.000001
# 3 -0.002042 -0.004795 0.015072 0.000001 -0.001628 -0.000001
# 4 0.000001 0.000002 0.000001 0.022880 -0.000004 0.011978
# 5 0.002927 -0.001398 -0.001628 -0.000004 0.031802 0.000002
# 6 0.000000 -0.000001 -0.000001 0.011978 0.000002 0.028131
#
#
# Mechanical properties :
#
#
# Convention : Reuss Voigt Hill
#
# Bulk Modulus (GPa) = 28.53594 29.73209 29.13402
# Shear Modulus (GPa) = 29.37780 36.34989 32.86385
#
# Velocity S-wave (km/s) = 3.95601 4.40048 4.18415
# Velocity P-wave (km/s) = 6.00569 6.45428 6.23402
#
# Compressibility (1/GPa) = 0.03504353
#
# Stress axis : x y z
#
# Youngs Moduli (GPa) = 47.54964 51.89226 66.34951
#
# Poissons Ratio (x) = 0.17268 0.13551
# Poissons Ratio (y) = 0.15823 0.31812
# Poissons Ratio (z) = 0.09711 0.24881
#
# Static dielectric constant tensor:
#      x y z
#    x 1.699290 0.000000 -0.030710 
#    y 0.000000 1.647950 0.000000 
#    z -0.030710 0.000000 1.720030 
# 
# From -- ./inp_files/279106.got.cif
#   From: 2010.05.17/outbox.ucp.g08.bks.cvg/sg12_140_cif.got.tgz:279106.got - 2010.06.11 11:47:21.
