data_PCOD9225127
_publ_section_title
;
Structure prediction by ZEFSAII (Michael W. Deem and Ramdas Pophale) SiO2 
 PCOD9225127
Probable space group: C 2/M
;
_chemical_formula_sum "Si O2"
_cell_formula_units_Z 24
_cell_length_a 15.000000
_cell_length_b 24.000000
_cell_length_c 15.000000
_cell_angle_alpha 90.000000
_cell_angle_beta 30.000000
_cell_angle_gamma 90.000000
_cell_volume 2700.000000
_symmetry_space_group_name_H-M "C 2/M"
_symmetry_group_IT_number 12
_symmetry_cell_setting 'monoclinic'
loop_
_space_group_symop_operation_xyz
x,y,z
-x,y,-z
-x,-y,-z
x,-y,z
1/2+x,1/2+y,z
1/2-x,1/2+y,-z
1/2-x,1/2-y,-z
1/2+x,1/2-y,z
loop_
_atom_site_type_symbol
_atom_site_label
_atom_site_fract_x
_atom_site_fract_y
_atom_site_fract_z
Si Si1 0.335597 0.432731 0.889519
Si Si2 0.789181 0.743312 0.299235
Si Si3 0.890978 0.178609 0.921620
Si Si4 0.889982 0.934066 0.511627
Si Si5 0.474351 0.125800 0.129743
Si Si6 0.100973 0.753452 0.268902
O O1 0.317380 0.500000 0.923451
O O2 0.391493 0.388668 0.918041
O O3 0.488341 0.427140 0.681008
O O4 0.149755 0.405138 0.016123
O O5 0.917581 0.689360 0.204627
O O6 0.609984 0.750025 0.517442
O O7 0.709291 0.735985 0.267826
O O8 0.928825 0.794325 0.192035
O O9 0.887437 0.200821 0.820950
O O10 0.713852 0.202280 0.125807
O O11 0.696517 0.907344 0.684829
O O12 0.000000 0.909976 0.500000
O O13 0.867217 0.000000 0.545142
O O14 0.500000 0.123870 0.000000
#
# Coordination Sequence:
#
# PCOD9225127 Si02
#       6
#     8   8   8   8   8   8
#     4  11  24  38  54  80 113 154 199 241 287 340
#     4  11  23  37  60  89 117 153 189 236 294 355
#     4  11  21  39  59  84 118 153 191 240 289 346
#     4  10  21  35  51  75 113 158 199 234 273 332
#     4  12  21  32  55  83 115 152 187 234 282 345
#     4  10  22  38  60  89 118 149 190 234 293 352
#
# _framework density 8.8888890000000007
#
# number of rings (size 3 to 8) (size 9 to 14) (size 15 to 20)
#    0.000    1.167    1.667    6.500    2.333    2.000 
#    0.000    0.000    0.000    2.000    0.000    2.333 
#    0.000    0.000    0.000    0.000    0.000    0.000 
#
# Total GULP energy -133862.233662 kJ/mol
# GULP energy per Si atom -5577.593069 kJ/mol
# Density = 0.886866 g / cm^3
# Si number density = 8.888889 Si / 1000 Ang^3
#
#
#
# Elastic Constant Matrix: (Units=GPa)
#
#
# Indices 1 2 3 4 5 6 
#
# 1 60.3031 24.1901 22.8399 0.0284 -11.8186 -0.0089
# 2 24.1901 126.1301 50.5929 0.0244 -11.7580 -0.0174
# 3 22.8399 50.5929 145.8408 0.0544 -13.3500 -0.0286
# 4 0.0284 0.0244 0.0544 35.3353 -0.0441 -0.7621
# 5 -11.8186 -11.7580 -13.3500 -0.0441 36.6499 0.0171
# 6 -0.0089 -0.0174 -0.0286 -0.7621 0.0171 23.5939
#
#
#
# Elastic Compliance Matrix: (Units=1/GPa)
#
#
# Indices 1 2 3 4 5 6 
#
# 1 0.019178 -0.002561 -0.001680 -0.000005 0.004751 0.000000
# 2 -0.002561 0.009675 -0.002841 0.000001 0.001243 0.000002
# 3 -0.001680 -0.002841 0.008248 -0.000007 0.001551 0.000006
# 4 -0.000005 0.000001 -0.000007 0.028320 0.000030 0.000915
# 5 0.004751 0.001243 0.001551 0.000030 0.029781 -0.000016
# 6 0.000000 0.000002 0.000006 0.000915 -0.000016 0.042413
#
#
# Mechanical properties :
#
#
# Convention : Reuss Voigt Hill
#
# Bulk Modulus (GPa) = 43.60161 58.61330 51.10746
# Shear Modulus (GPa) = 31.36265 34.75923 33.06094
#
# Velocity S-wave (km/s) = 4.20473 4.42657 4.31708
# Velocity P-wave (km/s) = 6.93918 7.69205 7.32529
#
# Compressibility (1/GPa) = 0.02293494
#
# Stress axis : x y z
#
# Youngs Moduli (GPa) = 52.14393 103.35725 121.24764
#
# Poissons Ratio (x) = 0.26473 0.20370
# Poissons Ratio (y) = 0.13356 0.34452
# Poissons Ratio (z) = 0.08760 0.29369
#
# Static dielectric constant tensor:
#      x y z
#    x 1.649180 -0.000010 -0.014790 
#    y -0.000010 1.642250 0.000020 
#    z -0.014790 0.000020 1.613790 
# 
# From -- ./inp_files/218407.got.cif
#   From: 2010.05.17/outbox.ucp.g08.bks.cvg/sg12_110_cif.got.tgz:218407.got - 2010.06.11 11:47:21.
