data_PCOD9225849
_publ_section_title
;
Structure prediction by ZEFSAII (Michael W. Deem and Ramdas Pophale) SiO2 
 PCOD9225849
Probable space group: C 2/M
;
_chemical_formula_sum "Si O2"
_cell_formula_units_Z 28
_cell_length_a 18.000000
_cell_length_b 9.000000
_cell_length_c 21.000000
_cell_angle_alpha 90.000000
_cell_angle_beta 120.000000
_cell_angle_gamma 90.000000
_cell_volume 2946.218424
_symmetry_space_group_name_H-M "C 2/M"
_symmetry_group_IT_number 12
_symmetry_cell_setting 'monoclinic'
loop_
_space_group_symop_operation_xyz
x,y,z
-x,y,-z
-x,-y,-z
x,-y,z
1/2+x,1/2+y,z
1/2-x,1/2+y,-z
1/2-x,1/2-y,-z
1/2+x,1/2-y,z
loop_
_atom_site_type_symbol
_atom_site_label
_atom_site_fract_x
_atom_site_fract_y
_atom_site_fract_z
Si Si1 0.674806 0.174868 0.148596
Si Si2 0.502068 0.678274 0.884819
Si Si3 0.689000 0.331959 0.561805
Si Si4 0.758656 0.832447 0.705398
Si Si5 0.685944 0.323220 0.021724
Si Si6 0.381745 0.832012 0.583254
Si Si7 0.951262 0.168708 0.727450
O O1 0.579344 0.234598 0.123443
O O2 0.734128 0.221392 0.232966
O O3 0.704087 0.258133 0.098366
O O4 0.673588 0.000000 0.139108
O O5 0.484973 0.500000 0.882235
O O6 0.509292 0.712480 0.812500
O O7 0.588252 0.712397 0.959382
O O8 0.670201 0.500000 0.572865
O O9 0.694489 0.223573 0.624015
O O10 0.625727 0.274465 0.480339
O O11 0.785551 0.331439 0.572906
O O12 0.854315 0.833147 0.715025
O O13 0.740698 0.000000 0.718564
O O14 0.694221 0.500000 0.024689
O O15 0.750000 0.250000 0.000000
O O16 0.446069 0.774298 0.664763
O O17 0.400505 0.000000 0.572196
O O18 0.971688 0.000000 0.716977
#
# Coordination Sequence:
#
# PCOD9225849 Si02
#       7
#     8   8   8   8   8   8   8
#     4  11  21  33  52  77 102 130 167 207 247 296
#     4   9  19  35  54  74  99 132 167 205 250 298
#     4   9  15  22  33  52  81 118 157 195 235 282
#     4   9  16  27  42  61  88 122 159 199 242 287
#     4  11  23  39  56  75 101 131 164 204 252 302
#     4   9  15  21  31  51  81 118 155 191 234 282
#     4   8  14  25  40  59  84 117 156 195 236 283
#
# _framework density 9.5037079999999996
#
# number of rings (size 3 to 8) (size 9 to 14) (size 15 to 20)
#    0.000    2.571    0.000    4.286    0.000    9.714 
#    0.000    0.000    0.000    0.000    0.000    0.000 
#    0.000    1.143    0.000   12.286    0.000   15.143 
#
# Total GULP energy -156138.237792 kJ/mol
# GULP energy per Si atom -5576.365635 kJ/mol
# Density = 0.948208 g / cm^3
# Si number density = 9.503708 Si / 1000 Ang^3
#
#
#
# Elastic Constant Matrix: (Units=GPa)
#
#
# Indices 1 2 3 4 5 6 
#
# 1 12.5052 12.4453 5.5745 0.0000 -12.2803 0.0000
# 2 12.4453 50.0690 11.9338 0.0000 -6.2641 0.0000
# 3 5.5745 11.9338 58.7825 0.0000 -18.5600 0.0000
# 4 0.0000 0.0000 0.0000 31.0927 0.0000 -5.9996
# 5 -12.2803 -6.2641 -18.5600 0.0000 1.2918 0.0000
# 6 0.0000 0.0000 0.0000 -5.9996 0.0000 13.5920
#
#
#
# Elastic Compliance Matrix: (Units=1/GPa)
#
#
# Indices 1 2 3 4 5 6 
#
# 1 0.033043 -0.011503 -0.022840 0.000000 -0.069808 0.000000
# 2 -0.011503 0.024409 0.000289 0.000000 0.013154 0.000000
# 3 -0.022840 0.000289 0.013854 0.000000 -0.016677 0.000000
# 4 0.000000 0.000000 0.000000 0.035156 0.000000 0.015518
# 5 -0.069808 0.013154 -0.016677 0.000000 -0.065327 0.000000
# 6 0.000000 0.000000 0.000000 0.015518 0.000000 0.080422
#
#
# Mechanical properties :
#
#
# Convention : Reuss Voigt Hill
#
# Bulk Modulus (GPa) = 312.77718 20.14044 166.45881
# Shear Modulus (GPa) = 26.21493 15.28886 20.75190
#
# Velocity S-wave (km/s) = 3.71778 2.83921 3.30779
# Velocity P-wave (km/s) = 13.54038 4.62247 10.11704
#
# Compressibility (1/GPa) = 0.00319716
#
# Stress axis : x y z
#
# Youngs Moduli (GPa) = 30.26351 40.96929 72.18299
#
# Poissons Ratio (x) = 0.47128 1.64863
# Poissons Ratio (y) = 0.34813 -0.02084
# Poissons Ratio (z) = 0.69121 -0.01183
#
# Static dielectric constant tensor:
#      x y z
#    x 1.452150 0.000000 0.094180 
#    y 0.000000 1.631910 0.000000 
#    z 0.094180 0.000000 1.606240 
# 
# From -- ./inp_files/314432.got.cif
#   From: 2010.05.17/outbox.ucp.g08.bks.cvg/sg12_158_cif.got.tgz:314432.got - 2010.06.11 11:47:21.
