data_PCOD9225946
_publ_section_title
;
Structure prediction by ZEFSAII (Michael W. Deem and Ramdas Pophale) SiO2 
 PCOD9225946
Probable space group: C 2/M
;
_chemical_formula_sum "Si O2"
_cell_formula_units_Z 24
_cell_length_a 15.000000
_cell_length_b 9.000000
_cell_length_c 18.000000
_cell_angle_alpha 90.000000
_cell_angle_beta 90.000000
_cell_angle_gamma 90.000000
_cell_volume 2430.000000
_symmetry_space_group_name_H-M "C 2/M"
_symmetry_group_IT_number 12
_symmetry_cell_setting 'monoclinic'
loop_
_space_group_symop_operation_xyz
x,y,z
-x,y,-z
-x,-y,-z
x,-y,z
1/2+x,1/2+y,z
1/2-x,1/2+y,-z
1/2-x,1/2-y,-z
1/2+x,1/2-y,z
loop_
_atom_site_type_symbol
_atom_site_label
_atom_site_fract_x
_atom_site_fract_y
_atom_site_fract_z
Si Si1 0.959192 0.173980 0.417959
Si Si2 0.304764 0.178664 0.343293
Si Si3 0.781404 0.819856 0.922480
Si Si4 0.885279 0.325112 0.676092
Si Si5 0.446493 0.176063 0.846432
Si Si6 0.635866 0.680237 0.812042
O O1 0.865973 0.260361 0.409910
O O2 0.000000 0.181812 0.500000
O O3 0.030191 0.252444 0.364025
O O4 0.947501 0.000000 0.398191
O O5 0.203816 0.237303 0.346233
O O6 0.348030 0.254763 0.270244
O O7 0.307882 0.000000 0.338235
O O8 0.879451 0.758783 0.902038
O O9 0.713778 0.751633 0.861803
O O10 0.779094 0.000000 0.922697
O O11 0.750000 0.750000 0.000000
O O12 0.877295 0.500000 0.657570
O O13 0.901941 0.314585 0.764501
O O14 0.541300 0.258511 0.841403
O O15 0.456971 0.000000 0.863973
O O16 0.639483 0.500000 0.812375
#
# Coordination Sequence:
#
# PCOD9225946 Si02
#       6
#     8   8   8   8   8   8
#     4  11  25  44  66  95 132 171 214 268 327 384
#     4  12  24  40  66  97 129 170 217 266 321 383
#     4  12  26  45  68  97 134 173 214 267 325 383
#     4  11  23  40  67  97 129 169 217 267 319 381
#     4  11  23  41  67  99 130 169 218 267 318 382
#     4  12  24  41  67  98 131 170 217 267 319 383
#
# _framework density 9.8765429999999999
#
# number of rings (size 3 to 8) (size 9 to 14) (size 15 to 20)
#    0.000    0.500    3.333    6.000    0.000    4.000 
#    0.000    3.333    0.000    0.000    0.000    0.000 
#    0.000    0.000    0.000    0.000    0.000    0.000 
#
# Total GULP energy -134333.663003 kJ/mol
# GULP energy per Si atom -5597.235958 kJ/mol
# Density = 0.985406 g / cm^3
# Si number density = 9.876543 Si / 1000 Ang^3
#
#
#
# Elastic Constant Matrix: (Units=GPa)
#
#
# Indices 1 2 3 4 5 6 
#
# 1 90.1292 24.8750 -24.0757 0.0000 -1.5676 0.0000
# 2 24.8750 196.4910 9.4990 0.0000 -3.3561 0.0000
# 3 -24.0757 9.4990 25.6578 0.0000 1.1866 0.0000
# 4 0.0000 0.0000 0.0000 29.9634 0.0000 1.4725
# 5 -1.5676 -3.3561 1.1866 0.0000 18.7547 0.0000
# 6 0.0000 0.0000 0.0000 1.4725 0.0000 40.2947
#
#
#
# Elastic Compliance Matrix: (Units=1/GPa)
#
#
# Indices 1 2 3 4 5 6 
#
# 1 0.016229 -0.002845 0.016290 0.000000 -0.000183 0.000000
# 2 -0.002845 0.005702 -0.004831 0.000000 0.001088 0.000000
# 3 0.016290 -0.004831 0.056190 0.000000 -0.003058 0.000000
# 4 0.000000 0.000000 0.000000 0.033434 0.000000 -0.001222
# 5 -0.000183 0.001088 -0.003058 0.000000 0.053693 0.000000
# 6 0.000000 0.000000 0.000000 -0.001222 0.000000 0.024862
#
#
# Mechanical properties :
#
#
# Convention : Reuss Voigt Hill
#
# Bulk Modulus (GPa) = 10.48798 36.98609 23.73704
# Shear Modulus (GPa) = 24.43037 37.93455 31.18246
#
# Velocity S-wave (km/s) = 3.52061 4.38703 3.97749
# Velocity P-wave (km/s) = 4.67412 6.66530 5.75646
#
# Compressibility (1/GPa) = 0.09534723
#
# Stress axis : x y z
#
# Youngs Moduli (GPa) = 61.61963 175.38950 17.79690
#
# Poissons Ratio (x) = 0.49900 -0.28991
# Poissons Ratio (y) = 0.17531 0.08597
# Poissons Ratio (z) = -1.00376 0.84728
#
# Static dielectric constant tensor:
#      x y z
#    x 1.688840 0.000000 0.022330 
#    y 0.000000 1.652740 0.000000 
#    z 0.022330 0.000000 1.721410 
# 
# From -- ./inp_files/267646.got.cif
#   From: 2010.05.17/outbox.ucp.g08.bks.cvg/sg12_134_cif.got.tgz:267646.got - 2010.06.11 11:47:21.
