data_PCOD9225910
_publ_section_title
;
Structure prediction by ZEFSAII (Michael W. Deem and Ramdas Pophale) SiO2 
 PCOD9225910
Probable space group: C 2/M
;
_chemical_formula_sum "Si O2"
_cell_formula_units_Z 20
_cell_length_a 18.000000
_cell_length_b 12.000000
_cell_length_c 30.000000
_cell_angle_alpha 90.000000
_cell_angle_beta 160.000000
_cell_angle_gamma 90.000000
_cell_volume 2216.290529
_symmetry_space_group_name_H-M "C 2/M"
_symmetry_group_IT_number 12
_symmetry_cell_setting 'monoclinic'
loop_
_space_group_symop_operation_xyz
x,y,z
-x,y,-z
-x,-y,-z
x,-y,z
1/2+x,1/2+y,z
1/2-x,1/2+y,-z
1/2-x,1/2-y,-z
1/2+x,1/2-y,z
loop_
_atom_site_type_symbol
_atom_site_label
_atom_site_fract_x
_atom_site_fract_y
_atom_site_fract_z
Si Si1 0.772824 0.774222 0.249130
Si Si2 0.363312 0.500000 0.353742
Si Si3 0.511675 0.240221 0.288329
Si Si4 0.369590 0.869731 0.973422
Si Si5 0.532713 0.866340 0.465192
Si Si6 0.155910 0.500000 0.333130
O O1 0.902834 0.745866 0.276454
O O2 0.842200 0.683952 0.326019
O O3 0.839162 0.891745 0.309027
O O4 0.522363 0.797218 0.092773
O O5 0.196851 0.500000 0.302362
O O6 0.603070 0.500000 0.509884
O O7 0.355576 0.309358 0.166476
O O8 0.745123 0.301667 0.422143
O O9 0.543073 0.113965 0.287416
O O10 0.342725 0.000000 0.972796
O O11 0.500000 0.874059 0.000000
O O12 0.500000 0.846031 0.500000
O O13 0.551493 0.000000 0.469247
#
# Coordination Sequence:
#
# PCOD9225910 Si02
#       6
#     8   4   8   8   8   4
#     4  11  22  38  67  92 116 161 214 253 298 370
#     4  11  22  40  65  88 124 165 206 257 308 370
#     4  11  23  38  65  91 122 162 208 256 303 369
#     4   9  19  38  61  91 122 158 207 258 304 361
#     4  11  24  40  59  88 129 161 196 255 315 364
#     4  11  24  40  59  92 132 159 202 261 318 358
#
# _framework density 9.0240880000000008
#
# number of rings (size 3 to 8) (size 9 to 14) (size 15 to 20)
#    0.000    1.400    3.000    2.400    4.200    0.000 
#    1.800    5.500    0.000    0.000    0.000    0.000 
#    0.000    0.000    0.000    0.000    0.000    0.000 
#
# Total GULP energy -111624.234328 kJ/mol
# GULP energy per Si atom -5581.211716 kJ/mol
# Density = 0.900355 g / cm^3
# Si number density = 9.024088 Si / 1000 Ang^3
#
#
#
# Elastic Constant Matrix: (Units=GPa)
#
#
# Indices 1 2 3 4 5 6 
#
# 1 97.1892 48.6607 21.3140 0.0021 -13.1861 -0.0007
# 2 48.6607 147.8334 42.5891 0.0065 -6.6538 -0.0010
# 3 21.3140 42.5891 110.7671 0.0294 -27.7649 -0.0098
# 4 0.0021 0.0065 0.0294 36.6514 -0.0062 -8.0115
# 5 -13.1861 -6.6538 -27.7649 -0.0062 25.3411 0.0008
# 6 -0.0007 -0.0010 -0.0098 -8.0115 0.0008 30.1911
#
#
#
# Elastic Compliance Matrix: (Units=1/GPa)
#
#
# Indices 1 2 3 4 5 6 
#
# 1 0.013138 -0.004244 0.000742 0.000001 0.006535 0.000000
# 2 -0.004244 0.009029 -0.003604 0.000001 -0.003786 -0.000001
# 3 0.000742 -0.003604 0.013966 -0.000008 0.014742 0.000002
# 4 0.000001 0.000001 -0.000008 0.028964 -0.000001 0.007686
# 5 0.006535 -0.003786 0.014742 -0.000001 0.058019 0.000003
# 6 0.000000 -0.000001 0.000002 0.007686 0.000003 0.035162
#
#
# Mechanical properties :
#
#
# Convention : Reuss Voigt Hill
#
# Bulk Modulus (GPa) = 45.61952 64.54636 55.08294
# Shear Modulus (GPa) = 27.80893 34.65177 31.23035
#
# Velocity S-wave (km/s) = 3.92958 4.38649 4.16431
# Velocity P-wave (km/s) = 6.77645 7.84194 7.32858
#
# Compressibility (1/GPa) = 0.02192044
#
# Stress axis : x y z
#
# Youngs Moduli (GPa) = 76.11474 110.75128 71.60204
#
# Poissons Ratio (x) = 0.47004 -0.05311
# Poissons Ratio (y) = 0.32304 0.25806
# Poissons Ratio (z) = -0.05646 0.39916
#
# Static dielectric constant tensor:
#      x y z
#    x 1.618400 0.000000 -0.005390 
#    y 0.000000 1.613200 0.000000 
#    z -0.005390 0.000000 1.625350 
# 
# From -- ./inp_files/378987.got.cif
#   From: 2010.05.17/outbox.ucp.g08.bks.cvg/sg12_190_cif.got.tgz:378987.got - 2010.06.11 11:47:21.
