data_PCOD9225448
_publ_section_title
;
Structure prediction by ZEFSAII (Michael W. Deem and Ramdas Pophale) SiO2 
 PCOD9225448
Probable space group: C 2/M
;
_chemical_formula_sum "Si O2"
_cell_formula_units_Z 24
_cell_length_a 9.000000
_cell_length_b 15.000000
_cell_length_c 18.000000
_cell_angle_alpha 90.000000
_cell_angle_beta 90.000000
_cell_angle_gamma 90.000000
_cell_volume 2430.000000
_symmetry_space_group_name_H-M "C 2/M"
_symmetry_group_IT_number 12
_symmetry_cell_setting 'monoclinic'
loop_
_space_group_symop_operation_xyz
x,y,z
-x,y,-z
-x,-y,-z
x,-y,z
1/2+x,1/2+y,z
1/2-x,1/2+y,-z
1/2-x,1/2-y,-z
1/2+x,1/2-y,z
loop_
_atom_site_type_symbol
_atom_site_label
_atom_site_fract_x
_atom_site_fract_y
_atom_site_fract_z
Si Si1 0.127329 0.151092 0.147190
Si Si2 0.170450 0.000000 0.034813
Si Si3 0.471093 0.650982 0.301369
Si Si4 0.556719 0.500000 0.582387
Si Si5 0.087613 0.500000 0.422094
Si Si6 0.888368 0.344278 0.691520
Si Si7 0.128835 0.500000 0.059920
Si Si8 0.013674 0.655633 0.849408
O O1 0.112738 0.085313 0.077335
O O2 0.050669 0.246228 0.134855
O O3 0.307091 0.158842 0.153590
O O4 0.048929 0.119330 0.224193
O O5 0.354191 0.000000 0.030724
O O6 0.186340 0.000000 0.945478
O O7 0.494651 0.583765 0.368873
O O8 0.290803 0.658846 0.296359
O O9 0.546469 0.745538 0.319475
O O10 0.500000 0.500000 0.500000
O O11 0.734109 0.500000 0.572266
O O12 0.061033 0.411221 0.373092
O O13 0.000000 0.500000 0.500000
O O14 0.959825 0.375490 0.768509
O O15 0.070645 0.589421 0.095353
#
# Coordination Sequence:
#
# PCOD9225448 Si02
#       8
#     8   4   8   4   4   8   4   8
#     4  11  23  42  62  92 116 157 201 246 294 355
#     4  12  29  41  61  87 121 158 201 242 307 355
#     4  10  21  39  62  88 120 152 201 244 288 349
#     4  10  23  39  59  88 121 160 192 239 294 345
#     4  10  23  39  59  88 123 156 196 236 292 353
#     4  10  21  39  62  90 116 157 197 243 293 344
#     4  12  25  45  57  87 123 158 195 248 299 361
#     4  11  23  40  66  87 120 156 200 245 298 350
#
# _framework density 9.8765429999999999
#
# number of rings (size 3 to 8) (size 9 to 14) (size 15 to 20)
#    0.000    1.333    1.667    5.000    4.667    4.667 
#    0.000    3.333    0.000    0.000    0.000    0.000 
#    0.000    0.000    0.000    0.000    0.000    0.000 
#
# Total GULP energy -133602.009445 kJ/mol
# GULP energy per Si atom -5566.750394 kJ/mol
# Density = 0.985406 g / cm^3
# Si number density = 9.876543 Si / 1000 Ang^3
#
#
#
# Elastic Constant Matrix: (Units=GPa)
#
#
# Indices 1 2 3 4 5 6 
#
# 1 121.7055 50.4698 65.4617 0.0000 -23.0285 0.0000
# 2 50.4698 69.6732 48.7361 0.0000 -25.6506 0.0000
# 3 65.4617 48.7361 66.0653 0.0000 -45.5204 0.0000
# 4 0.0000 0.0000 0.0000 45.4657 0.0000 -14.6099
# 5 -23.0285 -25.6506 -45.5204 0.0000 45.1736 0.0000
# 6 0.0000 0.0000 0.0000 -14.6099 0.0000 25.6389
#
#
#
# Elastic Compliance Matrix: (Units=1/GPa)
#
#
# Indices 1 2 3 4 5 6 
#
# 1 0.056267 0.020251 -0.140682 0.000000 -0.101579 0.000000
# 2 0.020251 0.041573 -0.089488 0.000000 -0.056246 0.000000
# 3 -0.140682 -0.089488 0.445294 0.000000 0.326182 0.000000
# 4 0.000000 0.000000 0.000000 0.026925 0.000000 0.015343
# 5 -0.101579 -0.056246 0.326182 0.000000 0.267102 0.000000
# 6 0.000000 0.000000 0.000000 0.015343 0.000000 0.047746
#
#
# Mechanical properties :
#
#
# Convention : Reuss Voigt Hill
#
# Bulk Modulus (GPa) = 8.11062 65.19770 36.65416
# Shear Modulus (GPa) = 3.71514 29.44074 16.57794
#
# Velocity S-wave (km/s) = 1.37291 3.86481 2.90014
# Velocity P-wave (km/s) = 2.57451 7.27967 5.45993
#
# Compressibility (1/GPa) = 0.12329512
#
# Stress axis : x y z
#
# Youngs Moduli (GPa) = 17.77238 24.05411 2.24571
#
# Poissons Ratio (x) = -0.48711 0.31593
# Poissons Ratio (y) = -0.35990 0.20096
# Poissons Ratio (z) = 2.50025 2.15255
#
# Static dielectric constant tensor:
#      x y z
#    x 1.724900 0.000000 0.071340 
#    y 0.000000 1.678010 0.000000 
#    z 0.071340 0.000000 1.694730 
# 
# From -- ./inp_files/255852.got.cif
#   From: 2010.05.17/outbox.ucp.g08.bks.cvg/sg12_128_cif.got.tgz:255852.got - 2010.06.11 11:47:21.
