data_PCOD9225309
_publ_section_title
;
Structure prediction by ZEFSAII (Michael W. Deem and Ramdas Pophale) SiO2 
 PCOD9225309
Probable space group: C 2/M
;
_chemical_formula_sum "Si O2"
_cell_formula_units_Z 32
_cell_length_a 24.000000
_cell_length_b 18.000000
_cell_length_c 15.000000
_cell_angle_alpha 90.000000
_cell_angle_beta 30.000000
_cell_angle_gamma 90.000000
_cell_volume 3240.000000
_symmetry_space_group_name_H-M "C 2/M"
_symmetry_group_IT_number 12
_symmetry_cell_setting 'monoclinic'
loop_
_space_group_symop_operation_xyz
x,y,z
-x,y,-z
-x,-y,-z
x,-y,z
1/2+x,1/2+y,z
1/2-x,1/2+y,-z
1/2-x,1/2-y,-z
1/2+x,1/2-y,z
loop_
_atom_site_type_symbol
_atom_site_label
_atom_site_fract_x
_atom_site_fract_y
_atom_site_fract_z
Si Si1 0.651796 0.848281 0.720586
Si Si2 0.629522 0.588382 0.667558
Si Si3 0.595040 0.161274 0.157892
Si Si4 0.588986 0.911692 0.991035
Si Si5 0.869379 0.586986 0.539407
Si Si6 0.927017 0.821028 0.899758
Si Si7 0.157622 0.184102 0.786581
Si Si8 0.787141 0.585946 0.848690
O O1 0.747261 0.883395 0.527861
O O2 0.656499 0.887750 0.810393
O O3 0.662324 0.760000 0.722663
O O4 0.530795 0.870520 0.850626
O O5 0.618739 0.500000 0.673719
O O6 0.543671 0.636598 0.728339
O O7 0.605808 0.617708 0.799960
O O8 0.482047 0.117485 0.340628
O O9 0.579646 0.247217 0.151613
O O10 0.671303 0.144595 0.136509
O O11 0.643607 0.118985 0.004596
O O12 0.572166 0.000000 0.015649
O O13 0.847801 0.500000 0.541837
O O14 0.776915 0.648126 0.642847
O O15 0.865170 0.586478 0.652867
O O16 0.903753 0.797787 0.035371
O O17 0.833551 0.883511 0.011590
O O18 0.784545 0.500000 0.884061
#
# Coordination Sequence:
#
# PCOD9225309 Si02
#       8
#     8   8   8   8   8   8   8   8
#     4  11  22  40  58  87 121 153 199 241 295 346
#     4  12  24  38  61  87 119 161 199 236 290 358
#     4  12  21  38  62  90 117 151 203 243 299 352
#     4  11  22  36  60  87 121 156 192 246 295 347
#     4  10  21  37  61  93 123 150 191 248 299 345
#     4  11  24  40  59  87 122 157 197 241 293 350
#     4  11  22  39  60  86 121 157 195 237 293 355
#     4  10  22  40  62  88 120 155 195 246 298 349
#
# _framework density 9.8765429999999999
#
# number of rings (size 3 to 8) (size 9 to 14) (size 15 to 20)
#    0.000    1.000    1.250    7.125    1.750    3.000 
#    0.000    0.000    0.000    0.000    0.000    2.625 
#    0.000    0.000    0.000    0.000    0.000    0.000 
#
# Total GULP energy -178737.232639 kJ/mol
# GULP energy per Si atom -5585.538520 kJ/mol
# Density = 0.985406 g / cm^3
# Si number density = 9.876543 Si / 1000 Ang^3
#
#
#
# Elastic Constant Matrix: (Units=GPa)
#
#
# Indices 1 2 3 4 5 6 
#
# 1 50.1783 19.8080 8.0619 0.0000 15.1693 0.0000
# 2 19.8080 159.1959 15.7608 0.0000 3.6917 0.0000
# 3 8.0619 15.7608 65.3400 0.0000 9.6555 0.0000
# 4 0.0000 0.0000 0.0000 27.2555 0.0000 2.8661
# 5 15.1693 3.6917 9.6555 0.0000 19.8509 0.0000
# 6 0.0000 0.0000 0.0000 2.8661 0.0000 35.1557
#
#
#
# Elastic Compliance Matrix: (Units=1/GPa)
#
#
# Indices 1 2 3 4 5 6 
#
# 1 0.027207 -0.002949 0.000372 0.000000 -0.020423 0.000000
# 2 -0.002949 0.006759 -0.001523 0.000000 0.001737 0.000000
# 3 0.000372 -0.001523 0.016836 0.000000 -0.008190 0.000000
# 4 0.000000 0.000000 0.000000 0.037007 0.000000 -0.003017
# 5 -0.020423 0.001737 -0.008190 0.000000 0.069643 0.000000
# 6 0.000000 0.000000 0.000000 -0.003017 0.000000 0.028691
#
#
# Mechanical properties :
#
#
# Convention : Reuss Voigt Hill
#
# Bulk Modulus (GPa) = 23.47213 40.21951 31.84582
# Shear Modulus (GPa) = 23.97581 31.85802 27.91691
#
# Velocity S-wave (km/s) = 3.48771 4.02034 3.76346
# Velocity P-wave (km/s) = 5.30352 6.47736 5.91961
#
# Compressibility (1/GPa) = 0.04260371
#
# Stress axis : x y z
#
# Youngs Moduli (GPa) = 36.75497 147.95178 59.39522
#
# Poissons Ratio (x) = 0.43624 -0.02211
# Poissons Ratio (y) = 0.10837 0.09047
# Poissons Ratio (z) = -0.01369 0.22537
#
# Static dielectric constant tensor:
#      x y z
#    x 1.778060 0.000000 -0.006760 
#    y 0.000000 1.649580 0.000000 
#    z -0.006760 0.000000 1.695870 
# 
# From -- ./inp_files/241487.got.cif
#   From: 2010.05.17/outbox.ucp.g08.bks.cvg/sg12_121_cif.got.tgz:241487.got - 2010.06.11 11:47:21.
