data_PCOD9225971
_publ_section_title
;
Structure prediction by ZEFSAII (Michael W. Deem and Ramdas Pophale) SiO2 
 PCOD9225971
Probable space group: C 2/M
;
_chemical_formula_sum "Si O2"
_cell_formula_units_Z 20
_cell_length_a 21.000000
_cell_length_b 15.000000
_cell_length_c 18.000000
_cell_angle_alpha 90.000000
_cell_angle_beta 20.000000
_cell_angle_gamma 90.000000
_cell_volume 1939.254213
_symmetry_space_group_name_H-M "C 2/M"
_symmetry_group_IT_number 12
_symmetry_cell_setting 'monoclinic'
loop_
_space_group_symop_operation_xyz
x,y,z
-x,y,-z
-x,-y,-z
x,-y,z
1/2+x,1/2+y,z
1/2-x,1/2+y,-z
1/2-x,1/2-y,-z
1/2+x,1/2-y,z
loop_
_atom_site_type_symbol
_atom_site_label
_atom_site_fract_x
_atom_site_fract_y
_atom_site_fract_z
Si Si1 0.038703 0.301165 0.144154
Si Si2 0.512536 0.500000 0.223057
Si Si3 0.500000 0.154051 0.500000
Si Si4 0.628305 0.000000 0.250128
Si Si5 0.189030 0.269770 0.749167
Si Si6 0.072298 0.500000 0.690630
Si Si7 0.541975 0.678353 0.283455
O O1 0.983309 0.406238 0.208724
O O2 0.008183 0.255230 0.258357
O O3 0.914523 0.250246 0.217798
O O4 0.264544 0.298621 0.886496
O O5 0.563417 0.587193 0.214884
O O6 0.296114 0.500000 0.439642
O O7 0.650329 0.500000 0.002776
O O8 0.319210 0.204522 0.659314
O O9 0.572034 0.088451 0.356317
O O10 0.527721 0.000000 0.280128
O O11 0.360413 0.331975 0.534194
O O12 0.000000 0.299181 0.000000
#
# Coordination Sequence:
#
# PCOD9225971 Si02
#       7
#     8   4   4   4   8   4   8
#     4  11  24  43  73 102 142 183 249 303 354 420
#     4  12  25  41  75 105 144 176 243 303 358 412
#     4  11  28  46  66 103 156 192 238 279 378 443
#     4  11  26  46  68 106 148 191 228 310 358 440
#     4  12  26  43  68 101 143 192 236 288 355 436
#     4  12  23  43  73 110 136 182 245 304 359 411
#     4  11  24  44  70 107 137 191 242 305 358 418
#
# _framework density 10.313243
#
# number of rings (size 3 to 8) (size 9 to 14) (size 15 to 20)
#    0.000    0.600    4.000    3.000    8.400    0.000 
#    0.000    4.000    0.000    4.800    0.000    0.000 
#    0.000    0.000    0.000    0.000    0.000    0.000 
#
# Total GULP energy -111542.330768 kJ/mol
# GULP energy per Si atom -5577.116538 kJ/mol
# Density = 1.028977 g / cm^3
# Si number density = 10.313243 Si / 1000 Ang^3
#
#
#
# Elastic Constant Matrix: (Units=GPa)
#
#
# Indices 1 2 3 4 5 6 
#
# 1 122.6098 21.4802 30.1170 -0.0130 -33.3797 0.0131
# 2 21.4802 91.9353 14.7197 -0.0253 4.4436 0.0249
# 3 30.1170 14.7197 185.5828 -0.0123 -14.3822 0.0147
# 4 -0.0130 -0.0253 -0.0123 6.0159 0.0084 14.0231
# 5 -33.3797 4.4436 -14.3822 0.0084 49.6419 -0.0089
# 6 0.0131 0.0249 0.0147 14.0231 -0.0089 -3.5860
#
#
#
# Elastic Compliance Matrix: (Units=1/GPa)
#
#
# Indices 1 2 3 4 5 6 
#
# 1 0.010851 -0.002729 -0.000982 0.000000 0.007256 0.000000
# 2 -0.002729 0.011782 -0.000732 -0.000013 -0.003101 0.000026
# 3 -0.000982 -0.000732 0.005687 -0.000002 0.001053 0.000003
# 4 0.000000 -0.000013 -0.000002 0.016433 0.000010 0.064261
# 5 0.007256 -0.003101 0.001053 0.000010 0.025606 -0.000017
# 6 0.000000 0.000026 0.000003 0.064261 -0.000017 -0.027568
#
#
# Mechanical properties :
#
#
# Convention : Reuss Voigt Hill
#
# Bulk Modulus (GPa) = 51.45549 59.19574 55.32562
# Shear Modulus (GPa) = 85.97830 32.66842 59.32336
#
# Velocity S-wave (km/s) = 6.46328 3.98403 5.36872
# Velocity P-wave (km/s) = 8.98327 7.06573 8.08157
#
# Compressibility (1/GPa) = 0.01943427
#
# Stress axis : x y z
#
# Youngs Moduli (GPa) = 92.16119 84.87628 175.82494
#
# Poissons Ratio (x) = 0.23160 0.17268
# Poissons Ratio (y) = 0.25147 0.12871
# Poissons Ratio (z) = 0.09051 0.06213
#
# Static dielectric constant tensor:
#      x y z
#    x 1.760520 0.000000 0.027870 
#    y 0.000000 1.729850 0.000000 
#    z 0.027870 0.000000 1.772780 
# 
# From -- ./inp_files/284458.got.cif
#   From: 2010.05.17/outbox.ucp.g08.bks.cvg/sg12_143_cif.got.tgz:284458.got - 2010.06.11 11:47:21.
