data_PCOD9225041
_publ_section_title
;
Structure prediction by ZEFSAII (Michael W. Deem and Ramdas Pophale) SiO2 
 PCOD9225041
Probable space group: C 2/M
;
_chemical_formula_sum "Si O2"
_cell_formula_units_Z 32
_cell_length_a 9.000000
_cell_length_b 30.000000
_cell_length_c 15.000000
_cell_angle_alpha 90.000000
_cell_angle_beta 130.000000
_cell_angle_gamma 90.000000
_cell_volume 3102.479995
_symmetry_space_group_name_H-M "C 2/M"
_symmetry_group_IT_number 12
_symmetry_cell_setting 'monoclinic'
loop_
_space_group_symop_operation_xyz
x,y,z
-x,y,-z
-x,-y,-z
x,-y,z
1/2+x,1/2+y,z
1/2-x,1/2+y,-z
1/2-x,1/2-y,-z
1/2+x,1/2-y,z
loop_
_atom_site_type_symbol
_atom_site_label
_atom_site_fract_x
_atom_site_fract_y
_atom_site_fract_z
Si Si1 0.495773 0.656086 0.205521
Si Si2 0.909069 0.759140 0.866140
Si Si3 0.364885 0.050615 0.561829
Si Si4 0.140542 0.618319 0.973203
Si Si5 0.493386 0.614288 0.392312
Si Si6 0.940218 0.362019 0.379693
Si Si7 0.464613 0.187456 0.218299
Si Si8 0.869670 0.550344 0.776881
O O1 0.469479 0.703433 0.143847
O O2 0.492864 0.651457 0.313114
O O3 0.717593 0.644860 0.272232
O O4 0.350199 0.621918 0.100326
O O5 0.698370 0.779605 0.805021
O O6 0.903489 0.716713 0.797923
O O7 0.000000 0.750652 0.000000
O O8 0.532395 0.085080 0.602739
O O9 0.392965 0.046982 0.679273
O O10 0.173688 0.079190 0.461316
O O11 0.358197 0.000000 0.524741
O O12 0.130275 0.651339 0.884848
O O13 0.048825 0.572453 0.899494
O O14 0.000000 0.633314 0.000000
O O15 0.500000 0.629055 0.500000
O O16 0.308464 0.584977 0.290698
O O17 0.049701 0.339181 0.337242
O O18 0.000000 0.343117 0.500000
O O19 0.828344 0.500000 0.793586
#
# Coordination Sequence:
#
# PCOD9225041 Si02
#       8
#     8   8   8   8   8   8   8   8
#     4  11  24  40  60  99 129 165 216 268 320 385
#     4  11  23  42  66  98 131 165 216 264 321 389
#     4  10  20  39  67  93 121 169 225 268 311 379
#     4  12  23  39  65  95 131 170 213 261 332 384
#     4  10  20  39  62  92 128 170 214 271 321 368
#     4  11  23  44  66  89 131 170 213 265 329 378
#     4  11  25  42  67  98 127 167 213 273 320 390
#     4  10  21  38  61  93 130 170 213 265 321 385
#
# _framework density 10.314329000000001
#
# number of rings (size 3 to 8) (size 9 to 14) (size 15 to 20)
#    0.000    1.250    5.000    1.125    1.750    2.000 
#    0.000    3.750    0.000    1.500    0.000    0.000 
#    0.000    0.000    0.000    0.000    0.000    0.000 
#
# Total GULP energy -178296.741765 kJ/mol
# GULP energy per Si atom -5571.773180 kJ/mol
# Density = 1.029085 g / cm^3
# Si number density = 10.314329 Si / 1000 Ang^3
#
#
#
# Elastic Constant Matrix: (Units=GPa)
#
#
# Indices 1 2 3 4 5 6 
#
# 1 74.2532 35.9188 35.8591 0.0000 -18.8923 0.0000
# 2 35.9188 75.4257 32.4210 0.0000 -17.2135 0.0000
# 3 35.8591 32.4210 130.4587 0.0000 -16.9234 0.0000
# 4 0.0000 0.0000 0.0000 17.8222 0.0000 6.6530
# 5 -18.8923 -17.2135 -16.9234 0.0000 50.9187 0.0000
# 6 0.0000 0.0000 0.0000 6.6530 0.0000 5.7441
#
#
#
# Elastic Compliance Matrix: (Units=1/GPa)
#
#
# Indices 1 2 3 4 5 6 
#
# 1 0.019302 -0.007010 -0.003074 0.000000 0.003770 0.000000
# 2 -0.007010 0.018196 -0.002231 0.000000 0.002809 0.000000
# 3 -0.003074 -0.002231 0.009216 0.000000 0.001168 0.000000
# 4 0.000000 0.000000 0.000000 0.098849 0.000000 -0.114490
# 5 0.003770 0.002809 0.001168 0.000000 0.022376 0.000000
# 6 0.000000 0.000000 0.000000 -0.114490 0.000000 0.306698
#
#
# Mechanical properties :
#
#
# Convention : Reuss Voigt Hill
#
# Bulk Modulus (GPa) = 45.28110 54.28170 49.78140
# Shear Modulus (GPa) = 9.86914 26.62625 18.24770
#
# Velocity S-wave (km/s) = 2.18965 3.59659 2.97742
# Velocity P-wave (km/s) = 5.32832 6.60440 6.00038
#
# Compressibility (1/GPa) = 0.02208427
#
# Stress axis : x y z
#
# Youngs Moduli (GPa) = 51.80683 54.95598 108.50372
#
# Poissons Ratio (x) = 0.38525 0.33359
# Poissons Ratio (y) = 0.36318 0.24205
# Poissons Ratio (z) = 0.15928 0.12260
#
# Static dielectric constant tensor:
#      x y z
#    x 1.868200 0.000000 -0.019800 
#    y 0.000000 1.786790 0.000000 
#    z -0.019800 0.000000 1.726770 
# 
# From -- ./inp_files/201325.got.cif
#   From: 2010.05.17/outbox.ucp.g08.bks.cvg/sg12_101_cif.got.tgz:201325.got - 2010.06.11 11:47:21.
