data_PCOD9225870
_publ_section_title
;
Structure prediction by ZEFSAII (Michael W. Deem and Ramdas Pophale) SiO2 
 PCOD9225870
Probable space group: C 2/M
;
_chemical_formula_sum "Si O2"
_cell_formula_units_Z 32
_cell_length_a 24.000000
_cell_length_b 21.000000
_cell_length_c 9.000000
_cell_angle_alpha 90.000000
_cell_angle_beta 130.000000
_cell_angle_gamma 90.000000
_cell_volume 3474.777594
_symmetry_space_group_name_H-M "C 2/M"
_symmetry_group_IT_number 12
_symmetry_cell_setting 'monoclinic'
loop_
_space_group_symop_operation_xyz
x,y,z
-x,y,-z
-x,-y,-z
x,-y,z
1/2+x,1/2+y,z
1/2-x,1/2+y,-z
1/2-x,1/2-y,-z
1/2+x,1/2-y,z
loop_
_atom_site_type_symbol
_atom_site_label
_atom_site_fract_x
_atom_site_fract_y
_atom_site_fract_z
Si Si1 0.502948 0.732624 0.829787
Si Si2 0.288539 0.146787 0.797650
Si Si3 0.368504 0.927120 0.155976
Si Si4 0.654038 0.276499 0.946239
Si Si5 0.854196 0.220001 0.424052
Si Si6 0.660171 0.926877 0.396739
Si Si7 0.995746 0.385734 0.815514
Si Si8 0.294779 0.851749 0.284448
O O1 0.577398 0.706800 0.888238
O O2 0.432302 0.706454 0.625530
O O3 0.500354 0.809613 0.804475
O O4 0.500000 0.720514 0.000000
O O5 0.206051 0.168524 0.632133
O O6 0.329173 0.122896 0.719590
O O7 0.301359 0.088209 0.930763
O O8 0.323696 0.209110 0.937942
O O9 0.441178 0.913622 0.182451
O O10 0.351343 0.878116 0.259092
O O11 0.369731 0.000000 0.208434
O O12 0.645140 0.273262 0.753715
O O13 0.720405 0.324801 0.088363
O O14 0.828075 0.290628 0.427631
O O15 0.583613 0.914512 0.348886
O O16 0.718710 0.907669 0.621210
O O17 0.664102 0.000000 0.354138
O O18 0.000000 0.399967 0.000000
#
# Coordination Sequence:
#
# PCOD9225870 Si02
#       8
#     8   8   8   8   8   8   8   8
#     4  11  22  36  60  91 121 157 191 240 306 363
#     4  11  21  37  60  88 116 156 206 246 296 346
#     4  12  22  37  59  83 120 166 204 241 285 348
#     4  11  21  39  62  86 121 153 196 253 305 350
#     4  11  21  38  63  87 120 153 196 253 304 351
#     4  12  25  39  56  85 125 167 204 242 291 349
#     4  11  21  37  54  85 121 160 204 235 283 355
#     4  11  23  39  58  85 118 158 205 251 296 349
#
# _framework density 9.2092220000000005
#
# number of rings (size 3 to 8) (size 9 to 14) (size 15 to 20)
#    0.000    0.750    6.250    3.000    1.750    2.000 
#    0.000    1.250    0.000    0.000    0.000    5.250 
#    0.000    0.000    0.000    0.000    0.000    0.000 
#
# Total GULP energy -178579.040619 kJ/mol
# GULP energy per Si atom -5580.595019 kJ/mol
# Density = 0.918826 g / cm^3
# Si number density = 9.209222 Si / 1000 Ang^3
#
#
#
# Elastic Constant Matrix: (Units=GPa)
#
#
# Indices 1 2 3 4 5 6 
#
# 1 112.4440 50.3262 40.7712 0.0000 18.0307 0.0000
# 2 50.3262 70.0760 28.6800 0.0000 -3.8988 0.0000
# 3 40.7712 28.6800 99.5473 0.0000 10.1710 0.0000
# 4 0.0000 0.0000 0.0000 17.6660 0.0000 -1.4039
# 5 18.0307 -3.8988 10.1710 0.0000 20.5376 0.0000
# 6 0.0000 0.0000 0.0000 -1.4039 0.0000 21.6404
#
#
#
# Elastic Compliance Matrix: (Units=1/GPa)
#
#
# Indices 1 2 3 4 5 6 
#
# 1 0.018472 -0.013503 -0.001850 0.000000 -0.017865 0.000000
# 2 -0.013503 0.026699 -0.004098 0.000000 0.018953 0.000000
# 3 -0.001850 -0.004098 0.012532 0.000000 -0.005360 0.000000
# 4 0.000000 0.000000 0.000000 0.056899 0.000000 0.003691
# 5 -0.017865 0.018953 -0.005360 0.000000 0.070627 0.000000
# 6 0.000000 0.000000 0.000000 0.003691 0.000000 0.046449
#
#
# Mechanical properties :
#
#
# Convention : Reuss Voigt Hill
#
# Bulk Modulus (GPa) = 53.18996 57.95802 55.57399
# Shear Modulus (GPa) = 18.06041 22.78812 20.42427
#
# Velocity S-wave (km/s) = 3.13479 3.52126 3.33363
# Velocity P-wave (km/s) = 6.48412 6.93312 6.71238
#
# Compressibility (1/GPa) = 0.01880054
#
# Stress axis : x y z
#
# Youngs Moduli (GPa) = 54.13531 37.45413 79.79836
#
# Poissons Ratio (x) = 0.50574 0.14764
# Poissons Ratio (y) = 0.73098 0.32704
# Poissons Ratio (z) = 0.10016 0.15350
#
# Static dielectric constant tensor:
#      x y z
#    x 1.635930 0.000000 -0.016240 
#    y 0.000000 1.620230 0.000000 
#    z -0.016240 0.000000 1.734670 
# 
# From -- ./inp_files/99108.got.cif
#   From: 2010.05.17/outbox.ucp.g08.bks.cvg/sg12_50_cif.got.tgz:99108.got - 2010.06.11 11:47:21.
