data_PCOD9225899
_publ_section_title
;
Structure prediction by ZEFSAII (Michael W. Deem and Ramdas Pophale) SiO2 
 PCOD9225899
Probable space group: C 2/M
;
_chemical_formula_sum "Si O2"
_cell_formula_units_Z 29
_cell_length_a 12.000000
_cell_length_b 15.000000
_cell_length_c 18.000000
_cell_angle_alpha 90.000000
_cell_angle_beta 80.000000
_cell_angle_gamma 90.000000
_cell_volume 3190.777120
_symmetry_space_group_name_H-M "C 2/M"
_symmetry_group_IT_number 12
_symmetry_cell_setting 'monoclinic'
loop_
_space_group_symop_operation_xyz
x,y,z
-x,y,-z
-x,-y,-z
x,-y,z
1/2+x,1/2+y,z
1/2-x,1/2+y,-z
1/2-x,1/2-y,-z
1/2+x,1/2-y,z
loop_
_atom_site_type_symbol
_atom_site_label
_atom_site_fract_x
_atom_site_fract_y
_atom_site_fract_z
Si Si1 0.879553 0.692597 0.377726
Si Si2 0.892641 0.097740 0.746006
Si Si3 0.095721 0.600827 0.353028
Si Si4 0.971452 0.867394 0.418947
Si Si5 0.724294 0.900300 0.483869
Si Si6 0.742633 0.266691 0.752054
Si Si7 0.091132 0.095642 0.845133
Si Si8 0.000000 0.000000 0.000000
O O1 0.960392 0.761975 0.410623
O O2 0.779956 0.665124 0.445375
O O3 0.836788 0.737354 0.307674
O O4 0.962590 0.610718 0.354492
O O5 0.805651 0.177104 0.768947
O O6 0.946994 0.102448 0.656698
O O7 0.992419 0.104980 0.794987
O O8 0.839671 0.000000 0.760292
O O9 0.133066 0.500000 0.335586
O O10 0.127993 0.619718 0.435136
O O11 0.163368 0.668018 0.293219
O O12 0.841498 0.897390 0.425412
O O13 0.000000 0.893124 0.500000
O O14 0.708910 0.000000 0.514299
O O15 0.673258 0.321231 0.821819
O O16 0.150424 0.000000 0.820576
O O17 0.038319 0.076818 0.932641
#
# Coordination Sequence:
#
# PCOD9225899 Si02
#       8
#     8   8   8   8   8   8   8   2
#     4  12  23  35  52  77 113 160 208 259 299 350
#     4  11  23  39  59  86 128 160 199 255 297 351
#     4  11  22  37  55  78 110 155 210 261 309 345
#     4  12  22  35  54  76 111 164 218 255 297 339
#     4  11  23  36  51  72 106 158 221 272 311 343
#     4  12  21  37  60  89 118 159 193 241 305 356
#     4   9  19  41  67  94 122 149 191 231 299 357
#     4   8  20  40  80  96 120 150 186 232 290 368
#
# _framework density 9.0886949999999995
#
# number of rings (size 3 to 8) (size 9 to 14) (size 15 to 20)
#    0.414    0.552    4.138    3.724    0.000    6.621 
#    0.000    0.690    0.000    0.000    0.000    0.483 
#    0.000    0.000    0.000    0.000    0.000    0.000 
#
# Total GULP energy -161476.938913 kJ/mol
# GULP energy per Si atom -5568.170307 kJ/mol
# Density = 0.906801 g / cm^3
# Si number density = 9.088695 Si / 1000 Ang^3
#
#
#
# Elastic Constant Matrix: (Units=GPa)
#
#
# Indices 1 2 3 4 5 6 
#
# 1 54.1390 35.8968 23.8783 0.0000 -7.7075 0.0000
# 2 35.8968 122.3220 43.4992 0.0000 -11.9931 0.0000
# 3 23.8783 43.4992 102.4734 0.0000 -17.6939 0.0000
# 4 0.0000 0.0000 0.0000 40.4386 0.0000 -30.4285
# 5 -7.7075 -11.9931 -17.6939 0.0000 12.6466 0.0000
# 6 0.0000 0.0000 0.0000 -30.4285 0.0000 62.9714
#
#
#
# Elastic Compliance Matrix: (Units=1/GPa)
#
#
# Indices 1 2 3 4 5 6 
#
# 1 0.024076 -0.005698 -0.002097 0.000000 0.006335 0.000000
# 2 -0.005698 0.011176 -0.002882 0.000000 0.003093 0.000000
# 3 -0.002097 -0.002882 0.014211 0.000000 0.015872 0.000000
# 4 0.000000 0.000000 0.000000 0.038857 0.000000 0.018776
# 5 0.006335 0.003093 0.015872 0.000000 0.108072 0.000000
# 6 0.000000 0.000000 0.000000 0.018776 0.000000 0.024953
#
#
# Mechanical properties :
#
#
# Convention : Reuss Voigt Hill
#
# Bulk Modulus (GPa) = 35.57817 53.94256 44.76037
# Shear Modulus (GPa) = 19.83570 34.92199 27.37885
#
# Velocity S-wave (km/s) = 3.30696 4.38788 3.88519
# Velocity P-wave (km/s) = 5.84778 7.44388 6.69358
#
# Compressibility (1/GPa) = 0.02810712
#
# Stress axis : x y z
#
# Youngs Moduli (GPa) = 41.53463 89.48099 70.36637
#
# Poissons Ratio (x) = 0.50991 0.14759
# Poissons Ratio (y) = 0.23668 0.20280
# Poissons Ratio (z) = 0.08712 0.25789
#
# Static dielectric constant tensor:
#      x y z
#    x 1.672430 0.000000 0.003070 
#    y 0.000000 1.708190 0.000000 
#    z 0.003070 0.000000 1.586990 
# 
# From -- ./inp_files/262884.got.cif
#   From: 2010.05.17/outbox.ucp.g08.bks.cvg/sg12_132_cif.got.tgz:262884.got - 2010.06.11 11:47:21.
