data_PCOD9225191
_publ_section_title
;
Structure prediction by ZEFSAII (Michael W. Deem and Ramdas Pophale) SiO2 
 PCOD9225191
Probable space group: C 2/M
;
_chemical_formula_sum "Si O2"
_cell_formula_units_Z 28
_cell_length_a 24.000000
_cell_length_b 9.000000
_cell_length_c 15.000000
_cell_angle_alpha 90.000000
_cell_angle_beta 60.000000
_cell_angle_gamma 90.000000
_cell_volume 2805.922308
_symmetry_space_group_name_H-M "C 2/M"
_symmetry_group_IT_number 12
_symmetry_cell_setting 'monoclinic'
loop_
_space_group_symop_operation_xyz
x,y,z
-x,y,-z
-x,-y,-z
x,-y,z
1/2+x,1/2+y,z
1/2-x,1/2+y,-z
1/2-x,1/2-y,-z
1/2+x,1/2-y,z
loop_
_atom_site_type_symbol
_atom_site_label
_atom_site_fract_x
_atom_site_fract_y
_atom_site_fract_z
Si Si1 0.939817 0.172139 0.388219
Si Si2 0.927601 0.672706 0.703353
Si Si3 0.797776 0.176978 0.532572
Si Si4 0.428701 0.828677 0.917555
Si Si5 0.559967 0.672131 0.826852
Si Si6 0.668159 0.675448 0.879141
Si Si7 0.297559 0.324784 0.738978
O O1 0.870949 0.235971 0.470899
O O2 0.935437 0.174773 0.283945
O O3 0.003121 0.254358 0.372415
O O4 0.944013 0.000000 0.413511
O O5 0.927595 0.500000 0.678343
O O6 0.923861 0.682877 0.814402
O O7 0.865629 0.751638 0.710242
O O8 0.750000 0.250000 0.500000
O O9 0.779190 0.198023 0.649868
O O10 0.800199 0.000000 0.511384
O O11 0.498946 0.775839 0.893900
O O12 0.417388 0.000000 0.951852
O O13 0.377355 0.721268 0.003267
O O14 0.546592 0.500000 0.863659
O O15 0.624974 0.717670 0.826283
O O16 0.679160 0.500000 0.865373
O O17 0.736203 0.755260 0.836621
O O18 0.302842 0.500000 0.751164
#
# Coordination Sequence:
#
# PCOD9225191 Si02
#       7
#     8   8   8   8   8   8   8
#     4   9  18  36  60  83 112 149 185 226 276 329
#     4  10  22  40  59  82 111 146 190 234 279 332
#     4  10  22  39  61  89 118 149 185 226 276 333
#     4  10  21  36  56  82 112 146 186 233 282 334
#     4   9  18  33  55  83 113 146 184 225 274 334
#     4  11  22  36  56  82 113 150 190 232 281 335
#     4  11  24  40  58  82 113 149 189 233 279 329
#
# _framework density 9.9788940000000004
#
# number of rings (size 3 to 8) (size 9 to 14) (size 15 to 20)
#    0.000    2.000    0.000    3.000    0.000    8.571 
#    0.000    5.714    0.000    0.000    0.000    0.000 
#    0.000    0.000    0.000    0.000    0.000    0.000 
#
# Total GULP energy -156326.846383 kJ/mol
# GULP energy per Si atom -5583.101657 kJ/mol
# Density = 0.995618 g / cm^3
# Si number density = 9.978894 Si / 1000 Ang^3
#
#
#
# Elastic Constant Matrix: (Units=GPa)
#
#
# Indices 1 2 3 4 5 6 
#
# 1 126.0848 45.8366 16.0295 0.0000 -18.8409 0.0000
# 2 45.8366 50.9322 17.0658 0.0000 0.8212 0.0000
# 3 16.0295 17.0658 25.2871 0.0000 -20.1509 0.0000
# 4 0.0000 0.0000 0.0000 16.1387 0.0000 -2.6710
# 5 -18.8409 0.8212 -20.1509 0.0000 29.7870 0.0000
# 6 0.0000 0.0000 0.0000 -2.6710 0.0000 43.8449
#
#
#
# Elastic Compliance Matrix: (Units=1/GPa)
#
#
# Indices 1 2 3 4 5 6 
#
# 1 0.023450 -0.039996 0.053863 0.000000 0.052374 0.000000
# 2 -0.039996 0.109424 -0.154171 0.000000 -0.132611 0.000000
# 3 0.053863 -0.154171 0.303715 0.000000 0.243783 0.000000
# 4 0.000000 0.000000 0.000000 0.062594 0.000000 0.003813
# 5 0.052374 -0.132611 0.243783 0.000000 0.235274 0.000000
# 6 0.000000 0.000000 0.000000 0.003813 0.000000 0.023040
#
#
# Mechanical properties :
#
#
# Convention : Reuss Voigt Hill
#
# Bulk Modulus (GPa) = 6.41096 40.01865 23.21481
# Shear Modulus (GPa) = 4.58674 26.17892 15.38283
#
# Velocity S-wave (km/s) = 1.51763 3.62569 2.77928
# Velocity P-wave (km/s) = 2.50802 6.13373 4.68577
#
# Compressibility (1/GPa) = 0.15598288
#
# Stress axis : x y z
#
# Youngs Moduli (GPa) = 42.64468 9.13875 3.29256
#
# Poissons Ratio (x) = 0.36551 -0.17735
# Poissons Ratio (y) = 1.70561 0.50762
# Poissons Ratio (z) = -2.29698 1.40893
#
# Static dielectric constant tensor:
#      x y z
#    x 1.659230 0.000000 -0.014660 
#    y 0.000000 1.681990 0.000000 
#    z -0.014660 0.000000 1.783800 
# 
# From -- ./inp_files/238256.got.cif
#   From: 2010.05.17/outbox.ucp.g08.bks.cvg/sg12_120_cif.got.tgz:238256.got - 2010.06.11 11:47:21.
