data_PCOD9225151
_publ_section_title
;
Structure prediction by ZEFSAII (Michael W. Deem and Ramdas Pophale) SiO2 
 PCOD9225151
Probable space group: C 2/M
;
_chemical_formula_sum "Si O2"
_cell_formula_units_Z 29
_cell_length_a 18.000000
_cell_length_b 18.000000
_cell_length_c 18.000000
_cell_angle_alpha 90.000000
_cell_angle_beta 30.000000
_cell_angle_gamma 90.000000
_cell_volume 2916.000000
_symmetry_space_group_name_H-M "C 2/M"
_symmetry_group_IT_number 12
_symmetry_cell_setting 'monoclinic'
loop_
_space_group_symop_operation_xyz
x,y,z
-x,y,-z
-x,-y,-z
x,-y,z
1/2+x,1/2+y,z
1/2-x,1/2+y,-z
1/2-x,1/2-y,-z
1/2+x,1/2-y,z
loop_
_atom_site_type_symbol
_atom_site_label
_atom_site_fract_x
_atom_site_fract_y
_atom_site_fract_z
Si Si1 0.829925 0.144104 0.641874
Si Si2 0.057734 0.698473 0.231677
Si Si3 0.221571 0.583204 0.885707
Si Si4 0.821732 0.415419 0.370391
Si Si5 0.340763 0.415828 0.337831
Si Si6 0.351188 0.350543 0.922589
Si Si7 0.500000 0.000000 0.000000
Si Si8 0.392824 0.194465 0.529003
O O1 0.769498 0.134649 0.776749
O O2 0.746115 0.097752 0.651653
O O3 0.829324 0.228826 0.615657
O O4 0.000000 0.118968 0.500000
O O5 0.076591 0.773540 0.168251
O O6 0.949582 0.642234 0.281923
O O7 0.987342 0.712085 0.373009
O O8 0.223681 0.665268 0.092692
O O9 0.290843 0.500000 0.814151
O O10 0.266539 0.614681 0.925083
O O11 0.051078 0.563754 0.016436
O O12 0.875636 0.500000 0.331029
O O13 0.693665 0.404208 0.544343
O O14 0.298810 0.500000 0.357023
O O15 0.512721 0.401768 0.172867
O O16 0.236965 0.360100 0.383004
O O17 0.500000 0.162808 0.500000
#
# Coordination Sequence:
#
# PCOD9225151 Si02
#       8
#     8   8   8   8   8   8   2   8
#     4  11  21  33  58  87 119 155 199 242 294 353
#     4  10  23  38  59  89 112 155 207 240 299 360
#     4  10  22  37  57  86 126 163 193 226 287 359
#     4  10  21  35  57  82 118 156 200 246 290 353
#     4  10  21  38  58  87 112 152 199 248 305 345
#     4  11  21  37  60  85 124 156 194 251 291 350
#     4   8  24  40  50  88 132 168 196 218 284 374
#     4  10  21  41  64  83 114 152 200 256 303 355
#
# _framework density 9.9451300000000007
#
# number of rings (size 3 to 8) (size 9 to 14) (size 15 to 20)
#    0.414    1.379    0.000    4.966    1.931    5.793 
#    0.000    0.690    0.000    0.828    0.000    0.000 
#    0.000    0.000    0.000    0.000    0.000    0.000 
#
# Total GULP energy -161579.761263 kJ/mol
# GULP energy per Si atom -5571.715906 kJ/mol
# Density = 0.992249 g / cm^3
# Si number density = 9.945130 Si / 1000 Ang^3
#
#
#
# Elastic Constant Matrix: (Units=GPa)
#
#
# Indices 1 2 3 4 5 6 
#
# 1 37.1690 31.9650 -6.5390 0.0009 -1.5347 0.0004
# 2 31.9650 85.6518 42.4540 -0.0021 -1.1029 0.0038
# 3 -6.5390 42.4540 56.8046 -0.0021 0.4026 0.0052
# 4 0.0009 -0.0021 -0.0021 21.9909 -0.0005 -3.3539
# 5 -1.5347 -1.1029 0.4026 -0.0005 20.5800 0.0002
# 6 0.0004 0.0038 0.0052 -3.3539 0.0002 46.2171
#
#
#
# Elastic Compliance Matrix: (Units=1/GPa)
#
#
# Indices 1 2 3 4 5 6 
#
# 1 0.089148 -0.060866 0.055735 -0.000005 0.002296 -0.000002
# 2 -0.060866 0.060134 -0.051946 0.000004 -0.000300 0.000002
# 3 0.055735 -0.051946 0.062842 -0.000002 0.000143 -0.000003
# 4 -0.000005 0.000004 -0.000002 0.045982 0.000001 0.003337
# 5 0.002296 -0.000300 0.000143 0.000001 0.048743 0.000000
# 6 -0.000002 0.000002 -0.000003 0.003337 0.000000 0.021879
#
#
# Mechanical properties :
#
#
# Convention : Reuss Voigt Hill
#
# Bulk Modulus (GPa) = 10.20725 35.04281 22.62503
# Shear Modulus (GPa) = 10.51438 25.20729 17.86084
#
# Velocity S-wave (km/s) = 2.30167 3.56380 2.99986
# Velocity P-wave (km/s) = 3.49378 5.88138 4.83720
#
# Compressibility (1/GPa) = 0.09796959
#
# Stress axis : x y z
#
# Youngs Moduli (GPa) = 11.21733 16.62958 15.91287
#
# Poissons Ratio (x) = 1.01217 -0.88690
# Poissons Ratio (y) = 0.68275 0.82662
# Poissons Ratio (z) = -0.62520 0.86385
#
# Static dielectric constant tensor:
#      x y z
#    x 1.636630 0.000000 0.142900 
#    y 0.000000 1.711390 0.000020 
#    z 0.142900 0.000020 0.817620 
# 
# From -- ./inp_files/278817.got.cif
#   From: 2010.05.17/outbox.ucp.g08.bks.cvg/sg12_140_cif.got.tgz:278817.got - 2010.06.11 11:47:21.
