data_PCOD9225484
_publ_section_title
;
Structure prediction by ZEFSAII (Michael W. Deem and Ramdas Pophale) SiO2 
 PCOD9225484
Probable space group: C 2/M
;
_chemical_formula_sum "Si O2"
_cell_formula_units_Z 24
_cell_length_a 15.000000
_cell_length_b 15.000000
_cell_length_c 30.000000
_cell_angle_alpha 90.000000
_cell_angle_beta 20.000000
_cell_angle_gamma 90.000000
_cell_volume 2308.635967
_symmetry_space_group_name_H-M "C 2/M"
_symmetry_group_IT_number 12
_symmetry_cell_setting 'monoclinic'
loop_
_space_group_symop_operation_xyz
x,y,z
-x,y,-z
-x,-y,-z
x,-y,z
1/2+x,1/2+y,z
1/2-x,1/2+y,-z
1/2-x,1/2-y,-z
1/2+x,1/2-y,z
loop_
_atom_site_type_symbol
_atom_site_label
_atom_site_fract_x
_atom_site_fract_y
_atom_site_fract_z
Si Si1 0.177173 0.097005 0.713572
Si Si2 0.036577 0.605739 0.852897
Si Si3 0.730752 0.151787 0.859149
Si Si4 0.046749 0.899329 0.879526
Si Si5 0.368216 0.703225 0.624151
Si Si6 0.430956 0.181388 0.324142
O O1 0.094807 0.102198 0.803974
O O2 0.335312 0.189498 0.632723
O O3 0.919892 0.096864 0.803278
O O4 0.311530 0.000000 0.643683
O O5 0.060510 0.500000 0.830182
O O6 0.095814 0.612244 0.878186
O O7 0.240373 0.665939 0.729393
O O8 0.744051 0.641684 0.978236
O O9 0.936475 0.222821 0.743926
O O10 0.500000 0.187583 0.000000
O O11 0.314939 0.870276 0.777285
O O12 0.006863 0.000000 0.913235
O O13 0.674841 0.680513 0.475804
O O14 0.196805 0.659845 0.664285
#
# Coordination Sequence:
#
# PCOD9225484 Si02
#       6
#     8   8   8   8   8   8
#     4  10  21  39  65  94 129 168 211 261 320 384
#     4  11  24  40  65 100 132 168 216 265 319 384
#     4  11  22  38  67  95 129 170 209 262 325 383
#     4  10  22  38  62  95 128 166 213 266 320 376
#     4  10  24  45  64  92 130 172 217 266 322 383
#     4  10  24  43  64  92 128 170 220 265 321 385
#
# _framework density 10.395749
#
# number of rings (size 3 to 8) (size 9 to 14) (size 15 to 20)
#    0.000    1.667    1.667    1.500    4.667    6.000 
#    0.000   12.500    0.000    0.000    0.000    0.000 
#    0.000    0.000    0.000    0.000    0.000    0.000 
#
# Total GULP energy -133725.244497 kJ/mol
# GULP energy per Si atom -5571.885187 kJ/mol
# Density = 1.037209 g / cm^3
# Si number density = 10.395749 Si / 1000 Ang^3
#
#
#
# Elastic Constant Matrix: (Units=GPa)
#
#
# Indices 1 2 3 4 5 6 
#
# 1 89.6476 30.3515 36.3679 -0.0135 -1.4596 -0.0433
# 2 30.3515 65.9245 31.5096 0.0063 -5.4332 0.0499
# 3 36.3679 31.5096 119.3167 -0.0012 -2.9516 0.0948
# 4 -0.0135 0.0063 -0.0012 36.8930 0.0092 13.8706
# 5 -1.4596 -5.4332 -2.9516 0.0092 29.9145 0.0136
# 6 -0.0433 0.0499 0.0948 13.8706 0.0136 18.7814
#
#
#
# Elastic Compliance Matrix: (Units=1/GPa)
#
#
# Indices 1 2 3 4 5 6 
#
# 1 0.014075 -0.005113 -0.002953 -0.000024 -0.000533 0.000079
# 2 -0.005113 0.019439 -0.003502 0.000017 0.002936 -0.000060
# 3 -0.002953 -0.003502 0.010212 0.000025 0.000227 -0.000068
# 4 -0.000024 0.000017 0.000025 0.037525 0.000005 -0.027713
# 5 -0.000533 0.002936 0.000227 0.000005 0.033958 -0.000039
# 6 0.000079 -0.000060 -0.000068 -0.027713 -0.000039 0.073712
#
#
# Mechanical properties :
#
#
# Convention : Reuss Voigt Hill
#
# Bulk Modulus (GPa) = 48.56937 52.37185 50.47061
# Shear Modulus (GPa) = 22.83935 28.89511 25.86723
#
# Velocity S-wave (km/s) = 3.31795 3.73199 3.53104
# Velocity P-wave (km/s) = 6.17165 6.61922 6.39935
#
# Compressibility (1/GPa) = 0.02058911
#
# Stress axis : x y z
#
# Youngs Moduli (GPa) = 71.04728 51.44370 97.92581
#
# Poissons Ratio (x) = 0.26301 0.28920
# Poissons Ratio (y) = 0.36324 0.34298
# Poissons Ratio (z) = 0.20982 0.18018
#
# Static dielectric constant tensor:
#      x y z
#    x 1.771360 0.000010 -0.006070 
#    y 0.000010 1.813250 0.000010 
#    z -0.006070 0.000010 1.724160 
# 
# From -- ./inp_files/376590.got.cif
#   From: 2010.05.17/outbox.ucp.g08.bks.cvg/sg12_189_cif.got.tgz:376590.got - 2010.06.11 11:47:21.
