data_PCOD9225324
_publ_section_title
;
Structure prediction by ZEFSAII (Michael W. Deem and Ramdas Pophale) SiO2 
 PCOD9225324
Probable space group: C 2/M
;
_chemical_formula_sum "Si O2"
_cell_formula_units_Z 28
_cell_length_a 24.000000
_cell_length_b 9.000000
_cell_length_c 15.000000
_cell_angle_alpha 90.000000
_cell_angle_beta 70.000000
_cell_angle_gamma 90.000000
_cell_volume 3044.604091
_symmetry_space_group_name_H-M "C 2/M"
_symmetry_group_IT_number 12
_symmetry_cell_setting 'monoclinic'
loop_
_space_group_symop_operation_xyz
x,y,z
-x,y,-z
-x,-y,-z
x,-y,z
1/2+x,1/2+y,z
1/2-x,1/2+y,-z
1/2-x,1/2-y,-z
1/2+x,1/2-y,z
loop_
_atom_site_type_symbol
_atom_site_label
_atom_site_fract_x
_atom_site_fract_y
_atom_site_fract_z
Si Si1 0.097161 0.177663 0.735822
Si Si2 0.302486 0.321388 0.180965
Si Si3 0.861765 0.821281 0.961518
Si Si4 0.511303 0.824788 0.099506
Si Si5 0.425349 0.822364 0.635119
Si Si6 0.563348 0.177337 0.577543
Si Si7 0.681775 0.323307 0.203907
O O1 0.154932 0.221118 0.761043
O O2 0.097837 0.237274 0.635189
O O3 0.040420 0.246680 0.816769
O O4 0.092301 0.000000 0.739839
O O5 0.297184 0.500000 0.182781
O O6 0.238132 0.250487 0.218908
O O7 0.333773 0.275596 0.071001
O O8 0.925181 0.745287 0.914177
O O9 0.820916 0.783420 0.899516
O O10 0.869762 0.000000 0.958739
O O11 0.511354 0.000000 0.119304
O O12 0.500000 0.804385 0.000000
O O13 0.418312 0.788358 0.533836
O O14 0.493207 0.787077 0.623363
O O15 0.378225 0.735394 0.718884
O O16 0.417637 0.000000 0.650582
O O17 0.569324 0.000000 0.586559
O O18 0.685151 0.500000 0.209353
#
# Coordination Sequence:
#
# PCOD9225324 Si02
#       7
#     8   8   8   8   8   8   8
#     4  11  22  36  57  83 113 150 185 224 278 332
#     4  10  22  39  56  75 109 154 190 223 273 334
#     4  10  21  38  57  80 111 148 187 229 280 329
#     4  11  22  34  53  82 113 146 184 226 269 319
#     4   9  19  38  61  84 113 146 179 221 279 336
#     4   9  19  37  62  88 112 142 180 225 276 331
#     4  11  23  36  56  84 110 142 189 237 275 319
#
# _framework density 9.1965979999999998
#
# number of rings (size 3 to 8) (size 9 to 14) (size 15 to 20)
#    0.000    1.857    1.429    3.429    0.000    6.857 
#    0.000    2.143    0.000    0.000    0.000    0.000 
#    0.000    0.000    0.000    0.000    0.000    0.000 
#
# Total GULP energy -156434.109348 kJ/mol
# GULP energy per Si atom -5586.932477 kJ/mol
# Density = 0.917567 g / cm^3
# Si number density = 9.196598 Si / 1000 Ang^3
#
#
#
# Elastic Constant Matrix: (Units=GPa)
#
#
# Indices 1 2 3 4 5 6 
#
# 1 63.3849 22.5924 36.0373 0.0000 15.5971 0.0000
# 2 22.5924 15.4904 27.3687 0.0000 11.5591 0.0000
# 3 36.0373 27.3687 63.1026 0.0000 23.8396 0.0000
# 4 0.0000 0.0000 0.0000 28.3820 0.0000 6.5003
# 5 15.5971 11.5591 23.8396 0.0000 22.0302 0.0000
# 6 0.0000 0.0000 0.0000 6.5003 0.0000 17.5648
#
#
#
# Elastic Compliance Matrix: (Units=1/GPa)
#
#
# Indices 1 2 3 4 5 6 
#
# 1 0.034009 -0.065736 0.008719 0.000000 0.000978 0.000000
# 2 -0.065736 0.412286 -0.130471 0.000000 -0.028596 0.000000
# 3 0.008719 -0.130471 0.074300 0.000000 -0.018119 0.000000
# 4 0.000000 0.000000 0.000000 0.038497 0.000000 -0.014247
# 5 0.000978 -0.028596 -0.018119 0.000000 0.079311 0.000000
# 6 0.000000 0.000000 0.000000 -0.014247 0.000000 0.062204
#
#
# Mechanical properties :
#
#
# Convention : Reuss Voigt Hill
#
# Bulk Modulus (GPa) = 6.86720 34.88606 20.87663
# Shear Modulus (GPa) = 4.44791 17.32737 10.88764
#
# Velocity S-wave (km/s) = 1.55676 3.07262 2.43562
# Velocity P-wave (km/s) = 2.64064 5.62103 4.39141
#
# Compressibility (1/GPa) = 0.14561980
#
# Stress axis : x y z
#
# Youngs Moduli (GPa) = 29.40376 2.42550 13.45889
#
# Poissons Ratio (x) = 0.15944 -0.11735
# Poissons Ratio (y) = 1.93290 1.75599
# Poissons Ratio (z) = -0.25638 0.31646
#
# Static dielectric constant tensor:
#      x y z
#    x 1.608570 0.000000 0.023910 
#    y 0.000000 1.609910 0.000000 
#    z 0.023910 0.000000 1.627090 
# 
# From -- ./inp_files/237382.got.cif
#   From: 2010.05.17/outbox.ucp.g08.bks.cvg/sg12_119_cif.got.tgz:237382.got - 2010.06.11 11:47:21.
