data_PCOD9225426
_publ_section_title
;
Structure prediction by ZEFSAII (Michael W. Deem and Ramdas Pophale) SiO2 
 PCOD9225426
Probable space group: C 2/M
;
_chemical_formula_sum "Si O2"
_cell_formula_units_Z 30
_cell_length_a 15.000000
_cell_length_b 27.000000
_cell_length_c 15.000000
_cell_angle_alpha 90.000000
_cell_angle_beta 30.000000
_cell_angle_gamma 90.000000
_cell_volume 3037.500000
_symmetry_space_group_name_H-M "C 2/M"
_symmetry_group_IT_number 12
_symmetry_cell_setting 'monoclinic'
loop_
_space_group_symop_operation_xyz
x,y,z
-x,y,-z
-x,-y,-z
x,-y,z
1/2+x,1/2+y,z
1/2-x,1/2+y,-z
1/2-x,1/2-y,-z
1/2+x,1/2-y,z
loop_
_atom_site_type_symbol
_atom_site_label
_atom_site_fract_x
_atom_site_fract_y
_atom_site_fract_z
Si Si1 0.927185 0.282665 0.235178
Si Si2 0.355093 0.179262 0.694187
Si Si3 0.916324 0.113163 0.755775
Si Si4 0.229426 0.557722 0.561478
Si Si5 0.696436 0.058211 0.802253
Si Si6 0.500000 0.272577 0.000000
Si Si7 0.472804 0.277788 0.375785
Si Si8 0.607105 0.120269 0.161335
O O1 0.713656 0.287744 0.411749
O O2 0.945280 0.243032 0.299476
O O3 0.006793 0.334897 0.196615
O O4 0.027873 0.262424 0.061299
O O5 0.500000 0.159067 0.500000
O O6 0.160344 0.192594 0.828675
O O7 0.430063 0.232706 0.660188
O O8 0.335794 0.144019 0.795160
O O9 0.844563 0.084946 0.731442
O O10 0.927508 0.170740 0.721310
O O11 0.110497 0.091978 0.611921
O O12 0.774059 0.104624 0.957239
O O13 0.257778 0.500000 0.515774
O O14 0.225412 0.563153 0.672361
O O15 0.037304 0.577542 0.698062
O O16 0.701915 0.000000 0.820098
O O17 0.500000 0.077201 0.000000
#
# Coordination Sequence:
#
# PCOD9225426 Si02
#       8
#     8   8   8   8   8   4   8   8
#     4  10  21  39  59  84 123 161 198 243 290 346
#     4  11  24  41  62  90 121 159 200 247 301 358
#     4  12  22  36  62  90 120 164 206 244 290 350
#     4  11  24  41  62  90 121 159 200 247 301 358
#     4  10  21  39  59  84 123 161 198 243 290 346
#     4  12  22  36  62  90 120 164 206 244 290 350
#     4  10  21  39  59  84 123 161 198 243 290 346
#     4  11  24  41  62  90 121 159 200 247 301 358
#
# _framework density 9.8765429999999999
#
# number of rings (size 3 to 8) (size 9 to 14) (size 15 to 20)
#    0.000    1.200    4.000    2.400    0.000    8.000 
#    3.600    0.000    0.000    0.400    0.000    1.400 
#    0.000    0.000    0.000    0.000    0.000    0.000 
#
# Total GULP energy -167672.910625 kJ/mol
# GULP energy per Si atom -5589.097021 kJ/mol
# Density = 0.985406 g / cm^3
# Si number density = 9.876543 Si / 1000 Ang^3
#
#
#
# Elastic Constant Matrix: (Units=GPa)
#
#
# Indices 1 2 3 4 5 6 
#
# 1 24.0296 8.5931 -6.2932 -0.0001 3.0938 0.0012
# 2 8.5931 46.0733 0.4060 -0.0010 1.4765 -0.0001
# 3 -6.2932 0.4060 76.6948 0.0014 -10.9587 0.0035
# 4 -0.0001 -0.0010 0.0014 24.2912 -0.0049 0.2560
# 5 3.0938 1.4765 -10.9587 -0.0049 19.7725 -0.0010
# 6 0.0012 -0.0001 0.0035 0.2560 -0.0010 10.3250
#
#
#
# Elastic Compliance Matrix: (Units=1/GPa)
#
#
# Indices 1 2 3 4 5 6 
#
# 1 0.046088 -0.008468 0.003135 -0.000001 -0.004842 -0.000007
# 2 -0.008468 0.023323 -0.000953 0.000001 -0.000945 0.000002
# 3 0.003135 -0.000953 0.014380 0.000001 0.007551 -0.000005
# 4 -0.000001 0.000001 0.000001 0.041178 0.000011 -0.001021
# 5 -0.004842 -0.000945 0.007551 0.000011 0.055588 0.000003
# 6 -0.000007 0.000002 -0.000005 -0.001021 0.000003 0.096878
#
#
# Mechanical properties :
#
#
# Convention : Reuss Voigt Hill
#
# Bulk Modulus (GPa) = 14.04164 16.91215 15.47689
# Shear Modulus (GPa) = 15.93642 20.48386 18.21014
#
# Velocity S-wave (km/s) = 2.84347 3.22373 3.03956
# Velocity P-wave (km/s) = 4.23136 4.73677 4.49118
#
# Compressibility (1/GPa) = 0.07121677
#
# Stress axis : x y z
#
# Youngs Moduli (GPa) = 21.69767 42.87677 69.54185
#
# Poissons Ratio (x) = 0.36309 -0.21800
# Poissons Ratio (y) = 0.18374 0.06630
# Poissons Ratio (z) = -0.06802 0.04088
#
# Static dielectric constant tensor:
#      x y z
#    x 1.720170 0.000000 -0.042610 
#    y 0.000000 1.686800 -0.000010 
#    z -0.042610 -0.000010 1.732300 
# 
# From -- ./inp_files/219218.got.cif
#   From: 2010.05.17/outbox.ucp.g08.bks.cvg/sg12_110_cif.got.tgz:219218.got - 2010.06.11 11:47:21.
