data_PCOD9225979
_publ_section_title
;
Structure prediction by ZEFSAII (Michael W. Deem and Ramdas Pophale) SiO2 
 PCOD9225979
Probable space group: C 2/M
;
_chemical_formula_sum "Si O2"
_cell_formula_units_Z 20
_cell_length_a 24.000000
_cell_length_b 18.000000
_cell_length_c 9.000000
_cell_angle_alpha 90.000000
_cell_angle_beta 30.000000
_cell_angle_gamma 90.000000
_cell_volume 1944.000000
_symmetry_space_group_name_H-M "C 2/M"
_symmetry_group_IT_number 12
_symmetry_cell_setting 'monoclinic'
loop_
_space_group_symop_operation_xyz
x,y,z
-x,y,-z
-x,-y,-z
x,-y,z
1/2+x,1/2+y,z
1/2-x,1/2+y,-z
1/2-x,1/2-y,-z
1/2+x,1/2-y,z
loop_
_atom_site_type_symbol
_atom_site_label
_atom_site_fract_x
_atom_site_fract_y
_atom_site_fract_z
Si Si1 0.942869 0.588922 0.792818
Si Si2 0.393991 0.828278 0.345676
Si Si3 0.065342 0.912341 0.637249
Si Si4 0.733131 0.301685 0.184405
Si Si5 0.677773 0.411599 0.706155
O O1 0.911624 0.500000 0.902495
O O2 0.000000 0.585413 0.500000
O O3 0.038159 0.621046 0.687396
O O4 0.839862 0.649982 0.005385
O O5 0.328748 0.756443 0.560953
O O6 0.293911 0.872127 0.487173
O O7 0.500000 0.804602 0.000000
O O8 0.141010 0.863723 0.355220
O O9 0.130724 0.902995 0.645472
O O10 0.066696 0.000000 0.602083
O O11 0.935391 0.888406 0.943771
O O12 0.750000 0.250000 0.000000
O O13 0.694003 0.500000 0.690711
#
# Coordination Sequence:
#
# PCOD9225979 Si02
#       5
#     8   8   8   8   8
#     4  11  25  48  73 100 141 192 232 277 353 425
#     4  12  27  42  72 107 140 176 231 295 345 403
#     4   9  20  41  70  98 135 179 224 279 347 413
#     4  12  26  44  67  98 137 185 230 280 340 414
#     4   9  20  41  70 104 135 172 225 286 345 408
#
# _framework density 10.288066000000001
#
# number of rings (size 3 to 8) (size 9 to 14) (size 15 to 20)
#    0.000    1.400    2.000    3.600    5.600    4.800 
#    0.000    0.000    0.000    2.400    0.000    0.000 
#    0.000    0.000    0.000    0.000    0.000    0.000 
#
# Total GULP energy -111490.937769 kJ/mol
# GULP energy per Si atom -5574.546888 kJ/mol
# Density = 1.026465 g / cm^3
# Si number density = 10.288066 Si / 1000 Ang^3
#
#
#
# Elastic Constant Matrix: (Units=GPa)
#
#
# Indices 1 2 3 4 5 6 
#
# 1 90.7542 42.0741 50.4520 0.0000 -31.3844 0.0000
# 2 42.0741 136.5769 68.0595 0.0000 -16.4196 0.0000
# 3 50.4520 68.0595 150.9373 0.0000 -32.3958 0.0000
# 4 0.0000 0.0000 0.0000 53.2468 0.0000 -9.2050
# 5 -31.3844 -16.4196 -32.3958 0.0000 47.5480 0.0000
# 6 0.0000 0.0000 0.0000 -9.2050 0.0000 29.5814
#
#
#
# Elastic Compliance Matrix: (Units=1/GPa)
#
#
# Indices 1 2 3 4 5 6 
#
# 1 0.016589 -0.002886 -0.002468 0.000000 0.008272 0.000000
# 2 -0.002886 0.009953 -0.003742 0.000000 -0.001017 0.000000
# 3 -0.002468 -0.003742 0.009968 0.000000 0.003870 0.000000
# 4 0.000000 0.000000 0.000000 0.019848 0.000000 0.006176
# 5 0.008272 -0.001017 0.003870 0.000000 0.028777 0.000000
# 6 0.000000 0.000000 0.000000 0.006176 0.000000 0.035727
#
#
# Mechanical properties :
#
#
# Convention : Reuss Voigt Hill
#
# Bulk Modulus (GPa) = 54.58957 77.71552 66.15254
# Shear Modulus (GPa) = 34.44445 40.58742 37.51593
#
# Velocity S-wave (km/s) = 4.09589 4.44616 4.27461
# Velocity P-wave (km/s) = 6.99690 8.01308 7.52217
#
# Compressibility (1/GPa) = 0.01831852
#
# Stress axis : x y z
#
# Youngs Moduli (GPa) = 60.27916 100.46977 100.31911
#
# Poissons Ratio (x) = 0.28996 0.24764
# Poissons Ratio (y) = 0.17397 0.37536
# Poissons Ratio (z) = 0.14880 0.37592
#
# Static dielectric constant tensor:
#      x y z
#    x 1.745180 0.000000 0.061600 
#    y 0.000000 1.765350 0.000000 
#    z 0.061600 0.000000 1.816120 
# 
# From -- ./inp_files/98286.got.cif
#   From: 2010.05.17/outbox.ucp.g08.bks.cvg/sg12_50_cif.got.tgz:98286.got - 2010.06.11 11:47:21.
