data_PCOD9225361
_publ_section_title
;
Structure prediction by ZEFSAII (Michael W. Deem and Ramdas Pophale) SiO2 
 PCOD9225361
Probable space group: C 2/M
;
_chemical_formula_sum "Si O2"
_cell_formula_units_Z 28
_cell_length_a 21.000000
_cell_length_b 9.000000
_cell_length_c 30.000000
_cell_angle_alpha 90.000000
_cell_angle_beta 30.000000
_cell_angle_gamma 90.000000
_cell_volume 2835.000000
_symmetry_space_group_name_H-M "C 2/M"
_symmetry_group_IT_number 12
_symmetry_cell_setting 'monoclinic'
loop_
_space_group_symop_operation_xyz
x,y,z
-x,y,-z
-x,-y,-z
x,-y,z
1/2+x,1/2+y,z
1/2-x,1/2+y,-z
1/2-x,1/2-y,-z
1/2+x,1/2-y,z
loop_
_atom_site_type_symbol
_atom_site_label
_atom_site_fract_x
_atom_site_fract_y
_atom_site_fract_z
Si Si1 0.643395 0.819067 0.434792
Si Si2 0.917720 0.319624 0.239407
Si Si3 0.153789 0.175092 0.247924
Si Si4 0.367491 0.318263 0.458242
Si Si5 0.387939 0.671741 0.951200
Si Si6 0.856707 0.821916 0.851197
Si Si7 0.911826 0.168190 0.091277
O O1 0.500000 0.789376 0.500000
O O2 0.772891 0.750165 0.331907
O O3 0.641352 0.749064 0.486118
O O4 0.657630 0.000000 0.427387
O O5 0.908630 0.500000 0.242968
O O6 0.017167 0.257771 0.140934
O O7 0.006939 0.260862 0.225712
O O8 0.171777 0.196690 0.183852
O O9 0.281140 0.257909 0.187873
O O10 0.010660 0.218230 0.351566
O O11 0.165131 0.000000 0.251238
O O12 0.356754 0.500000 0.465507
O O13 0.250000 0.250000 0.500000
O O14 0.355666 0.500000 0.957186
O O15 0.484856 0.657714 0.932982
O O16 0.258266 0.754310 0.047832
O O17 0.869230 0.000000 0.851317
O O18 0.877909 0.000000 0.096145
O O19 0.000000 0.246023 0.000000
#
# Coordination Sequence:
#
# PCOD9225361 Si02
#       7
#     8   8   8   8   8   8   8
#     4  11  26  48  71  97 132 174 222 279 340 402
#     4  12  26  43  66  93 125 167 213 265 323 386
#     4  10  23  39  62  94 128 164 206 259 317 377
#     4  11  24  44  70 102 135 174 223 278 336 397
#     4  11  23  40  62  91 129 169 213 261 314 380
#     4  11  22  40  64  94 131 170 212 259 315 381
#     4  10  21  38  60  89 124 165 210 256 309 375
#
# _framework density 9.8765429999999999
#
# number of rings (size 3 to 8) (size 9 to 14) (size 15 to 20)
#    0.000    1.143    1.429    4.286    2.000    5.429 
#    0.000    0.000    0.000    0.000    0.000    0.000 
#    0.000    0.000    0.000    0.000    0.000    0.000 
#
# Total GULP energy -156010.206325 kJ/mol
# GULP energy per Si atom -5571.793083 kJ/mol
# Density = 0.985406 g / cm^3
# Si number density = 9.876543 Si / 1000 Ang^3
#
#
#
# Elastic Constant Matrix: (Units=GPa)
#
#
# Indices 1 2 3 4 5 6 
#
# 1 82.7251 28.2636 32.6891 -0.0001 -15.8024 0.0007
# 2 28.2636 133.9436 67.2956 -0.0007 -13.9974 0.0021
# 3 32.6891 67.2956 198.8320 0.0000 -27.5030 0.0001
# 4 -0.0001 -0.0007 0.0000 36.7928 0.0000 0.7939
# 5 -15.8024 -13.9974 -27.5030 0.0000 48.1653 -0.0001
# 6 0.0007 0.0021 0.0001 0.7939 -0.0001 27.1088
#
#
#
# Elastic Compliance Matrix: (Units=1/GPa)
#
#
# Indices 1 2 3 4 5 6 
#
# 1 0.013857 -0.002004 -0.001142 0.000000 0.003312 0.000000
# 2 -0.002004 0.009326 -0.002761 0.000000 0.000476 -0.000001
# 3 -0.001142 -0.002761 0.006502 0.000000 0.002536 0.000000
# 4 0.000000 0.000000 0.000000 0.027196 0.000000 -0.000797
# 5 0.003312 0.000476 0.002536 0.000000 0.023435 0.000000
# 6 0.000000 -0.000001 0.000000 -0.000797 0.000000 0.036912
#
#
# Mechanical properties :
#
#
# Convention : Reuss Voigt Hill
#
# Bulk Modulus (GPa) = 55.95665 74.66636 65.31151
# Shear Modulus (GPa) = 37.03748 41.56355 39.30052
#
# Velocity S-wave (km/s) = 4.33485 4.59208 4.46532
# Velocity P-wave (km/s) = 7.31055 8.12393 7.72795
#
# Compressibility (1/GPa) = 0.01787098
#
# Stress axis : x y z
#
# Youngs Moduli (GPa) = 72.16691 107.23121 153.79153
#
# Poissons Ratio (x) = 0.21492 0.17558
# Poissons Ratio (y) = 0.14464 0.42461
# Poissons Ratio (z) = 0.08239 0.29606
#
# Static dielectric constant tensor:
#      x y z
#    x 1.811850 0.000000 0.043830 
#    y 0.000000 1.707480 0.000000 
#    z 0.043830 0.000000 1.687090 
# 
# From -- ./inp_files/380632.got.cif
#   From: 2010.05.17/outbox.ucp.g08.bks.cvg/sg12_191_cif.got.tgz:380632.got - 2010.06.11 11:47:21.
