data_PCOD9225777
_publ_section_title
;
Structure prediction by ZEFSAII (Michael W. Deem and Ramdas Pophale) SiO2 
 PCOD9225777
Probable space group: C 2/M
;
_chemical_formula_sum "Si O2"
_cell_formula_units_Z 20
_cell_length_a 9.000000
_cell_length_b 24.000000
_cell_length_c 18.000000
_cell_angle_alpha 90.000000
_cell_angle_beta 150.000000
_cell_angle_gamma 90.000000
_cell_volume 1944.000000
_symmetry_space_group_name_H-M "C 2/M"
_symmetry_group_IT_number 12
_symmetry_cell_setting 'monoclinic'
loop_
_space_group_symop_operation_xyz
x,y,z
-x,y,-z
-x,-y,-z
x,-y,z
1/2+x,1/2+y,z
1/2-x,1/2+y,-z
1/2-x,1/2-y,-z
1/2+x,1/2-y,z
loop_
_atom_site_type_symbol
_atom_site_label
_atom_site_fract_x
_atom_site_fract_y
_atom_site_fract_z
Si Si1 0.148091 0.329508 0.341859
Si Si2 0.816535 0.233378 0.112778
Si Si3 0.679819 0.564945 0.828615
Si Si4 0.282185 0.562202 0.331348
Si Si5 0.822320 0.357418 0.347046
O O1 0.500000 0.312910 0.500000
O O2 0.099655 0.382474 0.267851
O O3 0.930130 0.282689 0.215759
O O4 0.054013 0.350639 0.381626
O O5 0.084551 0.191148 0.234645
O O6 0.500000 0.210115 0.000000
O O7 0.750000 0.250000 0.000000
O O8 0.683809 0.500000 0.844724
O O9 0.623940 0.571133 0.714701
O O10 0.391998 0.589541 0.744602
O O11 0.000000 0.585726 0.000000
O O12 0.500000 0.562439 0.500000
O O13 0.147841 0.500000 0.274158
O O14 0.000000 0.353464 0.500000
#
# Coordination Sequence:
#
# PCOD9225777 Si02
#       5
#     8   8   8   8   8
#     4  11  25  42  65  96 131 171 219 266 324 392
#     4  12  27  45  67  95 128 171 218 274 329 391
#     4  10  23  43  69 101 135 173 218 272 330 387
#     4   9  19  38  65  94 129 171 211 259 318 384
#     4  12  26  42  68  98 131 174 217 271 327 391
#
# _framework density 10.288066000000001
#
# number of rings (size 3 to 8) (size 9 to 14) (size 15 to 20)
#    0.000    1.200    2.000    3.600    8.400    2.800 
#    0.000    0.000    0.000    4.200    0.000    0.000 
#    0.000    0.000    0.000    0.000    0.000    0.000 
#
# Total GULP energy -111341.726853 kJ/mol
# GULP energy per Si atom -5567.086343 kJ/mol
# Density = 1.026465 g / cm^3
# Si number density = 10.288066 Si / 1000 Ang^3
#
#
#
# Elastic Constant Matrix: (Units=GPa)
#
#
# Indices 1 2 3 4 5 6 
#
# 1 106.6072 31.5566 50.3996 0.0025 6.3798 -0.1173
# 2 31.5566 84.3292 22.4181 0.0043 3.0458 -0.0344
# 3 50.3996 22.4181 132.0861 0.0091 3.0727 -0.5398
# 4 0.0025 0.0043 0.0091 20.3733 -0.0080 5.0891
# 5 6.3798 3.0458 3.0727 -0.0080 33.9442 0.2005
# 6 -0.1173 -0.0344 -0.5398 5.0891 0.2005 -30.3224
#
#
#
# Elastic Compliance Matrix: (Units=1/GPa)
#
#
# Indices 1 2 3 4 5 6 
#
# 1 0.012467 -0.003510 -0.004123 -0.000004 -0.001655 0.000018
# 2 -0.003510 0.013436 -0.000930 -0.000005 -0.000462 0.000011
# 3 -0.004123 -0.000930 0.009301 0.000032 0.000017 -0.000143
# 4 -0.000004 -0.000005 0.000032 0.047109 -0.000037 0.007906
# 5 -0.001655 -0.000462 0.000017 -0.000037 0.029810 0.000197
# 6 0.000018 0.000011 -0.000143 0.007906 0.000197 -0.031648
#
#
# Mechanical properties :
#
#
# Convention : Reuss Voigt Hill
#
# Bulk Modulus (GPa) = 55.31547 59.08567 57.20057
# Shear Modulus (GPa) = 48.25043 19.37558 33.81301
#
# Velocity S-wave (km/s) = 4.84774 3.07197 4.05818
# Velocity P-wave (km/s) = 7.63386 6.43122 7.05820
#
# Compressibility (1/GPa) = 0.01807813
#
# Stress axis : x y z
#
# Youngs Moduli (GPa) = 80.20999 74.42907 107.51659
#
# Poissons Ratio (x) = 0.26121 0.44328
# Poissons Ratio (y) = 0.28150 0.10004
# Poissons Ratio (z) = 0.33069 0.06925
#
# Static dielectric constant tensor:
#      x y z
#    x 1.672850 0.000020 -0.016480 
#    y 0.000020 1.794370 -0.000030 
#    z -0.016480 -0.000030 1.687960 
# 
# From -- ./inp_files/79303.got.cif
#   From: 2010.05.17/outbox.ucp.g08.bks.cvg/sg12_40_cif.got.tgz:79303.got - 2010.06.11 11:47:21.
