data_PCOD9225417
_publ_section_title
;
Structure prediction by ZEFSAII (Michael W. Deem and Ramdas Pophale) SiO2 
 PCOD9225417
Probable space group: C 2/M
;
_chemical_formula_sum "Si O2"
_cell_formula_units_Z 32
_cell_length_a 9.000000
_cell_length_b 30.000000
_cell_length_c 18.000000
_cell_angle_alpha 90.000000
_cell_angle_beta 140.000000
_cell_angle_gamma 90.000000
_cell_volume 3123.947783
_symmetry_space_group_name_H-M "C 2/M"
_symmetry_group_IT_number 12
_symmetry_cell_setting 'monoclinic'
loop_
_space_group_symop_operation_xyz
x,y,z
-x,y,-z
-x,-y,-z
x,-y,z
1/2+x,1/2+y,z
1/2-x,1/2+y,-z
1/2-x,1/2-y,-z
1/2+x,1/2-y,z
loop_
_atom_site_type_symbol
_atom_site_label
_atom_site_fract_x
_atom_site_fract_y
_atom_site_fract_z
Si Si1 0.192508 0.391467 0.009325
Si Si2 0.160259 0.893969 0.399195
Si Si3 0.635062 0.049407 0.388600
Si Si4 0.238254 0.205221 0.045139
Si Si5 0.186310 0.802304 0.474095
Si Si6 0.352524 0.086139 0.758304
Si Si7 0.130057 0.946993 0.241536
Si Si8 0.854602 0.681391 0.695765
O O1 0.417466 0.418006 0.126363
O O2 0.243790 0.341711 0.994862
O O3 0.000000 0.385636 0.000000
O O4 0.060324 0.420940 0.895389
O O5 0.251747 0.915432 0.511321
O O6 0.220908 0.840963 0.424655
O O7 0.228477 0.923024 0.354054
O O8 0.883288 0.900754 0.290741
O O9 0.712302 0.052814 0.332563
O O10 0.357244 0.054302 0.277334
O O11 0.684924 0.000000 0.437692
O O12 0.453662 0.208396 0.185501
O O13 0.250000 0.250000 0.000000
O O14 0.000000 0.204092 0.000000
O O15 0.250000 0.750000 0.500000
O O16 0.343257 0.817073 0.603329
O O17 0.909137 0.806095 0.382340
O O18 0.413749 0.131077 0.738456
O O19 0.069998 0.000000 0.230551
#
# Coordination Sequence:
#
# PCOD9225417 Si02
#       8
#     8   8   8   8   8   8   8   8
#     4  11  24  46  69  96 134 176 227 283 340 398
#     4  11  21  42  68  94 134 175 217 276 340 402
#     4  11  24  41  64  94 130 170 221 278 337 411
#     4  11  26  43  72 101 136 184 225 276 335 411
#     4  10  21  38  65  93 130 174 219 275 330 393
#     4  10  21  41  68  92 126 173 215 273 341 394
#     4  11  26  44  65  97 138 180 226 283 344 409
#     4   9  21  41  58  91 134 164 216 277 325 387
#
# _framework density 10.243449
#
# number of rings (size 3 to 8) (size 9 to 14) (size 15 to 20)
#    0.000    1.500    2.500    1.500    5.250    4.250 
#    4.500    1.250    0.000    0.000    0.000    0.000 
#    0.000    0.000    0.000    0.000    0.000    0.000 
#
# Total GULP energy -178330.903079 kJ/mol
# GULP energy per Si atom -5572.840721 kJ/mol
# Density = 1.022013 g / cm^3
# Si number density = 10.243449 Si / 1000 Ang^3
#
#
#
# Elastic Constant Matrix: (Units=GPa)
#
#
# Indices 1 2 3 4 5 6 
#
# 1 48.1002 17.8070 11.1672 0.0000 -4.0453 0.0000
# 2 17.8070 118.2414 32.8420 0.0000 1.9027 0.0000
# 3 11.1672 32.8420 139.9992 0.0000 -3.3838 0.0000
# 4 0.0000 0.0000 0.0000 36.6056 0.0000 -0.4043
# 5 -4.0453 1.9027 -3.3838 0.0000 21.0153 0.0000
# 6 0.0000 0.0000 0.0000 -0.4043 0.0000 28.2235
#
#
#
# Elastic Compliance Matrix: (Units=1/GPa)
#
#
# Indices 1 2 3 4 5 6 
#
# 1 0.022574 -0.003211 -0.000939 0.000000 0.004485 0.000000
# 2 -0.003211 0.009532 -0.002024 0.000000 -0.001807 0.000000
# 3 -0.000939 -0.002024 0.007723 0.000000 0.001246 0.000000
# 4 0.000000 0.000000 0.000000 0.027323 0.000000 0.000391
# 5 0.004485 -0.001807 0.001246 0.000000 0.048812 0.000000
# 6 0.000000 0.000000 0.000000 0.000391 0.000000 0.035437
#
#
# Mechanical properties :
#
#
# Convention : Reuss Voigt Hill
#
# Bulk Modulus (GPa) = 36.38835 47.77481 42.08158
# Shear Modulus (GPa) = 28.91719 33.47051 31.19385
#
# Velocity S-wave (km/s) = 3.76106 4.04635 3.90632
# Velocity P-wave (km/s) = 6.05484 6.72317 6.39774
#
# Compressibility (1/GPa) = 0.02748132
#
# Stress axis : x y z
#
# Youngs Moduli (GPa) = 44.29906 104.90987 129.48956
#
# Poissons Ratio (x) = 0.33686 0.12159
# Poissons Ratio (y) = 0.14224 0.26204
# Poissons Ratio (z) = 0.04160 0.21230
#
# Static dielectric constant tensor:
#      x y z
#    x 1.832880 0.000000 -0.037520 
#    y 0.000000 1.790350 0.000000 
#    z -0.037520 0.000000 1.723300 
# 
# From -- ./inp_files/260355.got.cif
#   From: 2010.05.17/outbox.ucp.g08.bks.cvg/sg12_131_cif.got.tgz:260355.got - 2010.06.11 11:47:21.
