data_PCOD9225280
_publ_section_title
;
Structure prediction by ZEFSAII (Michael W. Deem and Ramdas Pophale) SiO2 
 PCOD9225280
Probable space group: C 2/M
;
_chemical_formula_sum "Si O2"
_cell_formula_units_Z 28
_cell_length_a 21.000000
_cell_length_b 9.000000
_cell_length_c 30.000000
_cell_angle_alpha 90.000000
_cell_angle_beta 150.000000
_cell_angle_gamma 90.000000
_cell_volume 2835.000000
_symmetry_space_group_name_H-M "C 2/M"
_symmetry_group_IT_number 12
_symmetry_cell_setting 'monoclinic'
loop_
_space_group_symop_operation_xyz
x,y,z
-x,y,-z
-x,-y,-z
x,-y,z
1/2+x,1/2+y,z
1/2-x,1/2+y,-z
1/2-x,1/2-y,-z
1/2+x,1/2-y,z
loop_
_atom_site_type_symbol
_atom_site_label
_atom_site_fract_x
_atom_site_fract_y
_atom_site_fract_z
Si Si1 0.355743 0.324087 0.681369
Si Si2 0.653929 0.324921 0.096091
Si Si3 0.379644 0.179346 0.599373
Si Si4 0.713484 0.174430 0.041730
Si Si5 0.141572 0.321793 0.703421
Si Si6 0.641233 0.671324 0.605665
Si Si7 0.946840 0.326933 0.136252
O O1 0.356207 0.500000 0.674340
O O2 0.391427 0.242127 0.656863
O O3 0.222561 0.266050 0.619788
O O4 0.450668 0.277322 0.778649
O O5 0.681389 0.500000 0.103417
O O6 0.702707 0.220332 0.086126
O O7 0.734986 0.289483 0.190087
O O8 0.500000 0.309908 0.000000
O O9 0.250000 0.250000 0.500000
O O10 0.508849 0.214258 0.649399
O O11 0.367279 0.000000 0.592826
O O12 0.816409 0.282777 0.081984
O O13 0.748445 0.000000 0.057647
O O14 0.583570 0.195953 0.934476
O O15 0.141100 0.500000 0.695298
O O16 0.146556 0.239340 0.658782
O O17 0.500000 0.670598 0.500000
O O18 0.687470 0.500000 0.635180
O O19 0.977506 0.500000 0.162085
#
# Coordination Sequence:
#
# PCOD9225280 Si02
#       7
#     8   8   8   8   8   8   8
#     4  12  25  40  64  94 126 164 211 261 316 381
#     4  10  22  39  60  87 123 167 212 257 310 374
#     4  11  23  41  66  95 130 167 212 266 326 389
#     4  10  21  37  59  88 121 159 205 256 309 365
#     4  10  23  42  64  93 128 170 212 261 322 382
#     4  11  25  44  66  93 127 167 211 264 324 385
#     4  10  21  38  60  88 122 159 201 254 311 369
#
# _framework density 9.8765429999999999
#
# number of rings (size 3 to 8) (size 9 to 14) (size 15 to 20)
#    0.000    1.429    0.000    4.714    2.000    8.286 
#    0.000    0.000    0.000    0.000    0.000    0.000 
#    0.000    0.000    0.000    0.000    0.000    0.000 
#
# Total GULP energy -156412.161691 kJ/mol
# GULP energy per Si atom -5586.148632 kJ/mol
# Density = 0.985406 g / cm^3
# Si number density = 9.876543 Si / 1000 Ang^3
#
#
#
# Elastic Constant Matrix: (Units=GPa)
#
#
# Indices 1 2 3 4 5 6 
#
# 1 58.6198 21.6943 -0.3957 0.0000 -13.5055 0.0001
# 2 21.6943 81.6047 18.1452 0.0000 -7.5913 0.0004
# 3 -0.3957 18.1452 84.4535 0.0001 -7.0948 0.0000
# 4 0.0000 0.0000 0.0001 36.3453 0.0000 -6.8397
# 5 -13.5055 -7.5913 -7.0948 0.0000 36.2720 0.0000
# 6 0.0001 0.0004 0.0000 -6.8397 0.0000 33.3841
#
#
#
# Elastic Compliance Matrix: (Units=1/GPa)
#
#
# Indices 1 2 3 4 5 6 
#
# 1 0.020605 -0.005234 0.001803 0.000000 0.006929 0.000000
# 2 -0.005234 0.014372 -0.003074 0.000000 0.000458 0.000000
# 3 0.001803 -0.003074 0.012721 0.000000 0.002516 0.000000
# 4 0.000000 0.000000 0.000000 0.028617 0.000000 0.005863
# 5 0.006929 0.000458 0.002516 0.000000 0.030737 0.000000
# 6 0.000000 0.000000 0.000000 0.005863 0.000000 0.031156
#
#
# Mechanical properties :
#
#
# Convention : Reuss Voigt Hill
#
# Bulk Modulus (GPa) = 28.82831 33.72950 31.27891
# Shear Modulus (GPa) = 30.71632 33.54925 32.13278
#
# Velocity S-wave (km/s) = 3.94764 4.12567 4.03764
# Velocity P-wave (km/s) = 5.95017 6.30932 6.13238
#
# Compressibility (1/GPa) = 0.03468812
#
# Stress axis : x y z
#
# Youngs Moduli (GPa) = 48.53254 69.58104 78.60949
#
# Poissons Ratio (x) = 0.36419 -0.14175
# Poissons Ratio (y) = 0.25402 0.24164
# Poissons Ratio (z) = -0.08751 0.21388
#
# Static dielectric constant tensor:
#      x y z
#    x 1.687470 0.000000 0.035020 
#    y 0.000000 1.665350 0.000000 
#    z 0.035020 0.000000 1.753270 
# 
# From -- ./inp_files/380709.got.cif
#   From: 2010.05.17/outbox.ucp.g08.bks.cvg/sg12_191_cif.got.tgz:380709.got - 2010.06.11 11:47:21.
