data_PCOD9225998
_publ_section_title
;
Structure prediction by ZEFSAII (Michael W. Deem and Ramdas Pophale) SiO2 
 PCOD9225998
Probable space group: P 2/C
;
_chemical_formula_sum "Si O2"
_cell_formula_units_Z 32
_cell_length_a 20.265902
_cell_length_b 21.811838
_cell_length_c 5.375087
_cell_angle_alpha 90.000000
_cell_angle_beta 81.967212
_cell_angle_gamma 90.000000
_cell_volume 2352.672489
_symmetry_space_group_name_H-M "P 2/C"
_symmetry_group_IT_number 13
_symmetry_cell_setting 'monoclinic'
loop_
_space_group_symop_operation_xyz
x,y,z
-x,y,1/2-z
-x,-y,-z
x,-y,1/2+z
loop_
_atom_site_type_symbol
_atom_site_label
_atom_site_fract_x
_atom_site_fract_y
_atom_site_fract_z
Si Si1 0.204269 0.479014 0.680355
Si Si2 0.920619 0.156729 0.294304
Si Si3 0.825483 0.959105 0.813606
Si Si4 0.072074 0.565624 0.754422
Si Si5 0.322307 0.038326 0.046511
Si Si6 0.079741 0.766728 0.205592
Si Si7 0.113827 0.629294 0.230045
Si Si8 0.528480 0.071091 0.485019
O O1 0.239175 0.501580 0.414226
O O2 0.133536 0.517882 0.724449
O O3 0.183193 0.408360 0.684285
O O4 0.879157 0.094410 0.301940
O O5 0.905680 0.192396 0.558900
O O6 0.000000 0.144131 0.250000
O O7 0.905648 0.197839 0.058603
O O8 0.750026 0.932241 0.871506
O O9 0.832014 0.995665 0.549006
O O10 0.083086 0.610158 0.512410
O O11 0.000000 0.535727 0.750000
O O12 0.074457 0.602645 0.011385
O O13 0.391897 0.072110 0.052887
O O14 0.324056 0.986178 0.261983
O O15 0.116398 0.701804 0.203742
O O16 0.000000 0.753684 0.250000
O O17 0.500000 0.099314 0.250000
O O18 0.500000 0.000000 0.500000
O O19 0.500000 0.099478 0.750000
#
# Coordination Sequence:
#
# PCOD9225998 Si02
#       8
#     4   4   4   4   4   4   4   4
#     4   8  16  24  31  45  66  88 107 128 151 183
#     4  10  21  35  46  58  71  84 108 145 191 230
#     4  10  21  33  48  62  74  89 110 142 178 223
#     4  10  17  23  32  47  68  88 107 129 152 186
#     4  10  16  25  37  57  78  96 117 132 152 189
#     4  10  19  30  44  56  69  86 107 140 178 223
#     4  10  18  26  36  50  65  85 109 129 159 200
#     4  10  14  20  34  53  79 106 118 127 143 168
#
# _framework density 13.601554
#
# number of rings (size 3 to 8) (size 9 to 14) (size 15 to 20)
#    0.000    2.250    2.500    2.625    0.000    6.500 
#    0.000    0.000    0.000    0.000    0.000    0.000 
#    0.000    0.000    0.000    0.000    0.000    0.000 
#
# Total GULP energy -178154.463824 kJ/mol
# GULP energy per Si atom -5567.326994 kJ/mol
# Density = 1.357060 g / cm^3
# Si number density = 13.601554 Si / 1000 Ang^3
#
#
#
# Elastic Constant Matrix: (Units=GPa)
#
#
# Indices 1 2 3 4 5 6 
#
# 1 42.4365 29.9921 17.3327 0.0000 1.9872 0.0000
# 2 29.9921 55.6418 19.5237 0.0000 0.4351 0.0000
# 3 17.3327 19.5237 100.6932 0.0000 15.0458 0.0000
# 4 0.0000 0.0000 0.0000 14.8066 0.0000 2.7042
# 5 1.9872 0.4351 15.0458 0.0000 12.9105 0.0000
# 6 0.0000 0.0000 0.0000 2.7042 0.0000 0.1191
#
#
#
# Elastic Compliance Matrix: (Units=1/GPa)
#
#
# Indices 1 2 3 4 5 6 
#
# 1 0.038860 -0.020076 -0.002426 0.000000 -0.002477 0.000000
# 2 -0.020076 0.029873 -0.003206 0.000000 0.005820 0.000000
# 3 -0.002426 -0.003206 0.013196 0.000000 -0.014897 0.000000
# 4 0.000000 0.000000 0.000000 -0.021471 0.000000 0.487350
# 5 -0.002477 0.005820 -0.014897 0.000000 0.095003 0.000000
# 6 0.000000 0.000000 0.000000 0.487350 0.000000 -2.668401
#
#
# Mechanical properties :
#
#
# Convention : Reuss Voigt Hill
#
# Bulk Modulus (GPa) = 32.77282 36.94095 34.85689
# Shear Modulus (GPa) = -2.03969 14.36211 6.16121
#
# Velocity S-wave (km/s) = -1.22591 3.25301 2.13064
# Velocity P-wave (km/s) = 4.70568 6.42867 5.63344
#
# Compressibility (1/GPa) = 0.03051309
#
# Stress axis : x y z
#
# Youngs Moduli (GPa) = 25.73327 33.47532 75.77782
#
# Poissons Ratio (x) = 0.67204 0.18387
# Poissons Ratio (y) = 0.51661 0.24294
# Poissons Ratio (z) = 0.06244 0.10732
#
# Static dielectric constant tensor:
#      x y z
#    x 1.437060 0.000000 0.010890 
#    y 0.000000 1.426750 0.000000 
#    z 0.010890 0.000000 1.508450 
# 
# From -- ./inp_files/6470.got.cif
#   From: 2010.05.17/outbox.cif.g08.bks.cpg/sg13_4_cif.got.tgz:6470.got - 2010.06.03 16:44:36.
