data_PCOD9225728
_publ_section_title
;
Structure prediction by ZEFSAII (Michael W. Deem and Ramdas Pophale) SiO2 
 PCOD9225728
Probable space group: C 2/M
;
_chemical_formula_sum "Si O2"
_cell_formula_units_Z 32
_cell_length_a 9.000000
_cell_length_b 18.000000
_cell_length_c 30.000000
_cell_angle_alpha 90.000000
_cell_angle_beta 40.000000
_cell_angle_gamma 90.000000
_cell_volume 3123.947783
_symmetry_space_group_name_H-M "C 2/M"
_symmetry_group_IT_number 12
_symmetry_cell_setting 'monoclinic'
loop_
_space_group_symop_operation_xyz
x,y,z
-x,y,-z
-x,-y,-z
x,-y,z
1/2+x,1/2+y,z
1/2-x,1/2+y,-z
1/2-x,1/2-y,-z
1/2+x,1/2-y,z
loop_
_atom_site_type_symbol
_atom_site_label
_atom_site_fract_x
_atom_site_fract_y
_atom_site_fract_z
Si Si1 0.158670 0.332477 0.507205
Si Si2 0.923412 0.414724 0.211549
Si Si3 0.468533 0.220315 0.310810
Si Si4 0.704911 0.294682 0.846398
Si Si5 0.272063 0.831283 0.082863
Si Si6 0.089389 0.591611 0.350402
Si Si7 0.442381 0.346345 0.643662
Si Si8 0.116383 0.912672 0.203055
O O1 0.250000 0.250000 0.500000
O O2 0.386252 0.373014 0.434248
O O3 0.000000 0.324866 0.500000
O O4 0.029375 0.377234 0.576657
O O5 0.993746 0.500000 0.192347
O O6 0.710700 0.406461 0.295296
O O7 0.820197 0.386038 0.188637
O O8 0.134056 0.363953 0.177791
O O9 0.683779 0.228292 0.227288
O O10 0.481926 0.143489 0.336009
O O11 0.437429 0.292435 0.348241
O O12 0.241897 0.211090 0.333877
O O13 0.712983 0.235704 0.884548
O O14 0.440867 0.315208 0.900388
O O15 0.182640 0.895233 0.137123
O O16 0.500000 0.842398 0.000000
O O17 0.063092 0.500000 0.353328
O O18 0.362883 0.610099 0.279359
O O19 0.113750 0.000000 0.209703
#
# Coordination Sequence:
#
# PCOD9225728 Si02
#       8
#     8   8   8   8   8   8   8   8
#     4  12  25  40  65  91 129 168 216 266 322 380
#     4  10  23  40  64  94 126 170 217 263 315 377
#     4  11  22  39  66  92 123 168 214 260 317 378
#     4  11  23  40  66  96 134 167 211 261 317 382
#     4  12  24  41  68 101 131 164 208 262 320 384
#     4  11  25  42  65  92 127 170 216 266 322 379
#     4  11  23  37  63  92 126 163 216 270 321 373
#     4  10  22  43  66  90 127 169 213 262 320 389
#
# _framework density 10.243449
#
# number of rings (size 3 to 8) (size 9 to 14) (size 15 to 20)
#    0.000    1.000    2.500    4.875    1.750    3.500 
#    0.000    0.625    0.000    1.875    0.000    0.000 
#    0.000    0.000    0.000    0.000    0.000    0.000 
#
# Total GULP energy -178589.684336 kJ/mol
# GULP energy per Si atom -5580.927636 kJ/mol
# Density = 1.022013 g / cm^3
# Si number density = 10.243449 Si / 1000 Ang^3
#
#
#
# Elastic Constant Matrix: (Units=GPa)
#
#
# Indices 1 2 3 4 5 6 
#
# 1 32.0000 3.0011 2.3902 -0.0012 2.1782 0.0036
# 2 3.0011 60.6729 2.8221 -0.0019 9.3721 0.0024
# 3 2.3902 2.8221 136.9295 -0.0069 0.4453 0.0034
# 4 -0.0012 -0.0019 -0.0069 21.2891 0.0016 6.9311
# 5 2.1782 9.3721 0.4453 0.0016 31.8862 -0.0021
# 6 0.0036 0.0024 0.0034 6.9311 -0.0021 17.6686
#
#
#
# Elastic Compliance Matrix: (Units=1/GPa)
#
#
# Indices 1 2 3 4 5 6 
#
# 1 0.031528 -0.001261 -0.000519 0.000004 -0.001776 -0.000008
# 2 -0.001261 0.017332 -0.000319 0.000003 -0.005004 -0.000004
# 3 -0.000519 -0.000319 0.007319 0.000003 0.000027 -0.000002
# 4 0.000004 0.000003 0.000003 0.053850 -0.000005 -0.021124
# 5 -0.001776 -0.005004 0.000027 -0.000005 0.032953 0.000007
# 6 -0.000008 -0.000004 -0.000002 -0.021124 0.000007 0.064884
#
#
# Mechanical properties :
#
#
# Convention : Reuss Voigt Hill
#
# Bulk Modulus (GPa) = 19.23768 27.33657 23.28713
# Shear Modulus (GPa) = 21.79696 28.92805 25.36251
#
# Velocity S-wave (km/s) = 3.26536 3.76177 3.52232
# Velocity P-wave (km/s) = 4.86080 5.67805 5.28525
#
# Compressibility (1/GPa) = 0.05198131
#
# Stress axis : x y z
#
# Youngs Moduli (GPa) = 31.71793 57.69693 136.63883
#
# Poissons Ratio (x) = 0.07276 0.07086
# Poissons Ratio (y) = 0.04000 0.04358
# Poissons Ratio (z) = 0.01645 0.01840
#
# Static dielectric constant tensor:
#      x y z
#    x 1.788710 0.000000 -0.009920 
#    y 0.000000 1.746470 0.000000 
#    z -0.009920 0.000000 1.733370 
# 
# From -- ./inp_files/372958.got.cif
#   From: 2010.05.17/outbox.ucp.g08.bks.cvg/sg12_187_cif.got.tgz:372958.got - 2010.06.11 11:47:21.
