data_PCOD9225071
_publ_section_title
;
Structure prediction by ZEFSAII (Michael W. Deem and Ramdas Pophale) SiO2 
 PCOD9225071
Probable space group: C 2/M
;
_chemical_formula_sum "Si O2"
_cell_formula_units_Z 18
_cell_length_a 9.000000
_cell_length_b 30.000000
_cell_length_c 9.000000
_cell_angle_alpha 90.000000
_cell_angle_beta 130.000000
_cell_angle_gamma 90.000000
_cell_volume 1861.487997
_symmetry_space_group_name_H-M "C 2/M"
_symmetry_group_IT_number 12
_symmetry_cell_setting 'monoclinic'
loop_
_space_group_symop_operation_xyz
x,y,z
-x,y,-z
-x,-y,-z
x,-y,z
1/2+x,1/2+y,z
1/2-x,1/2+y,-z
1/2-x,1/2-y,-z
1/2+x,1/2-y,z
loop_
_atom_site_type_symbol
_atom_site_label
_atom_site_fract_x
_atom_site_fract_y
_atom_site_fract_z
Si Si1 0.140890 0.809488 0.364516
Si Si2 0.936331 0.381604 0.631542
Si Si3 0.137661 0.117643 0.947208
Si Si4 0.000000 0.736723 0.500000
Si Si5 0.090326 0.049576 0.396389
O O1 0.283386 0.840694 0.557947
O O2 0.301432 0.791484 0.349388
O O3 0.960956 0.838216 0.188320
O O4 0.051694 0.768370 0.395969
O O5 0.795229 0.424564 0.545127
O O6 0.000000 0.378818 0.500000
O O7 0.134166 0.381142 0.858171
O O8 0.070075 0.077651 0.797278
O O9 0.000000 0.110490 0.000000
O O10 0.000000 0.046072 0.500000
O O11 0.119565 0.000000 0.351653
#
# Coordination Sequence:
#
# PCOD9225071 Si02
#       5
#     8   8   8   4   8
#     4  10  21  39  62  87 127 159 206 256 302 363
#     4  11  21  41  65  89 125 166 204 251 305 368
#     4  11  21  40  65  91 123 166 206 248 305 371
#     4  10  20  40  62  88 124 164 200 262 308 354
#     4  10  24  43  63  93 128 158 202 259 305 359
#
# _framework density 9.6696840000000002
#
# number of rings (size 3 to 8) (size 9 to 14) (size 15 to 20)
#    0.000    1.556    5.556    0.000    6.222    2.667 
#    0.000   14.444    0.000    0.000    0.000    0.000 
#    0.000    0.000    0.000    0.000    0.000    0.000 
#
# Total GULP energy -100244.444834 kJ/mol
# GULP energy per Si atom -5569.135824 kJ/mol
# Density = 0.964767 g / cm^3
# Si number density = 9.669684 Si / 1000 Ang^3
#
#
#
# Elastic Constant Matrix: (Units=GPa)
#
#
# Indices 1 2 3 4 5 6 
#
# 1 63.0893 37.4043 29.6189 0.0000 26.2487 0.0000
# 2 37.4043 127.7745 60.0574 0.0000 18.9184 0.0000
# 3 29.6189 60.0574 159.5729 0.0000 52.9998 0.0000
# 4 0.0000 0.0000 0.0000 -33.1161 0.0000 -21.2134
# 5 26.2487 18.9184 52.9998 0.0000 41.0976 0.0000
# 6 0.0000 0.0000 0.0000 -21.2134 0.0000 25.1773
#
#
#
# Elastic Compliance Matrix: (Units=1/GPa)
#
#
# Indices 1 2 3 4 5 6 
#
# 1 0.025506 -0.006545 0.003742 0.000000 -0.018103 0.000000
# 2 -0.006545 0.011192 -0.004679 0.000000 0.005062 0.000000
# 3 0.003742 -0.004679 0.012964 0.000000 -0.016955 0.000000
# 4 0.000000 0.000000 0.000000 -0.019612 0.000000 -0.016524
# 5 -0.018103 0.005062 -0.016955 0.000000 0.055430 0.000000
# 6 0.000000 0.000000 0.000000 -0.016524 0.000000 0.025796
#
#
# Mechanical properties :
#
#
# Convention : Reuss Voigt Hill
#
# Bulk Modulus (GPa) = 28.81948 67.17755 47.99852
# Shear Modulus (GPa) = 36.28285 21.52219 28.90252
#
# Velocity S-wave (km/s) = 4.33611 3.33959 3.87006
# Velocity P-wave (km/s) = 6.32483 7.04855 6.69647
#
# Compressibility (1/GPa) = 0.03469875
#
# Stress axis : x y z
#
# Youngs Moduli (GPa) = 39.20625 89.35109 77.13387
#
# Poissons Ratio (x) = 0.58479 -0.28860
# Poissons Ratio (y) = 0.25660 0.36087
# Poissons Ratio (z) = -0.14669 0.41803
#
# Static dielectric constant tensor:
#      x y z
#    x 1.692590 0.000000 -0.039310 
#    y 0.000000 1.805870 0.000000 
#    z -0.039310 0.000000 1.718540 
# 
# From -- ./inp_files/41964.got.cif
#   From: 2010.05.17/outbox.ucp.g08.bks.cvg/sg12_21_cif.got.tgz:41964.got - 2010.06.11 11:47:21.
