data_PCOD9225404
_publ_section_title
;
Structure prediction by ZEFSAII (Michael W. Deem and Ramdas Pophale) SiO2 
 PCOD9225404
Probable space group: C 2/M
;
_chemical_formula_sum "Si O2"
_cell_formula_units_Z 20
_cell_length_a 24.000000
_cell_length_b 18.000000
_cell_length_c 9.000000
_cell_angle_alpha 90.000000
_cell_angle_beta 150.000000
_cell_angle_gamma 90.000000
_cell_volume 1944.000000
_symmetry_space_group_name_H-M "C 2/M"
_symmetry_group_IT_number 12
_symmetry_cell_setting 'monoclinic'
loop_
_space_group_symop_operation_xyz
x,y,z
-x,y,-z
-x,-y,-z
x,-y,z
1/2+x,1/2+y,z
1/2-x,1/2+y,-z
1/2-x,1/2-y,-z
1/2+x,1/2-y,z
loop_
_atom_site_type_symbol
_atom_site_label
_atom_site_fract_x
_atom_site_fract_y
_atom_site_fract_z
Si Si1 0.027077 0.585932 0.723354
Si Si2 0.402399 0.697827 0.651719
Si Si3 0.268852 0.088737 0.591544
Si Si4 0.888331 0.087755 0.337893
Si Si5 0.697196 0.140235 0.664151
O O1 0.055945 0.500000 0.760668
O O2 0.000000 0.622547 0.500000
O O3 0.911741 0.595101 0.539879
O O4 0.123555 0.611390 0.058975
O O5 0.324870 0.642925 0.565507
O O6 0.419542 0.644440 0.545349
O O7 0.341678 0.773690 0.453852
O O8 0.500000 0.716831 0.000000
O O9 0.273581 0.106657 0.428436
O O10 0.250436 0.000000 0.567951
O O11 0.000000 0.082573 0.500000
O O12 0.858705 0.000000 0.311236
O O13 0.790704 0.123628 0.007241
#
# Coordination Sequence:
#
# PCOD9225404 Si02
#       5
#     8   8   8   8   8
#     4  10  21  38  62  92 126 167 216 267 318 377
#     4  12  26  43  65  96 134 172 213 265 325 385
#     4  11  23  40  64  93 128 172 219 265 317 382
#     4  11  25  45  69  96 128 171 220 266 317 382
#     4  12  24  42  66  95 130 168 213 268 325 381
#
# _framework density 10.288066000000001
#
# number of rings (size 3 to 8) (size 9 to 14) (size 15 to 20)
#    0.000    0.800    0.000    7.800    0.000    8.800 
#    0.000    0.000    0.000    0.000    0.000    0.000 
#    0.000    0.000    0.000    0.000    0.000    0.000 
#
# Total GULP energy -111494.504292 kJ/mol
# GULP energy per Si atom -5574.725215 kJ/mol
# Density = 1.026465 g / cm^3
# Si number density = 10.288066 Si / 1000 Ang^3
#
#
#
# Elastic Constant Matrix: (Units=GPa)
#
#
# Indices 1 2 3 4 5 6 
#
# 1 55.6255 -10.8311 11.1060 0.0000 -18.5261 0.0000
# 2 -10.8311 103.2308 44.0295 0.0000 -13.1224 0.0000
# 3 11.1060 44.0295 130.0996 0.0000 -18.8870 0.0000
# 4 0.0000 0.0000 0.0000 22.5380 0.0000 7.2539
# 5 -18.5261 -13.1224 -18.8870 0.0000 38.4972 0.0000
# 6 0.0000 0.0000 0.0000 7.2539 0.0000 -5.7401
#
#
#
# Elastic Compliance Matrix: (Units=1/GPa)
#
#
# Indices 1 2 3 4 5 6 
#
# 1 0.023230 0.004742 -0.001863 0.000000 0.011881 0.000000
# 2 0.004742 0.012454 -0.003954 0.000000 0.004588 0.000000
# 3 -0.001863 -0.003954 0.009537 0.000000 0.002435 0.000000
# 4 0.000000 0.000000 0.000000 0.031541 0.000000 0.039859
# 5 0.011881 0.004588 0.002435 0.000000 0.034452 0.000000
# 6 0.000000 0.000000 0.000000 0.039859 0.000000 -0.123842
#
#
# Mechanical properties :
#
#
# Convention : Reuss Voigt Hill
#
# Bulk Modulus (GPa) = 23.21702 41.95162 32.58432
# Shear Modulus (GPa) = 1289.41851 27.36912 658.39382
#
# Velocity S-wave (km/s) = 25.06028 3.65106 17.90737
# Velocity P-wave (km/s) = 29.13186 6.18114 21.05791
#
# Compressibility (1/GPa) = 0.04307185
#
# Stress axis : x y z
#
# Youngs Moduli (GPa) = 43.04819 80.29515 104.85545
#
# Poissons Ratio (x) = -0.38078 0.19535
# Poissons Ratio (y) = -0.20415 0.41456
# Poissons Ratio (z) = 0.08020 0.31746
#
# Static dielectric constant tensor:
#      x y z
#    x 2.084610 0.000000 -0.163520 
#    y 0.000000 1.733800 0.000000 
#    z -0.163520 0.000000 1.864220 
# 
# From -- ./inp_files/98289.got.cif
#   From: 2010.05.17/outbox.ucp.g08.bks.cvg/sg12_50_cif.got.tgz:98289.got - 2010.06.11 11:47:21.
