data_PCOD9225684
_publ_section_title
;
Structure prediction by ZEFSAII (Michael W. Deem and Ramdas Pophale) SiO2 
 PCOD9225684
Probable space group: C 2/M
;
_chemical_formula_sum "Si O2"
_cell_formula_units_Z 24
_cell_length_a 18.000000
_cell_length_b 9.000000
_cell_length_c 15.000000
_cell_angle_alpha 90.000000
_cell_angle_beta 90.000000
_cell_angle_gamma 90.000000
_cell_volume 2430.000000
_symmetry_space_group_name_H-M "C 2/M"
_symmetry_group_IT_number 12
_symmetry_cell_setting 'monoclinic'
loop_
_space_group_symop_operation_xyz
x,y,z
-x,y,-z
-x,-y,-z
x,-y,z
1/2+x,1/2+y,z
1/2-x,1/2+y,-z
1/2-x,1/2-y,-z
1/2+x,1/2-y,z
loop_
_atom_site_type_symbol
_atom_site_label
_atom_site_fract_x
_atom_site_fract_y
_atom_site_fract_z
Si Si1 0.008743 0.331350 0.293564
Si Si2 0.953789 0.678957 0.909274
Si Si3 0.209180 0.821128 0.086096
Si Si4 0.609769 0.675341 0.597010
Si Si5 0.345281 0.170415 0.589880
Si Si6 0.770576 0.323501 0.284725
O O1 0.976576 0.500000 0.298776
O O2 0.010151 0.287223 0.188611
O O3 0.090395 0.340410 0.335819
O O4 0.969351 0.221824 0.363054
O O5 0.942525 0.500000 0.909361
O O6 0.874927 0.760948 0.912876
O O7 0.000000 0.714544 0.000000
O O8 0.245136 0.784547 0.183603
O O9 0.210675 0.000000 0.077889
O O10 0.250000 0.750000 0.000000
O O11 0.616225 0.500000 0.581128
O O12 0.629235 0.764210 0.505867
O O13 0.660283 0.729634 0.679861
O O14 0.288253 0.279851 0.638527
O O15 0.316943 0.000000 0.576360
O O16 0.784503 0.500000 0.286195
#
# Coordination Sequence:
#
# PCOD9225684 Si02
#       6
#     8   8   8   8   8   8
#     4  10  22  41  64  92 128 167 207 254 311 372
#     4  10  22  42  68  96 127 164 205 252 311 375
#     4  11  25  43  67  95 127 164 207 258 310 369
#     4  12  26  40  61  93 129 167 210 259 308 369
#     4  11  22  41  67  92 124 165 210 259 312 372
#     4  11  24  43  65  91 126 166 209 258 312 369
#
# _framework density 9.8765429999999999
#
# number of rings (size 3 to 8) (size 9 to 14) (size 15 to 20)
#    0.000    1.167    1.667    4.000    2.333    6.333 
#    0.000    0.000    0.000    0.000    0.000    0.000 
#    0.000    0.000    0.000    0.000    0.000    0.000 
#
# Total GULP energy -133961.759265 kJ/mol
# GULP energy per Si atom -5581.739969 kJ/mol
# Density = 0.985406 g / cm^3
# Si number density = 9.876543 Si / 1000 Ang^3
#
#
#
# Elastic Constant Matrix: (Units=GPa)
#
#
# Indices 1 2 3 4 5 6 
#
# 1 28.7851 0.0262 -5.4441 0.0000 -0.0788 0.0000
# 2 0.0262 70.8418 27.4122 0.0000 -4.6003 0.0000
# 3 -5.4441 27.4122 128.8678 0.0000 -3.9274 0.0000
# 4 0.0000 0.0000 0.0000 33.4521 0.0000 -2.2641
# 5 -0.0788 -4.6003 -3.9274 0.0000 37.6595 0.0000
# 6 0.0000 0.0000 0.0000 -2.2641 0.0000 31.3306
#
#
#
# Elastic Compliance Matrix: (Units=1/GPa)
#
#
# Indices 1 2 3 4 5 6 
#
# 1 0.035047 -0.000629 0.001619 0.000000 0.000165 0.000000
# 2 -0.000629 0.015483 -0.003273 0.000000 0.001549 0.000000
# 3 0.001619 -0.003273 0.008540 0.000000 0.000494 0.000000
# 4 0.000000 0.000000 0.000000 0.030040 0.000000 0.002171
# 5 0.000165 0.001549 0.000494 0.000000 0.026795 0.000000
# 6 0.000000 0.000000 0.000000 0.002171 0.000000 0.032075
#
#
# Mechanical properties :
#
#
# Convention : Reuss Voigt Hill
#
# Bulk Modulus (GPa) = 18.34673 30.27592 24.31133
# Shear Modulus (GPa) = 29.28889 34.25512 31.77201
#
# Velocity S-wave (km/s) = 3.85483 4.16885 4.01491
# Velocity P-wave (km/s) = 5.39640 6.20748 5.81610
#
# Compressibility (1/GPa) = 0.05450561
#
# Stress axis : x y z
#
# Youngs Moduli (GPa) = 28.53272 64.58614 117.10205
#
# Poissons Ratio (x) = 0.04061 -0.18964
# Poissons Ratio (y) = 0.01794 0.38326
# Poissons Ratio (z) = -0.04621 0.21138
#
# Static dielectric constant tensor:
#      x y z
#    x 1.827320 0.000000 0.001330 
#    y 0.000000 1.688440 0.000000 
#    z 0.001330 0.000000 1.644890 
# 
# From -- ./inp_files/221587.got.cif
#   From: 2010.05.17/outbox.ucp.g08.bks.cvg/sg12_111_cif.got.tgz:221587.got - 2010.06.11 11:47:21.
