data_PCOD9225481
_publ_section_title
;
Structure prediction by ZEFSAII (Michael W. Deem and Ramdas Pophale) SiO2 
 PCOD9225481
Probable space group: C 2/M
;
_chemical_formula_sum "Si O2"
_cell_formula_units_Z 32
_cell_length_a 24.000000
_cell_length_b 9.000000
_cell_length_c 30.000000
_cell_angle_alpha 90.000000
_cell_angle_beta 30.000000
_cell_angle_gamma 90.000000
_cell_volume 3240.000000
_symmetry_space_group_name_H-M "C 2/M"
_symmetry_group_IT_number 12
_symmetry_cell_setting 'monoclinic'
loop_
_space_group_symop_operation_xyz
x,y,z
-x,y,-z
-x,-y,-z
x,-y,z
1/2+x,1/2+y,z
1/2-x,1/2+y,-z
1/2-x,1/2-y,-z
1/2+x,1/2-y,z
loop_
_atom_site_type_symbol
_atom_site_label
_atom_site_fract_x
_atom_site_fract_y
_atom_site_fract_z
Si Si1 0.774835 0.177322 0.277502
Si Si2 0.405463 0.175939 0.837569
Si Si3 0.184858 0.320290 0.432532
Si Si4 0.535334 0.324218 0.113586
Si Si5 0.979424 0.321366 0.378927
Si Si6 0.280124 0.677278 0.779189
Si Si7 0.314006 0.675526 0.070873
Si Si8 0.889213 0.178338 0.354957
O O1 0.700351 0.230812 0.371058
O O2 0.753496 0.260092 0.245989
O O3 0.902421 0.195835 0.205471
O O4 0.756316 0.000000 0.283082
O O5 0.405684 0.230721 0.888452
O O6 0.291889 0.197997 0.888687
O O7 0.500354 0.272312 0.747860
O O8 0.431773 0.000000 0.817415
O O9 0.191102 0.500000 0.425932
O O10 0.072920 0.283452 0.536688
O O11 0.286202 0.275045 0.394946
O O12 0.558962 0.500000 0.104781
O O13 0.581335 0.286494 0.032767
O O14 0.987898 0.500000 0.368808
O O15 0.899408 0.259424 0.395434
O O16 0.099708 0.247231 0.291680
O O17 0.286113 0.500000 0.774315
O O18 0.199492 0.732895 0.874635
O O19 0.317831 0.500000 0.079542
O O20 0.885094 0.000000 0.363810
#
# Coordination Sequence:
#
# PCOD9225481 Si02
#       8
#     8   8   8   8   8   8   8   8
#     4  10  21  42  65  85 114 156 202 248 296 354
#     4  11  21  34  58  91 127 162 196 237 292 351
#     4   9  20  38  63  91 120 156 197 240 296 356
#     4  10  21  39  65  91 120 157 199 244 295 353
#     4  11  22  39  62  90 121 156 198 244 296 357
#     4  12  26  42  60  85 117 158 201 251 302 349
#     4  10  22  40  62  90 121 159 200 241 293 356
#     4  11  20  36  61  91 124 158 197 240 292 354
#
# _framework density 9.8765429999999999
#
# number of rings (size 3 to 8) (size 9 to 14) (size 15 to 20)
#    0.000    1.500    2.500    3.000    0.000    2.500 
#    0.000    8.125    0.000    0.000    0.000    0.000 
#    0.000    0.000    0.000    0.000    0.000    0.000 
#
# Total GULP energy -178830.451151 kJ/mol
# GULP energy per Si atom -5588.451598 kJ/mol
# Density = 0.985406 g / cm^3
# Si number density = 9.876543 Si / 1000 Ang^3
#
#
#
# Elastic Constant Matrix: (Units=GPa)
#
#
# Indices 1 2 3 4 5 6 
#
# 1 88.4001 35.3717 7.5955 0.0005 39.5056 -0.0004
# 2 35.3717 77.4633 19.8019 0.0004 19.2744 0.0003
# 3 7.5955 19.8019 75.0159 0.0001 36.7217 -0.0001
# 4 0.0005 0.0004 0.0001 16.9474 -0.0001 6.2387
# 5 39.5056 19.2744 36.7217 -0.0001 35.9937 0.0001
# 6 -0.0004 0.0003 -0.0001 6.2387 0.0001 37.1489
#
#
#
# Elastic Compliance Matrix: (Units=1/GPa)
#
#
# Indices 1 2 3 4 5 6 
#
# 1 0.074142 -0.015831 0.064639 -0.000003 -0.138845 0.000002
# 2 -0.015831 0.018274 -0.013857 0.000000 0.021727 0.000000
# 3 0.064639 -0.013857 0.082984 -0.000003 -0.148189 0.000002
# 4 -0.000003 0.000000 -0.000003 0.062894 0.000007 -0.010562
# 5 -0.138845 0.021727 -0.148189 0.000007 0.319726 -0.000004
# 6 0.000002 0.000000 0.000002 -0.010562 -0.000004 0.028692
#
#
# Mechanical properties :
#
#
# Convention : Reuss Voigt Hill
#
# Bulk Modulus (GPa) = 4.07659 40.71308 22.39483
# Shear Modulus (GPa) = 8.35310 29.89201 19.12255
#
# Velocity S-wave (km/s) = 2.05863 3.89431 3.11477
# Velocity P-wave (km/s) = 2.77828 6.39348 4.92927
#
# Compressibility (1/GPa) = 0.24530323
#
# Stress axis : x y z
#
# Youngs Moduli (GPa) = 13.48758 54.72150 12.05045
#
# Poissons Ratio (x) = 0.86632 -0.77893
# Poissons Ratio (y) = 0.21353 0.16698
# Poissons Ratio (z) = -0.87183 0.75827
#
# Static dielectric constant tensor:
#      x y z
#    x 1.675720 0.000000 0.013580 
#    y 0.000000 1.657850 0.000000 
#    z 0.013580 0.000000 1.735230 
# 
# From -- ./inp_files/382301.got.cif
#   From: 2010.05.17/outbox.ucp.g08.bks.cvg/sg12_192_cif.got.tgz:382301.got - 2010.06.11 11:47:21.
