data_PCOD9225771
_publ_section_title
;
Structure prediction by ZEFSAII (Michael W. Deem and Ramdas Pophale) SiO2 
 PCOD9225771
Probable space group: C 2/M
;
_chemical_formula_sum "Si O2"
_cell_formula_units_Z 24
_cell_length_a 24.000000
_cell_length_b 12.000000
_cell_length_c 9.000000
_cell_angle_alpha 90.000000
_cell_angle_beta 90.000000
_cell_angle_gamma 90.000000
_cell_volume 2592.000000
_symmetry_space_group_name_H-M "C 2/M"
_symmetry_group_IT_number 12
_symmetry_cell_setting 'monoclinic'
loop_
_space_group_symop_operation_xyz
x,y,z
-x,y,-z
-x,-y,-z
x,-y,z
1/2+x,1/2+y,z
1/2-x,1/2+y,-z
1/2-x,1/2-y,-z
1/2+x,1/2-y,z
loop_
_atom_site_type_symbol
_atom_site_label
_atom_site_fract_x
_atom_site_fract_y
_atom_site_fract_z
Si Si1 0.968001 0.500000 0.747955
Si Si2 0.744291 0.141638 0.882122
Si Si3 0.124554 0.304530 0.746173
Si Si4 0.583608 0.000000 0.562557
Si Si5 0.367738 0.629660 0.762975
Si Si6 0.441492 0.208272 0.958670
Si Si7 0.564316 0.632785 0.540723
O O1 0.925161 0.500000 0.612001
O O2 0.958620 0.607199 0.850601
O O3 0.026297 0.500000 0.658839
O O4 0.688742 0.180037 0.794650
O O5 0.801356 0.145809 0.785892
O O6 0.738995 0.000000 0.921678
O O7 0.750000 0.250000 0.000000
O O8 0.115276 0.391549 0.615064
O O9 0.094979 0.193458 0.678999
O O10 0.089151 0.334330 0.893433
O O11 0.379249 0.500000 0.797029
O O12 0.399709 0.709057 0.876920
O O13 0.395320 0.651164 0.601657
O O14 0.500000 0.265566 0.000000
O O15 0.500000 0.671319 0.500000
O O16 0.560483 0.500000 0.568237
#
# Coordination Sequence:
#
# PCOD9225771 Si02
#       7
#     4   8   8   4   8   8   8
#     4  11  24  37  60  89 132 167 204 258 338 392
#     4  11  24  44  67  95 133 177 224 276 332 393
#     4  12  23  38  66  93 127 167 218 269 324 391
#     4  11  23  40  59  92 129 168 209 269 323 395
#     4  10  23  43  64  87 128 173 214 271 328 388
#     4  12  22  36  61  95 125 163 213 265 324 398
#     4  10  23  43  66  95 132 174 218 271 336 401
#
# _framework density 9.2592590000000001
#
# number of rings (size 3 to 8) (size 9 to 14) (size 15 to 20)
#    0.000    1.000    4.167    2.750    2.333    2.333 
#    0.000    0.000    0.000    0.000    0.000    0.000 
#    0.000    0.000    0.000    0.000    0.000    0.000 
#
# Total GULP energy -133654.616852 kJ/mol
# GULP energy per Si atom -5568.942369 kJ/mol
# Density = 0.923818 g / cm^3
# Si number density = 9.259259 Si / 1000 Ang^3
#
#
#
# Elastic Constant Matrix: (Units=GPa)
#
#
# Indices 1 2 3 4 5 6 
#
# 1 160.1076 37.3030 46.0105 0.0000 10.6133 0.0000
# 2 37.3030 81.4273 36.5687 0.0000 12.1214 0.0000
# 3 46.0105 36.5687 94.3182 0.0000 8.0315 0.0000
# 4 0.0000 0.0000 0.0000 -20.3135 0.0000 -26.2712
# 5 10.6133 12.1214 8.0315 0.0000 38.9850 0.0000
# 6 0.0000 0.0000 0.0000 -26.2712 0.0000 6.9996
#
#
#
# Elastic Compliance Matrix: (Units=1/GPa)
#
#
# Indices 1 2 3 4 5 6 
#
# 1 0.007600 -0.002087 -0.002827 0.000000 -0.000838 0.000000
# 2 -0.002087 0.015927 -0.004869 0.000000 -0.003381 0.000000
# 3 -0.002827 -0.004869 0.013919 0.000000 -0.000584 0.000000
# 4 0.000000 0.000000 0.000000 -0.008409 0.000000 -0.031562
# 5 -0.000838 -0.003381 -0.000584 0.000000 0.027050 0.000000
# 6 0.000000 0.000000 0.000000 -0.031562 0.000000 0.024405
#
#
# Mechanical properties :
#
#
# Convention : Reuss Voigt Hill
#
# Bulk Modulus (GPa) = 55.92997 63.95748 59.94373
# Shear Modulus (GPa) = 47.16175 19.53228 33.34701
#
# Velocity S-wave (km/s) = 5.05199 3.25120 4.24811
# Velocity P-wave (km/s) = 8.01860 6.97895 7.51677
#
# Compressibility (1/GPa) = 0.01787950
#
# Stress axis : x y z
#
# Youngs Moduli (GPa) = 131.57861 62.78599 71.84478
#
# Poissons Ratio (x) = 0.13107 0.20309
# Poissons Ratio (y) = 0.27467 0.34981
# Poissons Ratio (z) = 0.37194 0.30571
#
# Static dielectric constant tensor:
#      x y z
#    x 1.650430 0.000000 0.008690 
#    y 0.000000 1.727140 0.000000 
#    z 0.008690 0.000000 1.641250 
# 
# From -- ./inp_files/94443.got.cif
#   From: 2010.05.17/outbox.ucp.g08.bks.cvg/sg12_48_cif.got.tgz:94443.got - 2010.06.11 11:47:21.
