data_PCOD9225805
_publ_section_title
;
Structure prediction by ZEFSAII (Michael W. Deem and Ramdas Pophale) SiO2 
 PCOD9225805
Probable space group: C 2/M
;
_chemical_formula_sum "Si O2"
_cell_formula_units_Z 28
_cell_length_a 15.000000
_cell_length_b 18.000000
_cell_length_c 12.000000
_cell_angle_alpha 90.000000
_cell_angle_beta 60.000000
_cell_angle_gamma 90.000000
_cell_volume 2805.922308
_symmetry_space_group_name_H-M "C 2/M"
_symmetry_group_IT_number 12
_symmetry_cell_setting 'monoclinic'
loop_
_space_group_symop_operation_xyz
x,y,z
-x,y,-z
-x,-y,-z
x,-y,z
1/2+x,1/2+y,z
1/2-x,1/2+y,-z
1/2-x,1/2-y,-z
1/2+x,1/2-y,z
loop_
_atom_site_type_symbol
_atom_site_label
_atom_site_fract_x
_atom_site_fract_y
_atom_site_fract_z
Si Si1 0.982345 0.668521 0.378072
Si Si2 0.429206 0.588931 0.442371
Si Si3 0.984355 0.809161 0.208178
Si Si4 0.877135 0.636652 0.073272
Si Si5 0.807682 0.411965 0.364144
Si Si6 0.839097 0.799185 0.086043
Si Si7 0.337874 0.084046 0.852258
O O1 0.993776 0.739449 0.287579
O O2 0.871817 0.634585 0.414463
O O3 0.000000 0.682009 0.500000
O O4 0.062355 0.607821 0.280422
O O5 0.500000 0.615667 0.500000
O O6 0.436849 0.500000 0.432051
O O7 0.465305 0.622896 0.303247
O O8 0.311800 0.608149 0.545826
O O9 0.892347 0.804550 0.174791
O O10 0.082180 0.814164 0.065191
O O11 0.845746 0.603998 0.213166
O O12 0.812974 0.712121 0.094582
O O13 0.860265 0.589765 0.971376
O O14 0.000000 0.655147 0.000000
O O15 0.820037 0.500000 0.375846
O O16 0.747367 0.856217 0.129065
O O17 0.306610 0.000000 0.846178
#
# Coordination Sequence:
#
# PCOD9225805 Si02
#       7
#     8   8   8   8   8   8   8
#     4  12  26  44  68 101 136 181 226 276 337 410
#     4  10  25  45  66  96 135 178 229 285 337 400
#     4  11  23  47  69  96 129 177 230 281 339 398
#     4  12  21  45  72  98 133 177 227 282 329 395
#     4  11  24  43  69  99 134 180 225 280 343 401
#     4  11  23  43  71  97 134 171 224 283 338 391
#     4  12  27  42  66 104 139 177 222 276 342 406
#
# _framework density 9.9788940000000004
#
# number of rings (size 3 to 8) (size 9 to 14) (size 15 to 20)
#    0.000    0.714    5.714    1.714    4.000    4.571 
#    0.000    1.429    0.000    0.000    0.000    0.000 
#    0.000    0.000    0.000    0.000    0.000    0.000 
#
# Total GULP energy -156477.051083 kJ/mol
# GULP energy per Si atom -5588.466110 kJ/mol
# Density = 0.995618 g / cm^3
# Si number density = 9.978894 Si / 1000 Ang^3
#
#
#
# Elastic Constant Matrix: (Units=GPa)
#
#
# Indices 1 2 3 4 5 6 
#
# 1 102.7526 44.0561 49.0989 0.0000 12.4295 0.0000
# 2 44.0561 79.6774 20.8503 0.0000 -3.6350 0.0000
# 3 49.0989 20.8503 118.4288 0.0000 35.6293 0.0000
# 4 0.0000 0.0000 0.0000 34.4171 0.0000 39.2011
# 5 12.4295 -3.6350 35.6293 0.0000 34.1353 0.0000
# 6 0.0000 0.0000 0.0000 39.2011 0.0000 225.4499
#
#
#
# Elastic Compliance Matrix: (Units=1/GPa)
#
#
# Indices 1 2 3 4 5 6 
#
# 1 0.015229 -0.007299 -0.004558 0.000000 -0.001565 0.000000
# 2 -0.007299 0.017423 -0.002040 0.000000 0.006642 0.000000
# 3 -0.004558 -0.002040 0.014955 0.000000 -0.014167 0.000000
# 4 0.000000 0.000000 0.000000 0.036231 0.000000 -0.006300
# 5 -0.001565 0.006642 -0.014167 0.000000 0.045359 0.000000
# 6 0.000000 0.000000 0.000000 -0.006300 0.000000 0.005531
#
#
# Mechanical properties :
#
#
# Convention : Reuss Voigt Hill
#
# Bulk Modulus (GPa) = 50.46999 58.76325 54.61662
# Shear Modulus (GPa) = 29.56381 71.25737 50.41059
#
# Velocity S-wave (km/s) = 3.85296 5.98177 5.03125
# Velocity P-wave (km/s) = 6.71841 8.78729 7.82156
#
# Compressibility (1/GPa) = 0.01981375
#
# Stress axis : x y z
#
# Youngs Moduli (GPa) = 65.66456 57.39411 66.86911
#
# Poissons Ratio (x) = 0.41894 0.30477
# Poissons Ratio (y) = 0.47930 0.13639
# Poissons Ratio (z) = 0.29928 0.11706
#
# Static dielectric constant tensor:
#      x y z
#    x 1.721210 0.000000 -0.011870 
#    y 0.000000 1.713110 0.000000 
#    z -0.011870 0.000000 1.664020 
# 
# From -- ./inp_files/146064.got.cif
#   From: 2010.05.17/outbox.ucp.g08.bks.cvg/sg12_74_cif.got.tgz:146064.got - 2010.06.11 11:47:21.
