data_PCOD9225293
_publ_section_title
;
Structure prediction by ZEFSAII (Michael W. Deem and Ramdas Pophale) SiO2 
 PCOD9225293
Probable space group: C 2/M
;
_chemical_formula_sum "Si O2"
_cell_formula_units_Z 20
_cell_length_a 9.000000
_cell_length_b 24.000000
_cell_length_c 9.000000
_cell_angle_alpha 90.000000
_cell_angle_beta 100.000000
_cell_angle_gamma 90.000000
_cell_volume 1914.466272
_symmetry_space_group_name_H-M "C 2/M"
_symmetry_group_IT_number 12
_symmetry_cell_setting 'monoclinic'
loop_
_space_group_symop_operation_xyz
x,y,z
-x,y,-z
-x,-y,-z
x,-y,z
1/2+x,1/2+y,z
1/2-x,1/2+y,-z
1/2-x,1/2-y,-z
1/2+x,1/2-y,z
loop_
_atom_site_type_symbol
_atom_site_label
_atom_site_fract_x
_atom_site_fract_y
_atom_site_fract_z
Si Si1 0.342813 0.000000 0.052438
Si Si2 0.791309 0.800777 0.711900
Si Si3 0.960578 0.886595 0.323127
Si Si4 0.406486 0.123861 0.139225
Si Si5 0.947342 0.000000 0.158804
Si Si6 0.667349 0.826798 0.358749
O O1 0.336506 0.060821 0.132754
O O2 0.500000 0.000000 0.000000
O O3 0.230511 0.000000 0.893976
O O4 0.714140 0.827249 0.845243
O O5 0.702712 0.815111 0.539728
O O6 0.825382 0.734977 0.713174
O O7 0.943511 0.835412 0.720158
O O8 0.992728 0.943139 0.243354
O O9 0.792131 0.864668 0.300908
O O10 0.000000 0.897380 0.500000
O O11 0.520026 0.137914 0.293793
O O12 0.500000 0.129342 0.000000
O O13 0.000000 0.000000 0.000000
#
# Coordination Sequence:
#
# PCOD9225293 Si02
#       6
#     4   8   8   8   4   8
#     4  10  22  39  57  79 115 155 189 230 286 338
#     4  10  21  39  61  87 117 151 190 234 290 343
#     4  10  21  37  60  88 114 148 196 240 281 339
#     4  11  22  38  59  86 118 153 193 235 283 341
#     4  12  23  39  60  81 116 157 190 236 293 340
#     4  10  21  39  62  85 117 154 188 236 289 339
#
# _framework density 10.446776
#
# number of rings (size 3 to 8) (size 9 to 14) (size 15 to 20)
#    0.000    1.600    0.000    5.700    0.000    4.000 
#    0.000    8.000    0.000    0.000    0.000    0.000 
#    0.000    0.000    0.000    0.000    0.000    0.000 
#
# Total GULP energy -111413.583163 kJ/mol
# GULP energy per Si atom -5570.679158 kJ/mol
# Density = 1.042300 g / cm^3
# Si number density = 10.446776 Si / 1000 Ang^3
#
#
#
# Elastic Constant Matrix: (Units=GPa)
#
#
# Indices 1 2 3 4 5 6 
#
# 1 50.8444 -3.6642 9.3820 0.0000 -13.2959 0.0000
# 2 -3.6642 128.3400 -7.1865 0.0000 -24.1497 0.0000
# 3 9.3820 -7.1865 -20.8426 0.0000 -30.1838 0.0000
# 4 0.0000 0.0000 0.0000 -20.1212 0.0000 -10.8709
# 5 -13.2959 -24.1497 -30.1838 0.0000 33.8105 0.0000
# 6 0.0000 0.0000 0.0000 -10.8709 0.0000 42.9614
#
#
#
# Elastic Compliance Matrix: (Units=1/GPa)
#
#
# Indices 1 2 3 4 5 6 
#
# 1 0.022379 0.002033 -0.002388 0.000000 0.008121 0.000000
# 2 0.002033 0.007974 -0.004902 0.000000 0.002119 0.000000
# 3 -0.002388 -0.004902 -0.017852 0.000000 -0.020378 0.000000
# 4 0.000000 0.000000 0.000000 -0.043722 0.000000 -0.011063
# 5 0.008121 0.002119 -0.020378 0.000000 0.016091 0.000000
# 6 0.000000 0.000000 0.000000 -0.011063 0.000000 0.020477
#
#
# Mechanical properties :
#
#
# Convention : Reuss Voigt Hill
#
# Bulk Modulus (GPa) = 503.45267 17.26718 260.35992
# Shear Modulus (GPa) = 302.60278 21.98417 162.29348
#
# Velocity S-wave (km/s) = 12.04762 3.24728 8.82298
# Velocity P-wave (km/s) = 20.85691 4.72674 15.12205
#
# Compressibility (1/GPa) = 0.00198628
#
# Stress axis : x y z
#
# Youngs Moduli (GPa) = 44.68552 125.40745 -56.01524
#
# Poissons Ratio (x) = -0.25499 -0.13376
# Poissons Ratio (y) = -0.09086 -0.27461
# Poissons Ratio (z) = 0.10671 0.61479
#
# Static dielectric constant tensor:
#      x y z
#    x 1.864970 0.000000 -0.084460 
#    y 0.000000 1.731000 0.000000 
#    z -0.084460 0.000000 1.591260 
# 
# From -- ./inp_files/39487.got.cif
#   From: 2010.05.17/outbox.ucp.g08.bks.cvg/sg12_20_cif.got.tgz:39487.got - 2010.06.11 11:47:21.
