data_PCOD9225027
_publ_section_title
;
Structure prediction by ZEFSAII (Michael W. Deem and Ramdas Pophale) SiO2 
 PCOD9225027
Probable space group: C 2/M
;
_chemical_formula_sum "Si O2"
_cell_formula_units_Z 32
_cell_length_a 18.000000
_cell_length_b 9.000000
_cell_length_c 30.000000
_cell_angle_alpha 90.000000
_cell_angle_beta 140.000000
_cell_angle_gamma 90.000000
_cell_volume 3123.947783
_symmetry_space_group_name_H-M "C 2/M"
_symmetry_group_IT_number 12
_symmetry_cell_setting 'monoclinic'
loop_
_space_group_symop_operation_xyz
x,y,z
-x,y,-z
-x,-y,-z
x,-y,z
1/2+x,1/2+y,z
1/2-x,1/2+y,-z
1/2-x,1/2-y,-z
1/2+x,1/2-y,z
loop_
_atom_site_type_symbol
_atom_site_label
_atom_site_fract_x
_atom_site_fract_y
_atom_site_fract_z
Si Si1 0.690544 0.674479 0.333554
Si Si2 0.019557 0.674317 0.724686
Si Si3 0.758039 0.179341 0.134398
Si Si4 0.967655 0.166524 0.614879
Si Si5 0.092883 0.819729 0.129319
Si Si6 0.386074 0.323594 0.477875
Si Si7 0.648189 0.321274 0.924616
Si Si8 0.740054 0.669993 0.722748
O O1 0.667573 0.500000 0.324356
O O2 0.571774 0.765219 0.281724
O O3 0.780222 0.725875 0.412430
O O4 0.747896 0.726269 0.314367
O O5 0.041486 0.500000 0.738217
O O6 0.137226 0.764820 0.786031
O O7 0.957621 0.715691 0.649601
O O8 0.639946 0.253399 0.102248
O O9 0.810972 0.218123 0.108596
O O10 0.744576 0.000000 0.130016
O O11 0.104782 0.159548 0.670123
O O12 0.911343 0.202091 0.541534
O O13 0.929210 0.000000 0.611375
O O14 0.187378 0.748487 0.205538
O O15 0.971408 0.783531 0.101412
O O16 0.097982 0.000000 0.128563
O O17 0.500000 0.293112 0.500000
O O18 0.360363 0.500000 0.459840
O O19 0.648924 0.500000 0.924904
O O20 0.750000 0.250000 0.000000
O O21 0.781373 0.500000 0.734113
#
# Coordination Sequence:
#
# PCOD9225027 Si02
#       8
#     8   8   8   8   8   8   8   8
#     4  12  25  39  59  87 123 163 210 268 327 392
#     4  12  25  41  63  91 124 163 211 264 322 385
#     4  11  23  43  69 100 136 176 219 272 330 390
#     4  10  21  38  62  87 119 157 200 257 319 378
#     4  11  23  41  67 102 136 176 222 272 327 389
#     4  10  20  39  61  83 115 158 207 260 320 390
#     4  10  25  46  69  98 138 179 220 266 320 382
#     4  11  21  38  64  93 123 162 209 260 318 381
#
# _framework density 10.243449
#
# number of rings (size 3 to 8) (size 9 to 14) (size 15 to 20)
#    0.000    1.125    2.500    4.125    0.000    5.250 
#    0.000    2.500    0.000    0.000    0.000    0.000 
#    0.000    0.000    0.000    0.000    0.000    0.000 
#
# Total GULP energy -178398.031370 kJ/mol
# GULP energy per Si atom -5574.938480 kJ/mol
# Density = 1.022013 g / cm^3
# Si number density = 10.243449 Si / 1000 Ang^3
#
#
#
# Elastic Constant Matrix: (Units=GPa)
#
#
# Indices 1 2 3 4 5 6 
#
# 1 118.9539 31.1811 33.4702 0.0000 -0.8577 0.0000
# 2 31.1811 46.8052 17.1233 0.0000 -8.7793 0.0000
# 3 33.4702 17.1233 67.9459 0.0000 -5.9233 0.0000
# 4 0.0000 0.0000 0.0000 26.7231 0.0000 -0.3956
# 5 -0.8577 -8.7793 -5.9233 0.0000 33.0886 0.0000
# 6 0.0000 0.0000 0.0000 -0.3956 0.0000 38.4815
#
#
#
# Elastic Compliance Matrix: (Units=1/GPa)
#
#
# Indices 1 2 3 4 5 6 
#
# 1 0.011216 -0.006371 -0.004106 0.000000 -0.002135 0.000000
# 2 -0.006371 0.028092 -0.003359 0.000000 0.006687 0.000000
# 3 -0.004106 -0.003359 0.017777 0.000000 0.002185 0.000000
# 4 0.000000 0.000000 0.000000 0.037426 0.000000 0.000385
# 5 -0.002135 0.006687 0.002185 0.000000 0.032332 0.000000
# 6 0.000000 0.000000 0.000000 0.000385 0.000000 0.025990
#
#
# Mechanical properties :
#
#
# Convention : Reuss Voigt Hill
#
# Bulk Modulus (GPa) = 33.99536 44.13937 39.06737
# Shear Modulus (GPa) = 26.27300 29.78733 28.03016
#
# Velocity S-wave (km/s) = 3.58499 3.81723 3.70293
# Velocity P-wave (km/s) = 5.81084 6.40471 6.11499
#
# Compressibility (1/GPa) = 0.02941577
#
# Stress axis : x y z
#
# Youngs Moduli (GPa) = 89.15537 35.59713 56.25248
#
# Poissons Ratio (x) = 0.22677 0.23096
# Poissons Ratio (y) = 0.56797 0.18893
# Poissons Ratio (z) = 0.36606 0.11955
#
# Static dielectric constant tensor:
#      x y z
#    x 1.836540 0.000000 -0.035980 
#    y 0.000000 1.694380 0.000000 
#    z -0.035980 0.000000 1.745520 
# 
# From -- ./inp_files/378381.got.cif
#   From: 2010.05.17/outbox.ucp.g08.bks.cvg/sg12_190_cif.got.tgz:378381.got - 2010.06.11 11:47:21.
