data_PCOD9225711
_publ_section_title
;
Structure prediction by ZEFSAII (Michael W. Deem and Ramdas Pophale) SiO2 
 PCOD9225711
Probable space group: C 2/M
;
_chemical_formula_sum "Si O2"
_cell_formula_units_Z 20
_cell_length_a 12.000000
_cell_length_b 18.000000
_cell_length_c 9.000000
_cell_angle_alpha 90.000000
_cell_angle_beta 80.000000
_cell_angle_gamma 90.000000
_cell_volume 1914.466272
_symmetry_space_group_name_H-M "C 2/M"
_symmetry_group_IT_number 12
_symmetry_cell_setting 'monoclinic'
loop_
_space_group_symop_operation_xyz
x,y,z
-x,y,-z
-x,-y,-z
x,-y,z
1/2+x,1/2+y,z
1/2-x,1/2+y,-z
1/2-x,1/2-y,-z
1/2+x,1/2-y,z
loop_
_atom_site_type_symbol
_atom_site_label
_atom_site_fract_x
_atom_site_fract_y
_atom_site_fract_z
Si Si1 0.547535 0.327595 0.818522
Si Si2 0.921841 0.588568 0.154982
Si Si3 0.275023 0.587009 0.405311
Si Si4 0.585399 0.809006 0.597848
Si Si5 0.157524 0.914644 0.275744
O O1 0.648137 0.386595 0.752184
O O2 0.596352 0.253141 0.725580
O O3 0.435977 0.359178 0.762970
O O4 0.500000 0.318268 0.000000
O O5 0.928276 0.500000 0.156934
O O6 0.967312 0.622613 0.297389
O O7 0.786113 0.605937 0.191831
O O8 0.000000 0.614779 0.000000
O O9 0.234983 0.500000 0.394373
O O10 0.184235 0.651301 0.476542
O O11 0.344958 0.585117 0.544276
O O12 0.500000 0.775054 0.500000
O O13 0.136262 0.000000 0.231228
#
# Coordination Sequence:
#
# PCOD9225711 Si02
#       5
#     8   8   8   8   8
#     4  12  25  39  59  91 128 160 197 250 308 360
#     4   9  19  38  63  90 123 161 201 248 302 359
#     4  10  22  42  66  89 118 158 204 251 299 358
#     4  11  23  40  61  87 120 162 206 249 295 356
#     4   9  19  38  63  88 118 158 202 247 299 361
#
# _framework density 10.446776
#
# number of rings (size 3 to 8) (size 9 to 14) (size 15 to 20)
#    0.000    1.800    0.000    5.400    0.000    8.000 
#    0.000    8.000    0.000    0.000    0.000    0.000 
#    0.000    0.000    0.000    0.000    0.000    0.000 
#
# Total GULP energy -111360.872007 kJ/mol
# GULP energy per Si atom -5568.043600 kJ/mol
# Density = 1.042300 g / cm^3
# Si number density = 10.446776 Si / 1000 Ang^3
#
#
#
# Elastic Constant Matrix: (Units=GPa)
#
#
# Indices 1 2 3 4 5 6 
#
# 1 34.3948 40.1318 34.9619 0.0000 -15.7312 0.0000
# 2 40.1318 101.1783 30.9768 0.0000 -12.0151 0.0000
# 3 34.9619 30.9768 129.4444 0.0000 -40.6078 0.0000
# 4 0.0000 0.0000 0.0000 35.7732 0.0000 -4.6938
# 5 -15.7312 -12.0151 -40.6078 0.0000 38.7821 0.0000
# 6 0.0000 0.0000 0.0000 -4.6938 0.0000 28.9447
#
#
#
# Elastic Compliance Matrix: (Units=1/GPa)
#
#
# Indices 1 2 3 4 5 6 
#
# 1 0.073640 -0.024670 -0.010443 0.000000 0.011293 0.000000
# 2 -0.024670 0.018953 0.001237 0.000000 -0.002840 0.000000
# 3 -0.010443 0.001237 0.013464 0.000000 0.010245 0.000000
# 4 0.000000 0.000000 0.000000 0.028562 0.000000 0.004632
# 5 0.011293 -0.002840 0.010245 0.000000 0.040213 0.000000
# 6 0.000000 0.000000 0.000000 0.004632 0.000000 0.035300
#
#
# Mechanical properties :
#
#
# Convention : Reuss Voigt Hill
#
# Bulk Modulus (GPa) = 26.10777 53.01762 39.56270
# Shear Modulus (GPa) = 17.20268 31.29645 24.24957
#
# Velocity S-wave (km/s) = 2.87252 3.87447 3.41049
# Velocity P-wave (km/s) = 4.85021 6.74133 5.87240
#
# Compressibility (1/GPa) = 0.03830277
#
# Stress axis : x y z
#
# Youngs Moduli (GPa) = 13.57961 52.76207 74.27283
#
# Poissons Ratio (x) = 1.30167 0.77564
# Poissons Ratio (y) = 0.33502 -0.09185
# Poissons Ratio (z) = 0.14181 -0.06525
#
# Static dielectric constant tensor:
#      x y z
#    x 1.808770 0.000000 0.014110 
#    y 0.000000 1.797880 0.000000 
#    z 0.014110 0.000000 1.751680 
# 
# From -- ./inp_files/46952.got.cif
#   From: 2010.05.17/outbox.ucp.g08.bks.cvg/sg12_24_cif.got.tgz:46952.got - 2010.06.11 11:47:21.
