data_PCOD9225504
_publ_section_title
;
Structure prediction by ZEFSAII (Michael W. Deem and Ramdas Pophale) SiO2 
 PCOD9225504
Probable space group: C 2/M
;
_chemical_formula_sum "Si O2"
_cell_formula_units_Z 32
_cell_length_a 9.000000
_cell_length_b 18.000000
_cell_length_c 30.000000
_cell_angle_alpha 90.000000
_cell_angle_beta 40.000000
_cell_angle_gamma 90.000000
_cell_volume 3123.947783
_symmetry_space_group_name_H-M "C 2/M"
_symmetry_group_IT_number 12
_symmetry_cell_setting 'monoclinic'
loop_
_space_group_symop_operation_xyz
x,y,z
-x,y,-z
-x,-y,-z
x,-y,z
1/2+x,1/2+y,z
1/2-x,1/2+y,-z
1/2-x,1/2-y,-z
1/2+x,1/2-y,z
loop_
_atom_site_type_symbol
_atom_site_label
_atom_site_fract_x
_atom_site_fract_y
_atom_site_fract_z
Si Si1 0.159800 0.911670 0.342253
Si Si2 0.379702 0.179560 0.644936
Si Si3 0.441657 0.839022 0.804487
Si Si4 0.590826 0.318979 0.802425
Si Si5 0.730949 0.587604 0.425224
Si Si6 0.758277 0.411495 0.932771
Si Si7 0.240631 0.189214 0.579297
Si Si8 0.622004 0.089770 0.924581
O O1 0.316711 0.870333 0.270045
O O2 0.253842 0.887195 0.369058
O O3 0.894583 0.885791 0.402479
O O4 0.181825 0.000000 0.332106
O O5 0.226368 0.169890 0.724288
O O6 0.539172 0.107572 0.601706
O O7 0.238216 0.193364 0.633218
O O8 0.571180 0.244659 0.603360
O O9 0.489329 0.763424 0.820112
O O10 0.269642 0.826412 0.802327
O O11 0.334300 0.894565 0.865123
O O12 0.373186 0.373401 0.860330
O O13 0.500000 0.620524 0.500000
O O14 0.702127 0.500000 0.429735
O O15 0.747413 0.500000 0.941816
O O16 0.948768 0.385046 0.924796
O O17 0.500000 0.380790 0.000000
O O18 0.500000 0.193576 0.500000
O O19 0.647424 0.000000 0.916984
O O20 0.500000 0.107832 0.000000
#
# Coordination Sequence:
#
# PCOD9225504 Si02
#       8
#     8   8   8   8   8   8   8   8
#     4  11  24  42  64  92 129 171 214 271 337 394
#     4  12  23  41  63  92 130 167 219 271 324 390
#     4  12  24  43  64  95 131 172 218 272 322 392
#     4  12  25  41  68  93 134 174 218 271 327 379
#     4  10  21  40  64  91 125 164 211 267 327 392
#     4  10  22  42  70 100 134 175 214 259 315 381
#     4  12  25  41  66  93 126 172 222 275 334 392
#     4  10  23  44  70 104 140 173 217 265 317 384
#
# _framework density 10.243449
#
# number of rings (size 3 to 8) (size 9 to 14) (size 15 to 20)
#    0.000    0.875    2.500    4.875    1.750    3.750 
#    0.000    2.500    0.000    0.000    0.000    0.000 
#    0.000    0.000    0.000    0.000    0.000    0.000 
#
# Total GULP energy -178808.637203 kJ/mol
# GULP energy per Si atom -5587.769913 kJ/mol
# Density = 1.022013 g / cm^3
# Si number density = 10.243449 Si / 1000 Ang^3
#
#
#
# Elastic Constant Matrix: (Units=GPa)
#
#
# Indices 1 2 3 4 5 6 
#
# 1 100.2706 25.3409 9.7344 -0.0010 -2.1336 0.0020
# 2 25.3409 41.7702 33.1924 -0.0002 -5.7099 0.0003
# 3 9.7344 33.1924 94.7231 -0.0028 -16.2237 -0.0043
# 4 -0.0010 -0.0002 -0.0028 31.6964 -0.0023 -4.9292
# 5 -2.1336 -5.7099 -16.2237 -0.0023 35.7305 -0.0023
# 6 0.0020 0.0003 -0.0043 -4.9292 -0.0023 22.5954
#
#
#
# Elastic Compliance Matrix: (Units=1/GPa)
#
#
# Indices 1 2 3 4 5 6 
#
# 1 0.012004 -0.008734 0.001855 0.000000 0.000163 0.000000
# 2 -0.008734 0.039535 -0.012972 -0.000002 -0.000094 -0.000003
# 3 0.001855 -0.012972 0.015805 0.000002 0.005214 0.000004
# 4 0.000000 -0.000002 0.000002 0.032657 0.000003 0.007124
# 5 0.000163 -0.000094 0.005214 0.000003 0.030350 0.000005
# 6 0.000000 -0.000003 0.000004 0.007124 0.000005 0.045811
#
#
# Mechanical properties :
#
#
# Convention : Reuss Voigt Hill
#
# Bulk Modulus (GPa) = 36.17793 41.47770 38.82782
# Shear Modulus (GPa) = 22.21462 29.23754 25.72608
#
# Velocity S-wave (km/s) = 3.29649 3.78184 3.54748
# Velocity P-wave (km/s) = 5.67332 6.27373 5.98106
#
# Compressibility (1/GPa) = 0.02764116
#
# Stress axis : x y z
#
# Youngs Moduli (GPa) = 83.30751 25.29434 63.27070
#
# Poissons Ratio (x) = 0.22092 -0.11736
# Poissons Ratio (y) = 0.72761 0.82075
# Poissons Ratio (z) = -0.15453 0.32812
#
# Static dielectric constant tensor:
#      x y z
#    x 1.721360 0.000000 -0.000680 
#    y 0.000000 1.766570 0.000000 
#    z -0.000680 0.000000 1.743820 
# 
# From -- ./inp_files/372927.got.cif
#   From: 2010.05.17/outbox.ucp.g08.bks.cvg/sg12_187_cif.got.tgz:372927.got - 2010.06.11 11:47:21.
