data_PCOD9225594
_publ_section_title
;
Structure prediction by ZEFSAII (Michael W. Deem and Ramdas Pophale) SiO2 
 PCOD9225594
Probable space group: C 2/M
;
_chemical_formula_sum "Si O2"
_cell_formula_units_Z 24
_cell_length_a 27.000000
_cell_length_b 12.000000
_cell_length_c 24.000000
_cell_angle_alpha 90.000000
_cell_angle_beta 160.000000
_cell_angle_gamma 90.000000
_cell_volume 2659.548635
_symmetry_space_group_name_H-M "C 2/M"
_symmetry_group_IT_number 12
_symmetry_cell_setting 'monoclinic'
loop_
_space_group_symop_operation_xyz
x,y,z
-x,y,-z
-x,-y,-z
x,-y,z
1/2+x,1/2+y,z
1/2-x,1/2+y,-z
1/2-x,1/2-y,-z
1/2+x,1/2-y,z
loop_
_atom_site_type_symbol
_atom_site_label
_atom_site_fract_x
_atom_site_fract_y
_atom_site_fract_z
Si Si1 0.061988 0.000000 0.478691
Si Si2 0.929563 0.266035 0.986432
Si Si3 0.040484 0.768009 0.390650
Si Si4 0.663606 0.366647 0.307581
Si Si5 0.047959 0.871439 0.817423
Si Si6 0.753210 0.500000 0.794080
Si Si7 0.277858 0.866789 0.159868
O O1 0.079828 0.886148 0.461759
O O2 0.180076 0.000000 0.654378
O O3 0.894075 0.000000 0.323814
O O4 0.854336 0.389721 0.911460
O O5 0.801718 0.181225 0.869479
O O6 0.000000 0.258636 0.000000
O O7 0.058991 0.218295 0.162729
O O8 0.178201 0.687176 0.528651
O O9 0.969004 0.796901 0.255104
O O10 0.923714 0.701190 0.303778
O O11 0.656739 0.500000 0.282945
O O12 0.599225 0.365495 0.302000
O O13 0.070933 0.000000 0.824138
O O14 0.173607 0.845107 0.995563
O O15 0.297312 0.000000 0.184126
#
# Coordination Sequence:
#
# PCOD9225594 Si02
#       7
#     4   8   8   8   8   4   8
#     4  11  24  38  66  94 124 154 203 260 305 353
#     4  11  22  41  65  86 119 159 201 249 304 360
#     4  12  20  39  62  89 122 164 201 252 305 363
#     4  10  23  39  60  91 125 160 203 251 300 356
#     4   9  19  37  59  86 123 158 202 252 302 356
#     4  11  23  44  62  92 124 156 202 258 307 354
#     4  10  22  38  60  89 120 163 205 249 302 362
#
# _framework density 9.0240880000000008
#
# number of rings (size 3 to 8) (size 9 to 14) (size 15 to 20)
#    0.000    1.500    2.500    4.250    0.000    2.000 
#    0.000    0.000    7.333    3.000    0.000    0.000 
#    0.000    0.000    0.000    0.000    0.000    0.000 
#
# Total GULP energy -133783.442871 kJ/mol
# GULP energy per Si atom -5574.310120 kJ/mol
# Density = 0.900355 g / cm^3
# Si number density = 9.024088 Si / 1000 Ang^3
#
#
#
# Elastic Constant Matrix: (Units=GPa)
#
#
# Indices 1 2 3 4 5 6 
#
# 1 62.3227 36.8517 5.2553 0.0000 11.8974 0.0000
# 2 36.8517 142.0979 43.0314 -0.0001 2.4279 -0.0001
# 3 5.2553 43.0314 58.0192 -0.0003 18.4595 -0.0001
# 4 0.0000 -0.0001 -0.0003 37.2656 0.0000 5.8760
# 5 11.8974 2.4279 18.4595 0.0000 32.7010 0.0000
# 6 0.0000 -0.0001 -0.0001 5.8760 0.0000 33.9333
#
#
#
# Elastic Compliance Matrix: (Units=1/GPa)
#
#
# Indices 1 2 3 4 5 6 
#
# 1 0.022325 -0.007885 0.007587 0.000000 -0.011819 0.000000
# 2 -0.007885 0.012268 -0.010979 0.000000 0.008156 0.000000
# 3 0.007587 -0.010979 0.030851 0.000000 -0.019360 0.000000
# 4 0.000000 0.000000 0.000000 0.027588 0.000000 -0.004777
# 5 -0.011819 0.008156 -0.019360 0.000000 0.045204 0.000000
# 6 0.000000 0.000000 0.000000 -0.004777 0.000000 0.030297
#
#
# Mechanical properties :
#
#
# Convention : Reuss Voigt Hill
#
# Bulk Modulus (GPa) = 23.31663 48.07963 35.69813
# Shear Modulus (GPa) = 24.34465 32.60006 28.47236
#
# Velocity S-wave (km/s) = 3.67668 4.25465 3.97618
# Velocity P-wave (km/s) = 5.56517 7.12976 6.39549
#
# Compressibility (1/GPa) = 0.04288784
#
# Stress axis : x y z
#
# Youngs Moduli (GPa) = 44.79363 81.51370 32.41345
#
# Poissons Ratio (x) = 0.64275 -0.24591
# Poissons Ratio (y) = 0.35320 0.35588
# Poissons Ratio (z) = -0.33983 0.89497
#
# Static dielectric constant tensor:
#      x y z
#    x 1.624060 0.000000 0.001100 
#    y 0.000000 1.599680 0.000000 
#    z 0.001100 0.000000 1.628810 
# 
# From -- ./inp_files/351883.got.cif
#   From: 2010.05.17/outbox.ucp.g08.bks.cvg/sg12_176_cif.got.tgz:351883.got - 2010.06.11 11:47:21.
