data_PCOD9225477
_publ_section_title
;
Structure prediction by ZEFSAII (Michael W. Deem and Ramdas Pophale) SiO2 
 PCOD9225477
Probable space group: C 2/M
;
_chemical_formula_sum "Si O2"
_cell_formula_units_Z 32
_cell_length_a 18.000000
_cell_length_b 9.000000
_cell_length_c 30.000000
_cell_angle_alpha 90.000000
_cell_angle_beta 140.000000
_cell_angle_gamma 90.000000
_cell_volume 3123.947783
_symmetry_space_group_name_H-M "C 2/M"
_symmetry_group_IT_number 12
_symmetry_cell_setting 'monoclinic'
loop_
_space_group_symop_operation_xyz
x,y,z
-x,y,-z
-x,-y,-z
x,-y,z
1/2+x,1/2+y,z
1/2-x,1/2+y,-z
1/2-x,1/2-y,-z
1/2+x,1/2-y,z
loop_
_atom_site_type_symbol
_atom_site_label
_atom_site_fract_x
_atom_site_fract_y
_atom_site_fract_z
Si Si1 0.422187 0.677785 0.092417
Si Si2 0.689393 0.675554 0.220459
Si Si3 0.222025 0.176735 0.058842
Si Si4 0.123904 0.671779 0.616986
Si Si5 0.213480 0.828321 0.576167
Si Si6 0.794515 0.176475 0.181332
Si Si7 0.420419 0.327023 0.569974
Si Si8 0.024123 0.670947 0.311594
O O1 0.405831 0.500000 0.091878
O O2 0.554755 0.715188 0.163238
O O3 0.334504 0.765542 0.083762
O O4 0.384411 0.709065 0.023795
O O5 0.694176 0.500000 0.211121
O O6 0.765363 0.694451 0.299876
O O7 0.744080 0.766883 0.205070
O O8 0.224250 0.255303 0.107618
O O9 0.227682 0.000000 0.067805
O O10 0.086227 0.500000 0.604938
O O11 0.153170 0.709954 0.579829
O O12 0.028203 0.789044 0.587849
O O13 0.187526 0.793667 0.512376
O O14 0.348510 0.823717 0.650450
O O15 0.174287 0.000000 0.564863
O O16 0.926616 0.235631 0.241879
O O17 0.793150 0.000000 0.178254
O O18 0.414253 0.500000 0.579845
O O19 0.451162 0.232278 0.627545
O O20 0.984900 0.500000 0.296130
#
# Coordination Sequence:
#
# PCOD9225477 Si02
#       8
#     8   8   8   8   8   8   8   8
#     4   9  20  40  65  93 125 160 198 241 293 351
#     4  10  22  41  62  87 121 159 201 247 296 351
#     4  10  21  39  64  93 126 161 196 242 294 348
#     4  11  23  38  60  89 121 158 200 247 295 350
#     4  10  24  41  60  87 120 156 198 248 300 357
#     4  12  25  40  61  88 121 161 202 247 297 353
#     4  11  22  40  63  87 119 158 197 244 301 357
#     4  11  23  41  62  88 120 155 199 249 300 356
#
# _framework density 10.243449
#
# number of rings (size 3 to 8) (size 9 to 14) (size 15 to 20)
#    0.000    1.500    1.250    3.375    1.750    5.500 
#    0.000    2.500    0.000    0.000    0.000    0.000 
#    0.000    0.000    0.000    0.000    0.000    0.000 
#
# Total GULP energy -178788.844244 kJ/mol
# GULP energy per Si atom -5587.151383 kJ/mol
# Density = 1.022013 g / cm^3
# Si number density = 10.243449 Si / 1000 Ang^3
#
#
#
# Elastic Constant Matrix: (Units=GPa)
#
#
# Indices 1 2 3 4 5 6 
#
# 1 20.8700 10.9333 -0.4629 0.0000 -9.1050 0.0000
# 2 10.9333 51.4342 13.3914 0.0000 -11.7603 0.0000
# 3 -0.4629 13.3914 64.4050 0.0000 0.1193 0.0000
# 4 0.0000 0.0000 0.0000 33.9719 0.0000 -5.0252
# 5 -9.1050 -11.7603 0.1193 0.0000 37.3107 0.0000
# 6 0.0000 0.0000 0.0000 -5.0252 0.0000 19.3663
#
#
#
# Elastic Compliance Matrix: (Units=1/GPa)
#
#
# Indices 1 2 3 4 5 6 
#
# 1 0.058257 -0.010573 0.002597 0.000000 0.010876 0.000000
# 2 -0.010573 0.024177 -0.005112 0.000000 0.005057 0.000000
# 3 0.002597 -0.005112 0.016610 0.000000 -0.001031 0.000000
# 4 0.000000 0.000000 0.000000 0.030611 0.000000 0.007943
# 5 0.010876 0.005057 -0.001031 0.000000 0.031053 0.000000
# 6 0.000000 0.000000 0.000000 0.007943 0.000000 0.053697
#
#
# Mechanical properties :
#
#
# Convention : Reuss Voigt Hill
#
# Bulk Modulus (GPa) = 13.72354 20.49252 17.10803
# Shear Modulus (GPa) = 18.87706 25.65295 22.26500
#
# Velocity S-wave (km/s) = 3.03878 3.54243 3.30023
# Velocity P-wave (km/s) = 4.36182 5.17264 4.78444
#
# Compressibility (1/GPa) = 0.07286752
#
# Stress axis : x y z
#
# Youngs Moduli (GPa) = 17.16530 41.36144 60.20358
#
# Poissons Ratio (x) = 0.43732 -0.15634
# Poissons Ratio (y) = 0.18149 0.30778
# Poissons Ratio (z) = -0.04458 0.21146
#
# Static dielectric constant tensor:
#      x y z
#    x 1.757430 0.000000 0.022070 
#    y 0.000000 1.688040 0.000000 
#    z 0.022070 0.000000 1.721270 
# 
# From -- ./inp_files/378280.got.cif
#   From: 2010.05.17/outbox.ucp.g08.bks.cvg/sg12_190_cif.got.tgz:378280.got - 2010.06.11 11:47:21.
