data_PCOD9225032
_publ_section_title
;
Structure prediction by ZEFSAII (Michael W. Deem and Ramdas Pophale) SiO2 
 PCOD9225032
Probable space group: C 2/M
;
_chemical_formula_sum "Si O2"
_cell_formula_units_Z 32
_cell_length_a 18.000000
_cell_length_b 9.000000
_cell_length_c 30.000000
_cell_angle_alpha 90.000000
_cell_angle_beta 40.000000
_cell_angle_gamma 90.000000
_cell_volume 3123.947783
_symmetry_space_group_name_H-M "C 2/M"
_symmetry_group_IT_number 12
_symmetry_cell_setting 'monoclinic'
loop_
_space_group_symop_operation_xyz
x,y,z
-x,y,-z
-x,-y,-z
x,-y,z
1/2+x,1/2+y,z
1/2-x,1/2+y,-z
1/2-x,1/2-y,-z
1/2+x,1/2-y,z
loop_
_atom_site_type_symbol
_atom_site_label
_atom_site_fract_x
_atom_site_fract_y
_atom_site_fract_z
Si Si1 0.284340 0.169971 0.638469
Si Si2 0.020997 0.331537 0.572045
Si Si3 0.181699 0.172128 0.782303
Si Si4 0.585384 0.673464 0.077651
Si Si5 0.216412 0.321524 0.944624
Si Si6 0.244732 0.828555 0.435494
Si Si7 0.797970 0.176580 0.812106
Si Si8 0.498279 0.176622 0.323343
O O1 0.422068 0.173554 0.581000
O O2 0.224148 0.200421 0.712950
O O3 0.256810 0.294988 0.615961
O O4 0.253671 0.000000 0.638391
O O5 0.062682 0.500000 0.557742
O O6 0.131930 0.238989 0.508965
O O7 0.954144 0.297902 0.648792
O O8 0.232022 0.271909 0.798346
O O9 0.044261 0.187038 0.846516
O O10 0.213304 0.000000 0.778148
O O11 0.610330 0.500000 0.057954
O O12 0.673688 0.724405 0.075536
O O13 0.608254 0.759634 0.021429
O O14 0.211046 0.500000 0.946371
O O15 0.235307 0.268891 0.885673
O O16 0.369209 0.764317 0.390342
O O17 0.246075 0.000000 0.445699
O O18 0.926437 0.242434 0.747841
O O19 0.805316 0.000000 0.810618
O O20 0.496633 0.000000 0.314794
#
# Coordination Sequence:
#
# PCOD9225032 Si02
#       8
#     8   8   8   8   8   8   8   8
#     4  10  21  38  60  82 111 154 193 231 281 339
#     4  10  20  39  62  80 107 152 196 230 280 345
#     4  10  21  39  61  83 114 154 194 236 278 335
#     4   9  19  37  62  87 112 151 195 229 272 333
#     4   9  20  38  58  86 120 149 184 232 284 332
#     4  11  24  37  56  87 117 145 185 242 292 333
#     4  11  23  37  59  87 116 151 189 236 288 336
#     4  10  22  41  59  81 115 152 191 234 284 340
#
# _framework density 10.243449
#
# number of rings (size 3 to 8) (size 9 to 14) (size 15 to 20)
#    0.000    2.000    1.250    1.500    1.750    6.000 
#    0.000    2.500    0.000    0.000    0.000    0.000 
#    0.000    0.000    0.000    0.000    0.000    0.000 
#
# Total GULP energy -178357.416195 kJ/mol
# GULP energy per Si atom -5573.669256 kJ/mol
# Density = 1.022013 g / cm^3
# Si number density = 10.243449 Si / 1000 Ang^3
#
#
#
# Elastic Constant Matrix: (Units=GPa)
#
#
# Indices 1 2 3 4 5 6 
#
# 1 22.6719 15.1034 14.0540 0.0001 2.4331 0.0005
# 2 15.1034 5.2885 25.9414 0.0003 0.6867 0.0006
# 3 14.0540 25.9414 99.7292 0.0001 9.4039 0.0001
# 4 0.0001 0.0003 0.0001 29.0444 0.0000 3.2368
# 5 2.4331 0.6867 9.4039 0.0000 16.2008 0.0001
# 6 0.0005 0.0006 0.0001 3.2368 0.0001 10.4527
#
#
#
# Elastic Compliance Matrix: (Units=1/GPa)
#
#
# Indices 1 2 3 4 5 6 
#
# 1 0.009876 0.068807 -0.019968 0.000000 0.007191 -0.000004
# 2 0.068807 -0.122523 0.023971 0.000000 -0.019054 0.000003
# 3 -0.019968 0.023971 0.006791 0.000000 -0.001959 0.000000
# 4 0.000000 0.000000 0.000000 0.035661 0.000000 -0.011043
# 5 0.007191 -0.019054 -0.001959 0.000000 0.062590 0.000000
# 6 -0.000004 0.000003 0.000000 -0.011043 0.000000 0.099089
#
#
# Mechanical properties :
#
#
# Convention : Reuss Voigt Hill
#
# Bulk Modulus (GPa) = 25.14842 26.43189 25.79016
# Shear Modulus (GPa) = -122.30625 15.97897 -53.16364
#
# Velocity S-wave (km/s) = -7.73494 2.79581 -5.09965
# Velocity P-wave (km/s) = 8.21404 4.83238 4.69673
#
# Compressibility (1/GPa) = 0.03976393
#
# Stress axis : x y z
#
# Youngs Moduli (GPa) = 101.25243 -8.16176 147.26356
#
# Poissons Ratio (x) = 0.56159 2.94052
# Poissons Ratio (y) = -6.96687 -3.53001
# Poissons Ratio (z) = 2.02178 0.19564
#
# Static dielectric constant tensor:
#      x y z
#    x 1.852310 0.000000 0.000510 
#    y 0.000000 1.718660 0.000000 
#    z 0.000510 0.000000 1.726670 
# 
# From -- ./inp_files/378176.got.cif
#   From: 2010.05.17/outbox.ucp.g08.bks.cvg/sg12_190_cif.got.tgz:378176.got - 2010.06.11 11:47:21.
