data_PCOD9225999
_publ_section_title
;
Structure prediction by ZEFSAII (Michael W. Deem and Ramdas Pophale) SiO2 
 PCOD9225999
Probable space group: P 2/C
;
_chemical_formula_sum "Si O2"
_cell_formula_units_Z 18
_cell_length_a 25.121832
_cell_length_b 7.210468
_cell_length_c 5.283140
_cell_angle_alpha 90.000000
_cell_angle_beta 71.251214
_cell_angle_gamma 90.000000
_cell_volume 906.208098
_symmetry_space_group_name_H-M "P 2/C"
_symmetry_group_IT_number 13
_symmetry_cell_setting 'monoclinic'
loop_
_space_group_symop_operation_xyz
x,y,z
-x,y,1/2-z
-x,-y,-z
x,-y,1/2+z
loop_
_atom_site_type_symbol
_atom_site_label
_atom_site_fract_x
_atom_site_fract_y
_atom_site_fract_z
Si Si1 0.024970 0.286457 0.961807
Si Si2 0.151481 0.380034 0.719655
Si Si3 0.500000 0.871532 0.750000
Si Si4 0.270976 0.378655 0.642559
Si Si5 0.621699 0.875752 0.606162
O O1 0.092066 0.283613 0.854704
O O2 0.000000 0.201705 0.750000
O O3 0.000000 0.202206 0.250000
O O4 0.000000 0.500000 0.000000
O O5 0.151589 0.456193 0.432206
O O6 0.210629 0.280071 0.685834
O O7 0.560884 0.774564 0.666465
O O8 0.500000 0.000000 0.500000
O O9 0.272039 0.461760 0.924040
O O10 0.324992 0.253739 0.514099
O O11 0.623623 0.029640 0.379712
#
# Coordination Sequence:
#
# PCOD9225999 Si02
#       5
#     4   4   2   4   4
#     4  10  14  20  34  53  79 113 149 185 230 277
#     4  10  16  25  37  57  88 126 145 186 239 295
#     4   8  16  30  52  76  94 122 166 214 240 270
#     4  10  21  33  48  72 107 135 158 199 259 296
#     4  10  19  35  56  75  98 131 173 205 239 292
#
# _framework density 19.86299
#
# number of rings (size 3 to 8) (size 9 to 14) (size 15 to 20)
#    0.000    2.222    4.444    1.333    0.000    0.000 
#    0.000    1.111    0.000    0.000    0.000    0.000 
#    0.000    5.333    0.000    0.000    0.000    0.000 
#
# Total GULP energy -100220.121681 kJ/mol
# GULP energy per Si atom -5567.784538 kJ/mol
# Density = 1.981778 g / cm^3
# Si number density = 19.862990 Si / 1000 Ang^3
#
#
#
# Elastic Constant Matrix: (Units=GPa)
#
#
# Indices 1 2 3 4 5 6 
#
# 1 193.4693 20.4713 25.6843 0.0000 -46.7503 0.0000
# 2 20.4713 22.2363 -0.5660 0.0000 -5.5790 0.0000
# 3 25.6843 -0.5660 109.6112 0.0000 10.0125 0.0000
# 4 0.0000 0.0000 0.0000 19.0902 0.0000 -30.8665
# 5 -46.7503 -5.5790 10.0125 0.0000 58.0400 0.0000
# 6 0.0000 0.0000 0.0000 -30.8665 0.0000 50.9764
#
#
#
# Elastic Compliance Matrix: (Units=1/GPa)
#
#
# Indices 1 2 3 4 5 6 
#
# 1 0.007481 -0.005466 -0.002320 0.000000 0.005901 0.000000
# 2 -0.005466 0.050079 0.001526 0.000000 0.000148 0.000000
# 3 -0.002320 0.001526 0.009989 0.000000 -0.003445 0.000000
# 4 0.000000 0.000000 0.000000 2.497409 0.000000 1.512192
# 5 0.005901 0.000148 -0.003445 0.000000 0.022591 0.000000
# 6 0.000000 0.000000 0.000000 1.512192 0.000000 0.935256
#
#
# Mechanical properties :
#
#
# Convention : Reuss Voigt Hill
#
# Bulk Modulus (GPa) = 18.17204 46.27732 32.22468
# Shear Modulus (GPa) = 1.40700 44.26982 22.83841
#
# Velocity S-wave (km/s) = 0.84255 4.72610 3.39454
# Velocity P-wave (km/s) = 3.18042 7.28904 5.62340
#
# Compressibility (1/GPa) = 0.05502958
#
# Stress axis : x y z
#
# Youngs Moduli (GPa) = 133.67215 19.96828 100.10575
#
# Poissons Ratio (x) = 0.10914 0.23226
# Poissons Ratio (y) = 0.73062 -0.15274
# Poissons Ratio (z) = 0.31014 -0.03047
#
# Static dielectric constant tensor:
#      x y z
#    x 1.748720 0.000000 -0.018840 
#    y 0.000000 1.670340 0.000000 
#    z -0.018840 0.000000 1.711370 
# 
# From -- ./inp_files/6639.got.cif
#   From: 2010.05.17/outbox.cif.g08.bks.cpg/sg13_4_cif.got.tgz:6639.got - 2010.06.03 16:44:36.
