data_PCOD9225835
_publ_section_title
;
Structure prediction by ZEFSAII (Michael W. Deem and Ramdas Pophale) SiO2 
 PCOD9225835
Probable space group: C 2/M
;
_chemical_formula_sum "Si O2"
_cell_formula_units_Z 32
_cell_length_a 30.000000
_cell_length_b 9.000000
_cell_length_c 18.000000
_cell_angle_alpha 90.000000
_cell_angle_beta 140.000000
_cell_angle_gamma 90.000000
_cell_volume 3123.947783
_symmetry_space_group_name_H-M "C 2/M"
_symmetry_group_IT_number 12
_symmetry_cell_setting 'monoclinic'
loop_
_space_group_symop_operation_xyz
x,y,z
-x,y,-z
-x,-y,-z
x,-y,z
1/2+x,1/2+y,z
1/2-x,1/2+y,-z
1/2-x,1/2-y,-z
1/2+x,1/2-y,z
loop_
_atom_site_type_symbol
_atom_site_label
_atom_site_fract_x
_atom_site_fract_y
_atom_site_fract_z
Si Si1 0.349478 0.175320 0.749936
Si Si2 0.410796 0.675487 0.975084
Si Si3 0.580605 0.179597 0.723315
Si Si4 0.206802 0.321576 0.793343
Si Si5 0.663986 0.179220 0.978660
Si Si6 0.554555 0.673120 0.236918
Si Si7 0.203536 0.175065 0.632311
Si Si8 0.561590 0.178159 0.400538
O O1 0.387475 0.240850 0.871310
O O2 0.377184 0.265338 0.715241
O O3 0.267727 0.193449 0.658590
O O4 0.365062 0.000000 0.762450
O O5 0.392803 0.500000 0.947326
O O6 0.373913 0.752019 0.998152
O O7 0.492258 0.685697 0.097963
O O8 0.628670 0.222698 0.716071
O O9 0.621601 0.221487 0.850844
O O10 0.501376 0.228486 0.626571
O O11 0.578365 0.000000 0.720460
O O12 0.213087 0.500000 0.803080
O O13 0.222725 0.258660 0.732806
O O14 0.259741 0.249385 0.919222
O O15 0.667072 0.000000 0.987233
O O16 0.560545 0.500000 0.265678
O O17 0.539868 0.771840 0.290260
O O18 0.133222 0.244253 0.511860
O O19 0.195702 0.000000 0.637250
O O20 0.569078 0.000000 0.414090
#
# Coordination Sequence:
#
# PCOD9225835 Si02
#       8
#     8   8   8   8   8   8   8   8
#     4  11  24  41  64  90 123 164 205 249 304 367
#     4  11  22  37  61  93 127 161 198 247 306 364
#     4   9  21  39  62  92 125 160 203 250 302 366
#     4  11  22  39  63  92 124 162 204 250 305 364
#     4  11  20  36  61  91 127 163 199 247 301 364
#     4  11  24  41  63  94 128 158 199 253 306 364
#     4  11  25  44  62  88 122 159 207 259 306 358
#     4  11  23  43  67  89 118 162 209 253 305 363
#
# _framework density 10.243449
#
# number of rings (size 3 to 8) (size 9 to 14) (size 15 to 20)
#    0.000    1.250    2.500    3.375    0.000    5.500 
#    0.000    6.875    0.000    0.000    0.000    0.000 
#    0.000    0.000    0.000    0.000    0.000    0.000 
#
# Total GULP energy -178888.152155 kJ/mol
# GULP energy per Si atom -5590.254755 kJ/mol
# Density = 1.022013 g / cm^3
# Si number density = 10.243449 Si / 1000 Ang^3
#
#
#
# Elastic Constant Matrix: (Units=GPa)
#
#
# Indices 1 2 3 4 5 6 
#
# 1 75.8086 15.8144 -6.5332 0.0000 24.0408 0.0000
# 2 15.8144 68.1683 14.3630 0.0000 29.5409 0.0000
# 3 -6.5332 14.3630 50.8807 0.0000 30.8560 0.0000
# 4 0.0000 0.0000 0.0000 31.0696 0.0000 1.6323
# 5 24.0408 29.5409 30.8560 0.0000 21.1330 0.0000
# 6 0.0000 0.0000 0.0000 1.6323 0.0000 15.8218
#
#
#
# Elastic Compliance Matrix: (Units=1/GPa)
#
#
# Indices 1 2 3 4 5 6 
#
# 1 0.005431 -0.010532 -0.013197 0.000000 0.027814 0.000000
# 2 -0.010532 0.011743 -0.017277 0.000000 0.020793 0.000000
# 3 -0.013197 -0.017277 -0.007978 0.000000 0.050811 0.000000
# 4 0.000000 0.000000 0.000000 0.032361 0.000000 -0.003339
# 5 0.027814 0.020793 0.050811 0.000000 -0.087576 0.000000
# 6 0.000000 0.000000 0.000000 -0.003339 0.000000 0.063548
#
#
# Mechanical properties :
#
#
# Convention : Reuss Voigt Hill
#
# Bulk Modulus (GPa) = -13.73316 26.90511 6.58598
# Shear Modulus (GPa) = 66.42796 25.01909 45.72353
#
# Velocity S-wave (km/s) = 5.70044 3.49839 4.72936
# Velocity P-wave (km/s) = 6.05051 5.42952 5.74841
#
# Compressibility (1/GPa) = -0.07281645
#
# Stress axis : x y z
#
# Youngs Moduli (GPa) = 184.14494 85.15978 -125.35226
#
# Poissons Ratio (x) = 0.89694 -1.65426
# Poissons Ratio (y) = 1.93949 -2.16567
# Poissons Ratio (z) = 2.43015 1.47128
#
# Static dielectric constant tensor:
#      x y z
#    x 1.764310 0.000000 0.028980 
#    y 0.000000 1.675040 0.000000 
#    z 0.028980 0.000000 1.732560 
# 
# From -- ./inp_files/295802.got.cif
#   From: 2010.05.17/outbox.ucp.g08.bks.cvg/sg12_148_cif.got.tgz:295802.got - 2010.06.11 11:47:21.
