data_PCOD9225898
_publ_section_title
;
Structure prediction by ZEFSAII (Michael W. Deem and Ramdas Pophale) SiO2 
 PCOD9225898
Probable space group: C 2/M
;
_chemical_formula_sum "Si O2"
_cell_formula_units_Z 32
_cell_length_a 15.000000
_cell_length_b 27.000000
_cell_length_c 12.000000
_cell_angle_alpha 90.000000
_cell_angle_beta 140.000000
_cell_angle_gamma 90.000000
_cell_volume 3123.947783
_symmetry_space_group_name_H-M "C 2/M"
_symmetry_group_IT_number 12
_symmetry_cell_setting 'monoclinic'
loop_
_space_group_symop_operation_xyz
x,y,z
-x,y,-z
-x,-y,-z
x,-y,z
1/2+x,1/2+y,z
1/2-x,1/2+y,-z
1/2-x,1/2-y,-z
1/2+x,1/2-y,z
loop_
_atom_site_type_symbol
_atom_site_label
_atom_site_fract_x
_atom_site_fract_y
_atom_site_fract_z
Si Si1 0.936822 0.281049 0.182509
Si Si2 0.159852 0.289445 0.673151
Si Si3 0.392836 0.642607 0.825607
Si Si4 0.251394 0.316891 0.198945
Si Si5 0.220694 0.557220 0.754607
Si Si6 0.459751 0.057628 0.646094
Si Si7 0.512016 0.333297 0.307692
Si Si8 0.168417 0.644497 0.332886
O O1 0.837014 0.296632 0.190210
O O2 0.983855 0.224261 0.246904
O O3 0.074898 0.313446 0.301131
O O4 0.847199 0.293256 0.988753
O O5 0.255314 0.324370 0.690495
O O6 0.192674 0.232079 0.683113
O O7 0.000000 0.299873 0.500000
O O8 0.345163 0.594373 0.847598
O O9 0.476773 0.634286 0.793543
O O10 0.500000 0.674578 0.000000
O O11 0.385265 0.342966 0.270649
O O12 0.160744 0.351195 0.192107
O O13 0.261241 0.500000 0.812036
O O14 0.131686 0.558898 0.554580
O O15 0.114606 0.572508 0.752096
O O16 0.387610 0.094094 0.664981
O O17 0.464876 0.000000 0.687131
O O18 0.667559 0.344267 0.497767
#
# Coordination Sequence:
#
# PCOD9225898 Si02
#       8
#     8   8   8   8   8   8   8   8
#     4  11  22  37  56  81 117 157 198 242 292 338
#     4  11  22  37  57  82 116 157 201 242 284 345
#     4  12  22  33  55  87 120 149 185 238 298 355
#     4  11  23  39  54  78 121 164 196 238 288 338
#     4   9  19  37  59  85 118 147 181 239 308 360
#     4   9  19  37  63  90 114 144 192 251 298 347
#     4  11  22  37  53  81 119 157 197 233 282 344
#     4  12  21  36  61  87 109 151 204 245 289 345
#
# _framework density 10.243449
#
# number of rings (size 3 to 8) (size 9 to 14) (size 15 to 20)
#    0.000    1.250    1.250    8.625    1.750    0.250 
#    0.000    0.000    0.000    3.750    0.000    0.000 
#    0.000    0.000    0.000    0.000    0.000    0.250 
#
# Total GULP energy -178492.654864 kJ/mol
# GULP energy per Si atom -5577.895464 kJ/mol
# Density = 1.022013 g / cm^3
# Si number density = 10.243449 Si / 1000 Ang^3
#
#
#
# Elastic Constant Matrix: (Units=GPa)
#
#
# Indices 1 2 3 4 5 6 
#
# 1 152.5932 76.7417 20.2826 0.0000 -2.5002 0.0000
# 2 76.7417 89.2986 15.1580 0.0000 4.2733 0.0000
# 3 20.2826 15.1580 58.1380 0.0000 6.5472 0.0000
# 4 0.0000 0.0000 0.0000 34.7030 0.0000 6.3344
# 5 -2.5002 4.2733 6.5472 0.0000 29.5383 0.0000
# 6 0.0000 0.0000 0.0000 6.3344 0.0000 43.1565
#
#
#
# Elastic Compliance Matrix: (Units=1/GPa)
#
#
# Indices 1 2 3 4 5 6 
#
# 1 0.011902 -0.010051 -0.001855 0.000000 0.002873 0.000000
# 2 -0.010051 0.020236 -0.001379 0.000000 -0.003473 0.000000
# 3 -0.001855 -0.001379 0.018668 0.000000 -0.004095 0.000000
# 4 0.000000 0.000000 0.000000 0.029609 0.000000 -0.004346
# 5 0.002873 -0.003473 -0.004095 0.000000 0.035508 0.000000
# 6 0.000000 0.000000 0.000000 -0.004346 0.000000 0.023809
#
#
# Mechanical properties :
#
#
# Convention : Reuss Voigt Hill
#
# Bulk Modulus (GPa) = 41.25903 58.26605 49.76254
# Shear Modulus (GPa) = 28.67301 34.00273 31.33787
#
# Velocity S-wave (km/s) = 3.74515 4.07840 3.91532
# Velocity P-wave (km/s) = 6.23574 7.11900 6.69196
#
# Compressibility (1/GPa) = 0.02423712
#
# Stress axis : x y z
#
# Youngs Moduli (GPa) = 84.02174 49.41702 53.56673
#
# Poissons Ratio (x) = 0.49667 0.09938
# Poissons Ratio (y) = 0.84447 0.07385
# Poissons Ratio (z) = 0.15587 0.06812
#
# Static dielectric constant tensor:
#      x y z
#    x 1.771710 0.000000 -0.096620 
#    y 0.000000 1.713030 0.000000 
#    z -0.096620 0.000000 1.934700 
# 
# From -- ./inp_files/149818.got.cif
#   From: 2010.05.17/outbox.ucp.g08.bks.cvg/sg12_75_cif.got.tgz:149818.got - 2010.06.11 11:47:21.
