data_PCOD9225984
_publ_section_title
;
Structure prediction by ZEFSAII (Michael W. Deem and Ramdas Pophale) SiO2 
 PCOD9225984
Probable space group: C 2/M
;
_chemical_formula_sum "Si O2"
_cell_formula_units_Z 24
_cell_length_a 30.000000
_cell_length_b 9.000000
_cell_length_c 21.000000
_cell_angle_alpha 90.000000
_cell_angle_beta 30.000000
_cell_angle_gamma 90.000000
_cell_volume 2835.000000
_symmetry_space_group_name_H-M "C 2/M"
_symmetry_group_IT_number 12
_symmetry_cell_setting 'monoclinic'
loop_
_space_group_symop_operation_xyz
x,y,z
-x,y,-z
-x,-y,-z
x,-y,z
1/2+x,1/2+y,z
1/2-x,1/2+y,-z
1/2-x,1/2-y,-z
1/2+x,1/2-y,z
loop_
_atom_site_type_symbol
_atom_site_label
_atom_site_fract_x
_atom_site_fract_y
_atom_site_fract_z
Si Si1 0.976356 0.322804 0.768377
Si Si2 0.687319 0.171497 0.374238
Si Si3 0.679953 0.324854 0.256034
Si Si4 0.184671 0.679733 0.526342
Si Si5 0.473729 0.169267 0.622074
Si Si6 0.204253 0.824252 0.994543
O O1 0.968848 0.500000 0.788951
O O2 0.955505 0.299353 0.718944
O O3 0.895266 0.232963 0.898379
O O4 0.078111 0.280196 0.661711
O O5 0.714036 0.280970 0.284445
O O6 0.706947 0.214484 0.423760
O O7 0.580696 0.170812 0.493194
O O8 0.717707 0.000000 0.328031
O O9 0.690019 0.500000 0.233527
O O10 0.579217 0.277465 0.359427
O O11 0.736163 0.226949 0.137798
O O12 0.189821 0.500000 0.525690
O O13 0.250000 0.750000 0.500000
O O14 0.446179 0.000000 0.640064
O O15 0.204245 0.000000 0.003926
O O16 0.250000 0.750000 0.000000
#
# Coordination Sequence:
#
# PCOD9225984 Si02
#       6
#     8   8   8   8   8   8
#     4   9  18  34  54  78 107 141 180 218 260 313
#     4   9  19  35  52  74 104 141 178 214 266 320
#     4  12  23  32  47  74 107 144 180 218 261 308
#     4   9  19  36  60  85 108 137 172 218 273 321
#     4   9  17  31  51  71 101 143 178 213 259 310
#     4  12  23  35  52  75 106 146 184 220 259 310
#
# _framework density 8.4656079999999996
#
# number of rings (size 3 to 8) (size 9 to 14) (size 15 to 20)
#    0.000    2.000    1.667    5.500    0.000    4.000 
#    0.000    3.333    0.000    1.000    0.000    7.000 
#    0.000    0.000    0.000    0.000    0.000    0.000 
#
# Total GULP energy -133618.549149 kJ/mol
# GULP energy per Si atom -5567.439548 kJ/mol
# Density = 0.844634 g / cm^3
# Si number density = 8.465608 Si / 1000 Ang^3
#
#
#
# Elastic Constant Matrix: (Units=GPa)
#
#
# Indices 1 2 3 4 5 6 
#
# 1 133.8008 47.1396 31.0268 0.0002 -7.8997 0.0000
# 2 47.1396 45.0801 17.5003 0.0002 -10.4256 -0.0002
# 3 31.0268 17.5003 61.7726 0.0007 -8.0059 -0.0002
# 4 0.0002 0.0002 0.0007 19.4025 -0.0003 -3.8579
# 5 -7.8997 -10.4256 -8.0059 -0.0003 19.9969 0.0002
# 6 0.0000 -0.0002 -0.0002 -3.8579 0.0002 35.1491
#
#
#
# Elastic Compliance Matrix: (Units=1/GPa)
#
#
# Indices 1 2 3 4 5 6 
#
# 1 0.012396 -0.012419 -0.003072 0.000000 -0.002807 0.000000
# 2 -0.012419 0.039755 -0.003137 0.000000 0.014565 0.000000
# 3 -0.003072 -0.003137 0.019250 -0.000001 0.004858 0.000000
# 4 0.000000 0.000000 -0.000001 0.052690 0.000001 0.005783
# 5 -0.002807 0.014565 0.004858 0.000001 0.058437 0.000000
# 6 0.000000 0.000000 0.000000 0.005783 0.000000 0.029085
#
#
# Mechanical properties :
#
#
# Convention : Reuss Voigt Hill
#
# Bulk Modulus (GPa) = 29.28715 47.99853 38.64284
# Shear Modulus (GPa) = 19.21238 24.57549 21.89393
#
# Velocity S-wave (km/s) = 3.37223 3.81398 3.59989
# Velocity P-wave (km/s) = 5.70069 6.91418 6.33655
#
# Compressibility (1/GPa) = 0.03414466
#
# Stress axis : x y z
#
# Youngs Moduli (GPa) = 80.67397 25.15401 51.94915
#
# Poissons Ratio (x) = 0.31238 0.15957
# Poissons Ratio (y) = 1.00187 0.16299
# Poissons Ratio (z) = 0.24780 0.07892
#
# Static dielectric constant tensor:
#      x y z
#    x 1.532920 0.000000 0.011740 
#    y 0.000000 1.577550 0.000000 
#    z 0.011740 0.000000 1.622020 
# 
# From -- ./inp_files/287949.got.cif
#   From: 2010.05.17/outbox.ucp.g08.bks.cvg/sg12_144_cif.got.tgz:287949.got - 2010.06.11 11:47:21.
