data_PCOD9225213
_publ_section_title
;
Structure prediction by ZEFSAII (Michael W. Deem and Ramdas Pophale) SiO2 
 PCOD9225213
Probable space group: C 2/M
;
_chemical_formula_sum "Si O2"
_cell_formula_units_Z 28
_cell_length_a 15.000000
_cell_length_b 24.000000
_cell_length_c 15.000000
_cell_angle_alpha 90.000000
_cell_angle_beta 30.000000
_cell_angle_gamma 90.000000
_cell_volume 2700.000000
_symmetry_space_group_name_H-M "C 2/M"
_symmetry_group_IT_number 12
_symmetry_cell_setting 'monoclinic'
loop_
_space_group_symop_operation_xyz
x,y,z
-x,y,-z
-x,-y,-z
x,-y,z
1/2+x,1/2+y,z
1/2-x,1/2+y,-z
1/2-x,1/2-y,-z
1/2+x,1/2-y,z
loop_
_atom_site_type_symbol
_atom_site_label
_atom_site_fract_x
_atom_site_fract_y
_atom_site_fract_z
Si Si1 0.687412 0.087314 0.608139
Si Si2 0.606554 0.564564 0.212492
Si Si3 0.811438 0.562182 0.851025
Si Si4 0.078216 0.287150 0.665881
Si Si5 0.629126 0.769195 0.813244
Si Si6 0.298782 0.382292 0.693872
Si Si7 0.150033 0.327785 0.295754
O O1 0.516368 0.059745 0.709771
O O2 0.653749 0.150909 0.609940
O O3 0.680858 0.085376 0.722207
O O4 0.890200 0.072224 0.403946
O O5 0.641742 0.500000 0.205652
O O6 0.711678 0.603251 0.192801
O O7 0.685732 0.574118 0.045431
O O8 0.767704 0.500000 0.853850
O O9 0.793882 0.613615 0.797415
O O10 0.250000 0.250000 0.500000
O O11 0.022390 0.267929 0.812941
O O12 0.935876 0.290216 0.709799
O O13 0.780069 0.817133 0.683161
O O14 0.703756 0.709924 0.780592
O O15 0.500000 0.791957 0.000000
O O16 0.500000 0.400544 0.500000
O O17 0.000000 0.339090 0.500000
#
# Coordination Sequence:
#
# PCOD9225213 Si02
#       7
#     8   8   8   8   8   8   8
#     4   9  20  36  59  86 120 161 201 252 306 371
#     4  10  21  36  58  87 121 162 207 254 306 366
#     4  10  23  41  61  87 118 158 211 262 307 358
#     4  10  21  38  62  89 121 163 201 247 308 369
#     4  11  24  38  61  95 129 159 201 254 308 376
#     4   9  20  35  55  85 125 164 198 246 307 372
#     4  11  23  42  65  89 122 163 207 254 311 373
#
# _framework density 10.370369999999999
#
# number of rings (size 3 to 8) (size 9 to 14) (size 15 to 20)
#    0.000    2.000    1.429    0.857   10.000    5.143 
#    0.000    1.429    0.000    0.429    0.000    0.000 
#    0.000    0.000    0.000    0.000    0.000    0.000 
#
# Total GULP energy -156074.970002 kJ/mol
# GULP energy per Si atom -5574.106072 kJ/mol
# Density = 1.034677 g / cm^3
# Si number density = 10.370370 Si / 1000 Ang^3
#
#
#
# Elastic Constant Matrix: (Units=GPa)
#
#
# Indices 1 2 3 4 5 6 
#
# 1 61.3717 31.2853 22.2328 -0.0052 24.7712 -0.0151
# 2 31.2853 93.6588 -0.5776 -0.0310 5.4278 -0.0055
# 3 22.2328 -0.5776 62.5714 0.0002 10.5855 -0.0467
# 4 -0.0052 -0.0310 0.0002 17.6786 -0.0009 17.8751
# 5 24.7712 5.4278 10.5855 -0.0009 23.6323 0.0390
# 6 -0.0151 -0.0055 -0.0467 17.8751 0.0390 54.8766
#
#
#
# Elastic Compliance Matrix: (Units=1/GPa)
#
#
# Indices 1 2 3 4 5 6 
#
# 1 0.038707 -0.010982 -0.008026 -0.000055 -0.034455 0.000045
# 2 -0.010982 0.013955 0.002841 0.000039 0.007034 -0.000017
# 3 -0.008026 0.002841 0.018986 -0.000019 -0.000744 0.000021
# 4 -0.000055 0.000039 -0.000019 0.084345 0.000106 -0.027474
# 5 -0.034455 0.007034 -0.000744 0.000106 0.077148 -0.000099
# 6 0.000045 -0.000017 0.000021 -0.027474 -0.000099 0.027172
#
#
# Mechanical properties :
#
#
# Convention : Reuss Voigt Hill
#
# Bulk Modulus (GPa) = 25.43611 35.94255 30.68933
# Shear Modulus (GPa) = 16.35314 30.21492 23.28403
#
# Velocity S-wave (km/s) = 2.81099 3.82093 3.35419
# Velocity P-wave (km/s) = 4.77766 6.06903 5.46164
#
# Compressibility (1/GPa) = 0.03931419
#
# Stress axis : x y z
#
# Youngs Moduli (GPa) = 25.83524 71.65691 52.67166
#
# Poissons Ratio (x) = 0.78695 0.42273
# Poissons Ratio (y) = 0.28373 -0.14964
# Poissons Ratio (z) = 0.20735 -0.20358
#
# Static dielectric constant tensor:
#      x y z
#    x 1.759480 -0.000030 0.046510 
#    y -0.000030 1.766610 0.000040 
#    z 0.046510 0.000040 1.773170 
# 
# From -- ./inp_files/218694.got.cif
#   From: 2010.05.17/outbox.ucp.g08.bks.cvg/sg12_110_cif.got.tgz:218694.got - 2010.06.11 11:47:21.
