data_PCOD9225686
_publ_section_title
;
Structure prediction by ZEFSAII (Michael W. Deem and Ramdas Pophale) SiO2 
 PCOD9225686
Probable space group: C 2/M
;
_chemical_formula_sum "Si O2"
_cell_formula_units_Z 20
_cell_length_a 9.000000
_cell_length_b 30.000000
_cell_length_c 12.000000
_cell_angle_alpha 90.000000
_cell_angle_beta 40.000000
_cell_angle_gamma 90.000000
_cell_volume 2082.631855
_symmetry_space_group_name_H-M "C 2/M"
_symmetry_group_IT_number 12
_symmetry_cell_setting 'monoclinic'
loop_
_space_group_symop_operation_xyz
x,y,z
-x,y,-z
-x,-y,-z
x,-y,z
1/2+x,1/2+y,z
1/2-x,1/2+y,-z
1/2-x,1/2-y,-z
1/2+x,1/2-y,z
loop_
_atom_site_type_symbol
_atom_site_label
_atom_site_fract_x
_atom_site_fract_y
_atom_site_fract_z
Si Si1 0.380923 0.799537 0.801028
Si Si2 0.248804 0.447269 0.486515
Si Si3 0.662616 0.351924 0.503201
Si Si4 0.204052 0.947292 0.803460
Si Si5 0.533586 0.297143 0.794246
O O1 0.578303 0.836096 0.672902
O O2 0.495383 0.751843 0.763957
O O3 0.234132 0.796000 0.771751
O O4 0.200876 0.809355 0.004292
O O5 0.287751 0.500000 0.493235
O O6 0.365644 0.405238 0.477113
O O7 0.323066 0.442013 0.313994
O O8 0.975553 0.436756 0.663062
O O9 0.500000 0.333007 0.500000
O O10 0.594235 0.331089 0.661363
O O11 0.197507 0.000000 0.828243
O O12 0.000000 0.927211 0.000000
#
# Coordination Sequence:
#
# PCOD9225686 Si02
#       5
#     8   8   8   8   8
#     4  10  22  41  65  90 118 152 193 243 296 353
#     4   9  20  36  54  82 116 152 199 244 288 347
#     4  12  25  38  57  86 122 162 199 241 291 350
#     4   8  15  31  56  81 107 142 185 241 298 341
#     4  10  22  41  65  90 118 152 193 243 296 353
#
# _framework density 9.6032340000000005
#
# number of rings (size 3 to 8) (size 9 to 14) (size 15 to 20)
#    0.000    2.200    0.000    3.600    5.600    4.400 
#    0.000    0.000    0.000    0.000    0.000    8.400 
#    0.000    0.000    0.000    0.000    0.000    0.000 
#
# Total GULP energy -111468.220776 kJ/mol
# GULP energy per Si atom -5573.411039 kJ/mol
# Density = 0.958138 g / cm^3
# Si number density = 9.603234 Si / 1000 Ang^3
#
#
#
# Elastic Constant Matrix: (Units=GPa)
#
#
# Indices 1 2 3 4 5 6 
#
# 1 65.5065 29.2702 26.6216 0.0000 10.3345 0.0000
# 2 29.2702 98.5944 34.6313 0.0000 9.0567 0.0000
# 3 26.6216 34.6313 105.4956 0.0000 11.2812 0.0000
# 4 0.0000 0.0000 0.0000 1.2096 0.0000 -1.3942
# 5 10.3345 9.0567 11.2812 0.0000 17.8516 0.0000
# 6 0.0000 0.0000 0.0000 -1.3942 0.0000 25.8824
#
#
#
# Elastic Compliance Matrix: (Units=1/GPa)
#
#
# Indices 1 2 3 4 5 6 
#
# 1 0.019388 -0.004109 -0.002752 0.000000 -0.007400 0.000000
# 2 -0.004109 0.012566 -0.002854 0.000000 -0.002193 0.000000
# 3 -0.002752 -0.002854 0.011567 0.000000 -0.004269 0.000000
# 4 0.000000 0.000000 0.000000 0.881446 0.000000 0.047480
# 5 -0.007400 -0.002193 -0.004269 0.000000 0.064111 0.000000
# 6 0.000000 0.000000 0.000000 0.047480 0.000000 0.041194
#
#
# Mechanical properties :
#
#
# Convention : Reuss Voigt Hill
#
# Bulk Modulus (GPa) = 41.51012 50.07143 45.79078
# Shear Modulus (GPa) = 4.72709 20.92694 12.82701
#
# Velocity S-wave (km/s) = 1.57052 3.30446 2.58708
# Velocity P-wave (km/s) = 4.99482 6.37855 5.72862
#
# Compressibility (1/GPa) = 0.02409051
#
# Stress axis : x y z
#
# Youngs Moduli (GPa) = 51.57908 79.57785 86.45419
#
# Poissons Ratio (x) = 0.32701 0.23794
# Poissons Ratio (y) = 0.21195 0.24671
# Poissons Ratio (z) = 0.14195 0.22709
#
# Static dielectric constant tensor:
#      x y z
#    x 1.669310 0.000000 -0.011770 
#    y 0.000000 1.669250 0.000000 
#    z -0.011770 0.000000 1.678650 
# 
# From -- ./inp_files/124995.got.cif
#   From: 2010.05.17/outbox.ucp.g08.bks.cvg/sg12_63_cif.got.tgz:124995.got - 2010.06.11 11:47:21.
