data_PCOD9225344
_publ_section_title
;
Structure prediction by ZEFSAII (Michael W. Deem and Ramdas Pophale) SiO2 
 PCOD9225344
Probable space group: C 2/M
;
_chemical_formula_sum "Si O2"
_cell_formula_units_Z 22
_cell_length_a 21.000000
_cell_length_b 18.000000
_cell_length_c 6.000000
_cell_angle_alpha 90.000000
_cell_angle_beta 80.000000
_cell_angle_gamma 90.000000
_cell_volume 2233.543984
_symmetry_space_group_name_H-M "C 2/M"
_symmetry_group_IT_number 12
_symmetry_cell_setting 'monoclinic'
loop_
_space_group_symop_operation_xyz
x,y,z
-x,y,-z
-x,-y,-z
x,-y,z
1/2+x,1/2+y,z
1/2-x,1/2+y,-z
1/2-x,1/2-y,-z
1/2+x,1/2-y,z
loop_
_atom_site_type_symbol
_atom_site_label
_atom_site_fract_x
_atom_site_fract_y
_atom_site_fract_z
Si Si1 0.386450 0.690118 0.856898
Si Si2 0.000000 0.759459 0.500000
Si Si3 0.716372 0.583983 0.009968
Si Si4 0.329992 0.084056 0.292200
Si Si5 0.068638 0.693766 0.845416
Si Si6 0.212492 0.701308 0.339349
O O1 0.454929 0.693228 0.690168
O O2 0.334573 0.743552 0.763979
O O3 0.355748 0.609001 0.886623
O O4 0.398976 0.730819 0.083998
O O5 0.950625 0.707733 0.396086
O O6 0.720251 0.500000 0.912385
O O7 0.740714 0.652593 0.844554
O O8 0.763538 0.584916 0.194694
O O9 0.385484 0.125701 0.121381
O O10 0.324094 0.136398 0.507604
O O11 0.346587 0.000000 0.336045
O O12 0.000000 0.682563 0.000000
O O13 0.250000 0.750000 0.500000
#
# Coordination Sequence:
#
# PCOD9225344 Si02
#       6
#     8   4   8   8   8   8
#     4  11  21  38  63  85 116 157 198 247 291 345
#     4  10  22  38  62  88 112 150 216 254 274 342
#     4  11  24  39  58  93 126 152 189 246 303 353
#     4  11  22  37  57  88 125 158 191 239 303 358
#     4  10  21  38  59  85 115 157 208 244 287 342
#     4  12  21  36  62  89 117 155 200 237 293 352
#
# _framework density 9.8498169999999998
#
# number of rings (size 3 to 8) (size 9 to 14) (size 15 to 20)
#    0.000    1.091    5.455    2.182    0.000    0.364 
#    0.000    0.909    0.000    4.909    0.000    0.000 
#    0.000    0.000    0.000    0.000    0.000    0.000 
#
# Total GULP energy -122618.562889 kJ/mol
# GULP energy per Si atom -5573.571040 kJ/mol
# Density = 0.982740 g / cm^3
# Si number density = 9.849817 Si / 1000 Ang^3
#
#
#
# Elastic Constant Matrix: (Units=GPa)
#
#
# Indices 1 2 3 4 5 6 
#
# 1 87.1594 36.0231 18.3594 0.0000 0.7453 0.0000
# 2 36.0231 65.0553 19.0490 0.0000 -8.4366 0.0000
# 3 18.3594 19.0490 41.6054 0.0000 8.5582 0.0000
# 4 0.0000 0.0000 0.0000 14.4796 0.0000 13.6829
# 5 0.7453 -8.4366 8.5582 0.0000 32.8404 0.0000
# 6 0.0000 0.0000 0.0000 13.6829 0.0000 9.6325
#
#
#
# Elastic Compliance Matrix: (Units=1/GPa)
#
#
# Indices 1 2 3 4 5 6 
#
# 1 0.015338 -0.007878 -0.002825 0.000000 -0.001636 0.000000
# 2 -0.007878 0.023493 -0.009043 0.000000 0.008571 0.000000
# 3 -0.002825 -0.009043 0.031580 0.000000 -0.010489 0.000000
# 4 0.000000 0.000000 0.000000 -0.201737 0.000000 0.286568
# 5 -0.001636 0.008571 -0.010489 0.000000 0.035423 0.000000
# 6 0.000000 0.000000 0.000000 0.286568 0.000000 -0.303254
#
#
# Mechanical properties :
#
#
# Convention : Reuss Voigt Hill
#
# Bulk Modulus (GPa) = 32.34235 37.85369 35.09802
# Shear Modulus (GPa) = -14.31192 19.41640 2.55224
#
# Velocity S-wave (km/s) = -2.69830 3.14287 1.13947
# Velocity P-wave (km/s) = 2.59723 5.69450 4.42566
#
# Compressibility (1/GPa) = 0.03091921
#
# Stress axis : x y z
#
# Youngs Moduli (GPa) = 65.19590 42.56524 31.66603
#
# Poissons Ratio (x) = 0.33534 0.08945
# Poissons Ratio (y) = 0.51363 0.28635
# Poissons Ratio (z) = 0.18417 0.38491
#
# Static dielectric constant tensor:
#      x y z
#    x 1.593150 0.000000 -0.004570 
#    y 0.000000 1.681500 0.000000 
#    z -0.004570 0.000000 1.807920 
# 
# From -- ./inp_files/20432.got.cif
#   From: 2010.05.17/outbox.ucp.g08.bks.cvg/sg12_11_cif.got.tgz:20432.got - 2010.06.11 11:47:21.
