data_PCOD9225723
_publ_section_title
;
Structure prediction by ZEFSAII (Michael W. Deem and Ramdas Pophale) SiO2 
 PCOD9225723
Probable space group: C 2/M
;
_chemical_formula_sum "Si O2"
_cell_formula_units_Z 32
_cell_length_a 15.000000
_cell_length_b 24.000000
_cell_length_c 18.000000
_cell_angle_alpha 90.000000
_cell_angle_beta 30.000000
_cell_angle_gamma 90.000000
_cell_volume 3240.000000
_symmetry_space_group_name_H-M "C 2/M"
_symmetry_group_IT_number 12
_symmetry_cell_setting 'monoclinic'
loop_
_space_group_symop_operation_xyz
x,y,z
-x,y,-z
-x,-y,-z
x,-y,z
1/2+x,1/2+y,z
1/2-x,1/2+y,-z
1/2-x,1/2-y,-z
1/2+x,1/2-y,z
loop_
_atom_site_type_symbol
_atom_site_label
_atom_site_fract_x
_atom_site_fract_y
_atom_site_fract_z
Si Si1 0.549240 0.343095 0.052795
Si Si2 0.687771 0.239338 0.723255
Si Si3 0.302517 0.064049 0.449563
Si Si4 0.496868 0.266425 0.618155
Si Si5 0.488447 0.613562 0.424745
Si Si6 0.308207 0.066535 0.109998
Si Si7 0.515793 0.566113 0.199662
Si Si8 0.525759 0.828131 0.241815
O O1 0.444358 0.289887 0.162174
O O2 0.496169 0.396871 0.140437
O O3 0.500000 0.347936 0.000000
O O4 0.760987 0.335707 0.913991
O O5 0.804758 0.230000 0.714377
O O6 0.573467 0.190092 0.764184
O O7 0.845265 0.253205 0.550861
O O8 0.441178 0.115009 0.338245
O O9 0.173051 0.071667 0.471943
O O10 0.159962 0.071804 0.620367
O O11 0.371928 0.000000 0.403217
O O12 0.538957 0.331101 0.605359
O O13 0.499424 0.224792 0.685097
O O14 0.500000 0.634465 0.500000
O O15 0.668428 0.582850 0.274097
O O16 0.195472 0.083577 0.116927
O O17 0.325551 0.000000 0.090593
O O18 0.500000 0.088800 0.000000
O O19 0.532730 0.500000 0.171612
#
# Coordination Sequence:
#
# PCOD9225723 Si02
#       8
#     8   8   8   8   8   8   8   8
#     4  12  26  44  64  94 133 174 221 279 335 391
#     4  11  23  43  63  94 132 171 215 262 331 392
#     4  10  22  42  68  97 128 169 224 271 323 392
#     4  11  22  40  66  94 132 167 217 266 313 400
#     4  11  20  36  58  97 131 169 212 265 324 379
#     4   9  20  38  60  90 131 178 219 260 326 400
#     4   9  21  42  66  91 127 177 225 276 331 388
#     4  12  24  42  68  97 129 173 219 271 332 390
#
# _framework density 9.8765429999999999
#
# number of rings (size 3 to 8) (size 9 to 14) (size 15 to 20)
#    0.000    1.375    3.750    2.625    3.500    3.750 
#    2.250    1.250    0.000    1.500    0.000    0.000 
#    0.000    0.500    0.000    0.000    0.000    0.000 
#
# Total GULP energy -178479.225769 kJ/mol
# GULP energy per Si atom -5577.475805 kJ/mol
# Density = 0.985406 g / cm^3
# Si number density = 9.876543 Si / 1000 Ang^3
#
#
#
# Elastic Constant Matrix: (Units=GPa)
#
#
# Indices 1 2 3 4 5 6 
#
# 1 94.1006 52.4138 41.2914 0.0014 -9.2535 -0.0015
# 2 52.4138 74.3525 11.2228 0.0383 5.5075 -0.0009
# 3 41.2914 11.2228 62.1551 0.0372 -23.3618 -0.0055
# 4 0.0014 0.0383 0.0372 27.3281 -0.0136 -0.9222
# 5 -9.2535 5.5075 -23.3618 -0.0136 34.5210 0.0058
# 6 -0.0015 -0.0009 -0.0055 -0.9222 0.0058 35.0791
#
#
#
# Elastic Compliance Matrix: (Units=1/GPa)
#
#
# Indices 1 2 3 4 5 6 
#
# 1 0.025826 -0.016022 -0.014352 0.000041 -0.000233 0.000000
# 2 -0.016022 0.024506 0.004205 -0.000042 -0.005359 0.000000
# 3 -0.014352 0.004205 0.031068 -0.000039 0.016507 0.000001
# 4 0.000041 -0.000042 -0.000039 0.036625 0.000005 0.000963
# 5 -0.000233 -0.005359 0.016507 0.000005 0.040932 -0.000004
# 6 0.000000 0.000000 0.000001 0.000963 -0.000004 0.028532
#
#
# Mechanical properties :
#
#
# Convention : Reuss Voigt Hill
#
# Bulk Modulus (GPa) = 34.40841 48.94045 41.67443
# Shear Modulus (GPa) = 20.03897 27.76433 23.90165
#
# Velocity S-wave (km/s) = 3.18853 3.75316 3.48231
# Velocity P-wave (km/s) = 5.56891 6.60390 6.10836
#
# Compressibility (1/GPa) = 0.02906266
#
# Stress axis : x y z
#
# Youngs Moduli (GPa) = 38.72123 40.80596 32.18719
#
# Poissons Ratio (x) = 0.65379 0.46194
# Poissons Ratio (y) = 0.62039 -0.13534
# Poissons Ratio (z) = 0.55571 -0.17158
#
# Static dielectric constant tensor:
#      x y z
#    x 1.724940 0.000000 0.003650 
#    y 0.000000 1.700970 0.000030 
#    z 0.003650 0.000030 1.717770 
# 
# From -- ./inp_files/272804.got.cif
#   From: 2010.05.17/outbox.ucp.g08.bks.cvg/sg12_137_cif.got.tgz:272804.got - 2010.06.11 11:47:21.
