data_PCOD9225307
_publ_section_title
;
Structure prediction by ZEFSAII (Michael W. Deem and Ramdas Pophale) SiO2 
 PCOD9225307
Probable space group: C 2/M
;
_chemical_formula_sum "Si O2"
_cell_formula_units_Z 26
_cell_length_a 9.000000
_cell_length_b 18.000000
_cell_length_c 21.000000
_cell_angle_alpha 90.000000
_cell_angle_beta 50.000000
_cell_angle_gamma 90.000000
_cell_volume 2606.083195
_symmetry_space_group_name_H-M "C 2/M"
_symmetry_group_IT_number 12
_symmetry_cell_setting 'monoclinic'
loop_
_space_group_symop_operation_xyz
x,y,z
-x,y,-z
-x,-y,-z
x,-y,z
1/2+x,1/2+y,z
1/2-x,1/2+y,-z
1/2-x,1/2-y,-z
1/2+x,1/2-y,z
loop_
_atom_site_type_symbol
_atom_site_label
_atom_site_fract_x
_atom_site_fract_y
_atom_site_fract_z
Si Si1 0.021263 0.919204 0.232247
Si Si2 0.843885 0.796758 0.649528
Si Si3 0.000000 0.683263 0.500000
Si Si4 0.551399 0.738517 0.232690
Si Si5 0.369895 0.417350 0.419078
Si Si6 0.019853 0.413871 0.920853
Si Si7 0.723902 0.697947 0.944877
O O1 0.934378 0.923903 0.327101
O O2 0.955966 0.837090 0.228452
O O3 0.256057 0.911319 0.163648
O O4 0.975930 0.000000 0.213681
O O5 0.919576 0.733674 0.580081
O O6 0.613346 0.799829 0.712730
O O7 0.889763 0.780335 0.711219
O O8 0.954855 0.871144 0.599014
O O9 0.823341 0.632002 0.524972
O O10 0.714413 0.762719 0.138175
O O11 0.341068 0.500000 0.452281
O O12 0.960862 0.500000 0.937072
O O13 0.876648 0.367504 0.916232
O O14 0.000000 0.387350 0.000000
O O15 0.500000 0.674904 0.000000
O O16 0.750000 0.750000 0.000000
#
# Coordination Sequence:
#
# PCOD9225307 Si02
#       7
#     8   8   4   8   8   8   8
#     4   9  17  34  57  83 114 153 200 243 294 360
#     4  11  22  39  63  89 122 161 208 251 308 371
#     4  12  21  40  65  90 120 158 214 254 305 376
#     4  11  22  38  60  90 122 162 200 253 305 361
#     4  10  21  37  61  89 120 158 200 253 307 366
#     4  10  21  38  62  88 119 161 207 250 303 372
#     4  12  23  37  60  90 125 158 205 256 302 361
#
# _framework density 9.9766580000000005
#
# number of rings (size 3 to 8) (size 9 to 14) (size 15 to 20)
#    0.000    1.385    3.077    5.769    0.000    0.308 
#    0.000    0.385    0.000    5.538    0.000    0.000 
#    0.000    0.000    0.000    0.000    0.000    0.000 
#
# Total GULP energy -144968.067807 kJ/mol
# GULP energy per Si atom -5575.694916 kJ/mol
# Density = 0.995395 g / cm^3
# Si number density = 9.976658 Si / 1000 Ang^3
#
#
#
# Elastic Constant Matrix: (Units=GPa)
#
#
# Indices 1 2 3 4 5 6 
#
# 1 5.2656 -5.4250 -0.4339 -0.0003 11.7579 0.0002
# 2 -5.4250 96.6007 13.6778 -0.0003 1.8476 0.0002
# 3 -0.4339 13.6778 102.6642 0.0000 -2.9110 0.0000
# 4 -0.0003 -0.0003 0.0000 24.8408 0.0000 -12.3460
# 5 11.7579 1.8476 -2.9110 0.0000 26.4537 -0.0001
# 6 0.0002 0.0002 0.0000 -12.3460 -0.0001 29.1819
#
#
#
# Elastic Compliance Matrix: (Units=1/GPa)
#
#
# Indices 1 2 3 4 5 6 
#
# 1 -2.527185 -0.170000 0.044293 -0.000030 1.140005 0.000006
# 2 -0.170000 -0.000864 0.001546 -0.000002 0.075790 0.000000
# 3 0.044293 0.001546 0.009189 0.000001 -0.018784 0.000000
# 4 -0.000030 -0.000002 0.000001 0.050975 0.000014 0.021566
# 5 1.140005 0.075790 -0.018784 0.000014 -0.476256 -0.000003
# 6 0.000006 0.000000 0.000000 0.021566 -0.000003 0.043392
#
#
# Mechanical properties :
#
#
# Convention : Reuss Voigt Hill
#
# Bulk Modulus (GPa) = -0.36138 24.46315 12.05089
# Shear Modulus (GPa) = -1.39867 29.20939 13.90536
#
# Velocity S-wave (km/s) = -0.83815 3.83023 2.64274
# Velocity P-wave (km/s) = 1.05743 5.64337 3.91979
#
# Compressibility (1/GPa) = -2.76718200
#
# Stress axis : x y z
#
# Youngs Moduli (GPa) = -0.39570 -1157.94650 108.82403
#
# Poissons Ratio (x) = -196.85097 -4.82017
# Poissons Ratio (y) = -0.06727 -0.16820
# Poissons Ratio (z) = 0.01753 1.78976
#
# Static dielectric constant tensor:
#      x y z
#    x 1.708020 0.000000 -0.001240 
#    y 0.000000 1.795500 0.000000 
#    z -0.001240 0.000000 1.680530 
# 
# From -- ./inp_files/301067.got.cif
#   From: 2010.05.17/outbox.ucp.g08.bks.cvg/sg12_151_cif.got.tgz:301067.got - 2010.06.11 11:47:21.
