data_PCOD9225752
_publ_section_title
;
Structure prediction by ZEFSAII (Michael W. Deem and Ramdas Pophale) SiO2 
 PCOD9225752
Probable space group: C 2/M
;
_chemical_formula_sum "Si O2"
_cell_formula_units_Z 21
_cell_length_a 15.000000
_cell_length_b 18.000000
_cell_length_c 9.000000
_cell_angle_alpha 90.000000
_cell_angle_beta 120.000000
_cell_angle_gamma 90.000000
_cell_volume 2104.441731
_symmetry_space_group_name_H-M "C 2/M"
_symmetry_group_IT_number 12
_symmetry_cell_setting 'monoclinic'
loop_
_space_group_symop_operation_xyz
x,y,z
-x,y,-z
-x,-y,-z
x,-y,z
1/2+x,1/2+y,z
1/2-x,1/2+y,-z
1/2-x,1/2-y,-z
1/2+x,1/2-y,z
loop_
_atom_site_type_symbol
_atom_site_label
_atom_site_fract_x
_atom_site_fract_y
_atom_site_fract_z
Si Si1 0.547478 0.263802 0.192133
Si Si2 0.390076 0.650210 0.464710
Si Si3 0.123114 0.414349 0.598557
Si Si4 0.664246 0.114334 0.286499
Si Si5 0.158005 0.722627 0.815576
Si Si6 0.500000 0.000000 0.000000
O O1 0.592199 0.321235 0.351160
O O2 0.632500 0.200458 0.232937
O O3 0.449258 0.222434 0.183860
O O4 0.500000 0.296428 0.000000
O O5 0.500000 0.618620 0.500000
O O6 0.285825 0.603064 0.357221
O O7 0.366768 0.721671 0.341038
O O8 0.142003 0.500000 0.656083
O O9 0.152771 0.401064 0.452758
O O10 0.176164 0.357359 0.755951
O O11 0.000000 0.401557 0.500000
O O12 0.583100 0.064309 0.128719
O O13 0.250000 0.750000 0.000000
#
# Coordination Sequence:
#
# PCOD9225752 Si02
#       6
#     8   8   8   8   8   2
#     4  11  21  36  61  96 129 168 221 279 338 394
#     4  10  23  41  63  92 135 172 223 282 340 391
#     4  11  22  39  62  91 134 176 209 269 345 402
#     4  12  22  40  64  95 135 177 217 278 332 406
#     4  11  22  37  59  97 133 177 228 275 329 406
#     4  12  28  40  64 104 130 166 236 260 344 414
#
# _framework density 9.9788940000000004
#
# number of rings (size 3 to 8) (size 9 to 14) (size 15 to 20)
#    0.000    0.952    5.714    2.286    2.667    0.000 
#    0.000    0.476    0.000    0.000    2.476    6.000 
#    0.000    0.000    0.000    0.000    0.000    0.000 
#
# Total GULP energy -117086.425916 kJ/mol
# GULP energy per Si atom -5575.544091 kJ/mol
# Density = 0.995618 g / cm^3
# Si number density = 9.978894 Si / 1000 Ang^3
#
#
#
# Elastic Constant Matrix: (Units=GPa)
#
#
# Indices 1 2 3 4 5 6 
#
# 1 121.8895 21.0898 42.5038 0.0000 27.4668 0.0000
# 2 21.0898 56.7933 46.7622 0.0000 8.2962 0.0000
# 3 42.5038 46.7622 162.6577 0.0000 18.6999 0.0000
# 4 0.0000 0.0000 0.0000 28.4633 0.0000 11.8751
# 5 27.4668 8.2962 18.6999 0.0000 39.8069 0.0000
# 6 0.0000 0.0000 0.0000 11.8751 0.0000 10.8181
#
#
#
# Elastic Compliance Matrix: (Units=1/GPa)
#
#
# Indices 1 2 3 4 5 6 
#
# 1 0.010409 -0.001719 -0.001524 0.000000 -0.006108 0.000000
# 2 -0.001719 0.023473 -0.006208 0.000000 -0.000790 0.000000
# 3 -0.001524 -0.006208 0.008521 0.000000 -0.001658 0.000000
# 4 0.000000 0.000000 0.000000 0.064817 0.000000 -0.071151
# 5 -0.006108 -0.000790 -0.001658 0.000000 0.030280 0.000000
# 6 0.000000 0.000000 0.000000 -0.071151 0.000000 0.170540
#
#
# Mechanical properties :
#
#
# Convention : Reuss Voigt Hill
#
# Bulk Modulus (GPa) = 42.54848 62.45023 52.49935
# Shear Modulus (GPa) = 14.93534 31.21664 23.07599
#
# Velocity S-wave (km/s) = 2.73856 3.95920 3.40404
# Velocity P-wave (km/s) = 5.60046 7.22907 6.46624
#
# Compressibility (1/GPa) = 0.02350260
#
# Stress axis : x y z
#
# Youngs Moduli (GPa) = 96.06765 42.60200 117.35059
#
# Poissons Ratio (x) = 0.07321 0.17881
# Poissons Ratio (y) = 0.16510 0.72856
# Poissons Ratio (z) = 0.14638 0.26449
#
# Static dielectric constant tensor:
#      x y z
#    x 1.774080 0.000000 -0.029780 
#    y 0.000000 1.692670 0.000000 
#    z -0.029780 0.000000 1.683210 
# 
# From -- ./inp_files/61862.got.cif
#   From: 2010.05.17/outbox.ucp.g08.bks.cvg/sg12_31_cif.got.tgz:61862.got - 2010.06.11 11:47:21.
