data_PCOD9225332
_publ_section_title
;
Structure prediction by ZEFSAII (Michael W. Deem and Ramdas Pophale) SiO2 
 PCOD9225332
Probable space group: C 2/M
;
_chemical_formula_sum "Si O2"
_cell_formula_units_Z 24
_cell_length_a 21.000000
_cell_length_b 18.000000
_cell_length_c 18.000000
_cell_angle_alpha 90.000000
_cell_angle_beta 20.000000
_cell_angle_gamma 90.000000
_cell_volume 2327.105055
_symmetry_space_group_name_H-M "C 2/M"
_symmetry_group_IT_number 12
_symmetry_cell_setting 'monoclinic'
loop_
_space_group_symop_operation_xyz
x,y,z
-x,y,-z
-x,-y,-z
x,-y,z
1/2+x,1/2+y,z
1/2-x,1/2+y,-z
1/2-x,1/2-y,-z
1/2+x,1/2-y,z
loop_
_atom_site_type_symbol
_atom_site_label
_atom_site_fract_x
_atom_site_fract_y
_atom_site_fract_z
Si Si1 0.639996 0.324916 0.141812
Si Si2 0.971849 0.412559 0.831204
Si Si3 0.809360 0.283974 0.682125
Si Si4 0.785603 0.703160 0.350918
Si Si5 0.979750 0.844620 0.881072
Si Si6 0.163507 0.583513 0.459710
O O1 0.434864 0.304860 0.394760
O O2 0.609642 0.368737 0.097961
O O3 0.750000 0.250000 0.000000
O O4 0.771793 0.372359 0.050655
O O5 0.960926 0.500000 0.858333
O O6 0.108459 0.369097 0.736831
O O7 0.056513 0.403429 0.654788
O O8 0.698922 0.226834 0.751695
O O9 0.874921 0.352770 0.557999
O O10 0.000000 0.248088 0.500000
O O11 0.677180 0.316222 0.890674
O O12 0.883612 0.773722 0.284016
O O13 0.116222 0.905832 0.765250
O O14 0.122892 0.500000 0.478731
#
# Coordination Sequence:
#
# PCOD9225332 Si02
#       6
#     8   8   8   8   8   8
#     4  12  21  36  66  93 122 161 208 259 306 361
#     4  11  24  40  62  95 126 161 208 255 311 371
#     4  11  24  38  60  94 122 161 213 250 301 368
#     4  11  22  40  64  88 125 163 202 259 309 355
#     4  11  21  38  61  92 125 162 207 249 302 366
#     4  10  21  38  58  86 130 170 201 244 301 365
#
# _framework density 10.313243
#
# number of rings (size 3 to 8) (size 9 to 14) (size 15 to 20)
#    0.000    1.000    3.333    6.500    0.000    3.000 
#    0.000    0.000    0.000    2.500    0.000    0.000 
#    0.000    0.000    0.000    0.000    0.000    0.000 
#
# Total GULP energy -134133.299188 kJ/mol
# GULP energy per Si atom -5588.887466 kJ/mol
# Density = 1.028977 g / cm^3
# Si number density = 10.313243 Si / 1000 Ang^3
#
#
#
# Elastic Constant Matrix: (Units=GPa)
#
#
# Indices 1 2 3 4 5 6 
#
# 1 63.8944 16.3438 33.9879 -0.0099 -12.1887 0.0090
# 2 16.3438 111.4550 25.4698 -0.0258 -11.7308 0.0129
# 3 33.9879 25.4698 114.6610 -0.0198 -16.3366 0.0053
# 4 -0.0099 -0.0258 -0.0198 20.7669 0.0084 -0.3981
# 5 -12.1887 -11.7308 -16.3366 0.0084 37.6765 -0.0037
# 6 0.0090 0.0129 0.0053 -0.3981 -0.0037 12.0467
#
#
#
# Elastic Compliance Matrix: (Units=1/GPa)
#
#
# Indices 1 2 3 4 5 6 
#
# 1 0.019303 -0.001320 -0.004900 0.000001 0.003709 -0.000010
# 2 -0.001320 0.009711 -0.001488 0.000009 0.001951 -0.000008
# 3 -0.004900 -0.001488 0.010885 0.000005 0.002671 0.000001
# 4 0.000001 0.000009 0.000005 0.048184 -0.000005 0.001592
# 5 0.003709 0.001951 0.002671 -0.000005 0.029507 0.000003
# 6 -0.000010 -0.000008 0.000001 0.001592 0.000003 0.083063
#
#
# Mechanical properties :
#
#
# Convention : Reuss Voigt Hill
#
# Bulk Modulus (GPa) = 40.84560 49.06816 44.95688
# Shear Modulus (GPa) = 22.29853 28.37863 25.33858
#
# Velocity S-wave (km/s) = 3.29152 3.71325 3.50873
# Velocity P-wave (km/s) = 5.85585 6.49806 6.18530
#
# Compressibility (1/GPa) = 0.02448244
#
# Stress axis : x y z
#
# Youngs Moduli (GPa) = 51.80657 102.97358 91.87058
#
# Poissons Ratio (x) = 0.13597 0.45016
# Poissons Ratio (y) = 0.06841 0.13668
# Poissons Ratio (z) = 0.25385 0.15320
#
# Static dielectric constant tensor:
#      x y z
#    x 1.805560 -0.000010 -0.003600 
#    y -0.000010 1.707780 0.000020 
#    z -0.003600 0.000020 1.744910 
# 
# From -- ./inp_files/285362.got.cif
#   From: 2010.05.17/outbox.ucp.g08.bks.cvg/sg12_143_cif.got.tgz:285362.got - 2010.06.11 11:47:21.
