data_PCOD9225483
_publ_section_title
;
Structure prediction by ZEFSAII (Michael W. Deem and Ramdas Pophale) SiO2 
 PCOD9225483
Probable space group: C 2/M
;
_chemical_formula_sum "Si O2"
_cell_formula_units_Z 32
_cell_length_a 18.000000
_cell_length_b 9.000000
_cell_length_c 30.000000
_cell_angle_alpha 90.000000
_cell_angle_beta 40.000000
_cell_angle_gamma 90.000000
_cell_volume 3123.947783
_symmetry_space_group_name_H-M "C 2/M"
_symmetry_group_IT_number 12
_symmetry_cell_setting 'monoclinic'
loop_
_space_group_symop_operation_xyz
x,y,z
-x,y,-z
-x,-y,-z
x,-y,z
1/2+x,1/2+y,z
1/2-x,1/2+y,-z
1/2-x,1/2-y,-z
1/2+x,1/2-y,z
loop_
_atom_site_type_symbol
_atom_site_label
_atom_site_fract_x
_atom_site_fract_y
_atom_site_fract_z
Si Si1 0.290298 0.824877 0.267180
Si Si2 0.956821 0.327922 0.626729
Si Si3 0.035255 0.836706 0.291667
Si Si4 0.705956 0.666483 0.644281
Si Si5 0.322405 0.322232 0.508095
Si Si6 0.686371 0.678337 0.987932
Si Si7 0.927088 0.172277 0.127259
Si Si8 0.223333 0.326964 0.149733
O O1 0.172098 0.734101 0.314772
O O2 0.321774 0.770838 0.301584
O O3 0.380751 0.771800 0.188676
O O4 0.273977 0.000000 0.272560
O O5 0.966894 0.500000 0.610293
O O6 0.987550 0.296117 0.663605
O O7 0.044742 0.225933 0.559209
O O8 0.133086 0.783204 0.213391
O O9 0.915859 0.855129 0.322495
O O10 0.064759 0.000000 0.298450
O O11 0.751583 0.500000 0.635095
O O12 0.783755 0.749763 0.572280
O O13 0.308387 0.500000 0.513397
O O14 0.250000 0.250000 0.500000
O O15 0.693028 0.500000 0.987512
O O16 0.743980 0.720377 0.914870
O O17 0.750000 0.750000 0.000000
O O18 0.551852 0.718683 0.052456
O O19 0.836359 0.176914 0.128777
O O20 0.932813 0.000000 0.140147
O O21 0.182698 0.500000 0.168086
#
# Coordination Sequence:
#
# PCOD9225483 Si02
#       8
#     8   8   8   8   8   8   8   8
#     4  12  26  43  65  96 132 167 215 270 324 383
#     4  12  24  42  68  95 129 171 216 263 320 383
#     4  11  23  39  64  96 129 165 214 269 320 377
#     4  11  25  44  65  93 131 172 216 265 325 385
#     4  12  24  41  66  97 131 169 215 266 322 380
#     4  10  23  41  62  93 129 167 212 261 317 379
#     4  10  21  41  66  90 124 170 215 260 316 380
#     4  10  21  39  65  92 123 168 218 260 313 379
#
# _framework density 10.243449
#
# number of rings (size 3 to 8) (size 9 to 14) (size 15 to 20)
#    0.000    1.000    2.500    4.500    1.750    4.500 
#    0.000    2.500    0.000    2.250    0.000    0.000 
#    0.000    0.000    0.000    0.000    0.000    0.000 
#
# Total GULP energy -178655.317255 kJ/mol
# GULP energy per Si atom -5582.978664 kJ/mol
# Density = 1.022013 g / cm^3
# Si number density = 10.243449 Si / 1000 Ang^3
#
#
#
# Elastic Constant Matrix: (Units=GPa)
#
#
# Indices 1 2 3 4 5 6 
#
# 1 33.6081 1.3402 -24.1818 -0.0001 5.8994 0.0004
# 2 1.3402 102.2641 54.8035 -0.0003 11.6175 -0.0004
# 3 -24.1818 54.8035 189.2088 -0.0001 42.0826 -0.0002
# 4 -0.0001 -0.0003 -0.0001 27.4691 0.0000 -0.9055
# 5 5.8994 11.6175 42.0826 0.0000 44.2260 0.0000
# 6 0.0004 -0.0004 -0.0002 -0.9055 0.0000 21.1732
#
#
#
# Elastic Compliance Matrix: (Units=1/GPa)
#
#
# Indices 1 2 3 4 5 6 
#
# 1 0.038421 -0.003794 0.008787 0.000000 -0.012490 -0.000001
# 2 -0.003794 0.011951 -0.004263 0.000000 0.001423 0.000000
# 3 0.008787 -0.004263 0.009709 0.000000 -0.009291 0.000000
# 4 0.000000 0.000000 0.000000 0.036456 0.000000 0.001559
# 5 -0.012490 0.001423 -0.009291 0.000000 0.032744 0.000000
# 6 -0.000001 0.000000 0.000000 0.001559 0.000000 0.047296
#
#
# Mechanical properties :
#
#
# Convention : Reuss Voigt Hill
#
# Bulk Modulus (GPa) = 16.24896 43.22277 29.73587
# Shear Modulus (GPa) = 25.55831 38.11493 31.83662
#
# Velocity S-wave (km/s) = 3.53589 4.31798 3.94636
# Velocity P-wave (km/s) = 4.96172 6.78259 5.94231
#
# Compressibility (1/GPa) = 0.06154238
#
# Stress axis : x y z
#
# Youngs Moduli (GPa) = 26.02753 83.67369 102.99267
#
# Poissons Ratio (x) = 0.31743 -0.90500
# Poissons Ratio (y) = 0.09874 0.43905
# Poissons Ratio (z) = -0.22871 0.35670
#
# Static dielectric constant tensor:
#      x y z
#    x 1.812360 0.000000 -0.023780 
#    y 0.000000 1.537650 0.000000 
#    z -0.023780 0.000000 1.781940 
# 
# From -- ./inp_files/378015.got.cif
#   From: 2010.05.17/outbox.ucp.g08.bks.cvg/sg12_190_cif.got.tgz:378015.got - 2010.06.11 11:47:21.
