data_PCOD9225908
_publ_section_title
;
Structure prediction by ZEFSAII (Michael W. Deem and Ramdas Pophale) SiO2 
 PCOD9225908
Probable space group: C 2/M
;
_chemical_formula_sum "Si O2"
_cell_formula_units_Z 32
_cell_length_a 15.000000
_cell_length_b 9.000000
_cell_length_c 30.000000
_cell_angle_alpha 90.000000
_cell_angle_beta 50.000000
_cell_angle_gamma 90.000000
_cell_volume 3102.479995
_symmetry_space_group_name_H-M "C 2/M"
_symmetry_group_IT_number 12
_symmetry_cell_setting 'monoclinic'
loop_
_space_group_symop_operation_xyz
x,y,z
-x,y,-z
-x,-y,-z
x,-y,z
1/2+x,1/2+y,z
1/2-x,1/2+y,-z
1/2-x,1/2-y,-z
1/2+x,1/2-y,z
loop_
_atom_site_type_symbol
_atom_site_label
_atom_site_fract_x
_atom_site_fract_y
_atom_site_fract_z
Si Si1 0.902465 0.176067 0.212249
Si Si2 0.170829 0.177823 0.987225
Si Si3 0.106190 0.678926 0.411672
Si Si4 0.024825 0.321311 0.250052
Si Si5 0.519347 0.831092 0.898374
Si Si6 0.761506 0.829404 0.868429
Si Si7 0.828775 0.677740 0.513730
Si Si8 0.362877 0.178379 0.697532
O O1 0.982791 0.254878 0.149385
O O2 0.767870 0.201362 0.243302
O O3 0.923814 0.243785 0.254252
O O4 0.922916 0.000000 0.205913
O O5 0.044791 0.234319 0.043568
O O6 0.175869 0.000000 0.984313
O O7 0.250000 0.250000 0.000000
O O8 0.214845 0.249664 0.927544
O O9 0.124681 0.500000 0.405597
O O10 0.178698 0.732329 0.431908
O O11 0.133106 0.739641 0.353862
O O12 0.966991 0.700626 0.461032
O O13 0.014833 0.500000 0.251843
O O14 0.138369 0.266149 0.186710
O O15 0.045285 0.270880 0.294617
O O16 0.652403 0.839056 0.870530
O O17 0.472070 0.000000 0.911942
O O18 0.799709 0.000000 0.865552
O O19 0.807168 0.500000 0.519571
O O20 0.750000 0.750000 0.500000
O O21 0.380242 0.000000 0.688496
#
# Coordination Sequence:
#
# PCOD9225908 Si02
#       8
#     8   8   8   8   8   8   8   8
#     4  11  22  38  59  84 112 149 193 238 289 346
#     4  12  25  40  59  83 113 145 185 233 284 347
#     4   8  16  33  54  80 113 157 197 232 281 344
#     4  11  22  38  59  84 112 149 193 238 289 346
#     4  11  23  40  61  84 112 145 184 234 289 347
#     4  11  23  40  61  84 112 145 184 234 289 347
#     4   9  17  31  56  84 116 153 195 237 284 338
#     4   9  19  36  58  81 113 152 197 240 282 341
#
# _framework density 10.314329000000001
#
# number of rings (size 3 to 8) (size 9 to 14) (size 15 to 20)
#    0.000    1.750    1.250    4.500    0.000    4.000 
#    0.000    1.250    0.000    4.500    0.000    0.000 
#    0.000    0.000    0.000    0.000    0.000    0.000 
#
# Total GULP energy -178559.777996 kJ/mol
# GULP energy per Si atom -5579.993062 kJ/mol
# Density = 1.029085 g / cm^3
# Si number density = 10.314329 Si / 1000 Ang^3
#
#
#
# Elastic Constant Matrix: (Units=GPa)
#
#
# Indices 1 2 3 4 5 6 
#
# 1 118.8491 33.7289 15.0292 0.0000 39.0874 0.0000
# 2 33.7289 70.8999 25.5279 0.0000 14.0708 -0.0001
# 3 15.0292 25.5279 67.6956 0.0000 43.6391 0.0000
# 4 0.0000 0.0000 0.0000 13.5458 0.0000 5.2051
# 5 39.0874 14.0708 43.6391 0.0000 40.1246 0.0000
# 6 0.0000 -0.0001 0.0000 5.2051 0.0000 31.4951
#
#
#
# Elastic Compliance Matrix: (Units=1/GPa)
#
#
# Indices 1 2 3 4 5 6 
#
# 1 0.040759 -0.022732 0.066847 0.000000 -0.104436 0.000000
# 2 -0.022732 0.029126 -0.045593 0.000000 0.061518 0.000000
# 3 0.066847 -0.045593 0.163252 0.000000 -0.226682 0.000000
# 4 0.000000 0.000000 0.000000 0.078830 0.000000 -0.013028
# 5 -0.104436 0.061518 -0.226682 0.000000 0.351623 0.000000
# 6 0.000000 0.000000 0.000000 -0.013028 0.000000 0.033904
#
#
# Mechanical properties :
#
#
# Convention : Reuss Voigt Hill
#
# Bulk Modulus (GPa) = 4.34444 45.11295 24.72870
# Shear Modulus (GPa) = 6.43353 29.24366 17.83859
#
# Velocity S-wave (km/s) = 1.76791 3.76922 2.94385
# Velocity P-wave (km/s) = 2.50558 6.39212 4.85475
#
# Compressibility (1/GPa) = 0.23017931
#
# Stress axis : x y z
#
# Youngs Moduli (GPa) = 24.53422 34.33346 6.12550
#
# Poissons Ratio (x) = 0.78048 -0.40947
# Poissons Ratio (y) = 0.55772 0.27928
# Poissons Ratio (z) = -1.64003 1.56537
#
# Static dielectric constant tensor:
#      x y z
#    x 1.801370 0.000000 -0.024400 
#    y 0.000000 1.720490 0.000000 
#    z -0.024400 0.000000 1.870810 
# 
# From -- ./inp_files/375412.got.cif
#   From: 2010.05.17/outbox.ucp.g08.bks.cvg/sg12_188_cif.got.tgz:375412.got - 2010.06.11 11:47:21.
