data_PCOD9225534
_publ_section_title
;
Structure prediction by ZEFSAII (Michael W. Deem and Ramdas Pophale) SiO2 
 PCOD9225534
Probable space group: C 2/M
;
_chemical_formula_sum "Si O2"
_cell_formula_units_Z 32
_cell_length_a 24.000000
_cell_length_b 18.000000
_cell_length_c 21.000000
_cell_angle_alpha 90.000000
_cell_angle_beta 160.000000
_cell_angle_gamma 90.000000
_cell_volume 3102.806740
_symmetry_space_group_name_H-M "C 2/M"
_symmetry_group_IT_number 12
_symmetry_cell_setting 'monoclinic'
loop_
_space_group_symop_operation_xyz
x,y,z
-x,y,-z
-x,-y,-z
x,-y,z
1/2+x,1/2+y,z
1/2-x,1/2+y,-z
1/2-x,1/2-y,-z
1/2+x,1/2-y,z
loop_
_atom_site_type_symbol
_atom_site_label
_atom_site_fract_x
_atom_site_fract_y
_atom_site_fract_z
Si Si1 0.792148 0.662048 0.046528
Si Si2 0.855394 0.294938 0.563524
Si Si3 0.171251 0.082563 0.291350
Si Si4 0.673536 0.589622 0.791546
Si Si5 0.523186 0.913634 0.101016
Si Si6 0.805277 0.814417 0.801345
Si Si7 0.650884 0.683450 0.559348
Si Si8 0.783880 0.086842 0.898486
O O1 0.759668 0.622523 0.079772
O O2 0.983771 0.666000 0.237815
O O3 0.750000 0.750000 0.000000
O O4 0.701917 0.616015 0.894771
O O5 0.750000 0.250000 0.500000
O O6 0.744514 0.360620 0.419136
O O7 0.896545 0.238205 0.550108
O O8 0.213456 0.117882 0.268618
O O9 0.237577 0.000000 0.367967
O O10 0.978356 0.080700 0.096266
O O11 0.653291 0.500000 0.764328
O O12 0.505105 0.631853 0.590812
O O13 0.846053 0.609207 0.940860
O O14 0.686668 0.863826 0.287189
O O15 0.552419 0.000000 0.152204
O O16 0.500000 0.912699 0.000000
O O17 0.707868 0.741049 0.675614
O O18 0.745108 0.850448 0.803054
O O19 0.000000 0.796025 0.000000
O O20 0.722640 0.000000 0.826666
#
# Coordination Sequence:
#
# PCOD9225534 Si02
#       8
#     8   8   8   8   8   8   8   8
#     4  12  24  42  63  93 134 177 220 276 336 399
#     4  11  23  41  62  92 129 170 225 277 334 399
#     4   9  19  36  62  94 128 172 224 273 329 399
#     4  11  25  45  68  99 137 179 229 282 343 409
#     4  10  23  44  68  97 132 173 223 282 341 405
#     4   9  19  38  66  97 134 176 222 276 335 398
#     4  11  22  42  67 100 132 178 220 280 342 406
#     4  10  21  40  67  98 135 179 222 271 330 399
#
# _framework density 10.313243
#
# number of rings (size 3 to 8) (size 9 to 14) (size 15 to 20)
#    0.000    1.625    1.250    3.000    0.000    6.000 
#    2.250    4.375    0.000    3.750    0.000    0.000 
#    0.000    0.000    0.000    0.000    0.000    0.000 
#
# Total GULP energy -178641.924610 kJ/mol
# GULP energy per Si atom -5582.560144 kJ/mol
# Density = 1.028977 g / cm^3
# Si number density = 10.313243 Si / 1000 Ang^3
#
#
#
# Elastic Constant Matrix: (Units=GPa)
#
#
# Indices 1 2 3 4 5 6 
#
# 1 123.0794 56.0119 37.3864 0.0033 4.4952 0.0018
# 2 56.0119 139.0842 58.3533 0.0005 6.2086 -0.0001
# 3 37.3864 58.3533 80.3240 0.0023 4.8943 0.0004
# 4 0.0033 0.0005 0.0023 34.1373 0.0061 2.4538
# 5 4.4952 6.2086 4.8943 0.0061 25.2113 0.0020
# 6 0.0018 -0.0001 0.0004 2.4538 0.0020 19.6794
#
#
#
# Elastic Compliance Matrix: (Units=1/GPa)
#
#
# Indices 1 2 3 4 5 6 
#
# 1 0.010311 -0.003060 -0.002540 -0.000001 -0.000592 -0.000001
# 2 -0.003060 0.011281 -0.006714 0.000001 -0.000929 0.000000
# 3 -0.002540 -0.006714 0.018601 -0.000001 -0.001505 0.000000
# 4 -0.000001 0.000001 -0.000001 0.029558 -0.000007 -0.003686
# 5 -0.000592 -0.000929 -0.001505 -0.000007 0.040291 -0.000003
# 6 -0.000001 0.000000 0.000000 -0.003686 -0.000003 0.051274
#
#
# Mechanical properties :
#
#
# Convention : Reuss Voigt Hill
#
# Bulk Modulus (GPa) = 64.25087 71.77673 68.01380
# Shear Modulus (GPa) = 26.15987 28.52134 27.34060
#
# Velocity S-wave (km/s) = 3.56514 3.72257 3.64470
# Velocity P-wave (km/s) = 6.94005 7.30415 7.12442
#
# Compressibility (1/GPa) = 0.01556399
#
# Stress axis : x y z
#
# Youngs Moduli (GPa) = 96.98735 88.64651 53.76045
#
# Poissons Ratio (x) = 0.27129 0.13654
# Poissons Ratio (y) = 0.29681 0.36096
# Poissons Ratio (z) = 0.24632 0.59519
#
# Static dielectric constant tensor:
#      x y z
#    x 1.742010 0.000000 -0.041820 
#    y 0.000000 1.724390 -0.000010 
#    z -0.041820 -0.000010 1.704500 
# 
# From -- ./inp_files/326134.got.cif
#   From: 2010.05.17/outbox.ucp.g08.bks.cvg/sg12_164_cif.got.tgz:326134.got - 2010.06.11 11:47:21.
