data_PCOD9225088
_publ_section_title
;
Structure prediction by ZEFSAII (Michael W. Deem and Ramdas Pophale) SiO2 
 PCOD9225088
Probable space group: C 2/M
;
_chemical_formula_sum "Si O2"
_cell_formula_units_Z 28
_cell_length_a 15.000000
_cell_length_b 18.000000
_cell_length_c 12.000000
_cell_angle_alpha 90.000000
_cell_angle_beta 60.000000
_cell_angle_gamma 90.000000
_cell_volume 2805.922308
_symmetry_space_group_name_H-M "C 2/M"
_symmetry_group_IT_number 12
_symmetry_cell_setting 'monoclinic'
loop_
_space_group_symop_operation_xyz
x,y,z
-x,y,-z
-x,-y,-z
x,-y,z
1/2+x,1/2+y,z
1/2-x,1/2+y,-z
1/2-x,1/2-y,-z
1/2+x,1/2-y,z
loop_
_atom_site_type_symbol
_atom_site_label
_atom_site_fract_x
_atom_site_fract_y
_atom_site_fract_z
Si Si1 0.469224 0.910587 0.651484
Si Si2 0.391537 0.583098 0.003863
Si Si3 0.062150 0.410768 0.844404
Si Si4 0.067419 0.915599 0.283201
Si Si5 0.821286 0.914663 0.432184
Si Si6 0.748046 0.158017 0.252007
Si Si7 0.769749 0.829146 0.679045
O O1 0.500000 0.891575 0.500000
O O2 0.523145 0.890896 0.739798
O O3 0.359116 0.872359 0.725653
O O4 0.465808 0.000000 0.654432
O O5 0.344763 0.500000 0.050067
O O6 0.326578 0.646960 0.101951
O O7 0.500000 0.581849 0.000000
O O8 0.405212 0.593742 0.863924
O O9 0.073219 0.500000 0.835741
O O10 0.170754 0.370097 0.791124
O O11 0.000000 0.393769 0.000000
O O12 0.128860 0.858881 0.321259
O O13 0.944453 0.909855 0.366863
O O14 0.095984 0.000000 0.299652
O O15 0.786972 0.893087 0.329844
O O16 0.775136 0.857294 0.548810
O O17 0.789465 0.000000 0.476012
O O18 0.740022 0.241528 0.300472
#
# Coordination Sequence:
#
# PCOD9225088 Si02
#       7
#     8   8   8   8   8   8   8
#     4  10  22  42  67  92 120 166 225 272 307 368
#     4  10  20  40  66  94 123 162 215 266 311 368
#     4  10  23  44  65  88 123 174 228 267 305 373
#     4  10  22  40  67  95 122 163 215 263 312 376
#     4  11  22  43  70  95 123 164 217 266 312 374
#     4  12  25  39  64  97 132 164 203 260 331 385
#     4  12  26  40  61  94 137 170 199 254 330 391
#
# _framework density 9.9788940000000004
#
# number of rings (size 3 to 8) (size 9 to 14) (size 15 to 20)
#    0.000    1.286    1.429    4.286    2.000    5.714 
#    0.000    0.000    0.000    0.000    0.000    0.000 
#    0.000    0.000    0.000    0.000    0.000    0.000 
#
# Total GULP energy -156235.850087 kJ/mol
# GULP energy per Si atom -5579.851789 kJ/mol
# Density = 0.995618 g / cm^3
# Si number density = 9.978894 Si / 1000 Ang^3
#
#
#
# Elastic Constant Matrix: (Units=GPa)
#
#
# Indices 1 2 3 4 5 6 
#
# 1 67.3695 13.7205 -0.5619 0.0000 0.6855 0.0000
# 2 13.7205 26.4593 23.5523 0.0000 -12.9046 0.0000
# 3 -0.5619 23.5523 80.2513 0.0000 5.7458 0.0000
# 4 0.0000 0.0000 0.0000 81.0784 0.0000 -30.6676
# 5 0.6855 -12.9046 5.7458 0.0000 23.6864 0.0000
# 6 0.0000 0.0000 0.0000 -30.6676 0.0000 15.4547
#
#
#
# Elastic Compliance Matrix: (Units=1/GPa)
#
#
# Indices 1 2 3 4 5 6 
#
# 1 0.021022 -0.028986 0.010002 0.000000 -0.018827 0.000000
# 2 -0.028986 0.136119 -0.046326 0.000000 0.086236 0.000000
# 3 0.010002 -0.046326 0.028448 0.000000 -0.032429 0.000000
# 4 0.000000 0.000000 0.000000 0.049449 0.000000 0.098125
# 5 -0.018827 0.086236 -0.032429 0.000000 0.097612 0.000000
# 6 0.000000 0.000000 0.000000 0.098125 0.000000 0.259420
#
#
# Mechanical properties :
#
#
# Convention : Reuss Voigt Hill
#
# Bulk Modulus (GPa) = 18.19171 27.50020 22.84595
# Shear Modulus (GPa) = 6.74752 33.20185 19.97468
#
# Velocity S-wave (km/s) = 1.84072 4.08315 3.16705
# Velocity P-wave (km/s) = 3.69493 6.00322 4.98453
#
# Compressibility (1/GPa) = 0.05497010
#
# Stress axis : x y z
#
# Youngs Moduli (GPa) = 47.56967 7.34650 35.15127
#
# Poissons Ratio (x) = 0.21295 -0.35158
# Poissons Ratio (y) = 1.37885 1.62841
# Poissons Ratio (z) = -0.47579 0.34033
#
# Static dielectric constant tensor:
#      x y z
#    x 1.633620 0.000000 0.007360 
#    y 0.000000 1.669360 0.000000 
#    z 0.007360 0.000000 1.733680 
# 
# From -- ./inp_files/146047.got.cif
#   From: 2010.05.17/outbox.ucp.g08.bks.cvg/sg12_74_cif.got.tgz:146047.got - 2010.06.11 11:47:21.
