data_PCOD9225647
_publ_section_title
;
Structure prediction by ZEFSAII (Michael W. Deem and Ramdas Pophale) SiO2 
 PCOD9225647
Probable space group: C 2/M
;
_chemical_formula_sum "Si O2"
_cell_formula_units_Z 32
_cell_length_a 18.000000
_cell_length_b 21.000000
_cell_length_c 24.000000
_cell_angle_alpha 90.000000
_cell_angle_beta 20.000000
_cell_angle_gamma 90.000000
_cell_volume 3102.806740
_symmetry_space_group_name_H-M "C 2/M"
_symmetry_group_IT_number 12
_symmetry_cell_setting 'monoclinic'
loop_
_space_group_symop_operation_xyz
x,y,z
-x,y,-z
-x,-y,-z
x,-y,z
1/2+x,1/2+y,z
1/2-x,1/2+y,-z
1/2-x,1/2-y,-z
1/2+x,1/2-y,z
loop_
_atom_site_type_symbol
_atom_site_label
_atom_site_fract_x
_atom_site_fract_y
_atom_site_fract_z
Si Si1 0.471764 0.366631 0.422779
Si Si2 0.146159 0.427576 0.568661
Si Si3 0.739775 0.755697 0.197161
Si Si4 0.175819 0.655057 0.147692
Si Si5 0.595120 0.072317 0.870827
Si Si6 0.793029 0.570047 0.605422
Si Si7 0.863340 0.815486 0.214746
Si Si8 0.405796 0.170662 0.227558
O O1 0.317586 0.383344 0.479803
O O2 0.626770 0.308517 0.296248
O O3 0.642967 0.422871 0.312203
O O4 0.320297 0.349345 0.582431
O O5 0.194343 0.500000 0.550309
O O6 0.152598 0.423134 0.497823
O O7 0.918090 0.405770 0.754889
O O8 0.629088 0.784765 0.220571
O O9 0.704074 0.803585 0.274650
O O10 0.000000 0.747729 0.000000
O O11 0.076190 0.663263 0.157160
O O12 0.430151 0.654729 0.961126
O O13 0.536032 0.124110 0.864988
O O14 0.527237 0.000000 0.904286
O O15 0.500000 0.085941 0.000000
O O16 0.679205 0.500000 0.691501
O O17 0.685467 0.634956 0.702448
O O18 0.000000 0.566184 0.500000
O O19 0.900224 0.743877 0.211525
#
# Coordination Sequence:
#
# PCOD9225647 Si02
#       8
#     8   8   8   8   8   8   8   8
#     4  11  23  39  66  96 132 171 212 266 323 385
#     4  10  23  42  64  93 127 170 218 266 325 392
#     4  10  22  40  64  95 132 170 214 263 323 390
#     4  10  24  41  61  93 126 171 208 269 326 374
#     4  11  25  44  66  94 132 179 218 262 322 391
#     4  10  23  41  62  91 127 166 216 273 325 385
#     4  11  23  39  64  93 127 168 215 270 324 385
#     4  11  25  39  63  99 127 167 216 267 324 379
#
# _framework density 10.313243
#
# number of rings (size 3 to 8) (size 9 to 14) (size 15 to 20)
#    0.000    1.500    1.250    2.250    7.000    5.500 
#    0.000    1.250    0.000    4.500    0.000    0.000 
#    0.000    0.000    0.000    0.000    0.000    0.000 
#
# Total GULP energy -178485.405324 kJ/mol
# GULP energy per Si atom -5577.668916 kJ/mol
# Density = 1.028977 g / cm^3
# Si number density = 10.313243 Si / 1000 Ang^3
#
#
#
# Elastic Constant Matrix: (Units=GPa)
#
#
# Indices 1 2 3 4 5 6 
#
# 1 123.4674 60.0043 12.7971 -0.0647 17.5302 -0.0214
# 2 60.0043 115.1138 28.4158 0.0586 16.5014 -0.0246
# 3 12.7971 28.4158 41.0035 -0.2551 11.0499 -0.0729
# 4 -0.0647 0.0586 -0.2551 26.4416 0.0639 11.9573
# 5 17.5302 16.5014 11.0499 0.0639 27.0793 0.0189
# 6 -0.0214 -0.0246 -0.0729 11.9573 0.0189 23.2888
#
#
#
# Elastic Compliance Matrix: (Units=1/GPa)
#
#
# Indices 1 2 3 4 5 6 
#
# 1 0.011322 -0.005647 0.001604 0.000079 -0.004544 -0.000027
# 2 -0.005647 0.013665 -0.007246 -0.000136 -0.001714 0.000058
# 3 0.001604 -0.007246 0.031461 0.000392 -0.009462 -0.000101
# 4 0.000079 -0.000136 0.000392 0.049261 -0.000227 -0.025291
# 5 -0.004544 -0.001714 -0.009462 -0.000227 0.044776 0.000044
# 6 -0.000027 0.000058 -0.000101 -0.025291 0.000044 0.055924
#
#
# Mechanical properties :
#
#
# Convention : Reuss Voigt Hill
#
# Bulk Modulus (GPa) = 29.52344 53.55767 41.54055
# Shear Modulus (GPa) = 20.80925 27.25311 24.03118
#
# Velocity S-wave (km/s) = 3.17970 3.63887 3.41701
# Velocity P-wave (km/s) = 5.27495 6.60886 5.97922
#
# Compressibility (1/GPa) = 0.03387140
#
# Stress axis : x y z
#
# Youngs Moduli (GPa) = 88.32030 73.17933 31.78507
#
# Poissons Ratio (x) = 0.41322 -0.05100
# Poissons Ratio (y) = 0.49872 0.23033
# Poissons Ratio (z) = -0.14170 0.53029
#
# Static dielectric constant tensor:
#      x y z
#    x 1.747850 -0.000070 -0.025780 
#    y -0.000070 1.779780 0.000070 
#    z -0.025780 0.000070 1.763280 
# 
# From -- ./inp_files/344860.got.cif
#   From: 2010.05.17/outbox.ucp.g08.bks.cvg/sg12_173_cif.got.tgz:344860.got - 2010.06.11 11:47:21.
