data_PCOD9225000
_publ_section_title
;
Structure prediction by ZEFSAII (Michael W. Deem and Ramdas Pophale) SiO2 
 PCOD9225000
Probable space group: C 2/M
;
_chemical_formula_sum "Si O2"
_cell_formula_units_Z 26
_cell_length_a 9.000000
_cell_length_b 21.000000
_cell_length_c 15.000000
_cell_angle_alpha 90.000000
_cell_angle_beta 90.000000
_cell_angle_gamma 90.000000
_cell_volume 2835.000000
_symmetry_space_group_name_H-M "C 2/M"
_symmetry_group_IT_number 12
_symmetry_cell_setting 'monoclinic'
loop_
_space_group_symop_operation_xyz
x,y,z
-x,y,-z
-x,-y,-z
x,-y,z
1/2+x,1/2+y,z
1/2-x,1/2+y,-z
1/2-x,1/2-y,-z
1/2+x,1/2-y,z
loop_
_atom_site_type_symbol
_atom_site_label
_atom_site_fract_x
_atom_site_fract_y
_atom_site_fract_z
Si Si1 0.937383 0.000000 0.853103
Si Si2 0.171425 0.797553 0.773276
Si Si3 0.745955 0.200197 0.623115
Si Si4 0.500000 0.751038 0.500000
Si Si5 0.327663 0.185898 0.091613
Si Si6 0.364793 0.868224 0.905824
Si Si7 0.762341 0.000000 0.030732
Si Si8 0.120292 0.869035 0.232348
O O1 0.925571 0.060925 0.791680
O O2 0.088061 0.000000 0.910115
O O3 0.808271 0.000000 0.927588
O O4 0.247744 0.758250 0.694692
O O5 0.132418 0.749415 0.854438
O O6 0.274902 0.849981 0.818380
O O7 0.022074 0.828803 0.738908
O O8 0.594004 0.206626 0.569003
O O9 0.879700 0.209282 0.553636
O O10 0.763251 0.139936 0.687975
O O11 0.462102 0.137930 0.112573
O O12 0.181003 0.160760 0.139750
O O13 0.324895 0.183132 0.984566
O O14 0.323247 0.936288 0.944002
#
# Coordination Sequence:
#
# PCOD9225000 Si02
#       8
#     4   8   8   4   8   8   4   8
#     4  11  22  39  56  79 110 165 202 242 261 330
#     4  11  21  36  55  85 120 147 188 233 287 346
#     4  10  21  37  60  95 114 148 174 237 292 363
#     4  10  20  38  64  88 122 138 176 226 310 358
#     4  10  22  34  52  80 113 154 192 245 288 319
#     4  11  22  36  52  77 115 159 200 240 273 322
#     4  11  22  38  55  74 111 164 219 231 268 310
#     4  11  21  37  59  82 116 151 197 233 277 338
#
# _framework density 9.1710759999999993
#
# number of rings (size 3 to 8) (size 9 to 14) (size 15 to 20)
#    0.000    1.385    4.615    2.308    2.154    3.692 
#    0.000    0.000    0.000    0.923    0.000    0.000 
#    0.000    0.000    0.000    0.000    0.000    0.000 
#
# Total GULP energy -144982.603245 kJ/mol
# GULP energy per Si atom -5576.253971 kJ/mol
# Density = 0.915020 g / cm^3
# Si number density = 9.171076 Si / 1000 Ang^3
#
#
#
# Elastic Constant Matrix: (Units=GPa)
#
#
# Indices 1 2 3 4 5 6 
#
# 1 57.7050 12.4394 11.0711 0.0000 0.2113 0.0000
# 2 12.4394 77.7079 12.8525 0.0000 1.9419 0.0000
# 3 11.0711 12.8525 67.9326 0.0000 9.6494 0.0000
# 4 0.0000 0.0000 0.0000 16.3325 0.0000 2.8588
# 5 0.2113 1.9419 9.6494 0.0000 33.7109 0.0000
# 6 0.0000 0.0000 0.0000 2.8588 0.0000 21.8027
#
#
#
# Elastic Compliance Matrix: (Units=1/GPa)
#
#
# Indices 1 2 3 4 5 6 
#
# 1 0.018375 -0.002526 -0.002628 0.000000 0.000783 0.000000
# 2 -0.002526 0.013632 -0.002145 0.000000 -0.000155 0.000000
# 3 -0.002628 -0.002145 0.016193 0.000000 -0.004495 0.000000
# 4 0.000000 0.000000 0.000000 0.062666 0.000000 -0.008217
# 5 0.000783 -0.000155 -0.004495 0.000000 0.030955 0.000000
# 6 0.000000 0.000000 0.000000 -0.008217 0.000000 0.046943
#
#
# Mechanical properties :
#
#
# Convention : Reuss Voigt Hill
#
# Bulk Modulus (GPa) = 29.76080 30.67463 30.21771
# Shear Modulus (GPa) = 23.30310 25.50140 24.40225
#
# Velocity S-wave (km/s) = 3.56823 3.73274 3.65141
# Velocity P-wave (km/s) = 5.76515 5.94455 5.85554
#
# Compressibility (1/GPa) = 0.03360125
#
# Stress axis : x y z
#
# Youngs Moduli (GPa) = 54.42047 73.35773 61.75473
#
# Poissons Ratio (x) = 0.18533 0.16228
# Poissons Ratio (y) = 0.13749 0.13248
# Poissons Ratio (z) = 0.14301 0.15737
#
# Static dielectric constant tensor:
#      x y z
#    x 1.677680 0.000000 0.033510 
#    y 0.000000 1.631140 0.000000 
#    z 0.033510 0.000000 1.608950 
# 
# From -- ./inp_files/197103.got.cif
#   From: 2010.05.17/outbox.ucp.g08.bks.cvg/sg12_99_cif.got.tgz:197103.got - 2010.06.11 11:47:21.
