data_PCOD9225282
_publ_section_title
;
Structure prediction by ZEFSAII (Michael W. Deem and Ramdas Pophale) SiO2 
 PCOD9225282
Probable space group: C 2/M
;
_chemical_formula_sum "Si O2"
_cell_formula_units_Z 20
_cell_length_a 21.000000
_cell_length_b 18.000000
_cell_length_c 15.000000
_cell_angle_alpha 90.000000
_cell_angle_beta 20.000000
_cell_angle_gamma 90.000000
_cell_volume 1939.254213
_symmetry_space_group_name_H-M "C 2/M"
_symmetry_group_IT_number 12
_symmetry_cell_setting 'monoclinic'
loop_
_space_group_symop_operation_xyz
x,y,z
-x,y,-z
-x,-y,-z
x,-y,z
1/2+x,1/2+y,z
1/2-x,1/2+y,-z
1/2-x,1/2-y,-z
1/2+x,1/2-y,z
loop_
_atom_site_type_symbol
_atom_site_label
_atom_site_fract_x
_atom_site_fract_y
_atom_site_fract_z
Si Si1 0.567232 0.584697 0.794719
Si Si2 0.928950 0.914128 0.413355
Si Si3 0.223751 0.348346 0.320847
Si Si4 0.681526 0.834546 0.072239
Si Si5 0.284688 0.687820 0.748245
O O1 0.613645 0.500000 0.758987
O O2 0.623061 0.596842 0.620395
O O3 0.676617 0.639872 0.715306
O O4 0.344633 0.596109 0.100454
O O5 0.795329 0.869117 0.653777
O O6 0.923387 0.000000 0.444297
O O7 0.141514 0.885880 0.141627
O O8 0.259706 0.268567 0.230434
O O9 0.002525 0.354347 0.629564
O O10 0.750000 0.750000 0.000000
O O11 0.654371 0.836085 0.001196
O O12 0.500000 0.690611 0.500000
#
# Coordination Sequence:
#
# PCOD9225282 Si02
#       5
#     8   8   8   8   8
#     4  10  24  43  60  89 125 161 207 250 299 367
#     4  10  22  40  61  86 124 163 199 249 306 361
#     4  11  21  38  65  84 125 158 198 260 305 347
#     4  11  21  38  61  93 123 153 206 255 302 363
#     4  10  21  37  59  90 123 153 198 253 297 366
#
# _framework density 10.313243
#
# number of rings (size 3 to 8) (size 9 to 14) (size 15 to 20)
#    0.000    1.600    4.000    2.400    0.000    6.000 
#    3.600    2.000    0.000    2.400    0.000    0.000 
#    0.000    0.000    0.000    0.000    0.000    0.000 
#
# Total GULP energy -111599.681430 kJ/mol
# GULP energy per Si atom -5579.984071 kJ/mol
# Density = 1.028977 g / cm^3
# Si number density = 10.313243 Si / 1000 Ang^3
#
#
#
# Elastic Constant Matrix: (Units=GPa)
#
#
# Indices 1 2 3 4 5 6 
#
# 1 35.7077 4.5772 -27.2713 -0.0116 16.1084 0.0098
# 2 4.5772 6.2405 -54.1929 -0.0226 0.5476 0.0134
# 3 -27.2713 -54.1929 6.7910 -0.0146 4.1752 0.0029
# 4 -0.0116 -0.0226 -0.0146 -68.1433 -0.0039 63.7655
# 5 16.1084 0.5476 4.1752 -0.0039 24.0946 -0.0004
# 6 0.0098 0.0134 0.0029 63.7655 -0.0004 -17.1743
#
#
#
# Elastic Compliance Matrix: (Units=1/GPa)
#
#
# Indices 1 2 3 4 5 6 
#
# 1 0.045074 -0.024889 0.000641 -0.000004 -0.029680 -0.000006
# 2 -0.024889 0.011657 -0.019014 0.000002 0.019669 -0.000001
# 3 0.000641 -0.019014 -0.002132 0.000003 0.000373 -0.000004
# 4 -0.000004 0.000002 0.000003 0.005931 0.000003 0.022021
# 5 -0.029680 0.019669 0.000373 0.000003 0.060834 0.000009
# 6 -0.000006 -0.000001 -0.000004 0.022021 0.000009 0.023532
#
#
# Mechanical properties :
#
#
# Convention : Reuss Voigt Hill
#
# Bulk Modulus (GPa) = -31.32580 -11.67053 -21.49817
# Shear Modulus (GPa) = 22.64706 -3.86952 9.38877
#
# Velocity S-wave (km/s) = 3.31714 -1.37116 2.13581
# Velocity P-wave (km/s) = 0.74087 2.85956 2.08878
#
# Compressibility (1/GPa) = -0.03192256
#
# Stress axis : x y z
#
# Youngs Moduli (GPa) = 22.18562 85.78189 -469.13791
#
# Poissons Ratio (x) = 2.13501 0.30075
# Poissons Ratio (y) = 0.55217 -8.92000
# Poissons Ratio (z) = -0.01422 1.63102
#
# Static dielectric constant tensor:
#      x y z
#    x 1.801670 0.000000 0.021980 
#    y 0.000000 1.732420 0.000000 
#    z 0.021980 0.000000 1.738340 
# 
# From -- ./inp_files/87640.got.cif
#   From: 2010.05.17/outbox.ucp.g08.bks.cvg/sg12_44_cif.got.tgz:87640.got - 2010.06.11 11:47:21.
