data_PCOD9225479
_publ_section_title
;
Structure prediction by ZEFSAII (Michael W. Deem and Ramdas Pophale) SiO2 
 PCOD9225479
Probable space group: C 2/M
;
_chemical_formula_sum "Si O2"
_cell_formula_units_Z 32
_cell_length_a 18.000000
_cell_length_b 15.000000
_cell_length_c 15.000000
_cell_angle_alpha 90.000000
_cell_angle_beta 130.000000
_cell_angle_gamma 90.000000
_cell_volume 3102.479995
_symmetry_space_group_name_H-M "C 2/M"
_symmetry_group_IT_number 12
_symmetry_cell_setting 'monoclinic'
loop_
_space_group_symop_operation_xyz
x,y,z
-x,y,-z
-x,-y,-z
x,-y,z
1/2+x,1/2+y,z
1/2-x,1/2+y,-z
1/2-x,1/2-y,-z
1/2+x,1/2-y,z
loop_
_atom_site_type_symbol
_atom_site_label
_atom_site_fract_x
_atom_site_fract_y
_atom_site_fract_z
Si Si1 0.761894 0.897279 0.988282
Si Si2 0.081800 0.597435 0.485965
Si Si3 0.102236 0.228316 0.252719
Si Si4 0.645208 0.323361 0.763848
Si Si5 0.943374 0.101043 0.619723
Si Si6 0.452762 0.155872 0.226185
Si Si7 0.305983 0.720537 0.394540
Si Si8 0.383020 0.397178 0.902442
O O1 0.646716 0.890622 0.880842
O O2 0.825737 0.871954 0.949630
O O3 0.787495 0.000000 0.025490
O O4 0.791290 0.843170 0.099367
O O5 0.129695 0.500000 0.529253
O O6 0.152615 0.679774 0.558930
O O7 0.000000 0.601642 0.500000
O O8 0.027587 0.604978 0.348499
O O9 0.075001 0.150910 0.301171
O O10 0.199396 0.280736 0.354862
O O11 0.129934 0.177648 0.183046
O O12 0.012345 0.297056 0.191660
O O13 0.558084 0.394140 0.688034
O O14 0.586607 0.233548 0.739736
O O15 0.699012 0.309034 0.712519
O O16 0.882378 0.155918 0.500804
O O17 0.910676 0.000000 0.598671
O O18 0.351856 0.500000 0.856609
O O19 0.500000 0.400568 0.000000
#
# Coordination Sequence:
#
# PCOD9225479 Si02
#       8
#     8   8   8   8   8   8   8   8
#     4  11  24  42  67  98 130 172 227 278 332 399
#     4  11  22  39  66  97 134 176 221 279 339 397
#     4  11  24  39  63  91 135 172 220 266 339 396
#     4  11  22  40  67  91 130 168 222 271 335 392
#     4  11  23  40  65  94 130 172 219 272 329 394
#     4  11  22  41  62  93 134 176 216 272 327 401
#     4  12  23  43  63  96 132 175 222 279 328 396
#     4  10  21  39  64  97 132 165 215 279 338 395
#
# _framework density 10.314329000000001
#
# number of rings (size 3 to 8) (size 9 to 14) (size 15 to 20)
#    0.000    1.000    3.750    4.500    0.000    4.500 
#    0.000    0.625    0.000    0.750    0.000    0.000 
#    0.000    0.000    0.000    0.000    0.000    0.000 
#
# Total GULP energy -178753.687187 kJ/mol
# GULP energy per Si atom -5586.052725 kJ/mol
# Density = 1.029085 g / cm^3
# Si number density = 10.314329 Si / 1000 Ang^3
#
#
#
# Elastic Constant Matrix: (Units=GPa)
#
#
# Indices 1 2 3 4 5 6 
#
# 1 93.1502 52.2237 40.2873 0.0000 14.3448 0.0000
# 2 52.2237 70.7361 30.6863 0.0000 -19.6201 0.0000
# 3 40.2873 30.6863 86.9172 0.0000 -6.4505 0.0000
# 4 0.0000 0.0000 0.0000 -142.7300 0.0000 -27.7184
# 5 14.3448 -19.6201 -6.4505 0.0000 23.6126 0.0000
# 6 0.0000 0.0000 0.0000 -27.7184 0.0000 -6.4622
#
#
#
# Elastic Compliance Matrix: (Units=1/GPa)
#
#
# Indices 1 2 3 4 5 6 
#
# 1 0.165563 -0.180016 -0.032408 0.000000 -0.259012 0.000000
# 2 -0.180016 0.217053 0.028896 0.000000 0.297608 0.000000
# 3 -0.032408 0.028896 0.019973 0.000000 0.049154 0.000000
# 4 0.000000 0.000000 0.000000 -0.041953 0.000000 0.179950
# 5 -0.259012 0.297608 0.049154 0.000000 0.460416 0.000000
# 6 0.000000 0.000000 0.000000 0.179950 0.000000 -0.926611
#
#
# Mechanical properties :
#
#
# Convention : Reuss Voigt Hill
#
# Bulk Modulus (GPa) = 28.14370 55.24422 41.69396
# Shear Modulus (GPa) = 18.29202 -16.60883 0.84159
#
# Velocity S-wave (km/s) = 2.98103 -2.84057 0.63942
# Velocity P-wave (km/s) = 5.05186 4.00999 4.56078
#
# Compressibility (1/GPa) = 0.03553193
#
# Stress axis : x y z
#
# Youngs Moduli (GPa) = 6.03999 4.60717 50.06754
#
# Poissons Ratio (x) = 0.82937 1.62259
# Poissons Ratio (y) = 1.08730 -1.44675
# Poissons Ratio (z) = 0.19574 -0.13313
#
# Static dielectric constant tensor:
#      x y z
#    x 1.713010 0.000000 0.012870 
#    y 0.000000 1.763300 0.000000 
#    z 0.012870 0.000000 1.771360 
# 
# From -- ./inp_files/225766.got.cif
#   From: 2010.05.17/outbox.ucp.g08.bks.cvg/sg12_113_cif.got.tgz:225766.got - 2010.06.11 11:47:21.
