data_PCOD9225560
_publ_section_title
;
Structure prediction by ZEFSAII (Michael W. Deem and Ramdas Pophale) SiO2 
 PCOD9225560
Probable space group: C 2/M
;
_chemical_formula_sum "Si O2"
_cell_formula_units_Z 28
_cell_length_a 12.000000
_cell_length_b 27.000000
_cell_length_c 12.000000
_cell_angle_alpha 90.000000
_cell_angle_beta 50.000000
_cell_angle_gamma 90.000000
_cell_volume 2978.380795
_symmetry_space_group_name_H-M "C 2/M"
_symmetry_group_IT_number 12
_symmetry_cell_setting 'monoclinic'
loop_
_space_group_symop_operation_xyz
x,y,z
-x,y,-z
-x,-y,-z
x,-y,z
1/2+x,1/2+y,z
1/2-x,1/2+y,-z
1/2-x,1/2-y,-z
1/2+x,1/2-y,z
loop_
_atom_site_type_symbol
_atom_site_label
_atom_site_fract_x
_atom_site_fract_y
_atom_site_fract_z
Si Si1 0.542045 0.906820 0.189036
Si Si2 0.726624 0.441286 0.133200
Si Si3 0.583029 0.809161 0.068098
Si Si4 0.574668 0.604592 0.699796
Si Si5 0.155398 0.440732 0.342249
Si Si6 0.220620 0.941672 0.395642
Si Si7 0.567264 0.692253 0.085524
O O1 0.509199 0.848754 0.197998
O O2 0.646566 0.920507 0.223076
O O3 0.393204 0.936205 0.306811
O O4 0.631158 0.920289 0.019723
O O5 0.741445 0.500000 0.121087
O O6 0.574002 0.425162 0.177962
O O7 0.711556 0.426292 0.272271
O O8 0.554405 0.751367 0.108155
O O9 0.500000 0.818079 0.000000
O O10 0.759909 0.817284 0.985492
O O11 0.710812 0.584448 0.681817
O O12 0.625584 0.591591 0.540592
O O13 0.531307 0.659781 0.766895
O O14 0.173361 0.500000 0.332001
O O15 0.000000 0.429357 0.500000
O O16 0.178930 0.000000 0.435488
O O17 0.500000 0.682002 0.000000
#
# Coordination Sequence:
#
# PCOD9225560 Si02
#       7
#     8   8   8   8   8   8   8
#     4  12  22  39  65  93 123 165 227 267 315 389
#     4  11  23  37  59  92 126 163 216 268 315 378
#     4  10  21  41  69  97 129 169 220 277 344 391
#     4  12  23  39  63  90 128 169 218 263 330 396
#     4  11  23  40  62  89 132 183 218 257 329 405
#     4  11  23  40  60  86 130 174 207 257 327 391
#     4  10  22  42  67  99 131 168 219 280 339 401
#
# _framework density 9.4010809999999996
#
# number of rings (size 3 to 8) (size 9 to 14) (size 15 to 20)
#    0.000    1.000    2.857    5.143    0.000    2.286 
#    0.000    2.143    0.000    0.000    0.000    0.000 
#    0.000    0.000    0.000    0.000    0.000    0.000 
#
# Total GULP energy -156055.021343 kJ/mol
# GULP energy per Si atom -5573.393619 kJ/mol
# Density = 0.937968 g / cm^3
# Si number density = 9.401081 Si / 1000 Ang^3
#
#
#
# Elastic Constant Matrix: (Units=GPa)
#
#
# Indices 1 2 3 4 5 6 
#
# 1 105.9385 17.5201 24.2591 0.0000 5.1141 0.0000
# 2 17.5201 80.5528 50.4855 0.0000 6.6487 0.0000
# 3 24.2591 50.4855 108.2384 0.0000 0.4678 0.0000
# 4 0.0000 0.0000 0.0000 30.2935 0.0000 2.2671
# 5 5.1141 6.6487 0.4678 0.0000 16.9997 0.0000
# 6 0.0000 0.0000 0.0000 2.2671 0.0000 24.6589
#
#
#
# Elastic Compliance Matrix: (Units=1/GPa)
#
#
# Indices 1 2 3 4 5 6 
#
# 1 0.010133 -0.000800 -0.001886 0.000000 -0.002684 0.000000
# 2 -0.000800 0.018388 -0.008368 0.000000 -0.006720 0.000000
# 3 -0.001886 -0.008368 0.013550 0.000000 0.003467 0.000000
# 4 0.000000 0.000000 0.000000 0.033239 0.000000 -0.003056
# 5 -0.002684 -0.006720 0.003467 0.000000 0.062165 0.000000
# 6 0.000000 0.000000 0.000000 -0.003056 0.000000 0.040834
#
#
# Mechanical properties :
#
#
# Convention : Reuss Voigt Hill
#
# Bulk Modulus (GPa) = 50.09683 53.25101 51.67392
# Shear Modulus (GPa) = 24.14625 27.88812 26.01718
#
# Velocity S-wave (km/s) = 3.58750 3.85546 3.72389
# Velocity P-wave (km/s) = 6.62286 6.94282 6.78472
#
# Compressibility (1/GPa) = 0.01996134
#
# Stress axis : x y z
#
# Youngs Moduli (GPa) = 98.68482 54.38461 73.80211
#
# Poissons Ratio (x) = 0.04352 0.13921
# Poissons Ratio (y) = 0.07898 0.61758
# Poissons Ratio (z) = 0.18615 0.45509
#
# Static dielectric constant tensor:
#      x y z
#    x 1.795360 0.000000 0.068480 
#    y 0.000000 1.655770 0.000000 
#    z 0.068480 0.000000 1.683050 
# 
# From -- ./inp_files/136904.got.cif
#   From: 2010.05.17/outbox.ucp.g08.bks.cvg/sg12_69_cif.got.tgz:136904.got - 2010.06.11 11:47:21.
