data_PCOD9225749
_publ_section_title
;
Structure prediction by ZEFSAII (Michael W. Deem and Ramdas Pophale) SiO2 
 PCOD9225749
Probable space group: C 2/M
;
_chemical_formula_sum "Si O2"
_cell_formula_units_Z 24
_cell_length_a 15.000000
_cell_length_b 9.000000
_cell_length_c 27.000000
_cell_angle_alpha 90.000000
_cell_angle_beta 40.000000
_cell_angle_gamma 90.000000
_cell_volume 2342.960837
_symmetry_space_group_name_H-M "C 2/M"
_symmetry_group_IT_number 12
_symmetry_cell_setting 'monoclinic'
loop_
_space_group_symop_operation_xyz
x,y,z
-x,y,-z
-x,-y,-z
x,-y,z
1/2+x,1/2+y,z
1/2-x,1/2+y,-z
1/2-x,1/2-y,-z
1/2+x,1/2-y,z
loop_
_atom_site_type_symbol
_atom_site_label
_atom_site_fract_x
_atom_site_fract_y
_atom_site_fract_z
Si Si1 0.933551 0.325849 0.127721
Si Si2 0.680728 0.324320 0.981095
Si Si3 0.151454 0.175870 0.501849
Si Si4 0.688941 0.674556 0.169630
Si Si5 0.336588 0.322697 0.620065
Si Si6 0.426744 0.327995 0.230618
O O1 0.962464 0.500000 0.109828
O O2 0.772392 0.296497 0.184077
O O3 0.972462 0.272455 0.165438
O O4 0.023235 0.231985 0.051286
O O5 0.690437 0.500000 0.980936
O O6 0.747457 0.266439 0.902404
O O7 0.750000 0.250000 0.000000
O O8 0.250000 0.250000 0.500000
O O9 0.177404 0.207331 0.432721
O O10 0.988771 0.211347 0.575875
O O11 0.166109 0.000000 0.501596
O O12 0.712458 0.500000 0.148405
O O13 0.525225 0.699139 0.236014
O O14 0.310831 0.500000 0.638471
O O15 0.226555 0.220187 0.692827
O O16 0.439076 0.500000 0.211172
#
# Coordination Sequence:
#
# PCOD9225749 Si02
#       6
#     8   8   8   8   8   8
#     4  11  23  40  61  84 114 155 194 240 300 351
#     4  12  23  37  60  86 113 149 195 246 297 348
#     4   9  19  37  62  89 117 152 191 234 281 336
#     4  10  23  41  59  82 115 152 193 242 297 349
#     4   9  20  39  59  83 119 157 190 229 285 345
#     4  11  23  39  59  85 118 154 194 241 285 341
#
# _framework density 10.243449
#
# number of rings (size 3 to 8) (size 9 to 14) (size 15 to 20)
#    0.000    1.667    1.667    4.000    0.000    6.667 
#    0.000    6.667    0.000    0.000    0.000    0.000 
#    0.000    0.000    0.000    0.000    0.000    0.000 
#
# Total GULP energy -133871.529440 kJ/mol
# GULP energy per Si atom -5577.980393 kJ/mol
# Density = 1.022013 g / cm^3
# Si number density = 10.243449 Si / 1000 Ang^3
#
#
#
# Elastic Constant Matrix: (Units=GPa)
#
#
# Indices 1 2 3 4 5 6 
#
# 1 137.8003 45.3045 19.2941 0.0000 -12.3060 0.0001
# 2 45.3045 23.4644 18.5390 0.0000 -11.8843 0.0001
# 3 19.2941 18.5390 30.2944 0.0000 -17.5959 0.0000
# 4 0.0000 0.0000 0.0000 24.9379 0.0000 -1.0493
# 5 -12.3060 -11.8843 -17.5959 0.0000 -11.7535 0.0000
# 6 0.0001 0.0001 0.0000 -1.0493 0.0000 31.4013
#
#
#
# Elastic Compliance Matrix: (Units=1/GPa)
#
#
# Indices 1 2 3 4 5 6 
#
# 1 0.030207 -0.083240 0.033280 0.000000 0.002717 0.000000
# 2 -0.083240 0.311513 -0.144392 0.000000 -0.011660 -0.000001
# 3 0.033280 -0.144392 0.088116 0.000000 -0.020763 0.000000
# 4 0.000000 0.000000 0.000000 0.040156 0.000000 0.001342
# 5 0.002717 -0.011660 -0.020763 0.000000 -0.045052 0.000000
# 6 0.000000 -0.000001 0.000000 0.001342 0.000000 0.031891
#
#
# Mechanical properties :
#
#
# Convention : Reuss Voigt Hill
#
# Bulk Modulus (GPa) = 24.31221 39.75937 32.03579
# Shear Modulus (GPa) = 5.81907 16.14524 10.98215
#
# Velocity S-wave (km/s) = 1.68717 2.81032 2.31780
# Velocity P-wave (km/s) = 3.96085 5.47539 4.77850
#
# Compressibility (1/GPa) = 0.04113160
#
# Stress axis : x y z
#
# Youngs Moduli (GPa) = 33.10528 3.21014 11.34864
#
# Poissons Ratio (x) = 0.26721 -0.37768
# Poissons Ratio (y) = 2.75569 1.63865
# Poissons Ratio (z) = -1.10174 0.46352
#
# Static dielectric constant tensor:
#      x y z
#    x 1.788280 0.000000 -0.091370 
#    y 0.000000 1.688120 0.000000 
#    z -0.091370 0.000000 1.808770 
# 
# From -- ./inp_files/308586.got.cif
#   From: 2010.05.17/outbox.ucp.g08.bks.cvg/sg12_155_cif.got.tgz:308586.got - 2010.06.11 11:47:21.
