data_PCOD9225100
_publ_section_title
;
Structure prediction by ZEFSAII (Michael W. Deem and Ramdas Pophale) SiO2 
 PCOD9225100
Probable space group: C 2/M
;
_chemical_formula_sum "Si O2"
_cell_formula_units_Z 24
_cell_length_a 15.000000
_cell_length_b 18.000000
_cell_length_c 18.000000
_cell_angle_alpha 90.000000
_cell_angle_beta 150.000000
_cell_angle_gamma 90.000000
_cell_volume 2430.000000
_symmetry_space_group_name_H-M "C 2/M"
_symmetry_group_IT_number 12
_symmetry_cell_setting 'monoclinic'
loop_
_space_group_symop_operation_xyz
x,y,z
-x,y,-z
-x,-y,-z
x,-y,z
1/2+x,1/2+y,z
1/2-x,1/2+y,-z
1/2-x,1/2-y,-z
1/2+x,1/2-y,z
loop_
_atom_site_type_symbol
_atom_site_label
_atom_site_fract_x
_atom_site_fract_y
_atom_site_fract_z
Si Si1 0.319959 0.709619 0.125421
Si Si2 0.668921 0.410373 0.574544
Si Si3 0.607356 0.146812 0.753293
Si Si4 0.694682 0.000000 0.595477
Si Si5 0.700058 0.500000 0.173278
Si Si6 0.707313 0.357722 0.433510
Si Si7 0.435469 0.911429 0.108005
O O1 0.291013 0.774463 0.165827
O O2 0.531016 0.685508 0.276221
O O3 0.250000 0.750000 0.000000
O O4 0.198158 0.635829 0.039790
O O5 0.500000 0.385255 0.500000
O O6 0.663617 0.500000 0.563429
O O7 0.665549 0.378544 0.488883
O O8 0.855086 0.392985 0.750312
O O9 0.693514 0.076554 0.771631
O O10 0.410114 0.173721 0.584236
O O11 0.594465 0.112184 0.827273
O O12 0.500000 0.000000 0.500000
O O13 0.827053 0.000000 0.759000
O O14 0.744062 0.070305 0.580840
O O15 0.500000 0.500000 0.000000
O O16 0.408860 0.000000 0.080924
#
# Coordination Sequence:
#
# PCOD9225100 Si02
#       7
#     8   8   8   4   4   8   8
#     4  10  23  37  63  91 129 178 219 267 331 389
#     4   9  18  36  64  93 119 161 211 265 326 384
#     4  10  20  41  60  89 126 178 219 261 330 391
#     4  12  24  40  67 110 130 169 231 278 324 400
#     4  12  26  40  68  98 140 177 218 282 334 397
#     4  11  21  39  66  93 131 168 219 273 325 393
#     4   9  18  34  61  91 124 162 211 267 323 391
#
# _framework density 9.8765429999999999
#
# number of rings (size 3 to 8) (size 9 to 14) (size 15 to 20)
#    0.000    1.833    3.333    0.500    5.833    0.000 
#    0.000    2.500    7.333    3.000    0.000    0.000 
#    0.000    0.000    0.000    0.000    0.000    0.000 
#
# Total GULP energy -133617.595993 kJ/mol
# GULP energy per Si atom -5567.399833 kJ/mol
# Density = 0.985406 g / cm^3
# Si number density = 9.876543 Si / 1000 Ang^3
#
#
#
# Elastic Constant Matrix: (Units=GPa)
#
#
# Indices 1 2 3 4 5 6 
#
# 1 64.5650 22.6394 26.9596 0.0050 5.9831 0.0075
# 2 22.6394 113.9863 60.6008 -0.0652 6.5337 -0.0668
# 3 26.9596 60.6008 148.5667 -0.0454 7.7995 -0.0634
# 4 0.0050 -0.0652 -0.0454 42.6383 -0.0148 -4.1003
# 5 5.9831 6.5337 7.7995 -0.0148 25.2636 -0.0177
# 6 0.0075 -0.0668 -0.0634 -4.1003 -0.0177 -3.8981
#
#
#
# Elastic Compliance Matrix: (Units=1/GPa)
#
#
# Indices 1 2 3 4 5 6 
#
# 1 0.017402 -0.002160 -0.002124 0.000003 -0.002907 0.000116
# 2 -0.002160 0.011528 -0.004249 0.000001 -0.001158 -0.000128
# 3 -0.002124 -0.004249 0.008910 -0.000004 -0.001149 -0.000067
# 4 0.000003 0.000001 -0.000004 0.021299 -0.000003 -0.022403
# 5 -0.002907 -0.001158 -0.001149 -0.000003 0.040925 -0.000150
# 6 0.000116 -0.000128 -0.000067 -0.022403 -0.000150 -0.232963
#
#
# Mechanical properties :
#
#
# Convention : Reuss Voigt Hill
#
# Bulk Modulus (GPa) = 48.14147 60.83530 54.48838
# Shear Modulus (GPa) = -45.91025 27.26195 -9.32415
#
# Velocity S-wave (km/s) = -4.82623 3.71905 -2.17499
# Velocity P-wave (km/s) = 2.57530 7.02186 4.61922
#
# Compressibility (1/GPa) = 0.02077211
#
# Stress axis : x y z
#
# Youngs Moduli (GPa) = 57.46459 86.74879 112.23332
#
# Poissons Ratio (x) = 0.18741 0.23838
# Poissons Ratio (y) = 0.12415 0.47692
# Poissons Ratio (z) = 0.12205 0.36863
#
# Static dielectric constant tensor:
#      x y z
#    x 1.668840 -0.000050 0.002590 
#    y -0.000050 2.430270 0.000400 
#    z 0.002590 0.000400 1.774100 
# 
# From -- ./inp_files/271802.got.cif
#   From: 2010.05.17/outbox.ucp.g08.bks.cvg/sg12_136_cif.got.tgz:271802.got - 2010.06.11 11:47:21.
