data_PCOD9225554
_publ_section_title
;
Structure prediction by ZEFSAII (Michael W. Deem and Ramdas Pophale) SiO2 
 PCOD9225554
Probable space group: C 2/M
;
_chemical_formula_sum "Si O2"
_cell_formula_units_Z 24
_cell_length_a 9.000000
_cell_length_b 27.000000
_cell_length_c 12.000000
_cell_angle_alpha 90.000000
_cell_angle_beta 60.000000
_cell_angle_gamma 90.000000
_cell_volume 2525.330077
_symmetry_space_group_name_H-M "C 2/M"
_symmetry_group_IT_number 12
_symmetry_cell_setting 'monoclinic'
loop_
_space_group_symop_operation_xyz
x,y,z
-x,y,-z
-x,-y,-z
x,-y,z
1/2+x,1/2+y,z
1/2-x,1/2+y,-z
1/2-x,1/2-y,-z
1/2+x,1/2-y,z
loop_
_atom_site_type_symbol
_atom_site_label
_atom_site_fract_x
_atom_site_fract_y
_atom_site_fract_z
Si Si1 0.223917 0.863550 0.654282
Si Si2 0.375839 0.864191 0.945628
Si Si3 0.683138 0.441105 0.866753
Si Si4 0.304114 0.672551 0.572418
Si Si5 0.548127 0.793594 0.286901
Si Si6 0.362603 0.683731 0.788479
O O1 0.196066 0.912361 0.742030
O O2 0.226635 0.866314 0.517501
O O3 0.375626 0.830757 0.649528
O O4 0.058732 0.829441 0.734154
O O5 0.312088 0.911234 0.899324
O O6 0.441926 0.824065 0.832071
O O7 0.500000 0.878911 0.000000
O O8 0.229863 0.834434 0.066921
O O9 0.716642 0.500000 0.842362
O O10 0.500000 0.435801 0.000000
O O11 0.500000 0.692146 0.500000
O O12 0.297674 0.653935 0.702950
O O13 0.153960 0.712397 0.614104
O O14 0.647150 0.742030 0.235414
#
# Coordination Sequence:
#
# PCOD9225554 Si02
#       6
#     8   8   8   8   8   8
#     4  10  22  36  60  86 120 153 203 248 289 355
#     4  11  22  38  60  88 123 155 198 256 302 352
#     4  10  21  41  67  90 113 149 198 256 317 362
#     4  10  22  37  55  79 120 165 202 242 285 344
#     4  11  22  35  57  86 122 169 204 245 283 347
#     4  11  21  37  54  88 123 164 201 236 290 351
#
# _framework density 9.5037079999999996
#
# number of rings (size 3 to 8) (size 9 to 14) (size 15 to 20)
#    0.000    1.500    3.333    2.000    0.000    7.667 
#    0.000    0.000    0.000   13.500    0.000    0.000 
#    0.000    0.000    0.000    0.000    0.000    0.000 
#
# Total GULP energy -133631.473956 kJ/mol
# GULP energy per Si atom -5567.978081 kJ/mol
# Density = 0.948208 g / cm^3
# Si number density = 9.503708 Si / 1000 Ang^3
#
#
#
# Elastic Constant Matrix: (Units=GPa)
#
#
# Indices 1 2 3 4 5 6 
#
# 1 101.9968 31.5063 52.4326 0.0000 18.3996 0.0000
# 2 31.5063 124.4344 43.7162 0.0000 18.6825 0.0000
# 3 52.4326 43.7162 105.9884 0.0000 16.0348 0.0000
# 4 0.0000 0.0000 0.0000 23.2642 0.0000 0.8458
# 5 18.3996 18.6825 16.0348 0.0000 29.7765 0.0000
# 6 0.0000 0.0000 0.0000 0.8458 0.0000 17.6338
#
#
#
# Elastic Compliance Matrix: (Units=1/GPa)
#
#
# Indices 1 2 3 4 5 6 
#
# 1 0.013932 -0.000725 -0.005835 0.000000 -0.005012 0.000000
# 2 -0.000725 0.009931 -0.003116 0.000000 -0.004105 0.000000
# 3 -0.005835 -0.003116 0.013898 0.000000 -0.001923 0.000000
# 4 0.000000 0.000000 0.000000 0.043060 0.000000 -0.002065
# 5 -0.005012 -0.004105 -0.001923 0.000000 0.040292 0.000000
# 6 0.000000 0.000000 0.000000 -0.002065 0.000000 0.056808
#
#
# Mechanical properties :
#
#
# Convention : Reuss Voigt Hill
#
# Bulk Modulus (GPa) = 54.32430 65.30332 59.81381
# Shear Modulus (GPa) = 24.58103 27.78586 26.18345
#
# Velocity S-wave (km/s) = 3.60006 3.82755 3.71555
# Velocity P-wave (km/s) = 6.77666 7.34608 7.06711
#
# Compressibility (1/GPa) = 0.01840797
#
# Stress axis : x y z
#
# Youngs Moduli (GPa) = 71.77872 100.69343 71.95368
#
# Poissons Ratio (x) = 0.07302 0.41983
# Poissons Ratio (y) = 0.05205 0.22424
# Poissons Ratio (z) = 0.41881 0.31381
#
# Static dielectric constant tensor:
#      x y z
#    x 1.730050 0.000000 -0.048890 
#    y 0.000000 1.596340 0.000000 
#    z -0.048890 0.000000 1.758920 
# 
# From -- ./inp_files/122416.got.cif
#   From: 2010.05.17/outbox.ucp.g08.bks.cvg/sg12_62_cif.got.tgz:122416.got - 2010.06.11 11:47:21.
