data_PCOD9225808
_publ_section_title
;
Structure prediction by ZEFSAII (Michael W. Deem and Ramdas Pophale) SiO2 
 PCOD9225808
Probable space group: C 2/M
;
_chemical_formula_sum "Si O2"
_cell_formula_units_Z 22
_cell_length_a 12.000000
_cell_length_b 27.000000
_cell_length_c 9.000000
_cell_angle_alpha 90.000000
_cell_angle_beta 50.000000
_cell_angle_gamma 90.000000
_cell_volume 2233.785596
_symmetry_space_group_name_H-M "C 2/M"
_symmetry_group_IT_number 12
_symmetry_cell_setting 'monoclinic'
loop_
_space_group_symop_operation_xyz
x,y,z
-x,y,-z
-x,-y,-z
x,-y,z
1/2+x,1/2+y,z
1/2-x,1/2+y,-z
1/2-x,1/2-y,-z
1/2+x,1/2-y,z
loop_
_atom_site_type_symbol
_atom_site_label
_atom_site_fract_x
_atom_site_fract_y
_atom_site_fract_z
Si Si1 0.058401 0.500000 0.779821
Si Si2 0.330186 0.167644 0.280877
Si Si3 0.156765 0.000000 0.296814
Si Si4 0.296128 0.394134 0.872560
Si Si5 0.961057 0.397263 0.707036
Si Si6 0.500000 0.746794 0.000000
Si Si7 0.475552 0.307556 0.344441
O O1 0.229892 0.500000 0.663775
O O2 0.008352 0.450350 0.737495
O O3 0.000000 0.500000 0.000000
O O4 0.297588 0.124989 0.188407
O O5 0.455539 0.146876 0.278977
O O6 0.194917 0.180785 0.501453
O O7 0.368326 0.215436 0.148546
O O8 0.174799 0.048797 0.183058
O O9 0.000000 0.000000 0.500000
O O10 0.434884 0.358601 0.744013
O O11 0.206441 0.389387 0.101771
O O12 0.000000 0.396680 0.500000
O O13 0.513631 0.719976 0.152768
O O14 0.500000 0.288444 0.500000
#
# Coordination Sequence:
#
# PCOD9225808 Si02
#       7
#     4   8   4   8   8   4   8
#     4  12  21  42  69  93 135 177 217 266 329 400
#     4  11  22  45  65  96 128 177 225 275 338 404
#     4  12  22  38  74 100 128 178 219 269 330 406
#     4  11  22  44  66  98 133 173 220 274 333 400
#     4  12  24  39  67 100 135 171 221 276 336 401
#     4  12  24  44  72  92 138 178 234 278 350 390
#     4  10  26  43  67  97 135 174 229 282 340 406
#
# _framework density 9.8487519999999993
#
# number of rings (size 3 to 8) (size 9 to 14) (size 15 to 20)
#    0.000    0.727    5.455    2.455    2.545    3.636 
#    0.000    0.000    0.000    1.636    0.000    0.000 
#    0.000    0.000    0.000    0.000    0.000    0.000 
#
# Total GULP energy -122633.593060 kJ/mol
# GULP energy per Si atom -5574.254230 kJ/mol
# Density = 0.982634 g / cm^3
# Si number density = 9.848752 Si / 1000 Ang^3
#
#
#
# Elastic Constant Matrix: (Units=GPa)
#
#
# Indices 1 2 3 4 5 6 
#
# 1 39.0092 36.6834 44.3771 0.0000 3.3088 0.0000
# 2 36.6834 104.0067 62.2464 0.0000 15.4948 0.0000
# 3 44.3771 62.2464 194.1254 0.0000 11.0333 0.0000
# 4 0.0000 0.0000 0.0000 29.2897 0.0000 10.7239
# 5 3.3088 15.4948 11.0333 0.0000 46.8601 0.0000
# 6 0.0000 0.0000 0.0000 10.7239 0.0000 7.8602
#
#
#
# Elastic Compliance Matrix: (Units=1/GPa)
#
#
# Indices 1 2 3 4 5 6 
#
# 1 0.043984 -0.012089 -0.006314 0.000000 0.002378 0.000000
# 2 -0.012089 0.015675 -0.002044 0.000000 -0.003848 0.000000
# 3 -0.006314 -0.002044 0.007284 0.000000 -0.000593 0.000000
# 4 0.000000 0.000000 0.000000 0.068219 0.000000 -0.093075
# 5 0.002378 -0.003848 -0.000593 0.000000 0.022584 0.000000
# 6 0.000000 0.000000 0.000000 -0.093075 0.000000 0.254210
#
#
# Mechanical properties :
#
#
# Convention : Reuss Voigt Hill
#
# Bulk Modulus (GPa) = 38.38812 69.30612 53.84712
# Shear Modulus (GPa) = 10.83348 29.72428 20.27888
#
# Velocity S-wave (km/s) = 2.34774 3.88885 3.21209
# Velocity P-wave (km/s) = 5.18462 7.44485 6.41506
#
# Compressibility (1/GPa) = 0.02604973
#
# Stress axis : x y z
#
# Youngs Moduli (GPa) = 22.73569 63.79512 137.29264
#
# Poissons Ratio (x) = 0.77121 0.86680
# Poissons Ratio (y) = 0.27485 0.28063
# Poissons Ratio (z) = 0.14354 0.13040
#
# Static dielectric constant tensor:
#      x y z
#    x 1.734390 0.000000 -0.042490 
#    y 0.000000 1.734180 0.000000 
#    z -0.042490 0.000000 1.711250 
# 
# From -- ./inp_files/53042.got.cif
#   From: 2010.05.17/outbox.ucp.g08.bks.cvg/sg12_27_cif.got.tgz:53042.got - 2010.06.11 11:47:21.
