data_PCOD9225493
_publ_section_title
;
Structure prediction by ZEFSAII (Michael W. Deem and Ramdas Pophale) SiO2 
 PCOD9225493
Probable space group: C 2/M
;
_chemical_formula_sum "Si O2"
_cell_formula_units_Z 32
_cell_length_a 15.000000
_cell_length_b 9.000000
_cell_length_c 30.000000
_cell_angle_alpha 90.000000
_cell_angle_beta 130.000000
_cell_angle_gamma 90.000000
_cell_volume 3102.479995
_symmetry_space_group_name_H-M "C 2/M"
_symmetry_group_IT_number 12
_symmetry_cell_setting 'monoclinic'
loop_
_space_group_symop_operation_xyz
x,y,z
-x,y,-z
-x,-y,-z
x,-y,z
1/2+x,1/2+y,z
1/2-x,1/2+y,-z
1/2-x,1/2-y,-z
1/2+x,1/2-y,z
loop_
_atom_site_type_symbol
_atom_site_label
_atom_site_fract_x
_atom_site_fract_y
_atom_site_fract_z
Si Si1 0.725190 0.823828 0.110767
Si Si2 0.854985 0.675482 0.506363
Si Si3 0.775442 0.178690 0.394484
Si Si4 0.492819 0.677549 0.200216
Si Si5 0.419512 0.678761 0.864189
Si Si6 0.410183 0.824567 0.359421
Si Si7 0.525062 0.680547 0.313097
Si Si8 0.136452 0.320755 0.986072
O O1 0.859804 0.796256 0.142549
O O2 0.690964 0.733608 0.143555
O O3 0.711897 0.000000 0.115492
O O4 0.647414 0.787756 0.042489
O O5 0.833021 0.500000 0.491718
O O6 0.750000 0.750000 0.500000
O O7 0.859191 0.759095 0.460373
O O8 0.971065 0.687539 0.573275
O O9 0.815686 0.240933 0.359478
O O10 0.650601 0.251063 0.365328
O O11 0.771093 0.000000 0.393792
O O12 0.510356 0.500000 0.208350
O O13 0.573086 0.730300 0.185062
O O14 0.505538 0.728694 0.255262
O O15 0.428779 0.500000 0.868020
O O16 0.526197 0.750322 0.926095
O O17 0.434729 0.748549 0.319673
O O18 0.382069 0.000000 0.345482
O O19 0.524974 0.500000 0.315900
O O20 0.135814 0.500000 0.981291
O O21 0.250000 0.250000 0.000000
#
# Coordination Sequence:
#
# PCOD9225493 Si02
#       8
#     8   8   8   8   8   8   8   8
#     4  10  21  40  61  86 122 159 196 244 303 362
#     4  11  22  38  64  94 128 163 201 250 309 369
#     4  12  25  41  63  93 128 165 207 252 304 367
#     4   9  21  42  63  85 119 161 201 250 307 357
#     4  11  22  39  61  90 124 157 199 247 297 361
#     4  11  24  42  64  93 127 161 203 254 309 367
#     4  11  23  42  67  90 120 162 209 258 310 363
#     4  11  21  36  61  89 122 159 196 243 304 363
#
# _framework density 10.314329000000001
#
# number of rings (size 3 to 8) (size 9 to 14) (size 15 to 20)
#    0.000    1.250    2.500    3.750    0.000    6.500 
#    0.000    6.250    0.000    0.000    0.000    0.000 
#    0.000    0.000    0.000    0.000    0.000    0.000 
#
# Total GULP energy -178907.311143 kJ/mol
# GULP energy per Si atom -5590.853473 kJ/mol
# Density = 1.029085 g / cm^3
# Si number density = 10.314329 Si / 1000 Ang^3
#
#
#
# Elastic Constant Matrix: (Units=GPa)
#
#
# Indices 1 2 3 4 5 6 
#
# 1 109.6811 33.2149 6.1650 0.0000 -45.6355 0.0000
# 2 33.2149 102.7875 15.0417 0.0000 -20.7080 0.0000
# 3 6.1650 15.0417 59.7570 0.0000 -35.4684 0.0000
# 4 0.0000 0.0000 0.0000 25.8256 0.0000 -6.1629
# 5 -45.6355 -20.7080 -35.4684 0.0000 41.0577 0.0000
# 6 0.0000 0.0000 0.0000 -6.1629 0.0000 36.5600
#
#
#
# Elastic Compliance Matrix: (Units=1/GPa)
#
#
# Indices 1 2 3 4 5 6 
#
# 1 0.048910 -0.003690 0.055505 0.000000 0.100452 0.000000
# 2 -0.003690 0.011140 -0.003125 0.000000 -0.001183 0.000000
# 3 0.055505 -0.003125 0.097438 0.000000 0.144291 0.000000
# 4 0.000000 0.000000 0.000000 0.040344 0.000000 0.006801
# 5 0.100452 -0.001183 0.144291 0.000000 0.260060 0.000000
# 6 0.000000 0.000000 0.000000 0.006801 0.000000 0.028499
#
#
# Mechanical properties :
#
#
# Convention : Reuss Voigt Hill
#
# Bulk Modulus (GPa) = 3.92359 42.34097 23.13228
# Shear Modulus (GPa) = 10.54925 35.20896 22.87911
#
# Velocity S-wave (km/s) = 2.26384 4.13582 3.33392
# Velocity P-wave (km/s) = 2.95626 6.58609 5.10471
#
# Compressibility (1/GPa) = 0.25486871
#
# Stress axis : x y z
#
# Youngs Moduli (GPa) = 20.44559 89.76410 10.26293
#
# Poissons Ratio (x) = 0.33123 -0.56965
# Poissons Ratio (y) = 0.07544 0.03208
# Poissons Ratio (z) = -1.13484 0.28055
#
# Static dielectric constant tensor:
#      x y z
#    x 1.768590 0.000000 0.005030 
#    y 0.000000 1.685680 0.000000 
#    z 0.005030 0.000000 1.761870 
# 
# From -- ./inp_files/375595.got.cif
#   From: 2010.05.17/outbox.ucp.g08.bks.cvg/sg12_188_cif.got.tgz:375595.got - 2010.06.11 11:47:21.
