data_PCOD9225351
_publ_section_title
;
Structure prediction by ZEFSAII (Michael W. Deem and Ramdas Pophale) SiO2 
 PCOD9225351
Probable space group: C 2/M
;
_chemical_formula_sum "Si O2"
_cell_formula_units_Z 28
_cell_length_a 15.000000
_cell_length_b 24.000000
_cell_length_c 9.000000
_cell_angle_alpha 90.000000
_cell_angle_beta 110.000000
_cell_angle_gamma 90.000000
_cell_volume 3044.604091
_symmetry_space_group_name_H-M "C 2/M"
_symmetry_group_IT_number 12
_symmetry_cell_setting 'monoclinic'
loop_
_space_group_symop_operation_xyz
x,y,z
-x,y,-z
-x,-y,-z
x,-y,z
1/2+x,1/2+y,z
1/2-x,1/2+y,-z
1/2-x,1/2-y,-z
1/2+x,1/2-y,z
loop_
_atom_site_type_symbol
_atom_site_label
_atom_site_fract_x
_atom_site_fract_y
_atom_site_fract_z
Si Si1 0.101640 0.350601 0.973129
Si Si2 0.248681 0.563978 0.195888
Si Si3 0.032070 0.667299 0.360862
Si Si4 0.636999 0.616723 0.208610
Si Si5 0.437706 0.432940 0.146978
Si Si6 0.186366 0.567059 0.502024
Si Si7 0.402552 0.745139 0.855391
O O1 0.063730 0.350440 0.783394
O O2 0.177343 0.396407 0.064323
O O3 0.141122 0.290786 0.054228
O O4 0.000000 0.359992 0.000000
O O5 0.232322 0.500000 0.138701
O O6 0.358525 0.576774 0.226766
O O7 0.227628 0.567899 0.358267
O O8 0.099746 0.613133 0.436609
O O9 0.078490 0.715535 0.280325
O O10 0.000000 0.691434 0.500000
O O11 0.538175 0.597612 0.232329
O O12 0.730881 0.589755 0.338573
O O13 0.643365 0.684752 0.204364
O O14 0.613217 0.591449 0.031143
O O15 0.453367 0.500000 0.140077
O O16 0.163368 0.500000 0.520495
O O17 0.500000 0.730828 0.000000
#
# Coordination Sequence:
#
# PCOD9225351 Si02
#       7
#     8   8   8   8   8   8   8
#     4   9  18  38  62  80 118 155 192 233 286 347
#     4  10  21  38  59  88 117 152 199 238 286 351
#     4  10  22  39  59  88 122 152 190 242 289 341
#     4  11  21  39  61  84 117 153 191 246 296 335
#     4  10  21  38  61  86 113 150 197 242 294 347
#     4  11  23  39  59  87 122 154 193 241 291 346
#     4   9  18  40  62  82 114 157 195 236 282 353
#
# _framework density 9.1965979999999998
#
# number of rings (size 3 to 8) (size 9 to 14) (size 15 to 20)
#    0.000    2.286    4.286    1.714    2.000    2.286 
#    2.571    2.857    0.000    0.000    0.000    0.000 
#    0.000    0.000    0.000    0.000    0.000    0.000 
#
# Total GULP energy -155894.155600 kJ/mol
# GULP energy per Si atom -5567.648414 kJ/mol
# Density = 0.917567 g / cm^3
# Si number density = 9.196598 Si / 1000 Ang^3
#
#
#
# Elastic Constant Matrix: (Units=GPa)
#
#
# Indices 1 2 3 4 5 6 
#
# 1 44.8710 24.7188 8.2536 0.0000 3.7688 0.0000
# 2 24.7188 143.2605 32.0768 0.0000 20.1863 0.0000
# 3 8.2536 32.0768 96.2603 0.0000 13.7340 0.0000
# 4 0.0000 0.0000 0.0000 27.3702 0.0000 12.4997
# 5 3.7688 20.1863 13.7340 0.0000 29.1631 0.0000
# 6 0.0000 0.0000 0.0000 12.4997 0.0000 26.7177
#
#
#
# Elastic Compliance Matrix: (Units=1/GPa)
#
#
# Indices 1 2 3 4 5 6 
#
# 1 0.024677 -0.004089 -0.000753 0.000000 -0.000004 0.000000
# 2 -0.004089 0.008767 -0.001909 0.000000 -0.004641 0.000000
# 3 -0.000753 -0.001909 0.011671 0.000000 -0.004078 0.000000
# 4 0.000000 0.000000 0.000000 0.046463 0.000000 -0.021738
# 5 -0.000004 -0.004641 -0.004078 0.000000 0.039423 0.000000
# 6 0.000000 0.000000 0.000000 -0.021738 0.000000 0.047598
#
#
# Mechanical properties :
#
#
# Convention : Reuss Voigt Hill
#
# Bulk Modulus (GPa) = 31.63068 46.05448 38.84258
# Shear Modulus (GPa) = 24.67439 31.27305 27.97372
#
# Velocity S-wave (km/s) = 3.66662 4.12788 3.90407
# Velocity P-wave (km/s) = 5.92956 6.91465 6.44097
#
# Compressibility (1/GPa) = 0.03161488
#
# Stress axis : x y z
#
# Youngs Moduli (GPa) = 40.52293 114.06242 85.68338
#
# Poissons Ratio (x) = 0.46638 0.06450
# Poissons Ratio (y) = 0.16569 0.16354
# Poissons Ratio (z) = 0.03050 0.21771
#
# Static dielectric constant tensor:
#      x y z
#    x 1.674980 0.000000 -0.038300 
#    y 0.000000 1.651590 0.000000 
#    z -0.038300 0.000000 1.650490 
# 
# From -- ./inp_files/65472.got.cif
#   From: 2010.05.17/outbox.ucp.g08.bks.cvg/sg12_33_cif.got.tgz:65472.got - 2010.06.11 11:47:21.
