data_PCOD9225242
_publ_section_title
;
Structure prediction by ZEFSAII (Michael W. Deem and Ramdas Pophale) SiO2 
 PCOD9225242
Probable space group: C 2/M
;
_chemical_formula_sum "Si O2"
_cell_formula_units_Z 32
_cell_length_a 30.000000
_cell_length_b 9.000000
_cell_length_c 24.000000
_cell_angle_alpha 90.000000
_cell_angle_beta 30.000000
_cell_angle_gamma 90.000000
_cell_volume 3240.000000
_symmetry_space_group_name_H-M "C 2/M"
_symmetry_group_IT_number 12
_symmetry_cell_setting 'monoclinic'
loop_
_space_group_symop_operation_xyz
x,y,z
-x,y,-z
-x,-y,-z
x,-y,z
1/2+x,1/2+y,z
1/2-x,1/2+y,-z
1/2-x,1/2-y,-z
1/2+x,1/2-y,z
loop_
_atom_site_type_symbol
_atom_site_label
_atom_site_fract_x
_atom_site_fract_y
_atom_site_fract_z
Si Si1 0.519925 0.832285 0.748934
Si Si2 0.285383 0.668960 0.707871
Si Si3 0.187313 0.827121 0.523076
Si Si4 0.573430 0.168993 0.261728
Si Si5 0.626221 0.173776 0.482838
Si Si6 0.234719 0.829292 0.137558
Si Si7 0.087885 0.170260 0.049243
Si Si8 0.908998 0.331713 0.065469
O O1 0.589917 0.713385 0.651423
O O2 0.441700 0.831528 0.788024
O O3 0.483410 0.780557 0.846943
O O4 0.557516 0.000000 0.708527
O O5 0.313311 0.500000 0.665167
O O6 0.346842 0.780079 0.607959
O O7 0.284391 0.687749 0.775541
O O8 0.182056 0.687572 0.801703
O O9 0.250000 0.750000 0.500000
O O10 0.187328 0.759817 0.461143
O O11 0.204863 0.000000 0.501850
O O12 0.477295 0.206050 0.392471
O O13 0.647003 0.283565 0.200283
O O14 0.596975 0.000000 0.253581
O O15 0.638245 0.000000 0.479728
O O16 0.259866 0.000000 0.100140
O O17 0.315114 0.720755 0.035021
O O18 0.069143 0.000000 0.082330
O O19 0.088986 0.205485 0.982888
O O20 0.900398 0.500000 0.049837
O O21 0.000000 0.327953 0.000000
#
# Coordination Sequence:
#
# PCOD9225242 Si02
#       8
#     8   8   8   8   8   8   8   8
#     4  10  21  39  59  81 112 146 182 225 272 324
#     4   9  19  35  54  79 108 142 184 226 272 324
#     4  11  22  38  59  83 112 145 183 226 272 323
#     4   9  20  37  56  79 107 141 181 224 272 326
#     4  10  21  37  56  80 111 146 182 224 274 325
#     4  10  21  37  57  80 109 144 182 226 275 326
#     4  11  22  36  56  82 112 145 183 226 271 323
#     4   9  19  37  58  79 108 145 183 225 274 325
#
# _framework density 9.8765429999999999
#
# number of rings (size 3 to 8) (size 9 to 14) (size 15 to 20)
#    0.000    2.125    0.000    4.875    0.000    7.750 
#    0.000    6.250    0.000    0.000    0.000    0.000 
#    0.000    0.000    0.000    0.000    0.000    0.000 
#
# Total GULP energy -178405.511063 kJ/mol
# GULP energy per Si atom -5575.172221 kJ/mol
# Density = 0.985406 g / cm^3
# Si number density = 9.876543 Si / 1000 Ang^3
#
#
#
# Elastic Constant Matrix: (Units=GPa)
#
#
# Indices 1 2 3 4 5 6 
#
# 1 21.9994 12.1139 -4.3857 -0.0004 -18.8896 0.0000
# 2 12.1139 27.9415 4.7496 0.0014 -12.9683 -0.0013
# 3 -4.3857 4.7496 14.6340 -0.0022 10.3748 0.0016
# 4 -0.0004 0.0014 -0.0022 24.6577 0.0010 0.0858
# 5 -18.8896 -12.9683 10.3748 0.0010 14.9262 -0.0009
# 6 0.0000 -0.0013 0.0016 0.0858 -0.0009 29.4240
#
#
#
# Elastic Compliance Matrix: (Units=1/GPa)
#
#
# Indices 1 2 3 4 5 6 
#
# 1 0.028289 -0.065588 0.088292 0.000015 -0.082554 -0.000010
# 2 -0.065588 0.039032 0.004888 -0.000001 -0.052490 0.000000
# 3 0.088292 0.004888 0.021649 -0.000001 0.100936 0.000002
# 4 0.000015 -0.000001 -0.000001 0.040556 0.000017 -0.000118
# 5 -0.082554 -0.052490 0.100936 0.000017 -0.153241 -0.000012
# 6 -0.000010 0.000000 0.000002 -0.000118 -0.000012 0.033986
#
#
# Mechanical properties :
#
#
# Convention : Reuss Voigt Hill
#
# Bulk Modulus (GPa) = 6.93703 9.94785 8.44244
# Shear Modulus (GPa) = 1594.16933 17.27474 805.72203
#
# Velocity S-wave (km/s) = 28.43941 2.96046 20.21837
# Velocity P-wave (km/s) = 32.89255 4.09057 23.43771
#
# Compressibility (1/GPa) = 0.14415386
#
# Stress axis : x y z
#
# Youngs Moduli (GPa) = 35.34984 25.62029 46.19157
#
# Poissons Ratio (x) = 1.68038 -4.07834
# Poissons Ratio (y) = 2.31852 -0.22580
# Poissons Ratio (z) = -3.12110 -0.12524
#
# Static dielectric constant tensor:
#      x y z
#    x 1.708860 0.000000 -0.007960 
#    y 0.000000 1.677910 0.000000 
#    z -0.007960 0.000000 1.727310 
# 
# From -- ./inp_files/353372.got.cif
#   From: 2010.05.17/outbox.ucp.g08.bks.cvg/sg12_177_cif.got.tgz:353372.got - 2010.06.11 11:47:21.
