data_PCOD9225259
_publ_section_title
;
Structure prediction by ZEFSAII (Michael W. Deem and Ramdas Pophale) SiO2 
 PCOD9225259
Probable space group: C 2/M
;
_chemical_formula_sum "Si O2"
_cell_formula_units_Z 24
_cell_length_a 15.000000
_cell_length_b 30.000000
_cell_length_c 15.000000
_cell_angle_alpha 90.000000
_cell_angle_beta 160.000000
_cell_angle_gamma 90.000000
_cell_volume 2308.635967
_symmetry_space_group_name_H-M "C 2/M"
_symmetry_group_IT_number 12
_symmetry_cell_setting 'monoclinic'
loop_
_space_group_symop_operation_xyz
x,y,z
-x,y,-z
-x,-y,-z
x,-y,z
1/2+x,1/2+y,z
1/2-x,1/2+y,-z
1/2-x,1/2-y,-z
1/2+x,1/2-y,z
loop_
_atom_site_type_symbol
_atom_site_label
_atom_site_fract_x
_atom_site_fract_y
_atom_site_fract_z
Si Si1 0.704808 0.872855 0.522911
Si Si2 0.725060 0.707479 0.541353
Si Si3 0.659845 0.339415 0.059103
Si Si4 0.015484 0.449237 0.222302
Si Si5 0.172243 0.262314 0.073045
Si Si6 0.913195 0.949128 0.325289
O O1 0.783906 0.838770 0.518787
O O2 0.567043 0.916456 0.353118
O O3 0.978415 0.873715 0.832779
O O4 0.464219 0.851609 0.352433
O O5 0.750000 0.750000 0.500000
O O6 0.465368 0.719096 0.353887
O O7 0.997680 0.706164 0.848511
O O8 0.500000 0.336995 0.000000
O O9 0.666407 0.288344 0.028972
O O10 0.930457 0.500000 0.165600
O O11 0.308637 0.452006 0.460482
O O12 0.809974 0.432293 0.953057
O O13 0.000000 0.260063 0.000000
O O14 0.000000 0.926158 0.500000
O O15 0.821215 0.000000 0.261249
#
# Coordination Sequence:
#
# PCOD9225259 Si02
#       6
#     8   8   8   8   8   8
#     4  12  23  37  61  87 116 154 193 244 296 348
#     4  12  21  37  58  87 117 148 193 242 284 351
#     4  11  22  38  60  87 114 148 197 243 291 355
#     4  10  21  37  57  86 118 154 198 243 293 345
#     4  11  22  38  58  84 120 158 189 234 294 349
#     4   9  17  33  58  84 111 148 196 242 284 339
#
# _framework density 10.395749
#
# number of rings (size 3 to 8) (size 9 to 14) (size 15 to 20)
#    0.000    1.167    3.333    4.000    0.000    4.667 
#    0.000    3.333    0.000    3.000    0.000    0.000 
#    0.000    0.000    0.000    0.000    0.000    0.000 
#
# Total GULP energy -133703.086697 kJ/mol
# GULP energy per Si atom -5570.961946 kJ/mol
# Density = 1.037209 g / cm^3
# Si number density = 10.395749 Si / 1000 Ang^3
#
#
#
# Elastic Constant Matrix: (Units=GPa)
#
#
# Indices 1 2 3 4 5 6 
#
# 1 57.2726 15.8929 13.6108 0.0031 19.2176 0.0047
# 2 15.8929 40.4330 6.9523 0.0113 -5.3470 0.0114
# 3 13.6108 6.9523 113.6890 0.0090 13.0271 0.0150
# 4 0.0031 0.0113 0.0090 23.1491 0.0039 -4.9702
# 5 19.2176 -5.3470 13.0271 0.0039 43.9542 0.0045
# 6 0.0047 0.0114 0.0150 -4.9702 0.0045 8.6047
#
#
#
# Elastic Compliance Matrix: (Units=1/GPa)
#
#
# Indices 1 2 3 4 5 6 
#
# 1 0.024772 -0.011155 -0.000918 0.000007 -0.011916 0.000013
# 2 -0.011155 0.030586 -0.001574 -0.000025 0.009064 -0.000051
# 3 -0.000918 -0.001574 0.009294 -0.000006 -0.002544 -0.000015
# 4 0.000007 -0.000025 -0.000006 0.049314 -0.000012 0.028484
# 5 -0.011916 0.009064 -0.002544 -0.000012 0.029818 -0.000024
# 6 0.000013 -0.000051 -0.000015 0.028484 -0.000024 0.132668
#
#
# Mechanical properties :
#
#
# Convention : Reuss Voigt Hill
#
# Bulk Modulus (GPa) = 26.76766 31.58962 29.17864
# Shear Modulus (GPa) = 15.81287 26.80417 21.30852
#
# Velocity S-wave (km/s) = 2.76079 3.59442 3.20483
# Velocity P-wave (km/s) = 4.80259 5.69675 5.26868
#
# Compressibility (1/GPa) = 0.03735852
#
# Stress axis : x y z
#
# Youngs Moduli (GPa) = 40.36751 32.69434 107.60049
#
# Poissons Ratio (x) = 0.36471 0.09880
# Poissons Ratio (y) = 0.45031 0.16932
# Poissons Ratio (z) = 0.03707 0.05145
#
# Static dielectric constant tensor:
#      x y z
#    x 1.854210 -0.000020 -0.069490 
#    y -0.000020 1.790030 0.000000 
#    z -0.069490 0.000000 1.759020 
# 
# From -- ./inp_files/219595.got.cif
#   From: 2010.05.17/outbox.ucp.g08.bks.cvg/sg12_110_cif.got.tgz:219595.got - 2010.06.11 11:47:21.
