data_PCOD9225855
_publ_section_title
;
Structure prediction by ZEFSAII (Michael W. Deem and Ramdas Pophale) SiO2 
 PCOD9225855
Probable space group: C 2/M
;
_chemical_formula_sum "Si O2"
_cell_formula_units_Z 32
_cell_length_a 12.000000
_cell_length_b 27.000000
_cell_length_c 21.000000
_cell_angle_alpha 90.000000
_cell_angle_beta 150.000000
_cell_angle_gamma 90.000000
_cell_volume 3402.000000
_symmetry_space_group_name_H-M "C 2/M"
_symmetry_group_IT_number 12
_symmetry_cell_setting 'monoclinic'
loop_
_space_group_symop_operation_xyz
x,y,z
-x,y,-z
-x,-y,-z
x,-y,z
1/2+x,1/2+y,z
1/2-x,1/2+y,-z
1/2-x,1/2-y,-z
1/2+x,1/2-y,z
loop_
_atom_site_type_symbol
_atom_site_label
_atom_site_fract_x
_atom_site_fract_y
_atom_site_fract_z
Si Si1 0.256322 0.059172 0.052920
Si Si2 0.843578 0.787908 0.615014
Si Si3 0.034945 0.185198 0.181590
Si Si4 0.922460 0.625851 0.029396
Si Si5 0.174049 0.716814 0.204421
Si Si6 0.260400 0.314217 0.388723
Si Si7 0.491175 0.858650 0.623506
Si Si8 0.234322 0.558575 0.794442
O O1 0.994598 0.070647 0.908748
O O2 0.279486 0.000000 0.059287
O O3 0.420370 0.086345 0.085374
O O4 0.296353 0.072997 0.146418
O O5 0.917505 0.800303 0.722447
O O6 0.704784 0.737399 0.555463
O O7 0.694580 0.832537 0.512960
O O8 0.071242 0.774710 0.690755
O O9 0.021515 0.234139 0.130382
O O10 0.266856 0.162381 0.272902
O O11 0.820463 0.150823 0.081199
O O12 0.085139 0.672400 0.118243
O O13 0.000000 0.603692 0.000000
O O14 0.172128 0.697533 0.275637
O O15 0.500000 0.339391 0.500000
O O16 0.088764 0.343693 0.346039
O O17 0.550927 0.916390 0.658263
O O18 0.215399 0.500000 0.781393
#
# Coordination Sequence:
#
# PCOD9225855 Si02
#       8
#     8   8   8   8   8   8   8   8
#     4   9  19  39  62  87 112 142 189 239 290 345
#     4  11  21  36  55  80 116 157 192 232 273 333
#     4  11  23  38  54  81 117 156 195 235 279 335
#     4  12  23  38  58  83 118 155 188 237 295 338
#     4  11  22  38  53  80 122 155 194 231 279 337
#     4  11  21  34  55  83 112 150 198 233 270 327
#     4  12  20  35  61  85 110 147 195 236 283 329
#     4   9  19  37  64  89 112 141 184 244 293 338
#
# _framework density 9.4062319999999993
#
# number of rings (size 3 to 8) (size 9 to 14) (size 15 to 20)
#    0.000    1.250    5.000    4.125    0.000    0.250 
#    0.000    0.000    0.000    3.375    0.000    0.000 
#    0.000    0.000    0.000    0.000    0.000    0.000 
#
# Total GULP energy -178184.890343 kJ/mol
# GULP energy per Si atom -5568.277823 kJ/mol
# Density = 0.938482 g / cm^3
# Si number density = 9.406232 Si / 1000 Ang^3
#
#
#
# Elastic Constant Matrix: (Units=GPa)
#
#
# Indices 1 2 3 4 5 6 
#
# 1 77.5473 13.6046 -2.6038 0.0009 19.4822 0.0001
# 2 13.6046 54.3000 16.9401 0.0072 -5.1972 0.0059
# 3 -2.6038 16.9401 32.0624 0.0165 9.6697 0.0059
# 4 0.0009 0.0072 0.0165 30.3020 0.0046 0.3627
# 5 19.4822 -5.1972 9.6697 0.0046 16.4378 0.0002
# 6 0.0001 0.0059 0.0059 0.3627 0.0002 21.3925
#
#
#
# Elastic Compliance Matrix: (Units=1/GPa)
#
#
# Indices 1 2 3 4 5 6 
#
# 1 0.044917 -0.036452 0.051592 -0.000006 -0.095111 -0.000003
# 2 -0.036452 0.056253 -0.062091 0.000007 0.097515 0.000001
# 3 0.051592 -0.062091 0.112506 -0.000026 -0.146961 -0.000012
# 4 -0.000006 0.000007 -0.000026 0.033008 0.000016 -0.000560
# 5 -0.095111 0.097515 -0.146961 0.000016 0.290845 0.000011
# 6 -0.000003 0.000001 -0.000012 -0.000560 0.000011 0.046755
#
#
# Mechanical properties :
#
#
# Convention : Reuss Voigt Hill
#
# Bulk Modulus (GPa) = 8.34906 24.42127 16.38516
# Shear Modulus (GPa) = 6.96270 22.69105 14.82688
#
# Velocity S-wave (km/s) = 1.92591 3.47677 2.81043
# Velocity P-wave (km/s) = 3.06483 5.39693 4.38862
#
# Compressibility (1/GPa) = 0.11977402
#
# Stress axis : x y z
#
# Youngs Moduli (GPa) = 22.26312 17.77682 8.88838
#
# Poissons Ratio (x) = 0.64800 -0.45857
# Poissons Ratio (y) = 0.81154 0.55189
# Poissons Ratio (z) = -1.14859 1.10378
#
# Static dielectric constant tensor:
#      x y z
#    x 1.662180 -0.000010 -0.018810 
#    y -0.000010 1.561710 -0.000080 
#    z -0.018810 -0.000080 1.691180 
# 
# From -- ./inp_files/307496.got.cif
#   From: 2010.05.17/outbox.ucp.g08.bks.cvg/sg12_154_cif.got.tgz:307496.got - 2010.06.11 11:47:21.
