data_PCOD9225156
_publ_section_title
;
Structure prediction by ZEFSAII (Michael W. Deem and Ramdas Pophale) SiO2 
 PCOD9225156
Probable space group: C 2/M
;
_chemical_formula_sum "Si O2"
_cell_formula_units_Z 32
_cell_length_a 12.000000
_cell_length_b 21.000000
_cell_length_c 15.000000
_cell_angle_alpha 90.000000
_cell_angle_beta 110.000000
_cell_angle_gamma 90.000000
_cell_volume 3552.038107
_symmetry_space_group_name_H-M "C 2/M"
_symmetry_group_IT_number 12
_symmetry_cell_setting 'monoclinic'
loop_
_space_group_symop_operation_xyz
x,y,z
-x,y,-z
-x,-y,-z
x,-y,z
1/2+x,1/2+y,z
1/2-x,1/2+y,-z
1/2-x,1/2-y,-z
1/2+x,1/2-y,z
loop_
_atom_site_type_symbol
_atom_site_label
_atom_site_fract_x
_atom_site_fract_y
_atom_site_fract_z
Si Si1 0.190040 0.928112 0.319942
Si Si2 0.240476 0.335317 0.175567
Si Si3 0.516571 0.308245 0.267147
Si Si4 0.369107 0.926269 0.988651
Si Si5 0.318077 0.886054 0.174360
Si Si6 0.927966 0.330068 0.697364
Si Si7 0.382571 0.072332 0.527706
Si Si8 0.608048 0.287497 0.095217
O O1 0.268622 0.920694 0.250394
O O2 0.275083 0.921463 0.428779
O O3 0.092473 0.872496 0.301413
O O4 0.139972 0.000000 0.305444
O O5 0.376441 0.320512 0.237750
O O6 0.225461 0.392902 0.102208
O O7 0.161944 0.340652 0.244188
O O8 0.180222 0.277431 0.105177
O O9 0.561992 0.244281 0.329392
O O10 0.546310 0.288765 0.174283
O O11 0.370240 0.000000 0.965100
O O12 0.500000 0.899146 0.000000
O O13 0.346396 0.920662 0.088487
O O14 0.439229 0.850484 0.235894
O O15 0.208890 0.840491 0.119604
O O16 0.886995 0.375578 0.606097
O O17 0.500000 0.078635 0.500000
O O18 0.381171 0.000000 0.564808
O O19 0.500000 0.296215 0.000000
#
# Coordination Sequence:
#
# PCOD9225156 Si02
#       8
#     8   8   8   8   8   8   8   8
#     4  10  22  42  65  88 119 158 203 252 299 358
#     4  11  22  38  57  82 121 162 195 238 298 360
#     4  10  23  39  59  89 123 160 203 240 306 363
#     4  11  23  34  50  83 119 153 195 242 295 354
#     4  11  20  37  60  88 117 153 197 254 298 346
#     4  11  22  37  61  92 121 153 201 258 300 358
#     4  10  21  38  65  94 118 153 201 251 304 355
#     4  10  21  35  59  85 115 156 203 248 286 345
#
# _framework density 9.0089120000000005
#
# number of rings (size 3 to 8) (size 9 to 14) (size 15 to 20)
#    0.000    1.500    3.750    1.500    1.750    3.000 
#    0.000    0.625    0.000    5.625    0.000    0.000 
#    0.000    0.000    0.000    0.000    0.000    0.000 
#
# Total GULP energy -178425.960846 kJ/mol
# GULP energy per Si atom -5575.811276 kJ/mol
# Density = 0.898841 g / cm^3
# Si number density = 9.008912 Si / 1000 Ang^3
#
#
#
# Elastic Constant Matrix: (Units=GPa)
#
#
# Indices 1 2 3 4 5 6 
#
# 1 93.9887 37.8787 29.0928 0.0000 6.7409 0.0000
# 2 37.8787 125.9042 59.5493 0.0000 4.5337 0.0000
# 3 29.0928 59.5493 83.1484 0.0000 4.9364 0.0000
# 4 0.0000 0.0000 0.0000 32.0940 0.0000 -9.3495
# 5 6.7409 4.5337 4.9364 0.0000 15.0381 0.0000
# 6 0.0000 0.0000 0.0000 -9.3495 0.0000 -33.2667
#
#
#
# Elastic Compliance Matrix: (Units=1/GPa)
#
#
# Indices 1 2 3 4 5 6 
#
# 1 0.012698 -0.002550 -0.002371 0.000000 -0.004145 0.000000
# 2 -0.002550 0.012533 -0.008085 0.000000 0.000018 0.000000
# 3 -0.002371 -0.008085 0.018805 0.000000 -0.002673 0.000000
# 4 0.000000 0.000000 0.000000 0.028800 0.000000 -0.008094
# 5 -0.004145 0.000018 -0.002673 0.000000 0.069228 0.000000
# 6 0.000000 0.000000 0.000000 -0.008094 0.000000 -0.027785
#
#
# Mechanical properties :
#
#
# Convention : Reuss Voigt Hill
#
# Bulk Modulus (GPa) = 55.47685 61.78699 58.63192
# Shear Modulus (GPa) = 34.17671 14.54111 24.35891
#
# Velocity S-wave (km/s) = 4.35998 2.84393 3.68085
# Velocity P-wave (km/s) = 7.49685 6.71941 7.11875
#
# Compressibility (1/GPa) = 0.01802554
#
# Stress axis : x y z
#
# Youngs Moduli (GPa) = 78.75069 79.79034 53.17723
#
# Poissons Ratio (x) = 0.20344 0.12608
# Poissons Ratio (y) = 0.20079 0.42992
# Poissons Ratio (z) = 0.18671 0.64508
#
# Static dielectric constant tensor:
#      x y z
#    x 1.612430 0.000000 -0.005580 
#    y 0.000000 1.676690 0.000000 
#    z -0.005580 0.000000 1.605930 
# 
# From -- ./inp_files/207719.got.cif
#   From: 2010.05.17/outbox.ucp.g08.bks.cvg/sg12_104_cif.got.tgz:207719.got - 2010.06.11 11:47:21.
