data_PCOD9225275
_publ_section_title
;
Structure prediction by ZEFSAII (Michael W. Deem and Ramdas Pophale) SiO2 
 PCOD9225275
Probable space group: C 2/M
;
_chemical_formula_sum "Si O2"
_cell_formula_units_Z 28
_cell_length_a 24.000000
_cell_length_b 9.000000
_cell_length_c 15.000000
_cell_angle_alpha 90.000000
_cell_angle_beta 120.000000
_cell_angle_gamma 90.000000
_cell_volume 2805.922308
_symmetry_space_group_name_H-M "C 2/M"
_symmetry_group_IT_number 12
_symmetry_cell_setting 'monoclinic'
loop_
_space_group_symop_operation_xyz
x,y,z
-x,y,-z
-x,-y,-z
x,-y,z
1/2+x,1/2+y,z
1/2-x,1/2+y,-z
1/2-x,1/2-y,-z
1/2+x,1/2-y,z
loop_
_atom_site_type_symbol
_atom_site_label
_atom_site_fract_x
_atom_site_fract_y
_atom_site_fract_z
Si Si1 0.181940 0.675049 0.441102
Si Si2 0.693064 0.678732 0.761229
Si Si3 0.594869 0.679156 0.522763
Si Si4 0.342154 0.820605 0.889610
Si Si5 0.633950 0.822685 0.882327
Si Si6 0.006315 0.826686 0.706120
Si Si7 0.105906 0.173338 0.233889
O O1 0.183068 0.500000 0.456403
O O2 0.250000 0.750000 0.500000
O O3 0.140634 0.756273 0.483173
O O4 0.153843 0.716159 0.322853
O O5 0.690627 0.500000 0.761866
O O6 0.634262 0.724596 0.645549
O O7 0.768151 0.717615 0.800539
O O8 0.681098 0.744101 0.849797
O O9 0.593875 0.500000 0.524000
O O10 0.525589 0.716605 0.416691
O O11 0.392525 0.734725 0.865674
O O12 0.349738 0.000000 0.887221
O O13 0.354123 0.782640 0.004006
O O14 0.564729 0.772234 0.787897
O O15 0.640501 0.000000 0.881445
O O16 0.955405 0.821201 0.748006
O O17 0.026386 0.000000 0.712297
O O18 0.126231 0.000000 0.250052
#
# Coordination Sequence:
#
# PCOD9225275 Si02
#       7
#     8   8   8   8   8   8   8
#     4  11  20  31  51  80 116 154 189 231 284 342
#     4  10  21  39  62  84 111 149 191 238 294 344
#     4   9  19  36  58  84 111 144 190 240 288 344
#     4  10  22  39  59  86 117 151 190 237 293 348
#     4  11  24  39  57  83 116 153 196 241 284 338
#     4   9  20  39  59  83 116 151 190 232 286 350
#     4  10  21  37  59  86 114 148 191 239 288 344
#
# _framework density 9.9788940000000004
#
# number of rings (size 3 to 8) (size 9 to 14) (size 15 to 20)
#    0.000    2.000    0.000    4.286    0.000    7.429 
#    0.000    5.714    0.000    0.000    0.000    0.000 
#    0.000    0.000    0.000    0.000    0.000    0.000 
#
# Total GULP energy -155977.814413 kJ/mol
# GULP energy per Si atom -5570.636229 kJ/mol
# Density = 0.995618 g / cm^3
# Si number density = 9.978894 Si / 1000 Ang^3
#
#
#
# Elastic Constant Matrix: (Units=GPa)
#
#
# Indices 1 2 3 4 5 6 
#
# 1 34.1203 0.8350 10.1281 0.0000 -7.1751 0.0000
# 2 0.8350 -45.6805 0.0170 0.0000 3.7499 0.0000
# 3 10.1281 0.0170 110.8277 0.0000 -16.7282 0.0000
# 4 0.0000 0.0000 0.0000 36.0079 0.0000 -3.7988
# 5 -7.1751 3.7499 -16.7282 0.0000 40.2684 0.0000
# 6 0.0000 0.0000 0.0000 -3.7988 0.0000 27.5281
#
#
#
# Elastic Compliance Matrix: (Units=1/GPa)
#
#
# Indices 1 2 3 4 5 6 
#
# 1 0.030872 0.000935 -0.002138 0.000000 0.004525 0.000000
# 2 0.000935 -0.021686 0.000264 0.000000 0.002296 0.000000
# 3 -0.002138 0.000264 0.009770 0.000000 0.003653 0.000000
# 4 0.000000 0.000000 0.000000 0.028182 0.000000 0.003889
# 5 0.004525 0.002296 0.003653 0.000000 0.026943 0.000000
# 6 0.000000 0.000000 0.000000 0.003889 0.000000 0.036863
#
#
# Mechanical properties :
#
#
# Convention : Reuss Voigt Hill
#
# Bulk Modulus (GPa) = 58.55462 13.46974 36.01218
# Shear Modulus (GPa) = 42.18875 26.64668 34.41771
#
# Velocity S-wave (km/s) = 4.60270 3.65794 4.15725
# Velocity P-wave (km/s) = 7.59272 4.96029 6.41303
#
# Compressibility (1/GPa) = 0.01707807
#
# Stress axis : x y z
#
# Youngs Moduli (GPa) = 32.39224 -46.11376 102.35682
#
# Poissons Ratio (x) = 0.04312 0.21887
# Poissons Ratio (y) = -0.03029 -0.02706
# Poissons Ratio (z) = 0.06926 0.01219
#
# Static dielectric constant tensor:
#      x y z
#    x 1.758540 0.000000 0.019020 
#    y 0.000000 1.655930 0.000000 
#    z 0.019020 0.000000 1.748980 
# 
# From -- ./inp_files/238920.got.cif
#   From: 2010.05.17/outbox.ucp.g08.bks.cvg/sg12_120_cif.got.tgz:238920.got - 2010.06.11 11:47:21.
