data_PCOD9225942
_publ_section_title
;
Structure prediction by ZEFSAII (Michael W. Deem and Ramdas Pophale) SiO2 
 PCOD9225942
Probable space group: C 2/M
;
_chemical_formula_sum "Si O2"
_cell_formula_units_Z 20
_cell_length_a 21.000000
_cell_length_b 9.000000
_cell_length_c 30.000000
_cell_angle_alpha 90.000000
_cell_angle_beta 20.000000
_cell_angle_gamma 90.000000
_cell_volume 1939.254213
_symmetry_space_group_name_H-M "C 2/M"
_symmetry_group_IT_number 12
_symmetry_cell_setting 'monoclinic'
loop_
_space_group_symop_operation_xyz
x,y,z
-x,y,-z
-x,-y,-z
x,-y,z
1/2+x,1/2+y,z
1/2-x,1/2+y,-z
1/2-x,1/2-y,-z
1/2+x,1/2-y,z
loop_
_atom_site_type_symbol
_atom_site_label
_atom_site_fract_x
_atom_site_fract_y
_atom_site_fract_z
Si Si1 0.361494 0.321399 0.468733
Si Si2 0.163122 0.171586 0.953815
Si Si3 0.306098 0.820938 0.601391
Si Si4 0.260963 0.325371 0.201459
Si Si5 0.421521 0.179876 0.860215
O O1 0.337888 0.500000 0.483522
O O2 0.250000 0.250000 0.500000
O O3 0.299135 0.251754 0.556843
O O4 0.578748 0.273788 0.326142
O O5 0.201758 0.173207 0.875995
O O6 0.346485 0.221876 0.859696
O O7 0.140651 0.000000 0.982463
O O8 0.952823 0.234028 0.097702
O O9 0.500000 0.783518 0.500000
O O10 0.114919 0.755566 0.747407
O O11 0.297422 0.000000 0.604768
O O12 0.226922 0.500000 0.237363
O O13 0.437098 0.000000 0.854117
O O14 0.250000 0.250000 0.000000
#
# Coordination Sequence:
#
# PCOD9225942 Si02
#       5
#     8   8   8   8   8
#     4  12  25  41  64  95 130 170 217 270 330 394
#     4   8  17  34  59  88 121 160 205 255 315 378
#     4  11  26  47  69  95 131 176 224 278 338 397
#     4   9  17  35  62  90 119 159 207 260 318 381
#     4  11  23  40  63  93 129 172 217 264 321 388
#
# _framework density 10.313243
#
# number of rings (size 3 to 8) (size 9 to 14) (size 15 to 20)
#    0.000    1.800    0.000    5.400    2.800    3.200 
#    0.000    4.000    0.000    0.000    0.000    0.000 
#    0.000    0.000    0.000    0.000    0.000    0.000 
#
# Total GULP energy -111530.663393 kJ/mol
# GULP energy per Si atom -5576.533170 kJ/mol
# Density = 1.028977 g / cm^3
# Si number density = 10.313243 Si / 1000 Ang^3
#
#
#
# Elastic Constant Matrix: (Units=GPa)
#
#
# Indices 1 2 3 4 5 6 
#
# 1 97.6853 37.1951 43.8933 0.0060 -19.7645 0.0009
# 2 37.1951 113.3760 49.1444 0.0075 -11.5372 0.0017
# 3 43.8933 49.1444 143.2834 0.0346 -33.7973 0.0109
# 4 0.0060 0.0075 0.0346 38.7426 0.0064 -5.3137
# 5 -19.7645 -11.5372 -33.7973 0.0064 39.6135 0.0001
# 6 0.0009 0.0017 0.0109 -5.3137 0.0001 26.3173
#
#
#
# Elastic Compliance Matrix: (Units=1/GPa)
#
#
# Indices 1 2 3 4 5 6 
#
# 1 0.013097 -0.003006 -0.002061 0.000000 0.003901 0.000001
# 2 -0.003006 0.011051 -0.003085 0.000001 -0.000913 0.000001
# 3 -0.002061 -0.003085 0.010284 -0.000010 0.006847 -0.000006
# 4 0.000000 0.000001 -0.000010 0.026547 -0.000013 0.005360
# 5 0.003901 -0.000913 0.006847 -0.000013 0.032766 -0.000006
# 6 0.000001 0.000001 -0.000006 0.005360 -0.000006 0.039080
#
#
# Mechanical properties :
#
#
# Convention : Reuss Voigt Hill
#
# Bulk Modulus (GPa) = 55.16578 68.31225 61.73902
# Shear Modulus (GPa) = 32.22270 35.87547 34.04908
#
# Velocity S-wave (km/s) = 3.95676 4.17501 4.06734
# Velocity P-wave (km/s) = 6.90491 7.51209 7.21489
#
# Compressibility (1/GPa) = 0.01812718
#
# Stress axis : x y z
#
# Youngs Moduli (GPa) = 76.35381 90.49209 97.24229
#
# Poissons Ratio (x) = 0.27206 0.20040
# Poissons Ratio (y) = 0.22955 0.29996
# Poissons Ratio (z) = 0.15735 0.27914
#
# Static dielectric constant tensor:
#      x y z
#    x 1.846950 0.000000 0.063910 
#    y 0.000000 1.704700 0.000000 
#    z 0.063910 0.000000 1.857870 
# 
# From -- ./inp_files/380507.got.cif
#   From: 2010.05.17/outbox.ucp.g08.bks.cvg/sg12_191_cif.got.tgz:380507.got - 2010.06.11 11:47:21.
