data_PCOD9225288
_publ_section_title
;
Structure prediction by ZEFSAII (Michael W. Deem and Ramdas Pophale) SiO2 
 PCOD9225288
Probable space group: C 2/M
;
_chemical_formula_sum "Si O2"
_cell_formula_units_Z 32
_cell_length_a 18.000000
_cell_length_b 9.000000
_cell_length_c 30.000000
_cell_angle_alpha 90.000000
_cell_angle_beta 40.000000
_cell_angle_gamma 90.000000
_cell_volume 3123.947783
_symmetry_space_group_name_H-M "C 2/M"
_symmetry_group_IT_number 12
_symmetry_cell_setting 'monoclinic'
loop_
_space_group_symop_operation_xyz
x,y,z
-x,y,-z
-x,-y,-z
x,-y,z
1/2+x,1/2+y,z
1/2-x,1/2+y,-z
1/2-x,1/2-y,-z
1/2+x,1/2-y,z
loop_
_atom_site_type_symbol
_atom_site_label
_atom_site_fract_x
_atom_site_fract_y
_atom_site_fract_z
Si Si1 0.834423 0.679466 0.355683
Si Si2 0.086001 0.326078 0.777037
Si Si3 0.780654 0.831437 0.798000
Si Si4 0.336633 0.321692 0.496092
Si Si5 0.492462 0.679004 0.651552
Si Si6 0.834865 0.330374 0.995350
Si Si7 0.073383 0.172573 0.875027
Si Si8 0.628153 0.337165 0.150519
O O1 0.846623 0.500000 0.349483
O O2 0.855556 0.729460 0.295496
O O3 0.710075 0.720417 0.433939
O O4 0.926881 0.743042 0.348551
O O5 0.108857 0.500000 0.772102
O O6 0.112486 0.238263 0.809463
O O7 0.949952 0.292789 0.832304
O O8 0.859593 0.783600 0.720505
O O9 0.679521 0.720557 0.856595
O O10 0.870350 0.835377 0.797425
O O11 0.735958 0.000000 0.812733
O O12 0.325717 0.500000 0.498528
O O13 0.250000 0.250000 0.500000
O O14 0.461034 0.282712 0.419011
O O15 0.502015 0.500000 0.653009
O O16 0.854335 0.500000 0.972633
O O17 0.955562 0.249841 0.943102
O O18 0.750000 0.250000 0.000000
O O19 0.759827 0.329568 0.074521
O O20 0.055650 0.000000 0.881198
O O21 0.584101 0.500000 0.154872
#
# Coordination Sequence:
#
# PCOD9225288 Si02
#       8
#     8   8   8   8   8   8   8   8
#     4   9  17  28  47  78 112 141 176 224 270 317
#     4  11  21  34  56  82 110 145 184 229 274 324
#     4  10  21  38  57  81 112 146 184 226 272 325
#     4   8  14  25  42  72 109 141 175 215 264 317
#     4   9  16  28  51  77 107 146 180 217 266 323
#     4  11  22  38  61  87 113 144 179 222 273 325
#     4  12  26  41  57  79 109 146 186 231 278 327
#     4  10  21  37  60  85 111 142 179 222 270 326
#
# _framework density 10.243449
#
# number of rings (size 3 to 8) (size 9 to 14) (size 15 to 20)
#    0.000    2.000    2.500    1.875    0.000    2.500 
#    0.000    2.500    0.000    0.750    0.000    5.250 
#    0.000    0.000    0.000    0.000    0.000    0.000 
#
# Total GULP energy -178225.079868 kJ/mol
# GULP energy per Si atom -5569.533746 kJ/mol
# Density = 1.022013 g / cm^3
# Si number density = 10.243449 Si / 1000 Ang^3
#
#
#
# Elastic Constant Matrix: (Units=GPa)
#
#
# Indices 1 2 3 4 5 6 
#
# 1 21.0489 9.4127 2.3710 -0.0001 -1.4693 -0.0001
# 2 9.4127 58.4979 22.7272 -0.0001 -3.3319 -0.0004
# 3 2.3710 22.7272 102.2508 0.0000 3.3010 0.0000
# 4 -0.0001 -0.0001 0.0000 17.8950 0.0000 1.6405
# 5 -1.4693 -3.3319 3.3010 0.0000 21.2773 0.0000
# 6 -0.0001 -0.0004 0.0000 1.6405 0.0000 17.3497
#
#
#
# Elastic Compliance Matrix: (Units=1/GPa)
#
#
# Indices 1 2 3 4 5 6 
#
# 1 0.051334 -0.008372 0.000601 0.000000 0.002141 0.000000
# 2 -0.008372 0.020353 -0.004436 0.000000 0.003297 0.000000
# 3 0.000601 -0.004436 0.010827 0.000000 -0.002333 0.000000
# 4 0.000000 0.000000 0.000000 0.056370 0.000000 -0.005330
# 5 0.002141 0.003297 -0.002333 0.000000 0.048025 0.000000
# 6 0.000000 0.000000 0.000000 -0.005330 0.000000 0.058142
#
#
# Mechanical properties :
#
#
# Convention : Reuss Voigt Hill
#
# Bulk Modulus (GPa) = 17.21140 27.86882 22.54011
# Shear Modulus (GPa) = 17.31118 21.12351 19.21735
#
# Velocity S-wave (km/s) = 2.91002 3.21452 3.06605
# Velocity P-wave (km/s) = 4.43964 5.23548 4.85390
#
# Compressibility (1/GPa) = 0.05810103
#
# Stress axis : x y z
#
# Youngs Moduli (GPa) = 19.48036 49.13281 92.35947
#
# Poissons Ratio (x) = 0.41132 -0.05554
# Poissons Ratio (y) = 0.16308 0.40972
# Poissons Ratio (z) = -0.01171 0.21796
#
# Static dielectric constant tensor:
#      x y z
#    x 2.027560 0.000000 0.224450 
#    y 0.000000 1.742810 0.000000 
#    z 0.224450 0.000000 2.007220 
# 
# From -- ./inp_files/378231.got.cif
#   From: 2010.05.17/outbox.ucp.g08.bks.cvg/sg12_190_cif.got.tgz:378231.got - 2010.06.11 11:47:21.
