data_PCOD9225178
_publ_section_title
;
Structure prediction by ZEFSAII (Michael W. Deem and Ramdas Pophale) SiO2 
 PCOD9225178
Probable space group: C 2/M
;
_chemical_formula_sum "Si O2"
_cell_formula_units_Z 24
_cell_length_a 15.000000
_cell_length_b 9.000000
_cell_length_c 27.000000
_cell_angle_alpha 90.000000
_cell_angle_beta 140.000000
_cell_angle_gamma 90.000000
_cell_volume 2342.960837
_symmetry_space_group_name_H-M "C 2/M"
_symmetry_group_IT_number 12
_symmetry_cell_setting 'monoclinic'
loop_
_space_group_symop_operation_xyz
x,y,z
-x,y,-z
-x,-y,-z
x,-y,z
1/2+x,1/2+y,z
1/2-x,1/2+y,-z
1/2-x,1/2-y,-z
1/2+x,1/2-y,z
loop_
_atom_site_type_symbol
_atom_site_label
_atom_site_fract_x
_atom_site_fract_y
_atom_site_fract_z
Si Si1 0.132312 0.169972 0.020590
Si Si2 0.845079 0.180398 0.420814
Si Si3 0.325259 0.677236 0.298809
Si Si4 0.104632 0.829997 0.820722
Si Si5 0.055043 0.678076 0.336821
Si Si6 0.059025 0.170592 0.147145
O O1 0.251572 0.264221 0.097411
O O2 0.182573 0.000000 0.033662
O O3 0.000000 0.164777 0.000000
O O4 0.063674 0.229749 0.940591
O O5 0.804533 0.219904 0.347307
O O6 0.715226 0.226630 0.399409
O O7 0.000000 0.233967 0.500000
O O8 0.849529 0.000000 0.424969
O O9 0.325973 0.500000 0.295643
O O10 0.472223 0.744032 0.345464
O O11 0.202356 0.740893 0.211942
O O12 0.031573 0.729874 0.748322
O O13 0.003512 0.832804 0.824815
O O14 0.122802 0.000000 0.810469
O O15 0.049564 0.500000 0.338680
O O16 0.087718 0.000000 0.143057
#
# Coordination Sequence:
#
# PCOD9225178 Si02
#       6
#     8   8   8   8   8   8
#     4  10  21  36  54  79 114 158 204 247 297 356
#     4   9  20  40  64  90 122 159 198 242 298 364
#     4  11  22  38  63  93 122 158 203 249 296 355
#     4  11  22  36  57  85 118 156 203 255 297 347
#     4  11  22  39  63  89 121 163 202 244 302 360
#     4  10  21  37  57  84 120 160 201 248 299 353
#
# _framework density 10.243449
#
# number of rings (size 3 to 8) (size 9 to 14) (size 15 to 20)
#    0.000    1.667    1.667    3.000    0.000    3.667 
#    0.000    0.000    0.000    7.000    0.000    0.000 
#    0.000    0.000    0.000    0.000    0.000    0.000 
#
# Total GULP energy -134032.406822 kJ/mol
# GULP energy per Si atom -5584.683618 kJ/mol
# Density = 1.022013 g / cm^3
# Si number density = 10.243449 Si / 1000 Ang^3
#
#
#
# Elastic Constant Matrix: (Units=GPa)
#
#
# Indices 1 2 3 4 5 6 
#
# 1 70.2011 11.3226 1.4226 0.0000 26.5963 0.0000
# 2 11.3226 48.2669 19.4541 0.0000 16.8951 0.0000
# 3 1.4226 19.4541 79.7682 0.0000 36.7930 0.0000
# 4 0.0000 0.0000 0.0000 11.1830 0.0000 -4.4455
# 5 26.5963 16.8951 36.7930 0.0000 38.8423 0.0000
# 6 0.0000 0.0000 0.0000 -4.4455 0.0000 15.6045
#
#
#
# Elastic Compliance Matrix: (Units=1/GPa)
#
#
# Indices 1 2 3 4 5 6 
#
# 1 0.025414 -0.000988 0.013525 0.000000 -0.029783 0.000000
# 2 -0.000988 0.024637 -0.002415 0.000000 -0.007752 0.000000
# 3 0.013525 -0.002415 0.029607 0.000000 -0.036255 0.000000
# 4 0.000000 0.000000 0.000000 0.100842 0.000000 0.028728
# 5 -0.029783 -0.007752 -0.036255 0.000000 0.083853 0.000000
# 6 0.000000 0.000000 0.000000 0.028728 0.000000 0.072268
#
#
# Mechanical properties :
#
#
# Convention : Reuss Voigt Hill
#
# Bulk Modulus (GPa) = 10.00987 29.18166 19.59576
# Shear Modulus (GPa) = 14.29894 24.19510 19.24702
#
# Velocity S-wave (km/s) = 2.64475 3.44030 3.06842
# Velocity P-wave (km/s) = 3.77132 5.48232 4.70525
#
# Compressibility (1/GPa) = 0.09990140
#
# Stress axis : x y z
#
# Youngs Moduli (GPa) = 39.34892 40.58975 33.77598
#
# Poissons Ratio (x) = 0.04009 -0.45683
# Poissons Ratio (y) = 0.03887 0.08158
# Poissons Ratio (z) = -0.53220 0.09804
#
# Static dielectric constant tensor:
#      x y z
#    x 1.781220 0.000000 -0.027300 
#    y 0.000000 1.710120 0.000000 
#    z -0.027300 0.000000 1.717570 
# 
# From -- ./inp_files/360230.got.cif
#   From: 2010.05.17/outbox.ucp.g08.bks.cvg/sg12_181_cif.got.tgz:360230.got - 2010.06.11 11:47:21.
