data_PCOD9225959
_publ_section_title
;
Structure prediction by ZEFSAII (Michael W. Deem and Ramdas Pophale) SiO2 
 PCOD9225959
Probable space group: C 2/M
;
_chemical_formula_sum "Si O2"
_cell_formula_units_Z 24
_cell_length_a 15.000000
_cell_length_b 15.000000
_cell_length_c 30.000000
_cell_angle_alpha 90.000000
_cell_angle_beta 20.000000
_cell_angle_gamma 90.000000
_cell_volume 2308.635967
_symmetry_space_group_name_H-M "C 2/M"
_symmetry_group_IT_number 12
_symmetry_cell_setting 'monoclinic'
loop_
_space_group_symop_operation_xyz
x,y,z
-x,y,-z
-x,-y,-z
x,-y,z
1/2+x,1/2+y,z
1/2-x,1/2+y,-z
1/2-x,1/2-y,-z
1/2+x,1/2-y,z
loop_
_atom_site_type_symbol
_atom_site_label
_atom_site_fract_x
_atom_site_fract_y
_atom_site_fract_z
Si Si1 0.427213 0.600851 0.168525
Si Si2 0.870328 0.346397 0.446995
Si Si3 0.225525 0.896415 0.612141
Si Si4 0.807607 0.861203 0.050695
Si Si5 0.114049 0.500000 0.726666
Si Si6 0.236046 0.000000 0.443560
Si Si7 0.223823 0.844259 0.113078
O O1 0.327599 0.500000 0.211144
O O2 0.629472 0.604841 0.113757
O O3 0.183508 0.659184 0.299448
O O4 0.555236 0.627089 0.061579
O O5 0.750000 0.250000 0.500000
O O6 0.749128 0.389967 0.548198
O O7 0.806059 0.410068 0.436306
O O8 0.500000 0.857665 0.500000
O O9 0.984667 0.850192 0.749133
O O10 0.212706 0.000000 0.632168
O O11 0.541227 0.916335 0.180120
O O12 0.755730 0.757936 0.083685
O O13 0.000000 0.892583 0.000000
O O14 0.422328 0.500000 0.589043
O O15 0.106950 0.500000 0.676413
O O16 0.500000 0.878747 0.000000
#
# Coordination Sequence:
#
# PCOD9225959 Si02
#       7
#     8   8   8   8   4   4   8
#     4  12  24  47  74 100 140 184 232 289 352 425
#     4  12  27  44  73 103 138 184 233 290 352 419
#     4  11  23  46  71  98 136 180 235 288 347 417
#     4  11  25  45  71 102 137 183 231 285 353 419
#     4  11  25  44  70  97 140 181 225 292 346 406
#     4  11  26  46  67 107 140 175 240 286 350 424
#     4  11  27  44  70 103 142 181 235 289 346 416
#
# _framework density 10.395749
#
# number of rings (size 3 to 8) (size 9 to 14) (size 15 to 20)
#    0.000    0.667    4.167    2.250    9.333    2.667 
#    0.000    0.000    0.000    0.000    0.000    0.000 
#    0.000    0.000    0.000    0.000    0.000    0.000 
#
# Total GULP energy -134120.690587 kJ/mol
# GULP energy per Si atom -5588.362108 kJ/mol
# Density = 1.037209 g / cm^3
# Si number density = 10.395749 Si / 1000 Ang^3
#
#
#
# Elastic Constant Matrix: (Units=GPa)
#
#
# Indices 1 2 3 4 5 6 
#
# 1 102.3597 20.8143 67.9174 -0.0038 15.4216 -0.0192
# 2 20.8143 87.4087 38.1373 -0.0147 -6.0554 -0.0273
# 3 67.9174 38.1373 162.6558 0.0344 13.9017 0.0234
# 4 -0.0038 -0.0147 0.0344 35.6392 -0.0491 -4.7141
# 5 15.4216 -6.0554 13.9017 -0.0491 36.6935 0.0235
# 6 -0.0192 -0.0273 0.0234 -4.7141 0.0235 38.2560
#
#
#
# Elastic Compliance Matrix: (Units=1/GPa)
#
#
# Indices 1 2 3 4 5 6 
#
# 1 0.014150 -0.001380 -0.005226 0.000002 -0.004195 0.000012
# 2 -0.001380 0.013288 -0.002869 0.000015 0.003860 0.000010
# 3 -0.005226 -0.002869 0.009152 -0.000014 -0.001744 -0.000011
# 4 0.000002 0.000015 -0.000014 0.028524 0.000043 0.003515
# 5 -0.004195 0.003860 -0.001744 0.000043 0.030314 -0.000012
# 6 0.000012 0.000010 -0.000011 0.003515 -0.000012 0.026573
#
#
# Mechanical properties :
#
#
# Convention : Reuss Voigt Hill
#
# Bulk Modulus (GPa) = 56.69160 67.35136 62.02148
# Shear Modulus (GPa) = 34.05266 37.15474 35.60370
#
# Velocity S-wave (km/s) = 4.05139 4.23190 4.14262
# Velocity P-wave (km/s) = 7.01505 7.50617 7.26476
#
# Compressibility (1/GPa) = 0.01763930
#
# Stress axis : x y z
#
# Youngs Moduli (GPa) = 70.67288 75.25332 109.26472
#
# Poissons Ratio (x) = 0.10383 0.57105
# Poissons Ratio (y) = 0.09751 0.31353
# Poissons Ratio (z) = 0.36936 0.21594
#
# Static dielectric constant tensor:
#      x y z
#    x 1.845620 0.000000 -0.067150 
#    y 0.000000 1.737490 0.000010 
#    z -0.067150 0.000010 1.731070 
# 
# From -- ./inp_files/376596.got.cif
#   From: 2010.05.17/outbox.ucp.g08.bks.cvg/sg12_189_cif.got.tgz:376596.got - 2010.06.11 11:47:21.
