data_PCOD9225508
_publ_section_title
;
Structure prediction by ZEFSAII (Michael W. Deem and Ramdas Pophale) SiO2 
 PCOD9225508
Probable space group: C 2/M
;
_chemical_formula_sum "Si O2"
_cell_formula_units_Z 24
_cell_length_a 18.000000
_cell_length_b 9.000000
_cell_length_c 21.000000
_cell_angle_alpha 90.000000
_cell_angle_beta 130.000000
_cell_angle_gamma 90.000000
_cell_volume 2606.083195
_symmetry_space_group_name_H-M "C 2/M"
_symmetry_group_IT_number 12
_symmetry_cell_setting 'monoclinic'
loop_
_space_group_symop_operation_xyz
x,y,z
-x,y,-z
-x,-y,-z
x,-y,z
1/2+x,1/2+y,z
1/2-x,1/2+y,-z
1/2-x,1/2-y,-z
1/2+x,1/2-y,z
loop_
_atom_site_type_symbol
_atom_site_label
_atom_site_fract_x
_atom_site_fract_y
_atom_site_fract_z
Si Si1 0.984618 0.670507 0.143483
Si Si2 0.676992 0.175210 0.411275
Si Si3 0.895167 0.679078 0.970049
Si Si4 0.455249 0.831954 0.277685
Si Si5 0.772998 0.173778 0.216541
Si Si6 0.820980 0.173976 0.723696
O O1 0.014176 0.500000 0.143130
O O2 0.958162 0.668954 0.202544
O O3 0.077287 0.775035 0.189252
O O4 0.901296 0.716017 0.048235
O O5 0.750000 0.250000 0.500000
O O6 0.562934 0.196199 0.363256
O O7 0.689946 0.243965 0.348944
O O8 0.694133 0.000000 0.418270
O O9 0.891146 0.500000 0.963406
O O10 0.803576 0.730862 0.878959
O O11 0.000000 0.725788 0.000000
O O12 0.381132 0.705349 0.254807
O O13 0.425305 0.000000 0.280365
O O14 0.758098 0.267562 0.271527
O O15 0.755206 0.000000 0.218430
O O16 0.818797 0.000000 0.713058
#
# Coordination Sequence:
#
# PCOD9225508 Si02
#       6
#     8   8   8   8   8   8
#     4   9  17  34  55  75 105 149 192 229 275 327
#     4  10  21  40  65  88 111 140 176 218 270 330
#     4   9  16  29  52  77 105 144 193 235 272 319
#     4   9  20  36  54  79 114 146 174 221 280 327
#     4  11  21  34  54  79 110 150 190 229 274 324
#     4  11  21  34  55  82 112 144 183 227 273 324
#
# _framework density 9.2092229999999997
#
# number of rings (size 3 to 8) (size 9 to 14) (size 15 to 20)
#    0.000    2.167    1.667    3.500    0.000    4.000 
#    0.000    3.333    0.000    5.000    0.000    0.000 
#    0.000    0.000    0.000    0.000    0.000    0.000 
#
# Total GULP energy -133714.980668 kJ/mol
# GULP energy per Si atom -5571.457528 kJ/mol
# Density = 0.918826 g / cm^3
# Si number density = 9.209223 Si / 1000 Ang^3
#
#
#
# Elastic Constant Matrix: (Units=GPa)
#
#
# Indices 1 2 3 4 5 6 
#
# 1 38.7136 38.7446 29.7841 0.0000 3.2335 0.0000
# 2 38.7446 58.9351 53.7411 0.0000 11.0151 0.0000
# 3 29.7841 53.7411 121.8678 0.0000 3.5625 0.0000
# 4 0.0000 0.0000 0.0000 14.3719 0.0000 10.1787
# 5 3.2335 11.0151 3.5625 0.0000 4.6656 0.0000
# 6 0.0000 0.0000 0.0000 10.1787 0.0000 20.9756
#
#
#
# Elastic Compliance Matrix: (Units=1/GPa)
#
#
# Indices 1 2 3 4 5 6 
#
# 1 0.352044 -0.465067 0.096230 0.000000 0.780519 0.000000
# 2 -0.465067 0.678137 -0.151382 0.000000 -1.163115 0.000000
# 3 0.096230 -0.151382 0.043926 0.000000 0.257167 0.000000
# 4 0.000000 0.000000 0.000000 0.106015 0.000000 -0.051445
# 5 0.780519 -1.163115 0.257167 0.000000 2.223041 0.000000
# 6 0.000000 0.000000 0.000000 -0.051445 0.000000 0.072639
#
#
# Mechanical properties :
#
#
# Convention : Reuss Voigt Hill
#
# Bulk Modulus (GPa) = 29.70171 51.56179 40.63175
# Shear Modulus (GPa) = 1.10437 14.48574 7.79506
#
# Velocity S-wave (km/s) = 0.77518 2.80747 2.05946
# Velocity P-wave (km/s) = 4.11853 6.21004 5.26910
#
# Compressibility (1/GPa) = 0.03366810
#
# Stress axis : x y z
#
# Youngs Moduli (GPa) = 2.84055 1.47463 22.76550
#
# Poissons Ratio (x) = 0.68580 -2.19071
# Poissons Ratio (y) = 1.32105 3.44629
# Poissons Ratio (z) = -0.27335 0.22323
#
# Static dielectric constant tensor:
#      x y z
#    x 1.681390 0.000000 -0.012750 
#    y 0.000000 1.630810 0.000000 
#    z -0.012750 0.000000 1.628470 
# 
# From -- ./inp_files/314475.got.cif
#   From: 2010.05.17/outbox.ucp.g08.bks.cvg/sg12_158_cif.got.tgz:314475.got - 2010.06.11 11:47:21.
