data_PCOD9225810
_publ_section_title
;
Structure prediction by ZEFSAII (Michael W. Deem and Ramdas Pophale) SiO2 
 PCOD9225810
Probable space group: C 2/M
;
_chemical_formula_sum "Si O2"
_cell_formula_units_Z 28
_cell_length_a 18.000000
_cell_length_b 21.000000
_cell_length_c 27.000000
_cell_angle_alpha 90.000000
_cell_angle_beta 160.000000
_cell_angle_gamma 90.000000
_cell_volume 3490.657583
_symmetry_space_group_name_H-M "C 2/M"
_symmetry_group_IT_number 12
_symmetry_cell_setting 'monoclinic'
loop_
_space_group_symop_operation_xyz
x,y,z
-x,y,-z
-x,-y,-z
x,-y,z
1/2+x,1/2+y,z
1/2-x,1/2+y,-z
1/2-x,1/2-y,-z
1/2+x,1/2-y,z
loop_
_atom_site_type_symbol
_atom_site_label
_atom_site_fract_x
_atom_site_fract_y
_atom_site_fract_z
Si Si1 0.785698 0.602137 0.837522
Si Si2 0.320249 0.000000 0.682011
Si Si3 0.377257 0.721631 0.504868
Si Si4 0.575522 0.500000 0.633830
Si Si5 0.376448 0.209496 0.813413
Si Si6 0.338424 0.297766 0.942436
Si Si7 0.969129 0.640198 0.770405
Si Si8 0.981005 0.804962 0.683977
O O1 0.658156 0.558116 0.718990
O O2 0.865781 0.660172 0.852787
O O3 0.608904 0.628529 0.766119
O O4 0.000000 0.576932 0.000000
O O5 0.188842 0.000000 0.651332
O O6 0.447263 0.934469 0.763236
O O7 0.173179 0.000000 0.539849
O O8 0.626735 0.728866 0.644627
O O9 0.245580 0.668955 0.391375
O O10 0.398111 0.700240 0.575395
O O11 0.222171 0.784225 0.409244
O O12 0.477137 0.176436 0.828113
O O13 0.519050 0.266324 0.924659
O O14 0.170818 0.246289 0.813884
O O15 0.176595 0.346922 0.866359
O O16 0.500000 0.319129 0.000000
#
# Coordination Sequence:
#
# PCOD9225810 Si02
#       8
#     8   4   8   4   8   8   8   8
#     4  11  18  32  52  72 105 136 170 209 254 308
#     4  11  22  38  47  72 106 142 171 210 251 306
#     4   9  18  28  49  75  99 132 166 205 252 305
#     4  11  23  32  52  72 107 141 172 206 255 302
#     4  11  18  33  51  78 105 134 167 214 259 311
#     4  11  19  35  53  77 102 135 169 216 263 304
#     4  11  23  33  53  74 106 139 174 209 255 309
#     4   9  16  30  48  72 101 131 165 205 254 300
#
# _framework density 8.0214110000000005
#
# number of rings (size 3 to 8) (size 9 to 14) (size 15 to 20)
#    0.000    1.571    5.714    2.786    2.000    0.000 
#    0.000    0.357    0.000    0.000    0.000    0.000 
#    0.000    0.000    0.000   10.571    0.000    0.000 
#
# Total GULP energy -155893.349510 kJ/mol
# GULP energy per Si atom -5567.619625 kJ/mol
# Density = 0.800315 g / cm^3
# Si number density = 8.021411 Si / 1000 Ang^3
#
#
#
# Elastic Constant Matrix: (Units=GPa)
#
#
# Indices 1 2 3 4 5 6 
#
# 1 75.7691 32.6226 31.2108 0.0333 8.5211 0.0080
# 2 32.6226 57.1048 15.9130 -0.0280 8.4475 0.0173
# 3 31.2108 15.9130 62.7940 -0.0082 7.1499 0.0433
# 4 0.0333 -0.0280 -0.0082 12.3886 0.0483 -0.3919
# 5 8.5211 8.4475 7.1499 0.0483 22.3255 0.0033
# 6 0.0080 0.0173 0.0433 -0.3919 0.0033 19.9747
#
#
#
# Elastic Compliance Matrix: (Units=1/GPa)
#
#
# Indices 1 2 3 4 5 6 
#
# 1 0.020586 -0.009352 -0.007649 -0.000074 -0.001869 0.000015
# 2 -0.009352 0.023847 -0.000803 0.000098 -0.005197 -0.000012
# 3 -0.007649 -0.000803 0.020304 0.000044 -0.003279 -0.000039
# 4 -0.000074 0.000098 0.000044 0.080771 -0.000198 0.001585
# 5 -0.001869 -0.005197 -0.003279 -0.000198 0.048522 0.000000
# 6 0.000015 -0.000012 -0.000039 0.001585 0.000000 0.050095
#
#
# Mechanical properties :
#
#
# Convention : Reuss Voigt Hill
#
# Bulk Modulus (GPa) = 34.33152 39.46230 36.89691
# Shear Modulus (GPa) = 17.27466 18.66585 17.97026
#
# Velocity S-wave (km/s) = 3.28500 3.41471 3.35048
# Velocity P-wave (km/s) = 5.98621 6.34023 6.16576
#
# Compressibility (1/GPa) = 0.02912775
#
# Stress axis : x y z
#
# Youngs Moduli (GPa) = 48.57780 41.93416 49.25176
#
# Poissons Ratio (x) = 0.39217 0.37673
# Poissons Ratio (y) = 0.45431 0.03955
# Poissons Ratio (z) = 0.37157 0.03368
#
# Static dielectric constant tensor:
#      x y z
#    x 1.542480 0.000000 0.012320 
#    y 0.000000 1.593700 -0.000010 
#    z 0.012320 -0.000010 1.560960 
# 
# From -- ./inp_files/160044.got.cif
#   From: 2010.05.17/outbox.ucp.g08.bks.cvg/sg12_81_cif.got.tgz:160044.got - 2010.06.11 11:47:21.
