data_PCOD9225637
_publ_section_title
;
Structure prediction by ZEFSAII (Michael W. Deem and Ramdas Pophale) SiO2 
 PCOD9225637
Probable space group: C 2/M
;
_chemical_formula_sum "Si O2"
_cell_formula_units_Z 32
_cell_length_a 18.000000
_cell_length_b 9.000000
_cell_length_c 30.000000
_cell_angle_alpha 90.000000
_cell_angle_beta 140.000000
_cell_angle_gamma 90.000000
_cell_volume 3123.947783
_symmetry_space_group_name_H-M "C 2/M"
_symmetry_group_IT_number 12
_symmetry_cell_setting 'monoclinic'
loop_
_space_group_symop_operation_xyz
x,y,z
-x,y,-z
-x,-y,-z
x,-y,z
1/2+x,1/2+y,z
1/2-x,1/2+y,-z
1/2-x,1/2-y,-z
1/2+x,1/2-y,z
loop_
_atom_site_type_symbol
_atom_site_label
_atom_site_fract_x
_atom_site_fract_y
_atom_site_fract_z
Si Si1 0.302575 0.325108 0.955012
Si Si2 0.269826 0.834001 0.414731
Si Si3 0.431057 0.174476 0.094033
Si Si4 0.157417 0.828198 0.634918
Si Si5 0.737491 0.678334 0.831935
Si Si6 0.986681 0.168942 0.681695
Si Si7 0.331885 0.677740 0.784562
Si Si8 0.062280 0.672700 0.432183
O O1 0.330334 0.500000 0.963116
O O2 0.180302 0.312992 0.925037
O O3 0.286634 0.248627 0.899810
O O4 0.394686 0.245045 0.029734
O O5 0.315477 0.708988 0.403450
O O6 0.315042 0.812108 0.486054
O O7 0.132319 0.834625 0.346365
O O8 0.312163 0.000000 0.420835
O O9 0.539103 0.261771 0.164143
O O10 0.458622 0.000000 0.101469
O O11 0.242592 0.735981 0.706368
O O12 0.028150 0.773295 0.583250
O O13 0.171820 0.000000 0.652077
O O14 0.753912 0.500000 0.839765
O O15 0.599891 0.708497 0.761850
O O16 0.794996 0.751645 0.814983
O O17 0.956978 0.276364 0.627192
O O18 0.006564 0.000000 0.673385
O O19 0.329527 0.500000 0.785289
O O20 0.030471 0.500000 0.420781
#
# Coordination Sequence:
#
# PCOD9225637 Si02
#       8
#     8   8   8   8   8   8   8   8
#     4  10  22  41  66  97 131 166 205 248 299 360
#     4  10  23  41  61  91 123 159 206 256 312 370
#     4  10  22  42  67  97 131 164 204 251 301 358
#     4  12  25  41  61  89 123 161 208 257 309 367
#     4  11  23  40  63  92 126 165 207 255 308 362
#     4  10  22  40  62  89 124 162 204 255 310 368
#     4  12  25  42  65  91 124 164 207 255 309 366
#     4  11  22  39  64  89 122 162 204 255 311 370
#
# _framework density 10.243449
#
# number of rings (size 3 to 8) (size 9 to 14) (size 15 to 20)
#    0.000    1.250    1.250    4.500    1.750    5.500 
#    0.000    2.500    0.000    0.000    0.000    0.000 
#    0.000    0.000    0.000    0.000    0.000    0.000 
#
# Total GULP energy -178815.741195 kJ/mol
# GULP energy per Si atom -5587.991912 kJ/mol
# Density = 1.022013 g / cm^3
# Si number density = 10.243449 Si / 1000 Ang^3
#
#
#
# Elastic Constant Matrix: (Units=GPa)
#
#
# Indices 1 2 3 4 5 6 
#
# 1 12.9014 20.8900 0.5326 0.0000 -6.3829 0.0000
# 2 20.8900 122.5638 18.2596 0.0000 -5.7858 -0.0001
# 3 0.5326 18.2596 39.5420 0.0000 -4.9353 0.0000
# 4 0.0000 0.0000 0.0000 36.7122 0.0000 -5.7013
# 5 -6.3829 -5.7858 -4.9353 0.0000 35.5295 0.0000
# 6 0.0000 -0.0001 0.0000 -5.7013 0.0000 28.9405
#
#
#
# Elastic Compliance Matrix: (Units=1/GPa)
#
#
# Indices 1 2 3 4 5 6 
#
# 1 0.121469 -0.021362 0.010703 0.000000 0.019830 0.000000
# 2 -0.021362 0.012546 -0.005831 0.000000 -0.002605 0.000000
# 3 0.010703 -0.005831 0.028453 0.000000 0.004926 0.000000
# 4 0.000000 0.000000 0.000000 0.028099 0.000000 0.005535
# 5 0.019830 -0.002605 0.004926 0.000000 0.031968 0.000000
# 6 0.000000 0.000000 0.000000 0.005535 0.000000 0.035644
#
#
# Mechanical properties :
#
#
# Convention : Reuss Voigt Hill
#
# Bulk Modulus (GPa) = 7.72266 28.26350 17.99308
# Shear Modulus (GPa) = 14.95574 29.25810 22.10692
#
# Velocity S-wave (km/s) = 2.70481 3.78317 3.28849
# Velocity P-wave (km/s) = 3.67864 5.73664 4.81879
#
# Compressibility (1/GPa) = 0.12948900
#
# Stress axis : x y z
#
# Youngs Moduli (GPa) = 8.23254 79.70884 35.14620
#
# Poissons Ratio (x) = 1.70273 -0.37618
# Poissons Ratio (y) = 0.17586 0.20492
# Poissons Ratio (z) = -0.08811 0.46475
#
# Static dielectric constant tensor:
#      x y z
#    x 1.770990 0.000000 0.020750 
#    y 0.000000 1.704010 0.000000 
#    z 0.020750 0.000000 1.684360 
# 
# From -- ./inp_files/378458.got.cif
#   From: 2010.05.17/outbox.ucp.g08.bks.cvg/sg12_190_cif.got.tgz:378458.got - 2010.06.11 11:47:21.
