data_PCOD9225236
_publ_section_title
;
Structure prediction by ZEFSAII (Michael W. Deem and Ramdas Pophale) SiO2 
 PCOD9225236
Probable space group: C 2/M
;
_chemical_formula_sum "Si O2"
_cell_formula_units_Z 28
_cell_length_a 18.000000
_cell_length_b 9.000000
_cell_length_c 27.000000
_cell_angle_alpha 90.000000
_cell_angle_beta 40.000000
_cell_angle_gamma 90.000000
_cell_volume 2811.553005
_symmetry_space_group_name_H-M "C 2/M"
_symmetry_group_IT_number 12
_symmetry_cell_setting 'monoclinic'
loop_
_space_group_symop_operation_xyz
x,y,z
-x,y,-z
-x,-y,-z
x,-y,z
1/2+x,1/2+y,z
1/2-x,1/2+y,-z
1/2-x,1/2-y,-z
1/2+x,1/2-y,z
loop_
_atom_site_type_symbol
_atom_site_label
_atom_site_fract_x
_atom_site_fract_y
_atom_site_fract_z
Si Si1 0.880475 0.677307 0.664036
Si Si2 0.542084 0.823099 0.746151
Si Si3 0.203147 0.179029 0.953151
Si Si4 0.316558 0.820026 0.799847
Si Si5 0.356849 0.175013 0.473773
Si Si6 0.807159 0.823661 0.599263
Si Si7 0.427891 0.323435 0.889903
O O1 0.864816 0.500000 0.663171
O O2 0.806462 0.730596 0.748865
O O3 0.848952 0.763371 0.630560
O O4 0.013992 0.697694 0.612939
O O5 0.436934 0.770656 0.764656
O O6 0.670291 0.793909 0.661905
O O7 0.527932 0.751579 0.807427
O O8 0.528596 0.000000 0.757760
O O9 0.213554 0.216907 0.890210
O O10 0.310859 0.262422 0.923692
O O11 0.222421 0.000000 0.947969
O O12 0.090132 0.213247 0.043052
O O13 0.323339 0.000000 0.793526
O O14 0.250000 0.250000 0.500000
O O15 0.366468 0.239059 0.524075
O O16 0.334683 0.000000 0.485766
O O17 0.826543 0.000000 0.585975
O O18 0.435571 0.500000 0.880744
#
# Coordination Sequence:
#
# PCOD9225236 Si02
#       7
#     8   8   8   8   8   8   8
#     4  10  21  37  56  78 106 140 175 212 259 313
#     4   9  18  33  51  71  99 136 175 215 263 315
#     4   8  14  25  42  67 100 135 168 206 257 313
#     4   8  14  29  52  72  95 132 173 209 251 307
#     4  11  23  39  60  85 111 138 172 214 259 309
#     4  11  23  38  56  78 106 141 179 217 261 313
#     4   9  15  23  41  71 101 128 166 215 261 306
#
# _framework density 9.9589090000000002
#
# number of rings (size 3 to 8) (size 9 to 14) (size 15 to 20)
#    0.000    2.571    0.000    3.429    0.000    6.857 
#    0.000    2.857    0.000    0.857    0.000    6.000 
#    0.000    0.000    0.000    0.000    0.000    0.000 
#
# Total GULP energy -156036.750608 kJ/mol
# GULP energy per Si atom -5572.741093 kJ/mol
# Density = 0.993624 g / cm^3
# Si number density = 9.958909 Si / 1000 Ang^3
#
#
#
# Elastic Constant Matrix: (Units=GPa)
#
#
# Indices 1 2 3 4 5 6 
#
# 1 45.2159 -5.7428 1.1974 0.0000 27.3461 0.0001
# 2 -5.7428 -3.4064 16.4633 0.0001 2.5457 0.0004
# 3 1.1974 16.4633 79.0749 0.0000 39.6151 0.0000
# 4 0.0000 0.0001 0.0000 22.4921 0.0000 1.1900
# 5 27.3461 2.5457 39.6151 0.0000 26.4035 0.0000
# 6 0.0001 0.0004 0.0000 1.1900 0.0000 25.3310
#
#
#
# Elastic Compliance Matrix: (Units=1/GPa)
#
#
# Indices 1 2 3 4 5 6 
#
# 1 -0.025895 -0.037915 -0.028112 0.000000 0.072653 0.000001
# 2 -0.037915 -0.140313 0.013437 0.000000 0.032637 0.000002
# 3 -0.028112 0.013437 -0.014750 0.000000 0.049950 0.000000
# 4 0.000000 0.000000 0.000000 0.044571 0.000000 -0.002094
# 5 0.072653 0.032637 0.049950 0.000000 -0.115463 -0.000001
# 6 0.000001 0.000002 0.000000 -0.002094 -0.000001 0.039576
#
#
# Mechanical properties :
#
#
# Convention : Reuss Voigt Hill
#
# Bulk Modulus (GPa) = -3.49481 16.08001 6.29260
# Shear Modulus (GPa) = -24.69465 22.10977 -1.29244
#
# Velocity S-wave (km/s) = -3.52494 3.33536 -0.80641
# Velocity P-wave (km/s) = 4.28081 4.78785 1.51627
#
# Compressibility (1/GPa) = -0.28613843
#
# Stress axis : x y z
#
# Youngs Moduli (GPa) = -38.61773 -7.12691 -67.79860
#
# Poissons Ratio (x) = -0.27022 -1.90595
# Poissons Ratio (y) = -1.46420 0.91099
# Poissons Ratio (z) = -1.08562 0.09576
#
# Static dielectric constant tensor:
#      x y z
#    x 1.707080 0.000000 0.023260 
#    y 0.000000 1.669220 0.000000 
#    z 0.023260 0.000000 1.795000 
# 
# From -- ./inp_files/362990.got.cif
#   From: 2010.05.17/outbox.ucp.g08.bks.cvg/sg12_182_cif.got.tgz:362990.got - 2010.06.11 11:47:21.
