data_PCOD9225822
_publ_section_title
;
Structure prediction by ZEFSAII (Michael W. Deem and Ramdas Pophale) SiO2 
 PCOD9225822
Probable space group: C 2/M
;
_chemical_formula_sum "Si O2"
_cell_formula_units_Z 32
_cell_length_a 30.000000
_cell_length_b 15.000000
_cell_length_c 9.000000
_cell_angle_alpha 90.000000
_cell_angle_beta 120.000000
_cell_angle_gamma 90.000000
_cell_volume 3507.402885
_symmetry_space_group_name_H-M "C 2/M"
_symmetry_group_IT_number 12
_symmetry_cell_setting 'monoclinic'
loop_
_space_group_symop_operation_xyz
x,y,z
-x,y,-z
-x,-y,-z
x,-y,z
1/2+x,1/2+y,z
1/2-x,1/2+y,-z
1/2-x,1/2-y,-z
1/2+x,1/2-y,z
loop_
_atom_site_type_symbol
_atom_site_label
_atom_site_fract_x
_atom_site_fract_y
_atom_site_fract_z
Si Si1 0.969485 0.899343 0.719610
Si Si2 0.381449 0.725462 0.476951
Si Si3 0.803278 0.104354 0.166962
Si Si4 0.334274 0.270988 0.730734
Si Si5 0.262329 0.396283 0.768859
Si Si6 0.310338 0.103843 0.888719
Si Si7 0.648146 0.102598 0.711009
Si Si8 0.422349 0.399099 0.975291
O O1 0.934823 0.827293 0.580725
O O2 0.946832 0.901526 0.850303
O O3 0.963319 0.000000 0.649127
O O4 0.030067 0.879607 0.836191
O O5 0.344729 0.669344 0.306425
O O6 0.353396 0.730395 0.592161
O O7 0.387942 0.823317 0.419808
O O8 0.749395 0.116638 0.164711
O O9 0.817895 0.000000 0.206565
O O10 0.791844 0.121600 0.974171
O O11 0.283056 0.329635 0.678086
O O12 0.326508 0.174328 0.791042
O O13 0.378107 0.326190 0.893896
O O14 0.270632 0.500000 0.740749
O O15 0.202743 0.386264 0.715304
O O16 0.316953 0.000000 0.855423
O O17 0.340609 0.117560 0.095221
O O18 0.631922 0.000000 0.665604
O O19 0.403025 0.500000 0.974223
#
# Coordination Sequence:
#
# PCOD9225822 Si02
#       8
#     8   8   8   8   8   8   8   8
#     4   8  15  29  47  67  94 125 151 177 219 279
#     4  11  20  28  46  75  98 117 149 195 241 276
#     4   9  18  32  48  66  92 128 163 188 217 269
#     4  11  20  28  46  75  98 117 149 195 241 276
#     4   9  18  32  48  66  92 128 163 188 217 269
#     4   9  19  35  50  63  87 128 168 192 218 268
#     4   9  19  35  50  63  87 128 168 192 218 268
#     4   8  15  29  47  67  94 125 151 177 219 279
#
# _framework density 9.1235599999999994
#
# number of rings (size 3 to 8) (size 9 to 14) (size 15 to 20)
#    0.000    2.750    0.000    4.500    0.000    6.000 
#    0.000    2.500    0.000    3.750    0.000   14.000 
#    0.000    0.000    0.000    0.000    0.000    0.000 
#
# Total GULP energy -178616.590353 kJ/mol
# GULP energy per Si atom -5581.768449 kJ/mol
# Density = 0.910279 g / cm^3
# Si number density = 9.123560 Si / 1000 Ang^3
#
#
#
# Elastic Constant Matrix: (Units=GPa)
#
#
# Indices 1 2 3 4 5 6 
#
# 1 2.8225 -1.8851 -12.7718 0.0000 4.3737 0.0000
# 2 -1.8851 85.9626 40.2295 0.0000 15.5848 0.0000
# 3 -12.7718 40.2295 43.8798 0.0000 16.5222 0.0000
# 4 0.0000 0.0000 0.0000 22.9209 0.0000 4.2519
# 5 4.3737 15.5848 16.5222 0.0000 16.0054 0.0000
# 6 0.0000 0.0000 0.0000 4.2519 0.0000 17.6854
#
#
#
# Elastic Compliance Matrix: (Units=1/GPa)
#
#
# Indices 1 2 3 4 5 6 
#
# 1 -0.088343 0.016952 -0.072189 0.000000 0.082154 0.000000
# 2 0.016952 0.017130 -0.004492 0.000000 -0.016675 0.000000
# 3 -0.072189 -0.004492 -0.005199 0.000000 0.029468 0.000000
# 4 0.000000 0.000000 0.000000 0.045665 0.000000 -0.010979
# 5 0.082154 -0.016675 0.029468 0.000000 0.025846 0.000000
# 6 0.000000 0.000000 0.000000 -0.010979 0.000000 0.059183
#
#
# Mechanical properties :
#
#
# Convention : Reuss Voigt Hill
#
# Bulk Modulus (GPa) = -5.10541 20.42335 7.65897
# Shear Modulus (GPa) = 46.10375 18.46183 32.28279
#
# Velocity S-wave (km/s) = 5.03201 3.18428 4.21075
# Velocity P-wave (km/s) = 5.56395 4.97358 5.27703
#
# Compressibility (1/GPa) = -0.19587075
#
# Stress axis : x y z
#
# Youngs Moduli (GPa) = -11.31952 58.37640 -192.33667
#
# Poissons Ratio (x) = -0.98960 -13.88462
# Poissons Ratio (y) = 0.19189 -0.86404
# Poissons Ratio (z) = -0.81715 0.26225
#
# Static dielectric constant tensor:
#      x y z
#    x 1.617860 0.000000 0.008590 
#    y 0.000000 1.634710 0.000000 
#    z 0.008590 0.000000 1.636110 
# 
# From -- ./inp_files/111643.got.cif
#   From: 2010.05.17/outbox.ucp.g08.bks.cvg/sg12_56_cif.got.tgz:111643.got - 2010.06.11 11:47:21.
