data_PCOD9225691
_publ_section_title
;
Structure prediction by ZEFSAII (Michael W. Deem and Ramdas Pophale) SiO2 
 PCOD9225691
Probable space group: C 2/M
;
_chemical_formula_sum "Si O2"
_cell_formula_units_Z 21
_cell_length_a 30.000000
_cell_length_b 15.000000
_cell_length_c 30.000000
_cell_angle_alpha 90.000000
_cell_angle_beta 170.000000
_cell_angle_gamma 90.000000
_cell_volume 2344.250399
_symmetry_space_group_name_H-M "C 2/M"
_symmetry_group_IT_number 12
_symmetry_cell_setting 'monoclinic'
loop_
_space_group_symop_operation_xyz
x,y,z
-x,y,-z
-x,-y,-z
x,-y,z
1/2+x,1/2+y,z
1/2-x,1/2+y,-z
1/2-x,1/2-y,-z
1/2+x,1/2-y,z
loop_
_atom_site_type_symbol
_atom_site_label
_atom_site_fract_x
_atom_site_fract_y
_atom_site_fract_z
Si Si1 0.265553 0.605891 0.913719
Si Si2 0.754547 0.357395 0.002090
Si Si3 0.721310 0.225189 0.596900
Si Si4 0.251613 0.312924 0.278803
Si Si5 0.000000 0.000000 0.500000
Si Si6 0.217501 0.898195 0.527456
O O1 0.275486 0.500000 0.909963
O O2 0.229632 0.607971 0.931897
O O3 0.529983 0.661852 0.166547
O O4 0.030901 0.662491 0.659938
O O5 0.502696 0.387840 0.726988
O O6 0.750000 0.250000 0.000000
O O7 0.005148 0.388625 0.222257
O O8 0.760954 0.268984 0.684879
O O9 0.697046 0.312505 0.540455
O O10 0.500000 0.269550 0.500000
O O11 0.323904 0.418948 0.349820
O O12 0.000000 0.301646 0.000000
O O13 0.196777 0.000000 0.526165
#
# Coordination Sequence:
#
# PCOD9225691 Si02
#       6
#     8   8   8   8   2   8
#     4  12  25  42  66  89 125 174 218 264 307 362
#     4  12  22  43  59  87 129 171 215 260 311 362
#     4  12  24  42  65  96 126 160 213 266 307 375
#     4  10  22  41  65  96 130 159 201 246 318 389
#     4   8  22  40  70 100 120 176 194 240 314 428
#     4  12  24  38  61  92 129 166 205 260 319 373
#
# _framework density 8.9580870000000008
#
# number of rings (size 3 to 8) (size 9 to 14) (size 15 to 20)
#    0.571    0.000    3.810    5.429    1.333    0.000 
#    0.000    0.000    0.000   11.429    0.000    0.000 
#    0.000    0.000    0.000    0.000    0.000    0.000 
#
# Total GULP energy -116927.038527 kJ/mol
# GULP energy per Si atom -5567.954216 kJ/mol
# Density = 0.893770 g / cm^3
# Si number density = 8.958087 Si / 1000 Ang^3
#
#
#
# Elastic Constant Matrix: (Units=GPa)
#
#
# Indices 1 2 3 4 5 6 
#
# 1 97.1153 40.8961 37.5622 0.0360 -19.8661 0.0505
# 2 40.8961 175.1490 53.7432 0.0446 -7.9351 0.0473
# 3 37.5622 53.7432 150.5111 0.1970 -14.9452 0.1981
# 4 0.0360 0.0446 0.1970 11.9188 0.0551 2.0009
# 5 -19.8661 -7.9351 -14.9452 0.0551 28.3248 0.0845
# 6 0.0505 0.0473 0.1981 2.0009 0.0845 23.2375
#
#
#
# Elastic Compliance Matrix: (Units=1/GPa)
#
#
# Indices 1 2 3 4 5 6 
#
# 1 0.013564 -0.002258 -0.001791 -0.000034 0.007936 -0.000036
# 2 -0.002258 0.006798 -0.001933 0.000015 -0.000699 0.000009
# 3 -0.001791 -0.001933 0.008023 -0.000121 0.002436 -0.000059
# 4 -0.000034 0.000015 -0.000121 0.085135 -0.000227 -0.007329
# 5 0.007936 -0.000699 0.002436 -0.000227 0.041961 -0.000170
# 6 -0.000036 0.000009 -0.000059 -0.007329 -0.000170 0.043666
#
#
# Mechanical properties :
#
#
# Convention : Reuss Voigt Hill
#
# Bulk Modulus (GPa) = 60.89636 76.35314 68.62475
# Shear Modulus (GPa) = 23.08554 32.06782 27.57668
#
# Velocity S-wave (km/s) = 3.59350 4.23529 3.92753
# Velocity P-wave (km/s) = 7.16108 8.16249 7.67813
#
# Compressibility (1/GPa) = 0.01642134
#
# Stress axis : x y z
#
# Youngs Moduli (GPa) = 73.72460 147.09720 124.63502
#
# Poissons Ratio (x) = 0.33216 0.22318
# Poissons Ratio (y) = 0.16648 0.24097
# Poissons Ratio (z) = 0.13202 0.28440
#
# Static dielectric constant tensor:
#      x y z
#    x 1.623500 -0.000040 0.019750 
#    y -0.000040 1.623680 -0.000190 
#    z 0.019750 -0.000190 1.615450 
# 
# From -- ./inp_files/385297.got.cif
#   From: 2010.05.17/outbox.ucp.g08.bks.cvg/sg12_193_cif.got.tgz:385297.got - 2010.06.11 11:47:21.
