data_PCOD9225543
_publ_section_title
;
Structure prediction by ZEFSAII (Michael W. Deem and Ramdas Pophale) SiO2 
 PCOD9225543
Probable space group: C 2/M
;
_chemical_formula_sum "Si O2"
_cell_formula_units_Z 32
_cell_length_a 15.000000
_cell_length_b 27.000000
_cell_length_c 9.000000
_cell_angle_alpha 90.000000
_cell_angle_beta 110.000000
_cell_angle_gamma 90.000000
_cell_volume 3425.179603
_symmetry_space_group_name_H-M "C 2/M"
_symmetry_group_IT_number 12
_symmetry_cell_setting 'monoclinic'
loop_
_space_group_symop_operation_xyz
x,y,z
-x,y,-z
-x,-y,-z
x,-y,z
1/2+x,1/2+y,z
1/2-x,1/2+y,-z
1/2-x,1/2-y,-z
1/2+x,1/2-y,z
loop_
_atom_site_type_symbol
_atom_site_label
_atom_site_fract_x
_atom_site_fract_y
_atom_site_fract_z
Si Si1 0.901631 0.868998 0.020054
Si Si2 0.888153 0.295244 0.280319
Si Si3 0.097311 0.586044 0.131026
Si Si4 0.223009 0.443125 0.953293
Si Si5 0.610901 0.201254 0.056662
Si Si6 0.999622 0.191636 0.339825
Si Si7 0.684514 0.291092 0.263433
Si Si8 0.969547 0.404446 0.323358
O O1 0.939419 0.840686 0.188430
O O2 0.816728 0.908895 0.991117
O O3 0.856375 0.826911 0.888545
O O4 0.000000 0.888326 0.000000
O O5 0.948791 0.245230 0.329358
O O6 0.797577 0.299345 0.337905
O O7 0.951148 0.345011 0.321114
O O8 0.851359 0.293485 0.088775
O O9 0.110244 0.643853 0.097693
O O10 0.063272 0.584502 0.279470
O O11 0.184691 0.559857 0.101765
O O12 0.000000 0.567309 0.000000
O O13 0.243073 0.500000 0.925487
O O14 0.130125 0.424609 0.804043
O O15 0.669635 0.234908 0.200973
O O16 0.500000 0.218262 0.000000
O O17 0.000000 0.166560 0.500000
O O18 0.108804 0.199410 0.350769
O O19 0.000000 0.423922 0.500000
#
# Coordination Sequence:
#
# PCOD9225543 Si02
#       8
#     8   8   8   8   8   8   8   8
#     4  10  21  41  64  82 116 159 200 245 295 344
#     4  12  20  33  58  86 124 159 200 236 276 343
#     4   9  18  34  57  80 116 153 190 230 285 346
#     4  11  23  41  65  92 110 143 207 250 296 363
#     4  11  15  30  55  83 112 154 199 233 269 330
#     4  11  24  38  53  88 128 158 196 244 289 343
#     4  11  20  34  60  83 114 165 203 233 280 349
#     4  11  22  38  58  90 128 159 183 237 301 354
#
# _framework density 9.3425759999999993
#
# number of rings (size 3 to 8) (size 9 to 14) (size 15 to 20)
#    0.000    1.250    7.500    1.125    1.750    3.250 
#    2.250    0.000    0.000    0.375    0.000    0.000 
#    0.000    0.000    0.000    0.000    0.000    0.000 
#
# Total GULP energy -178452.177666 kJ/mol
# GULP energy per Si atom -5576.630552 kJ/mol
# Density = 0.932131 g / cm^3
# Si number density = 9.342576 Si / 1000 Ang^3
#
#
#
# Elastic Constant Matrix: (Units=GPa)
#
#
# Indices 1 2 3 4 5 6 
#
# 1 136.7260 34.1892 41.1185 0.0000 -16.3472 0.0000
# 2 34.1892 75.6314 19.3694 0.0000 1.1301 0.0000
# 3 41.1185 19.3694 76.3629 0.0000 -21.3911 0.0000
# 4 0.0000 0.0000 0.0000 -1.0981 0.0000 -0.2038
# 5 -16.3472 1.1301 -21.3911 0.0000 14.1516 0.0000
# 6 0.0000 0.0000 0.0000 -0.2038 0.0000 12.5486
#
#
#
# Elastic Compliance Matrix: (Units=1/GPa)
#
#
# Indices 1 2 3 4 5 6 
#
# 1 0.009994 -0.004221 -0.001704 0.000000 0.009306 0.000000
# 2 -0.004221 0.017061 -0.006595 0.000000 -0.016206 0.000000
# 3 -0.001704 -0.006595 0.026505 0.000000 0.038622 0.000000
# 4 0.000000 0.000000 0.000000 -0.907967 0.000000 -0.014748
# 5 0.009306 -0.016206 0.038622 0.000000 0.141087 0.000000
# 6 0.000000 0.000000 0.000000 -0.014748 0.000000 0.079451
#
#
# Mechanical properties :
#
#
# Convention : Reuss Voigt Hill
#
# Bulk Modulus (GPa) = 35.06165 53.11939 44.09052
# Shear Modulus (GPa) = -8.34274 18.05664 4.85695
#
# Velocity S-wave (km/s) = -2.11532 3.11201 1.61400
# Velocity P-wave (km/s) = 3.58316 6.43453 5.20779
#
# Compressibility (1/GPa) = 0.02852119
#
# Stress axis : x y z
#
# Youngs Moduli (GPa) = 100.05536 58.61313 37.72935
#
# Poissons Ratio (x) = 0.24738 0.06430
# Poissons Ratio (y) = 0.42230 0.24881
# Poissons Ratio (z) = 0.17051 0.38653
#
# Static dielectric constant tensor:
#      x y z
#    x 1.687760 0.000000 -0.034190 
#    y 0.000000 1.635520 0.000000 
#    z -0.034190 0.000000 1.706550 
# 
# From -- ./inp_files/67006.got.cif
#   From: 2010.05.17/outbox.ucp.g08.bks.cvg/sg12_34_cif.got.tgz:67006.got - 2010.06.11 11:47:21.
