data_PCOD9225791
_publ_section_title
;
Structure prediction by ZEFSAII (Michael W. Deem and Ramdas Pophale) SiO2 
 PCOD9225791
Probable space group: C 2/M
;
_chemical_formula_sum "Si O2"
_cell_formula_units_Z 28
_cell_length_a 30.000000
_cell_length_b 9.000000
_cell_length_c 12.000000
_cell_angle_alpha 90.000000
_cell_angle_beta 120.000000
_cell_angle_gamma 90.000000
_cell_volume 2805.922308
_symmetry_space_group_name_H-M "C 2/M"
_symmetry_group_IT_number 12
_symmetry_cell_setting 'monoclinic'
loop_
_space_group_symop_operation_xyz
x,y,z
-x,y,-z
-x,-y,-z
x,-y,z
1/2+x,1/2+y,z
1/2-x,1/2+y,-z
1/2-x,1/2-y,-z
1/2+x,1/2-y,z
loop_
_atom_site_type_symbol
_atom_site_label
_atom_site_fract_x
_atom_site_fract_y
_atom_site_fract_z
Si Si1 0.533608 0.177236 0.442795
Si Si2 0.002199 0.832499 0.189040
Si Si3 0.693524 0.322559 0.918953
Si Si4 0.648851 0.820914 0.638627
Si Si5 0.085757 0.831889 0.103039
Si Si6 0.267468 0.323717 0.406260
Si Si7 0.674077 0.169927 0.118778
O O1 0.500000 0.241106 0.500000
O O2 0.508204 0.219920 0.295473
O O3 0.591700 0.226666 0.533531
O O4 0.534625 0.000000 0.452352
O O5 0.051008 0.819284 0.168594
O O6 0.001218 0.000000 0.233198
O O7 0.952756 0.814250 0.049259
O O8 0.696744 0.500000 0.911213
O O9 0.834121 0.247685 0.223049
O O10 0.668311 0.276461 0.005111
O O11 0.750000 0.250000 0.000000
O O12 0.684304 0.762167 0.583626
O O13 0.652351 0.000000 0.653232
O O14 0.128705 0.708907 0.146705
O O15 0.107510 0.000000 0.127318
O O16 0.276652 0.500000 0.433464
O O17 0.250000 0.250000 0.500000
O O18 0.225413 0.307952 0.254749
O O19 0.672429 0.000000 0.077754
#
# Coordination Sequence:
#
# PCOD9225791 Si02
#       7
#     8   8   8   8   8   8   8
#     4  10  24  43  62  89 125 164 207 257 311 366
#     4   9  20  40  63  89 122 159 204 255 311 370
#     4  12  24  41  65  92 124 160 204 252 306 364
#     4  11  24  43  66  92 127 167 210 259 314 373
#     4   9  20  39  62  91 124 158 200 256 313 366
#     4  11  25  43  64  92 129 168 212 258 311 375
#     4  11  24  40  62  93 125 162 207 253 308 371
#
# _framework density 9.9788940000000004
#
# number of rings (size 3 to 8) (size 9 to 14) (size 15 to 20)
#    0.000    1.571    1.429    3.429    4.000    4.286 
#    0.000    1.429    0.000    0.000    0.000    0.000 
#    0.000    0.000    0.000    0.000    0.000    0.000 
#
# Total GULP energy -156361.945503 kJ/mol
# GULP energy per Si atom -5584.355197 kJ/mol
# Density = 0.995618 g / cm^3
# Si number density = 9.978894 Si / 1000 Ang^3
#
#
#
# Elastic Constant Matrix: (Units=GPa)
#
#
# Indices 1 2 3 4 5 6 
#
# 1 74.2474 37.8579 2.9738 0.0000 -1.1201 0.0000
# 2 37.8579 64.1806 12.8706 0.0000 -16.5578 0.0000
# 3 2.9738 12.8706 14.6139 0.0000 -45.0349 0.0000
# 4 0.0000 0.0000 0.0000 7.8031 0.0000 -13.1501
# 5 -1.1201 -16.5578 -45.0349 0.0000 3.5540 0.0000
# 6 0.0000 0.0000 0.0000 -13.1501 0.0000 4.5013
#
#
#
# Elastic Compliance Matrix: (Units=1/GPa)
#
#
# Indices 1 2 3 4 5 6 
#
# 1 0.019795 -0.012762 0.004121 0.000000 -0.001003 0.000000
# 2 -0.012762 0.025835 -0.008893 0.000000 0.003655 0.000000
# 3 0.004121 -0.008893 0.001268 0.000000 -0.024063 0.000000
# 4 0.000000 0.000000 0.000000 -0.032665 0.000000 -0.095428
# 5 -0.001003 0.003655 -0.024063 0.000000 -0.006830 0.000000
# 6 0.000000 0.000000 0.000000 -0.095428 0.000000 -0.056625
#
#
# Mechanical properties :
#
#
# Convention : Reuss Voigt Hill
#
# Bulk Modulus (GPa) = 84.52652 28.93851 56.73251
# Shear Modulus (GPa) = -489.66728 9.79433 -239.93648
#
# Velocity S-wave (km/s) = -15.68069 2.21770 -10.97647
# Velocity P-wave (km/s) = 16.89381 4.59227 11.49591
#
# Compressibility (1/GPa) = 0.01183061
#
# Stress axis : x y z
#
# Youngs Moduli (GPa) = 50.51701 38.70729 788.57666
#
# Poissons Ratio (x) = 0.49397 -3.24935
# Poissons Ratio (y) = 0.64468 7.01264
# Poissons Ratio (z) = -0.20816 0.34422
#
# Static dielectric constant tensor:
#      x y z
#    x 1.751230 0.000000 -0.010060 
#    y 0.000000 1.677650 0.000000 
#    z -0.010060 0.000000 1.651370 
# 
# From -- ./inp_files/187732.got.cif
#   From: 2010.05.17/outbox.ucp.g08.bks.cvg/sg12_94_cif.got.tgz:187732.got - 2010.06.11 11:47:21.
