data_PCOD9225950
_publ_section_title
;
Structure prediction by ZEFSAII (Michael W. Deem and Ramdas Pophale) SiO2 
 PCOD9225950
Probable space group: C 2/M
;
_chemical_formula_sum "Si O2"
_cell_formula_units_Z 20
_cell_length_a 24.000000
_cell_length_b 9.000000
_cell_length_c 18.000000
_cell_angle_alpha 90.000000
_cell_angle_beta 150.000000
_cell_angle_gamma 90.000000
_cell_volume 1944.000000
_symmetry_space_group_name_H-M "C 2/M"
_symmetry_group_IT_number 12
_symmetry_cell_setting 'monoclinic'
loop_
_space_group_symop_operation_xyz
x,y,z
-x,y,-z
-x,-y,-z
x,-y,z
1/2+x,1/2+y,z
1/2-x,1/2+y,-z
1/2-x,1/2-y,-z
1/2+x,1/2-y,z
loop_
_atom_site_type_symbol
_atom_site_label
_atom_site_fract_x
_atom_site_fract_y
_atom_site_fract_z
Si Si1 0.649134 0.674514 0.580352
Si Si2 0.584978 0.325251 0.776362
Si Si3 0.455126 0.820397 0.109702
Si Si4 0.727582 0.821284 0.815785
Si Si5 0.306341 0.319704 0.638972
O O1 0.679708 0.500000 0.624384
O O2 0.528316 0.678292 0.402596
O O3 0.651987 0.757697 0.662133
O O4 0.734082 0.760400 0.624356
O O5 0.612267 0.500000 0.822100
O O6 0.560880 0.237862 0.824331
O O7 0.678846 0.243774 0.836318
O O8 0.569773 0.747863 0.213882
O O9 0.457436 0.000000 0.108997
O O10 0.349338 0.751045 0.945167
O O11 0.731358 0.000000 0.820884
O O12 0.307727 0.500000 0.636531
O O13 0.250000 0.250000 0.500000
#
# Coordination Sequence:
#
# PCOD9225950 Si02
#       5
#     8   8   8   8   8
#     4  11  24  43  68  97 131 171 217 267 321 381
#     4  11  23  42  68  96 131 172 218 266 320 385
#     4  12  25  43  68  96 130 171 219 268 323 382
#     4  12  26  43  64  95 135 172 216 268 326 386
#     4  12  24  42  68  98 130 167 215 265 320 382
#
# _framework density 10.288066000000001
#
# number of rings (size 3 to 8) (size 9 to 14) (size 15 to 20)
#    0.000    0.400    2.000    7.800    0.000    5.600 
#    0.000    4.000    0.000    0.000    0.000    0.000 
#    0.000    0.000    0.000    0.000    0.000    0.000 
#
# Total GULP energy -112024.888495 kJ/mol
# GULP energy per Si atom -5601.244425 kJ/mol
# Density = 1.026465 g / cm^3
# Si number density = 10.288066 Si / 1000 Ang^3
#
#
#
# Elastic Constant Matrix: (Units=GPa)
#
#
# Indices 1 2 3 4 5 6 
#
# 1 67.1302 25.0743 -6.1283 0.0000 12.7584 0.0000
# 2 25.0743 232.1426 31.8672 0.0000 13.9304 0.0000
# 3 -6.1283 31.8672 69.9972 0.0000 12.0183 0.0000
# 4 0.0000 0.0000 0.0000 35.2640 0.0000 0.0417
# 5 12.7584 13.9304 12.0183 0.0000 42.6766 0.0000
# 6 0.0000 0.0000 0.0000 0.0417 0.0000 39.0799
#
#
#
# Elastic Compliance Matrix: (Units=1/GPa)
#
#
# Indices 1 2 3 4 5 6 
#
# 1 0.016948 -0.001962 0.003296 0.000000 -0.005355 0.000000
# 2 -0.001962 0.004859 -0.002325 0.000000 -0.000345 0.000000
# 3 0.003296 -0.002325 0.016468 0.000000 -0.004864 0.000000
# 4 0.000000 0.000000 0.000000 0.028358 0.000000 -0.000030
# 5 -0.005355 -0.000345 -0.004864 0.000000 0.026515 0.000000
# 6 0.000000 0.000000 0.000000 -0.000030 0.000000 0.025589
#
#
# Mechanical properties :
#
#
# Convention : Reuss Voigt Hill
#
# Bulk Modulus (GPa) = 27.55200 52.32182 39.93691
# Shear Modulus (GPa) = 37.64603 44.63455 41.14029
#
# Velocity S-wave (km/s) = 4.28202 4.66256 4.47634
# Velocity P-wave (km/s) = 6.15361 7.38035 6.79472
#
# Compressibility (1/GPa) = 0.03629500
#
# Stress axis : x y z
#
# Youngs Moduli (GPa) = 59.00487 205.78522 60.72205
#
# Poissons Ratio (x) = 0.40370 -0.20016
# Poissons Ratio (y) = 0.11575 0.14117
# Poissons Ratio (z) = -0.19450 0.47842
#
# Static dielectric constant tensor:
#      x y z
#    x 1.728250 0.000000 -0.008900 
#    y 0.000000 1.675630 0.000000 
#    z -0.008900 0.000000 1.768350 
# 
# From -- ./inp_files/162726.got.cif
#   From: 2010.05.17/outbox.ucp.g08.bks.cvg/sg12_82_cif.got.tgz:162726.got - 2010.06.11 11:47:21.
