data_PCOD9225518
_publ_section_title
;
Structure prediction by ZEFSAII (Michael W. Deem and Ramdas Pophale) SiO2 
 PCOD9225518
Probable space group: C 2/M
;
_chemical_formula_sum "Si O2"
_cell_formula_units_Z 32
_cell_length_a 12.000000
_cell_length_b 15.000000
_cell_length_c 18.000000
_cell_angle_alpha 90.000000
_cell_angle_beta 90.000000
_cell_angle_gamma 90.000000
_cell_volume 3240.000000
_symmetry_space_group_name_H-M "C 2/M"
_symmetry_group_IT_number 12
_symmetry_cell_setting 'monoclinic'
loop_
_space_group_symop_operation_xyz
x,y,z
-x,y,-z
-x,-y,-z
x,-y,z
1/2+x,1/2+y,z
1/2-x,1/2+y,-z
1/2-x,1/2-y,-z
1/2+x,1/2-y,z
loop_
_atom_site_type_symbol
_atom_site_label
_atom_site_fract_x
_atom_site_fract_y
_atom_site_fract_z
Si Si1 0.194534 0.102852 0.790713
Si Si2 0.447551 0.204296 0.362805
Si Si3 0.267081 0.890512 0.957956
Si Si4 0.098540 0.216687 0.058827
Si Si5 0.165317 0.828309 0.521842
Si Si6 0.793481 0.105987 0.640144
Si Si7 0.674800 0.103260 0.354434
Si Si8 0.961326 0.819611 0.766398
O O1 0.212404 0.131061 0.876475
O O2 0.270099 0.142036 0.722650
O O3 0.064241 0.111798 0.772871
O O4 0.226318 0.000000 0.790730
O O5 0.427716 0.280211 0.426103
O O6 0.331400 0.149013 0.360828
O O7 0.561323 0.151117 0.380178
O O8 0.476540 0.241186 0.280285
O O9 0.370672 0.821377 0.953821
O O10 0.281844 0.000000 0.963785
O O11 0.194879 0.850001 0.026659
O O12 0.075914 0.201569 0.147884
O O13 0.000000 0.196891 0.000000
O O14 0.250000 0.750000 0.500000
O O15 0.149556 0.875140 0.441318
O O16 0.232927 0.888430 0.581033
O O17 0.865595 0.146366 0.709085
O O18 0.785227 0.000000 0.649643
O O19 0.647803 0.000000 0.342767
#
# Coordination Sequence:
#
# PCOD9225518 Si02
#       8
#     8   8   8   8   8   8   8   8
#     4  10  21  40  65  96 128 171 217 262 317 381
#     4  11  23  41  68  93 127 168 215 264 321 381
#     4  10  23  42  67  98 136 169 212 267 321 387
#     4  11  24  42  69  99 129 171 217 263 326 392
#     4  10  22  40  62  91 125 163 214 259 321 381
#     4  11  26  44  63  94 130 167 212 269 328 384
#     4  11  22  40  64  93 126 167 216 266 315 378
#     4  12  24  41  67  94 132 168 214 264 320 386
#
# _framework density 9.8765429999999999
#
# number of rings (size 3 to 8) (size 9 to 14) (size 15 to 20)
#    0.000    1.250    2.500    3.375    1.750    6.000 
#    0.000    4.375    0.000    0.000    0.000    0.000 
#    0.000    0.000    0.000    0.000    0.000    0.000 
#
# Total GULP energy -178325.679913 kJ/mol
# GULP energy per Si atom -5572.677497 kJ/mol
# Density = 0.985406 g / cm^3
# Si number density = 9.876543 Si / 1000 Ang^3
#
#
#
# Elastic Constant Matrix: (Units=GPa)
#
#
# Indices 1 2 3 4 5 6 
#
# 1 117.3573 38.8441 60.5847 0.0000 -14.7880 0.0000
# 2 38.8441 96.7700 38.2663 0.0000 -10.9598 0.0000
# 3 60.5847 38.2663 182.6429 0.0000 -20.8104 0.0000
# 4 0.0000 0.0000 0.0000 32.0340 0.0000 0.5504
# 5 -14.7880 -10.9598 -20.8104 0.0000 40.6263 0.0000
# 6 0.0000 0.0000 0.0000 0.5504 0.0000 34.0220
#
#
#
# Elastic Compliance Matrix: (Units=1/GPa)
#
#
# Indices 1 2 3 4 5 6 
#
# 1 0.011284 -0.003193 -0.002872 0.000000 0.001775 0.000000
# 2 -0.003193 0.012317 -0.001354 0.000000 0.001467 0.000000
# 3 -0.002872 -0.001354 0.006957 0.000000 0.002153 0.000000
# 4 0.000000 0.000000 0.000000 0.031226 0.000000 -0.000505
# 5 0.001775 0.001467 0.002153 0.000000 0.026759 0.000000
# 6 0.000000 0.000000 0.000000 -0.000505 0.000000 0.029401
#
#
# Mechanical properties :
#
#
# Convention : Reuss Voigt Hill
#
# Bulk Modulus (GPa) = 63.61379 74.68449 69.14914
# Shear Modulus (GPa) = 36.22620 38.60813 37.41716
#
# Velocity S-wave (km/s) = 4.28711 4.42581 4.35701
# Velocity P-wave (km/s) = 7.53526 8.00051 7.77137
#
# Compressibility (1/GPa) = 0.01571986
#
# Stress axis : x y z
#
# Youngs Moduli (GPa) = 88.62096 81.18788 143.74322
#
# Poissons Ratio (x) = 0.25922 0.41281
# Poissons Ratio (y) = 0.28295 0.19468
# Poissons Ratio (z) = 0.25451 0.10996
#
# Static dielectric constant tensor:
#      x y z
#    x 1.734990 0.000000 0.014760 
#    y 0.000000 1.747510 0.000000 
#    z 0.014760 0.000000 1.725670 
# 
# From -- ./inp_files/263335.got.cif
#   From: 2010.05.17/outbox.ucp.g08.bks.cvg/sg12_132_cif.got.tgz:263335.got - 2010.06.11 11:47:21.
