data_PCOD9225350
_publ_section_title
;
Structure prediction by ZEFSAII (Michael W. Deem and Ramdas Pophale) SiO2 
 PCOD9225350
Probable space group: C 2/M
;
_chemical_formula_sum "Si O2"
_cell_formula_units_Z 32
_cell_length_a 15.000000
_cell_length_b 9.000000
_cell_length_c 30.000000
_cell_angle_alpha 90.000000
_cell_angle_beta 50.000000
_cell_angle_gamma 90.000000
_cell_volume 3102.479995
_symmetry_space_group_name_H-M "C 2/M"
_symmetry_group_IT_number 12
_symmetry_cell_setting 'monoclinic'
loop_
_space_group_symop_operation_xyz
x,y,z
-x,y,-z
-x,-y,-z
x,-y,z
1/2+x,1/2+y,z
1/2-x,1/2+y,-z
1/2-x,1/2-y,-z
1/2+x,1/2-y,z
loop_
_atom_site_type_symbol
_atom_site_label
_atom_site_fract_x
_atom_site_fract_y
_atom_site_fract_z
Si Si1 0.623681 0.321086 0.443180
Si Si2 0.870438 0.679000 0.944558
Si Si3 0.376876 0.821984 0.376319
Si Si4 0.892309 0.178702 0.108885
Si Si5 0.419904 0.675073 0.644008
Si Si6 0.543037 0.675731 0.741606
Si Si7 0.679709 0.675897 0.131070
Si Si8 0.307940 0.177595 0.227811
O O1 0.500000 0.261449 0.500000
O O2 0.619835 0.500000 0.450509
O O3 0.743918 0.270917 0.426719
O O4 0.633944 0.293575 0.387052
O O5 0.869894 0.500000 0.947085
O O6 0.878995 0.737435 0.891006
O O7 0.980170 0.748186 0.935280
O O8 0.750000 0.750000 0.000000
O O9 0.465568 0.770783 0.385552
O O10 0.424744 0.745566 0.315963
O O11 0.378080 0.000000 0.370455
O O12 0.802346 0.248223 0.102556
O O13 0.842096 0.231588 0.172975
O O14 0.897817 0.000000 0.104265
O O15 0.449867 0.500000 0.635666
O O16 0.323937 0.701755 0.712929
O O17 0.572168 0.500000 0.733230
O O18 0.407287 0.687582 0.798881
O O19 0.613326 0.763999 0.756903
O O20 0.692359 0.500000 0.116584
O O21 0.324476 0.000000 0.215016
#
# Coordination Sequence:
#
# PCOD9225350 Si02
#       8
#     8   8   8   8   8   8   8   8
#     4   9  19  38  60  81 113 159 205 250 304 364
#     4  12  26  46  70  95 127 168 213 264 313 366
#     4  11  22  37  59  89 119 156 202 249 303 368
#     4  12  25  42  65  97 131 168 210 254 311 373
#     4  10  21  38  59  87 120 158 199 248 306 366
#     4  11  22  37  62  92 126 162 199 249 309 370
#     4  11  24  43  66  96 129 165 210 258 312 372
#     4  11  21  37  62  91 125 163 204 248 307 371
#
# _framework density 10.314329000000001
#
# number of rings (size 3 to 8) (size 9 to 14) (size 15 to 20)
#    0.000    1.125    2.500    4.500    0.000    6.500 
#    0.000    2.500    0.000    2.625    0.000    0.000 
#    0.000    0.000    0.000    0.000    0.000    0.000 
#
# Total GULP energy -178949.541481 kJ/mol
# GULP energy per Si atom -5592.173171 kJ/mol
# Density = 1.029085 g / cm^3
# Si number density = 10.314329 Si / 1000 Ang^3
#
#
#
# Elastic Constant Matrix: (Units=GPa)
#
#
# Indices 1 2 3 4 5 6 
#
# 1 100.8059 39.9642 -2.7218 0.0000 -39.7723 0.0000
# 2 39.9642 121.6203 19.5838 0.0000 -24.7464 0.0000
# 3 -2.7218 19.5838 54.3543 0.0000 -31.0211 0.0000
# 4 0.0000 0.0000 0.0000 22.4778 0.0000 -2.0018
# 5 -39.7723 -24.7464 -31.0211 0.0000 32.2226 0.0000
# 6 0.0000 0.0000 0.0000 -2.0018 0.0000 36.2039
#
#
#
# Elastic Compliance Matrix: (Units=1/GPa)
#
#
# Indices 1 2 3 4 5 6 
#
# 1 -0.058770 0.001338 -0.098186 0.000000 -0.166037 0.000000
# 2 0.001338 0.009785 0.003935 0.000000 0.012954 0.000000
# 3 -0.098186 0.003935 -0.122909 0.000000 -0.236494 0.000000
# 4 0.000000 0.000000 0.000000 0.044708 0.000000 0.002472
# 5 -0.166037 0.012954 -0.236494 0.000000 -0.391633 0.000000
# 6 0.000000 0.000000 0.000000 0.002472 0.000000 0.027758
#
#
# Mechanical properties :
#
#
# Convention : Reuss Voigt Hill
#
# Bulk Modulus (GPa) = -2.79548 43.38144 20.29298
# Shear Modulus (GPa) = -11.77927 32.84450 10.53261
#
# Velocity S-wave (km/s) = -2.39218 3.99454 2.26206
# Velocity P-wave (km/s) = 2.99802 6.50772 4.08426
#
# Compressibility (1/GPa) = -0.35772012
#
# Stress axis : x y z
#
# Youngs Moduli (GPa) = -17.01541 102.19861 -8.13611
#
# Poissons Ratio (x) = -0.13675 -0.79885
# Poissons Ratio (y) = 0.02277 0.03201
# Poissons Ratio (z) = -1.67067 -0.40213
#
# Static dielectric constant tensor:
#      x y z
#    x 1.754890 0.000000 -0.007060 
#    y 0.000000 1.681330 0.000000 
#    z -0.007060 0.000000 1.762400 
# 
# From -- ./inp_files/375406.got.cif
#   From: 2010.05.17/outbox.ucp.g08.bks.cvg/sg12_188_cif.got.tgz:375406.got - 2010.06.11 11:47:21.
