data_PCOD9225176
_publ_section_title
;
Structure prediction by ZEFSAII (Michael W. Deem and Ramdas Pophale) SiO2 
 PCOD9225176
Probable space group: C 2/M
;
_chemical_formula_sum "Si O2"
_cell_formula_units_Z 28
_cell_length_a 30.000000
_cell_length_b 9.000000
_cell_length_c 12.000000
_cell_angle_alpha 90.000000
_cell_angle_beta 120.000000
_cell_angle_gamma 90.000000
_cell_volume 2805.922308
_symmetry_space_group_name_H-M "C 2/M"
_symmetry_group_IT_number 12
_symmetry_cell_setting 'monoclinic'
loop_
_space_group_symop_operation_xyz
x,y,z
-x,y,-z
-x,-y,-z
x,-y,z
1/2+x,1/2+y,z
1/2-x,1/2+y,-z
1/2-x,1/2-y,-z
1/2+x,1/2-y,z
loop_
_atom_site_type_symbol
_atom_site_label
_atom_site_fract_x
_atom_site_fract_y
_atom_site_fract_z
Si Si1 0.095635 0.673679 0.508530
Si Si2 0.172667 0.176261 0.456157
Si Si3 0.721188 0.821844 0.301754
Si Si4 0.122284 0.168821 0.756622
Si Si5 0.530949 0.826773 0.924631
Si Si6 0.351762 0.823135 0.985771
Si Si7 0.997870 0.832737 0.329733
O O1 0.099263 0.500000 0.503303
O O2 0.120580 0.751611 0.433204
O O3 0.126967 0.731580 0.653967
O O4 0.036695 0.724896 0.440633
O O5 0.219201 0.212971 0.600471
O O6 0.189980 0.242090 0.360496
O O7 0.167890 0.000000 0.444355
O O8 0.715348 0.000000 0.306700
O O9 0.695251 0.780299 0.152841
O O10 0.148018 0.235722 0.898362
O O11 0.060929 0.168964 0.703961
O O12 0.138874 0.000000 0.755726
O O13 0.592516 0.796500 0.004227
O O14 0.506074 0.720655 0.802082
O O15 0.525809 0.000000 0.882116
O O16 0.500000 0.810412 0.000000
O O17 0.349198 0.000000 0.004069
O O18 0.017887 0.000000 0.367594
#
# Coordination Sequence:
#
# PCOD9225176 Si02
#       7
#     8   8   8   8   8   8   8
#     4  12  24  37  57  81 109 145 189 233 278 330
#     4  10  21  37  57  84 114 144 184 232 280 328
#     4   9  19  37  60  84 113 148 184 226 276 331
#     4  10  21  38  57  81 113 146 183 227 275 329
#     4   9  18  31  49  78 113 148 183 220 263 320
#     4   9  18  34  56  80 110 147 185 221 268 327
#     4  10  21  36  54  79 111 147 183 225 276 327
#
# _framework density 9.9788940000000004
#
# number of rings (size 3 to 8) (size 9 to 14) (size 15 to 20)
#    0.000    2.143    0.000    3.000    2.000    4.857 
#    0.000    0.714    0.000    0.000    0.000    0.000 
#    0.000    0.000    0.000    0.000    0.000    0.000 
#
# Total GULP energy -156295.270639 kJ/mol
# GULP energy per Si atom -5581.973951 kJ/mol
# Density = 0.995618 g / cm^3
# Si number density = 9.978894 Si / 1000 Ang^3
#
#
#
# Elastic Constant Matrix: (Units=GPa)
#
#
# Indices 1 2 3 4 5 6 
#
# 1 24.3513 12.9999 -5.4557 0.0000 -7.4705 0.0000
# 2 12.9999 -53.6174 4.2563 0.0000 5.8388 0.0000
# 3 -5.4557 4.2563 69.5340 0.0000 12.0924 0.0000
# 4 0.0000 0.0000 0.0000 27.8322 0.0000 0.2751
# 5 -7.4705 5.8388 12.0924 0.0000 13.6754 0.0000
# 6 0.0000 0.0000 0.0000 0.2751 0.0000 14.0116
#
#
#
# Elastic Compliance Matrix: (Units=1/GPa)
#
#
# Indices 1 2 3 4 5 6 
#
# 1 0.040115 0.011584 -0.000606 0.000000 0.017503 0.000000
# 2 0.011584 -0.014472 -0.000449 0.000000 0.012905 0.000000
# 3 -0.000606 -0.000449 0.017000 0.000000 -0.015171 0.000000
# 4 0.000000 0.000000 0.000000 0.035937 0.000000 -0.000705
# 5 0.017503 0.012905 -0.015171 0.000000 0.090590 0.000000
# 6 0.000000 0.000000 0.000000 -0.000705 0.000000 0.071383
#
#
# Mechanical properties :
#
#
# Convention : Reuss Voigt Hill
#
# Bulk Modulus (GPa) = 15.69827 7.09654 11.39741
# Shear Modulus (GPa) = 20.77032 13.00167 16.88599
#
# Velocity S-wave (km/s) = 3.22951 2.55514 2.91191
# Velocity P-wave (km/s) = 4.66788 3.50264 4.12659
#
# Compressibility (1/GPa) = 0.06370129
#
# Stress axis : x y z
#
# Youngs Moduli (GPa) = 24.92810 -69.09713 58.82436
#
# Poissons Ratio (x) = 0.80044 0.03562
# Poissons Ratio (y) = -0.28877 0.02644
# Poissons Ratio (z) = 0.01510 -0.03105
#
# Static dielectric constant tensor:
#      x y z
#    x 1.711560 0.000000 -0.000420 
#    y 0.000000 1.672710 0.000000 
#    z -0.000420 0.000000 1.706840 
# 
# From -- ./inp_files/187748.got.cif
#   From: 2010.05.17/outbox.ucp.g08.bks.cvg/sg12_94_cif.got.tgz:187748.got - 2010.06.11 11:47:21.
