data_PCOD9225030
_publ_section_title
;
Structure prediction by ZEFSAII (Michael W. Deem and Ramdas Pophale) SiO2 
 PCOD9225030
Probable space group: C 2/M
;
_chemical_formula_sum "Si O2"
_cell_formula_units_Z 24
_cell_length_a 18.000000
_cell_length_b 30.000000
_cell_length_c 9.000000
_cell_angle_alpha 90.000000
_cell_angle_beta 150.000000
_cell_angle_gamma 90.000000
_cell_volume 2430.000000
_symmetry_space_group_name_H-M "C 2/M"
_symmetry_group_IT_number 12
_symmetry_cell_setting 'monoclinic'
loop_
_space_group_symop_operation_xyz
x,y,z
-x,y,-z
-x,-y,-z
x,-y,z
1/2+x,1/2+y,z
1/2-x,1/2+y,-z
1/2-x,1/2-y,-z
1/2+x,1/2-y,z
loop_
_atom_site_type_symbol
_atom_site_label
_atom_site_fract_x
_atom_site_fract_y
_atom_site_fract_z
Si Si1 0.095686 0.947937 0.015832
Si Si2 0.655692 0.876186 0.072416
Si Si3 0.748884 0.307167 0.255040
Si Si4 0.055886 0.718736 0.926874
Si Si5 0.690772 0.890714 0.464557
Si Si6 0.141842 0.877619 0.838343
O O1 0.256495 0.933860 0.355961
O O2 0.077993 0.000000 0.948068
O O3 0.081330 0.914692 0.850458
O O4 0.000000 0.938170 0.000000
O O5 0.713059 0.895095 0.327887
O O6 0.738774 0.895646 0.074341
O O7 0.668125 0.822233 0.091067
O O8 0.479042 0.883223 0.780598
O O9 0.913044 0.287276 0.571983
O O10 0.725812 0.345067 0.342227
O O11 0.635029 0.266325 0.055525
O O12 0.723866 0.337641 0.067191
O O13 0.000000 0.712632 0.000000
O O14 0.000000 0.861218 0.500000
#
# Coordination Sequence:
#
# PCOD9225030 Si02
#       6
#     8   8   8   8   8   8
#     4  10  22  42  67  93 122 157 203 254 311 377
#     4  10  20  39  61  87 128 161 209 255 312 360
#     4  10  23  37  58  85 125 167 217 258 307 362
#     4  11  21  37  60  89 120 170 216 266 302 360
#     4   9  19  40  64  90 118 170 205 255 310 375
#     4  11  25  41  61  93 125 165 207 260 319 372
#
# _framework density 9.8765429999999999
#
# number of rings (size 3 to 8) (size 9 to 14) (size 15 to 20)
#    0.000    1.833    3.333    1.500    2.333    9.667 
#    0.000    4.167    0.000    0.000    0.000    0.000 
#    0.000    0.000    0.000    0.000    0.000    0.000 
#
# Total GULP energy -133773.464079 kJ/mol
# GULP energy per Si atom -5573.894337 kJ/mol
# Density = 0.985406 g / cm^3
# Si number density = 9.876543 Si / 1000 Ang^3
#
#
#
# Elastic Constant Matrix: (Units=GPa)
#
#
# Indices 1 2 3 4 5 6 
#
# 1 101.4430 0.0219 22.8047 0.0000 -8.2619 0.0000
# 2 0.0219 3.5608 14.1966 0.0000 -0.9450 0.0000
# 3 22.8047 14.1966 100.8438 0.0000 -22.1116 0.0000
# 4 0.0000 0.0000 0.0000 16.2682 0.0000 6.0241
# 5 -8.2619 -0.9450 -22.1116 0.0000 20.3923 0.0000
# 6 0.0000 0.0000 0.0000 6.0241 0.0000 20.5868
#
#
#
# Elastic Compliance Matrix: (Units=1/GPa)
#
#
# Indices 1 2 3 4 5 6 
#
# 1 0.011152 0.024197 -0.006155 0.000000 -0.001034 0.000000
# 2 0.024197 0.846209 -0.149362 0.000000 -0.112935 0.000000
# 3 -0.006155 -0.149362 0.039712 0.000000 0.033645 0.000000
# 4 0.000000 0.000000 0.000000 0.068940 0.000000 -0.020173
# 5 -0.001034 -0.112935 0.033645 0.000000 0.079866 0.000000
# 6 0.000000 0.000000 0.000000 -0.020173 0.000000 0.054478
#
#
# Mechanical properties :
#
#
# Convention : Reuss Voigt Hill
#
# Bulk Modulus (GPa) = 1.57621 31.09934 16.33778
# Shear Modulus (GPa) = 3.17566 22.70441 12.94004
#
# Velocity S-wave (km/s) = 1.26932 3.39397 2.56225
# Velocity P-wave (km/s) = 1.71695 5.58005 4.12825
#
# Compressibility (1/GPa) = 0.63443201
#
# Stress axis : x y z
#
# Youngs Moduli (GPa) = 89.67031 1.18174 25.18112
#
# Poissons Ratio (x) = -0.02859 0.15499
# Poissons Ratio (y) = -2.16972 3.76111
# Poissons Ratio (z) = 0.55193 0.17651
#
# Static dielectric constant tensor:
#      x y z
#    x 1.717470 0.000000 -0.003420 
#    y 0.000000 1.682430 0.000000 
#    z -0.003420 0.000000 1.759950 
# 
# From -- ./inp_files/80837.got.cif
#   From: 2010.05.17/outbox.ucp.g08.bks.cvg/sg12_41_cif.got.tgz:80837.got - 2010.06.11 11:47:21.
