data_PCOD9225968
_publ_section_title
;
Structure prediction by ZEFSAII (Michael W. Deem and Ramdas Pophale) SiO2 
 PCOD9225968
Probable space group: C 2/M
;
_chemical_formula_sum "Si O2"
_cell_formula_units_Z 28
_cell_length_a 21.000000
_cell_length_b 18.000000
_cell_length_c 21.000000
_cell_angle_alpha 90.000000
_cell_angle_beta 160.000000
_cell_angle_gamma 90.000000
_cell_volume 2714.955898
_symmetry_space_group_name_H-M "C 2/M"
_symmetry_group_IT_number 12
_symmetry_cell_setting 'monoclinic'
loop_
_space_group_symop_operation_xyz
x,y,z
-x,y,-z
-x,-y,-z
x,-y,z
1/2+x,1/2+y,z
1/2-x,1/2+y,-z
1/2-x,1/2-y,-z
1/2+x,1/2-y,z
loop_
_atom_site_type_symbol
_atom_site_label
_atom_site_fract_x
_atom_site_fract_y
_atom_site_fract_z
Si Si1 0.211700 0.840518 0.207449
Si Si2 0.220148 0.833144 0.712767
Si Si3 0.702753 0.151805 0.482887
Si Si4 0.068282 0.786792 0.795026
Si Si5 0.649208 0.914722 0.292752
Si Si6 0.230580 0.913934 0.856549
Si Si7 0.460057 0.086162 0.550619
O O1 0.210666 0.751007 0.211974
O O2 0.347896 0.868541 0.279048
O O3 0.311739 0.875771 0.363359
O O4 0.000000 0.866056 0.000000
O O5 0.285790 0.869237 0.708178
O O6 0.261680 0.884625 0.813441
O O7 0.000000 0.827479 0.500000
O O8 0.561199 0.221518 0.355557
O O9 0.698574 0.122982 0.406266
O O10 0.622416 0.093053 0.456575
O O11 0.915648 0.175050 0.698459
O O12 0.120864 0.849528 0.792139
O O13 0.250000 0.750000 0.000000
O O14 0.717811 0.000000 0.354585
O O15 0.427043 0.916781 0.077154
O O16 0.158261 0.000000 0.787906
O O17 0.489724 0.000000 0.562697
#
# Coordination Sequence:
#
# PCOD9225968 Si02
#       7
#     8   8   8   8   8   8   8
#     4  11  24  45  71  97 136 175 224 284 344 402
#     4  12  24  40  67  98 133 175 233 279 336 404
#     4  11  25  42  72 100 134 183 224 276 345 405
#     4  11  24  44  68  98 134 179 234 277 332 405
#     4  11  24  43  65  98 140 178 221 279 340 406
#     4  11  24  43  66  97 136 178 226 282 339 401
#     4  11  25  45  69 103 137 172 228 286 340 413
#
# _framework density 10.313243
#
# number of rings (size 3 to 8) (size 9 to 14) (size 15 to 20)
#    0.000    0.857    2.857    4.714    4.000    8.000 
#    0.000    0.000    0.000    0.000    0.000    0.000 
#    0.000    0.000    0.000    0.000    0.000    0.000 
#
# Total GULP energy -156471.988771 kJ/mol
# GULP energy per Si atom -5588.285313 kJ/mol
# Density = 1.028977 g / cm^3
# Si number density = 10.313243 Si / 1000 Ang^3
#
#
#
# Elastic Constant Matrix: (Units=GPa)
#
#
# Indices 1 2 3 4 5 6 
#
# 1 138.0004 68.1958 40.0939 0.0008 10.0517 -0.0034
# 2 68.1958 169.5700 29.6077 -0.0240 9.7916 -0.0478
# 3 40.0939 29.6077 141.6224 -0.0681 19.7977 -0.1360
# 4 0.0008 -0.0240 -0.0681 15.8363 -0.0242 12.3130
# 5 10.0517 9.7916 19.7977 -0.0242 27.6682 -0.0432
# 6 -0.0034 -0.0478 -0.1360 12.3130 -0.0432 61.0147
#
#
#
# Elastic Compliance Matrix: (Units=1/GPa)
#
#
# Indices 1 2 3 4 5 6 
#
# 1 0.009567 -0.003471 -0.001854 -0.000012 -0.000921 -0.000005
# 2 -0.003471 0.007428 -0.000421 0.000006 -0.001066 0.000003
# 3 -0.001854 -0.000421 0.008399 0.000019 -0.005187 0.000011
# 4 -0.000012 0.000006 0.000019 0.074898 0.000030 -0.015115
# 5 -0.000921 -0.001066 -0.005187 0.000030 0.040566 0.000010
# 6 -0.000005 0.000003 0.000011 -0.015115 0.000010 0.019440
#
#
# Mechanical properties :
#
#
# Convention : Reuss Voigt Hill
#
# Bulk Modulus (GPa) = 71.93122 80.55417 76.24270
# Shear Modulus (GPa) = 28.34055 41.65686 34.99871
#
# Velocity S-wave (km/s) = 3.71076 4.49885 4.12367
# Velocity P-wave (km/s) = 7.30127 8.13171 7.72765
#
# Compressibility (1/GPa) = 0.01390217
#
# Stress axis : x y z
#
# Youngs Moduli (GPa) = 104.52293 134.62140 119.05898
#
# Poissons Ratio (x) = 0.46724 0.22076
# Poissons Ratio (y) = 0.36277 0.05016
# Poissons Ratio (z) = 0.19381 0.05671
#
# Static dielectric constant tensor:
#      x y z
#    x 1.750100 0.000000 0.028650 
#    y 0.000000 1.745560 -0.000010 
#    z 0.028650 -0.000010 1.745570 
# 
# From -- ./inp_files/322717.got.cif
#   From: 2010.05.17/outbox.ucp.g08.bks.cvg/sg12_162_cif.got.tgz:322717.got - 2010.06.11 11:47:21.
