data_PCOD9225190
_publ_section_title
;
Structure prediction by ZEFSAII (Michael W. Deem and Ramdas Pophale) SiO2 
 PCOD9225190
Probable space group: C 2/M
;
_chemical_formula_sum "Si O2"
_cell_formula_units_Z 32
_cell_length_a 15.000000
_cell_length_b 9.000000
_cell_length_c 30.000000
_cell_angle_alpha 90.000000
_cell_angle_beta 130.000000
_cell_angle_gamma 90.000000
_cell_volume 3102.479995
_symmetry_space_group_name_H-M "C 2/M"
_symmetry_group_IT_number 12
_symmetry_cell_setting 'monoclinic'
loop_
_space_group_symop_operation_xyz
x,y,z
-x,y,-z
-x,-y,-z
x,-y,z
1/2+x,1/2+y,z
1/2-x,1/2+y,-z
1/2-x,1/2-y,-z
1/2+x,1/2-y,z
loop_
_atom_site_type_symbol
_atom_site_label
_atom_site_fract_x
_atom_site_fract_y
_atom_site_fract_z
Si Si1 0.639336 0.325504 0.244587
Si Si2 0.561407 0.821752 0.877016
Si Si3 0.532349 0.179895 0.060982
Si Si4 0.813744 0.170686 0.480571
Si Si5 0.457236 0.673213 0.387462
Si Si6 0.395878 0.174180 0.282230
Si Si7 0.251268 0.325055 0.632549
Si Si8 0.782494 0.320089 0.153647
O O1 0.607484 0.500000 0.235094
O O2 0.550682 0.236115 0.185861
O O3 0.765878 0.315836 0.261835
O O4 0.651563 0.273271 0.300240
O O5 0.555352 0.774697 0.926919
O O6 0.666595 0.776494 0.878379
O O7 0.559642 0.000000 0.876378
O O8 0.656593 0.245480 0.115937
O O9 0.538602 0.000000 0.062424
O O10 0.500000 0.227953 0.000000
O O11 0.750000 0.250000 0.500000
O O12 0.774558 0.247786 0.422490
O O13 0.944671 0.174635 0.542337
O O14 0.780266 0.000000 0.465720
O O15 0.417861 0.500000 0.371977
O O16 0.476778 0.730055 0.342483
O O17 0.364891 0.788759 0.377078
O O18 0.370088 0.221459 0.222622
O O19 0.431993 0.000000 0.294494
O O20 0.267179 0.500000 0.630603
O O21 0.770968 0.500000 0.152624
#
# Coordination Sequence:
#
# PCOD9225190 Si02
#       8
#     8   8   8   8   8   8   8   8
#     4   9  18  34  56  82 112 145 185 235 286 344
#     4  10  21  36  58  87 118 154 196 243 292 346
#     4  10  22  40  60  86 122 158 194 240 292 347
#     4  11  24  39  54  76 109 148 191 242 294 350
#     4  10  21  36  56  82 110 143 189 237 283 345
#     4   9  18  34  56  81 110 145 186 235 290 345
#     4  10  21  37  58  83 111 146 188 237 290 347
#     4  10  21  38  59  86 118 152 197 244 288 345
#
# _framework density 10.314329000000001
#
# number of rings (size 3 to 8) (size 9 to 14) (size 15 to 20)
#    0.000    2.125    1.250    2.250    0.000    8.750 
#    0.000    2.500    0.000    0.000    0.000    0.000 
#    0.000    0.000    0.000    0.000    0.000    0.000 
#
# Total GULP energy -178338.806578 kJ/mol
# GULP energy per Si atom -5573.087706 kJ/mol
# Density = 1.029085 g / cm^3
# Si number density = 10.314329 Si / 1000 Ang^3
#
#
#
# Elastic Constant Matrix: (Units=GPa)
#
#
# Indices 1 2 3 4 5 6 
#
# 1 66.8459 5.0875 29.5156 0.0000 -31.7491 0.0000
# 2 5.0875 18.9075 17.1016 0.0000 -8.4952 0.0000
# 3 29.5156 17.1016 103.1836 0.0000 -45.5048 0.0000
# 4 0.0000 0.0000 0.0000 36.7695 0.0000 -3.7985
# 5 -31.7491 -8.4952 -45.5048 0.0000 44.8205 0.0000
# 6 0.0000 0.0000 0.0000 -3.7985 0.0000 15.3129
#
#
#
# Elastic Compliance Matrix: (Units=1/GPa)
#
#
# Indices 1 2 3 4 5 6 
#
# 1 0.022620 0.000742 0.000969 0.000000 0.017147 0.000000
# 2 0.000742 0.062383 -0.009244 0.000000 0.002964 0.000000
# 3 0.000969 -0.009244 0.018970 0.000000 0.018194 0.000000
# 4 0.000000 0.000000 0.000000 0.027912 0.000000 0.006924
# 5 0.017147 0.002964 0.018194 0.000000 0.053491 0.000000
# 6 0.000000 0.000000 0.000000 0.006924 0.000000 0.067022
#
#
# Mechanical properties :
#
#
# Convention : Reuss Voigt Hill
#
# Bulk Modulus (GPa) = 11.24805 32.48293 21.86549
# Shear Modulus (GPa) = 16.82936 28.52939 22.67937
#
# Velocity S-wave (km/s) = 2.85936 3.72290 3.31933
# Velocity P-wave (km/s) = 4.04546 5.85326 5.03122
#
# Compressibility (1/GPa) = 0.08890432
#
# Stress axis : x y z
#
# Youngs Moduli (GPa) = 44.20919 16.03012 52.71451
#
# Poissons Ratio (x) = -0.01189 -0.05106
# Poissons Ratio (y) = -0.03279 0.48731
# Poissons Ratio (z) = -0.04282 0.14819
#
# Static dielectric constant tensor:
#      x y z
#    x 1.819280 0.000000 0.021870 
#    y 0.000000 1.728400 0.000000 
#    z 0.021870 0.000000 1.917080 
# 
# From -- ./inp_files/375565.got.cif
#   From: 2010.05.17/outbox.ucp.g08.bks.cvg/sg12_188_cif.got.tgz:375565.got - 2010.06.11 11:47:21.
