data_PCOD9225214
_publ_section_title
;
Structure prediction by ZEFSAII (Michael W. Deem and Ramdas Pophale) SiO2 
 PCOD9225214
Probable space group: C 2/M
;
_chemical_formula_sum "Si O2"
_cell_formula_units_Z 28
_cell_length_a 9.000000
_cell_length_b 30.000000
_cell_length_c 21.000000
_cell_angle_alpha 90.000000
_cell_angle_beta 30.000000
_cell_angle_gamma 90.000000
_cell_volume 2835.000000
_symmetry_space_group_name_H-M "C 2/M"
_symmetry_group_IT_number 12
_symmetry_cell_setting 'monoclinic'
loop_
_space_group_symop_operation_xyz
x,y,z
-x,y,-z
-x,-y,-z
x,-y,z
1/2+x,1/2+y,z
1/2-x,1/2+y,-z
1/2-x,1/2-y,-z
1/2+x,1/2-y,z
loop_
_atom_site_type_symbol
_atom_site_label
_atom_site_fract_x
_atom_site_fract_y
_atom_site_fract_z
Si Si1 0.782198 0.814526 0.736257
Si Si2 0.267450 0.596639 0.269475
Si Si3 0.104466 0.745469 0.694610
Si Si4 0.711172 0.088017 0.818573
Si Si5 0.940236 0.947123 0.946723
Si Si6 0.956446 0.500000 0.612025
Si Si7 0.500354 0.500000 0.337400
Si Si8 0.092364 0.312058 0.571399
O O1 0.567019 0.788204 0.767706
O O2 0.690341 0.863858 0.792185
O O3 0.847737 0.780467 0.770192
O O4 0.100703 0.818541 0.580835
O O5 0.555917 0.595121 0.209542
O O6 0.361145 0.590263 0.161584
O O7 0.106662 0.549127 0.338215
O O8 0.074352 0.640541 0.356413
O O9 0.376207 0.778150 0.613614
O O10 0.150463 0.713415 0.616432
O O11 0.833011 0.046842 0.730847
O O12 0.387358 0.068266 0.953789
O O13 0.984067 0.000000 0.911341
O O14 0.000000 0.945728 0.000000
O O15 0.737169 0.500000 0.632144
O O16 0.306029 0.500000 0.471705
#
# Coordination Sequence:
#
# PCOD9225214 Si02
#       8
#     8   8   8   8   8   4   4   8
#     4  11  20  35  59  93 127 163 200 244 300 359
#     4  11  22  37  63  90 120 157 202 248 292 361
#     4  10  21  36  58  87 128 167 204 244 293 360
#     4  11  22  37  63  90 120 157 202 248 292 361
#     4  11  25  45  65  84 115 158 210 254 300 352
#     4   9  18  33  55  90 126 153 182 235 298 357
#     4   9  18  33  55  90 126 153 182 235 298 357
#     4  11  20  35  59  93 127 163 200 244 300 359
#
# _framework density 9.8765429999999999
#
# number of rings (size 3 to 8) (size 9 to 14) (size 15 to 20)
#    0.000    1.429    2.857    4.714    2.000    1.714 
#    0.000    0.000    0.000    6.000    0.000    0.000 
#    0.000    0.000    0.000    0.000    0.000    0.000 
#
# Total GULP energy -156036.947088 kJ/mol
# GULP energy per Si atom -5572.748110 kJ/mol
# Density = 0.985406 g / cm^3
# Si number density = 9.876543 Si / 1000 Ang^3
#
#
#
# Elastic Constant Matrix: (Units=GPa)
#
#
# Indices 1 2 3 4 5 6 
#
# 1 79.9338 42.0405 5.8546 0.0008 7.2168 0.0007
# 2 42.0405 173.8084 29.3904 0.0010 7.7586 0.0000
# 3 5.8546 29.3904 29.5973 -0.0013 -0.3756 -0.0023
# 4 0.0008 0.0010 -0.0013 24.4452 0.0013 3.8767
# 5 7.2168 7.7586 -0.3756 0.0013 13.4114 0.0003
# 6 0.0007 0.0000 -0.0023 3.8767 0.0003 27.0793
#
#
#
# Elastic Compliance Matrix: (Units=1/GPa)
#
#
# Indices 1 2 3 4 5 6 
#
# 1 0.014800 -0.003370 0.000342 0.000000 -0.006005 0.000000
# 2 -0.003370 0.007926 -0.007242 0.000000 -0.002975 0.000000
# 3 0.000342 -0.007242 0.040976 0.000002 0.005153 0.000003
# 4 0.000000 0.000000 0.000002 0.041858 -0.000004 -0.005992
# 5 -0.006005 -0.002975 0.005153 -0.000004 0.079660 0.000000
# 6 0.000000 0.000000 0.000003 -0.005992 0.000000 0.037786
#
#
# Mechanical properties :
#
#
# Convention : Reuss Voigt Hill
#
# Bulk Modulus (GPa) = 23.16790 48.65675 35.91233
# Shear Modulus (GPa) = 19.38504 26.72412 23.05458
#
# Velocity S-wave (km/s) = 3.13608 3.68218 3.42005
# Velocity P-wave (km/s) = 4.98673 6.53941 5.81513
#
# Compressibility (1/GPa) = 0.04316317
#
# Stress axis : x y z
#
# Youngs Moduli (GPa) = 67.56933 126.17010 24.40480
#
# Poissons Ratio (x) = 0.42513 -0.00835
# Poissons Ratio (y) = 0.22768 0.17673
# Poissons Ratio (z) = -0.02313 0.91368
#
# Static dielectric constant tensor:
#      x y z
#    x 1.716930 0.000000 0.022910 
#    y 0.000000 1.666010 0.000000 
#    z 0.022910 0.000000 1.811050 
# 
# From -- ./inp_files/303035.got.cif
#   From: 2010.05.17/outbox.ucp.g08.bks.cvg/sg12_152_cif.got.tgz:303035.got - 2010.06.11 11:47:21.
