data_PCOD9225315
_publ_section_title
;
Structure prediction by ZEFSAII (Michael W. Deem and Ramdas Pophale) SiO2 
 PCOD9225315
Probable space group: C 2/M
;
_chemical_formula_sum "Si O2"
_cell_formula_units_Z 32
_cell_length_a 30.000000
_cell_length_b 18.000000
_cell_length_c 12.000000
_cell_angle_alpha 90.000000
_cell_angle_beta 30.000000
_cell_angle_gamma 90.000000
_cell_volume 3240.000000
_symmetry_space_group_name_H-M "C 2/M"
_symmetry_group_IT_number 12
_symmetry_cell_setting 'monoclinic'
loop_
_space_group_symop_operation_xyz
x,y,z
-x,y,-z
-x,-y,-z
x,-y,z
1/2+x,1/2+y,z
1/2-x,1/2+y,-z
1/2-x,1/2-y,-z
1/2+x,1/2-y,z
loop_
_atom_site_type_symbol
_atom_site_label
_atom_site_fract_x
_atom_site_fract_y
_atom_site_fract_z
Si Si1 0.191649 0.141642 0.846379
Si Si2 0.102048 0.915984 0.253779
Si Si3 0.396211 0.203575 0.689246
Si Si4 0.978786 0.149504 0.917394
Si Si5 0.024548 0.329856 0.076455
Si Si6 0.633253 0.648575 0.405566
Si Si7 0.626749 0.087461 0.453468
Si Si8 0.688997 0.189907 0.877518
O O1 0.282458 0.097559 0.671391
O O2 0.213056 0.227834 0.781751
O O3 0.141094 0.135408 0.074343
O O4 0.118536 0.120944 0.911602
O O5 0.148258 0.908897 0.272911
O O6 0.000000 0.896328 0.500000
O O7 0.106668 0.000000 0.201518
O O8 0.500000 0.203544 0.500000
O O9 0.378078 0.274235 0.644113
O O10 0.368292 0.132707 0.673998
O O11 0.348467 0.199409 0.913894
O O12 0.981302 0.239952 0.907395
O O13 0.048976 0.129783 0.666895
O O14 0.000000 0.128088 0.000000
O O15 0.951228 0.371383 0.309681
O O16 0.000000 0.349997 0.000000
O O17 0.118573 0.343641 0.940194
O O18 0.717288 0.650389 0.305374
O O19 0.610159 0.000000 0.472400
#
# Coordination Sequence:
#
# PCOD9225315 Si02
#       8
#     8   8   8   8   8   8   8   8
#     4  11  20  38  60  90 122 156 196 247 306 361
#     4  11  22  35  57  88 121 159 193 236 301 374
#     4  12  20  37  62  90 123 158 198 245 310 363
#     4  10  21  37  63  92 120 151 203 261 303 344
#     4  10  22  42  61  87 118 159 208 254 296 350
#     4  12  20  37  62  90 124 156 194 252 304 360
#     4  12  25  40  60  88 125 165 202 249 303 367
#     4  11  21  35  65  93 119 153 198 250 306 355
#
# _framework density 9.8765429999999999
#
# number of rings (size 3 to 8) (size 9 to 14) (size 15 to 20)
#    0.000    0.875    6.250    2.625    0.000    1.500 
#    0.000    4.375    0.000    4.875    0.000    0.000 
#    0.000    0.000    0.000    0.000    0.000    0.000 
#
# Total GULP energy -178491.314329 kJ/mol
# GULP energy per Si atom -5577.853573 kJ/mol
# Density = 0.985406 g / cm^3
# Si number density = 9.876543 Si / 1000 Ang^3
#
#
#
# Elastic Constant Matrix: (Units=GPa)
#
#
# Indices 1 2 3 4 5 6 
#
# 1 154.8634 8.6614 19.6977 0.0000 -14.2360 0.0000
# 2 8.6614 53.5240 3.5566 0.0000 -5.4047 0.0000
# 3 19.6977 3.5566 29.9954 0.0000 -16.6456 0.0000
# 4 0.0000 0.0000 0.0000 8.1894 0.0000 -2.8178
# 5 -14.2360 -5.4047 -16.6456 0.0000 42.1913 0.0000
# 6 0.0000 0.0000 0.0000 -2.8178 0.0000 16.5934
#
#
#
# Elastic Compliance Matrix: (Units=1/GPa)
#
#
# Indices 1 2 3 4 5 6 
#
# 1 0.007096 -0.000805 -0.004216 0.000000 0.000628 0.000000
# 2 -0.000805 0.019050 -0.000674 0.000000 0.001903 0.000000
# 3 -0.004216 -0.000674 0.045258 0.000000 0.016347 0.000000
# 4 0.000000 0.000000 0.000000 0.129686 0.000000 0.022023
# 5 0.000628 0.001903 0.016347 0.000000 0.030606 0.000000
# 6 0.000000 0.000000 0.000000 0.022023 0.000000 0.064005
#
#
# Mechanical properties :
#
#
# Convention : Reuss Voigt Hill
#
# Bulk Modulus (GPa) = 16.66271 33.57936 25.12103
# Shear Modulus (GPa) = 15.28593 27.15929 21.22261
#
# Velocity S-wave (km/s) = 2.78483 3.71204 3.28135
# Velocity P-wave (km/s) = 4.33523 5.95053 5.20591
#
# Compressibility (1/GPa) = 0.06001426
#
# Stress axis : x y z
#
# Youngs Moduli (GPa) = 140.91823 52.49238 22.09532
#
# Poissons Ratio (x) = 0.04224 0.09316
# Poissons Ratio (y) = 0.11341 0.01490
# Poissons Ratio (z) = 0.59414 0.03540
#
# Static dielectric constant tensor:
#      x y z
#    x 1.703660 0.000000 -0.026810 
#    y 0.000000 1.698480 0.000000 
#    z -0.026810 0.000000 1.726790 
# 
# From -- ./inp_files/146144.got.cif
#   From: 2010.05.17/outbox.ucp.g08.bks.cvg/sg12_74_cif.got.tgz:146144.got - 2010.06.11 11:47:21.
