data_PCOD9225522
_publ_section_title
;
Structure prediction by ZEFSAII (Michael W. Deem and Ramdas Pophale) SiO2 
 PCOD9225522
Probable space group: C 2/M
;
_chemical_formula_sum "Si O2"
_cell_formula_units_Z 32
_cell_length_a 9.000000
_cell_length_b 18.000000
_cell_length_c 30.000000
_cell_angle_alpha 90.000000
_cell_angle_beta 140.000000
_cell_angle_gamma 90.000000
_cell_volume 3123.947783
_symmetry_space_group_name_H-M "C 2/M"
_symmetry_group_IT_number 12
_symmetry_cell_setting 'monoclinic'
loop_
_space_group_symop_operation_xyz
x,y,z
-x,y,-z
-x,-y,-z
x,-y,z
1/2+x,1/2+y,z
1/2-x,1/2+y,-z
1/2-x,1/2-y,-z
1/2+x,1/2-y,z
loop_
_atom_site_type_symbol
_atom_site_label
_atom_site_fract_x
_atom_site_fract_y
_atom_site_fract_z
Si Si1 0.259731 0.410753 0.576187
Si Si2 0.571134 0.166702 0.703259
Si Si3 0.062624 0.169865 0.293278
Si Si4 0.122294 0.794427 0.911766
Si Si5 0.737789 0.085918 0.829665
Si Si6 0.895850 0.912139 0.426953
Si Si7 0.942720 0.371065 0.846153
Si Si8 0.014246 0.373397 0.049749
O O1 0.269837 0.500000 0.586592
O O2 0.330271 0.368210 0.637661
O O3 0.432238 0.393616 0.574568
O O4 0.000000 0.392949 0.500000
O O5 0.758094 0.171600 0.706589
O O6 0.521799 0.247380 0.713042
O O7 0.642459 0.111063 0.759618
O O8 0.333147 0.135735 0.629371
O O9 0.830266 0.127983 0.224671
O O10 0.238770 0.831790 0.894561
O O11 0.928845 0.851482 0.883304
O O12 0.031067 0.713822 0.877031
O O13 0.328603 0.808952 0.994826
O O14 0.557430 0.096082 0.828428
O O15 0.816881 0.000000 0.846584
O O16 0.000000 0.900702 0.500000
O O17 0.842369 0.000000 0.410596
O O18 0.015256 0.409568 0.909450
O O19 0.000000 0.418574 0.000000
#
# Coordination Sequence:
#
# PCOD9225522 Si02
#       8
#     8   8   8   8   8   8   8   8
#     4  10  22  43  69 100 137 175 223 277 335 405
#     4  12  25  43  62  94 132 172 222 276 337 399
#     4  12  26  40  69  97 128 177 223 279 334 402
#     4   9  20  40  65  91 125 173 222 275 333 401
#     4  12  26  41  65  98 136 176 222 280 348 410
#     4  10  21  40  66  93 128 173 216 267 330 396
#     4  12  21  40  65  96 132 171 224 283 336 401
#     4   8  21  37  65  96 120 173 230 277 326 402
#
# _framework density 10.243449
#
# number of rings (size 3 to 8) (size 9 to 14) (size 15 to 20)
#    0.750    0.500    1.250    5.250    0.000    4.500 
#    0.000    6.875    0.000    0.000    0.000    0.000 
#    0.000    0.000    0.000    0.000    0.000    0.000 
#
# Total GULP energy -178502.008574 kJ/mol
# GULP energy per Si atom -5578.187768 kJ/mol
# Density = 1.022013 g / cm^3
# Si number density = 10.243449 Si / 1000 Ang^3
#
#
#
# Elastic Constant Matrix: (Units=GPa)
#
#
# Indices 1 2 3 4 5 6 
#
# 1 111.2078 57.5856 39.5107 0.0000 -19.3303 0.0001
# 2 57.5856 40.9910 12.5868 -0.0002 -3.3710 0.0000
# 3 39.5107 12.5868 82.8658 -0.0002 -12.1652 0.0000
# 4 0.0000 -0.0002 -0.0002 -86.7138 -0.0001 20.7880
# 5 -19.3303 -3.3710 -12.1652 -0.0001 44.0366 0.0000
# 6 0.0001 0.0000 0.0000 20.7880 0.0000 12.1881
#
#
#
# Elastic Compliance Matrix: (Units=1/GPa)
#
#
# Indices 1 2 3 4 5 6 
#
# 1 0.047319 -0.061957 -0.011254 0.000000 0.012919 0.000000
# 2 -0.061957 0.106749 0.010979 0.000000 -0.015992 0.000001
# 3 -0.011254 0.010979 0.015805 0.000000 0.000266 0.000000
# 4 0.000000 0.000000 0.000000 -0.008185 0.000000 0.013961
# 5 0.012919 -0.015992 0.000266 0.000000 0.027229 0.000000
# 6 0.000000 0.000001 0.000000 0.013961 0.000000 0.058236
#
#
# Mechanical properties :
#
#
# Convention : Reuss Voigt Hill
#
# Bulk Modulus (GPa) = 22.02235 50.49230 36.25732
# Shear Modulus (GPa) = 12.92816 2.26096 7.59456
#
# Velocity S-wave (km/s) = 2.51479 1.05167 1.92745
# Velocity P-wave (km/s) = 4.38235 5.11608 4.76337
#
# Compressibility (1/GPa) = 0.04540842
#
# Stress axis : x y z
#
# Youngs Moduli (GPa) = 21.13316 9.36780 63.27003
#
# Poissons Ratio (x) = 0.58040 0.71206
# Poissons Ratio (y) = 1.30935 -0.69466
# Poissons Ratio (z) = 0.23784 -0.10285
#
# Static dielectric constant tensor:
#      x y z
#    x 1.783410 0.000000 -0.005410 
#    y 0.000000 1.738990 0.000000 
#    z -0.005410 0.000000 1.773050 
# 
# From -- ./inp_files/373004.got.cif
#   From: 2010.05.17/outbox.ucp.g08.bks.cvg/sg12_187_cif.got.tgz:373004.got - 2010.06.11 11:47:21.
