data_PCOD9225757
_publ_section_title
;
Structure prediction by ZEFSAII (Michael W. Deem and Ramdas Pophale) SiO2 
 PCOD9225757
Probable space group: C 2/M
;
_chemical_formula_sum "Si O2"
_cell_formula_units_Z 28
_cell_length_a 27.000000
_cell_length_b 9.000000
_cell_length_c 12.000000
_cell_angle_alpha 90.000000
_cell_angle_beta 110.000000
_cell_angle_gamma 90.000000
_cell_volume 2740.143682
_symmetry_space_group_name_H-M "C 2/M"
_symmetry_group_IT_number 12
_symmetry_cell_setting 'monoclinic'
loop_
_space_group_symop_operation_xyz
x,y,z
-x,y,-z
-x,-y,-z
x,-y,z
1/2+x,1/2+y,z
1/2-x,1/2+y,-z
1/2-x,1/2-y,-z
1/2+x,1/2-y,z
loop_
_atom_site_type_symbol
_atom_site_label
_atom_site_fract_x
_atom_site_fract_y
_atom_site_fract_z
Si Si1 0.096319 0.676088 0.282495
Si Si2 0.306937 0.675048 0.538991
Si Si3 0.123200 0.328321 0.063810
Si Si4 0.986407 0.175123 0.615458
Si Si5 0.675080 0.324702 0.704489
Si Si6 0.767927 0.177078 0.896264
Si Si7 0.414554 0.827957 0.216899
O O1 0.093447 0.500000 0.296330
O O2 0.154441 0.738631 0.349410
O O3 0.087243 0.707342 0.143751
O O4 0.059164 0.749979 0.346541
O O5 0.303480 0.500000 0.562901
O O6 0.250000 0.750000 0.500000
O O7 0.331305 0.688180 0.433066
O O8 0.142132 0.500000 0.095365
O O9 0.172531 0.219467 0.087388
O O10 0.095842 0.325690 0.922754
O O11 0.000000 0.228555 0.500000
O O12 0.038931 0.215252 0.721787
O O13 0.975357 0.000000 0.599471
O O14 0.672152 0.500000 0.731548
O O15 0.731372 0.255581 0.777136
O O16 0.634239 0.231023 0.747163
O O17 0.760154 0.000000 0.894664
O O18 0.750000 0.250000 0.000000
O O19 0.426583 0.000000 0.256856
#
# Coordination Sequence:
#
# PCOD9225757 Si02
#       7
#     8   8   8   8   8   8   8
#     4  11  24  43  67  93 126 166 208 258 314 374
#     4  11  24  41  62  91 127 165 208 258 311 370
#     4  10  23  42  62  91 129 165 206 258 314 369
#     4  11  25  45  67  92 125 162 204 259 317 372
#     4  11  23  39  60  89 126 164 207 261 315 367
#     4  12  23  36  59  90 126 168 211 255 306 368
#     4  11  23  40  65  93 122 160 207 257 311 372
#
# _framework density 10.218442
#
# number of rings (size 3 to 8) (size 9 to 14) (size 15 to 20)
#    0.000    1.000    1.429    5.143    0.000   12.571 
#    0.000    2.857    0.000    0.000    0.000    0.000 
#    0.000    0.000    0.000    0.000    0.000    0.000 
#
# Total GULP energy -156474.961846 kJ/mol
# GULP energy per Si atom -5588.391494 kJ/mol
# Density = 1.019518 g / cm^3
# Si number density = 10.218442 Si / 1000 Ang^3
#
#
#
# Elastic Constant Matrix: (Units=GPa)
#
#
# Indices 1 2 3 4 5 6 
#
# 1 88.0587 14.1603 30.9089 0.0000 -26.1074 0.0000
# 2 14.1603 66.8429 30.4672 0.0000 -29.0648 0.0000
# 3 30.9089 30.4672 65.9517 0.0000 -21.4394 0.0000
# 4 0.0000 0.0000 0.0000 20.3786 0.0000 3.4790
# 5 -26.1074 -29.0648 -21.4394 0.0000 34.6751 0.0000
# 6 0.0000 0.0000 0.0000 3.4790 0.0000 35.9328
#
#
#
# Elastic Compliance Matrix: (Units=1/GPa)
#
#
# Indices 1 2 3 4 5 6 
#
# 1 0.016373 0.004651 -0.005691 0.000000 0.012707 0.000000
# 2 0.004651 0.026627 -0.007618 0.000000 0.021110 0.000000
# 3 -0.005691 -0.007618 0.022378 0.000000 0.003166 0.000000
# 4 0.000000 0.000000 0.000000 0.049896 0.000000 -0.004831
# 5 0.012707 0.021110 0.003166 0.000000 0.058059 0.000000
# 6 0.000000 0.000000 0.000000 -0.004831 0.000000 0.028297
#
#
# Mechanical properties :
#
#
# Convention : Reuss Voigt Hill
#
# Bulk Modulus (GPa) = 20.80650 41.32511 31.06581
# Shear Modulus (GPa) = 21.27964 27.88509 24.58237
#
# Velocity S-wave (km/s) = 3.23032 3.69785 3.47197
# Velocity P-wave (km/s) = 4.91083 6.20459 5.59523
#
# Compressibility (1/GPa) = 0.04806189
#
# Stress axis : x y z
#
# Youngs Moduli (GPa) = 61.07554 37.55657 44.68651
#
# Poissons Ratio (x) = -0.17467 0.25432
# Poissons Ratio (y) = -0.28405 0.34041
# Poissons Ratio (z) = 0.34759 0.28609
#
# Static dielectric constant tensor:
#      x y z
#    x 1.771930 0.000000 0.013150 
#    y 0.000000 1.693900 0.000000 
#    z 0.013150 0.000000 1.813990 
# 
# From -- ./inp_files/181150.got.cif
#   From: 2010.05.17/outbox.ucp.g08.bks.cvg/sg12_91_cif.got.tgz:181150.got - 2010.06.11 11:47:21.
