data_PCOD9225651
_publ_section_title
;
Structure prediction by ZEFSAII (Michael W. Deem and Ramdas Pophale) SiO2 
 PCOD9225651
Probable space group: C 2/M
;
_chemical_formula_sum "Si O2"
_cell_formula_units_Z 28
_cell_length_a 30.000000
_cell_length_b 15.000000
_cell_length_c 9.000000
_cell_angle_alpha 90.000000
_cell_angle_beta 50.000000
_cell_angle_gamma 90.000000
_cell_volume 3102.479995
_symmetry_space_group_name_H-M "C 2/M"
_symmetry_group_IT_number 12
_symmetry_cell_setting 'monoclinic'
loop_
_space_group_symop_operation_xyz
x,y,z
-x,y,-z
-x,-y,-z
x,-y,z
1/2+x,1/2+y,z
1/2-x,1/2+y,-z
1/2-x,1/2-y,-z
1/2+x,1/2-y,z
loop_
_atom_site_type_symbol
_atom_site_label
_atom_site_fract_x
_atom_site_fract_y
_atom_site_fract_z
Si Si1 0.603986 0.265303 0.053372
Si Si2 0.933696 0.393938 0.081223
Si Si3 0.997727 0.893178 0.183704
Si Si4 0.361127 0.605389 0.509331
Si Si5 0.673418 0.101276 0.457514
Si Si6 0.180867 0.250811 0.184663
Si Si7 0.211790 0.835814 0.626517
O O1 0.548294 0.333988 0.156029
O O2 0.634317 0.243468 0.148078
O O3 0.582221 0.175154 0.016376
O O4 0.659005 0.308601 0.848231
O O5 0.931852 0.500000 0.044621
O O6 0.881526 0.380191 0.314196
O O7 0.000000 0.376569 0.000000
O O8 0.930032 0.868793 0.360997
O O9 0.006351 0.000000 0.195761
O O10 0.000000 0.881222 0.000000
O O11 0.359665 0.500000 0.532303
O O12 0.332186 0.658367 0.704805
O O13 0.323029 0.627080 0.442801
O O14 0.671923 0.171424 0.326259
O O15 0.736545 0.107229 0.405908
O O16 0.666378 0.000000 0.418843
O O17 0.250000 0.250000 0.000000
O O18 0.250000 0.750000 0.500000
#
# Coordination Sequence:
#
# PCOD9225651 Si02
#       7
#     8   8   8   8   8   8   8
#     4  12  23  38  68  91 131 169 202 261 321 370
#     4  10  23  43  68  97 121 158 217 269 312 366
#     4  10  22  40  66 100 127 159 212 261 315 380
#     4  11  24  43  67  94 129 169 210 261 317 377
#     4  11  24  43  67  92 125 167 211 262 315 369
#     4  12  26  44  58  92 135 169 209 252 310 384
#     4  12  20  39  66  96 123 159 216 264 308 372
#
# _framework density 9.0250380000000003
#
# number of rings (size 3 to 8) (size 9 to 14) (size 15 to 20)
#    0.000    0.857    5.714    0.857    2.000    2.857 
#    0.000    1.429    0.000    2.571    0.000    0.000 
#    0.000    0.000    0.000    0.000    0.000    0.000 
#
# Total GULP energy -156181.399408 kJ/mol
# GULP energy per Si atom -5577.907122 kJ/mol
# Density = 0.900450 g / cm^3
# Si number density = 9.025038 Si / 1000 Ang^3
#
#
#
# Elastic Constant Matrix: (Units=GPa)
#
#
# Indices 1 2 3 4 5 6 
#
# 1 198.8575 69.1793 67.1486 0.0000 -11.8967 0.0000
# 2 69.1793 104.1564 49.2510 0.0000 -2.5763 0.0000
# 3 67.1486 49.2510 98.6507 0.0000 -22.8196 0.0000
# 4 0.0000 0.0000 0.0000 26.2504 0.0000 -8.9904
# 5 -11.8967 -2.5763 -22.8196 0.0000 42.7896 0.0000
# 6 0.0000 0.0000 0.0000 -8.9904 0.0000 37.7079
#
#
#
# Elastic Compliance Matrix: (Units=1/GPa)
#
#
# Indices 1 2 3 4 5 6 
#
# 1 0.007290 -0.003274 -0.003313 0.000000 0.000063 0.000000
# 2 -0.003274 0.014374 -0.005656 0.000000 -0.003061 0.000000
# 3 -0.003313 -0.005656 0.017024 0.000000 0.007817 0.000000
# 4 0.000000 0.000000 0.000000 0.041482 0.000000 0.009890
# 5 0.000063 -0.003061 0.007817 0.000000 0.027372 0.000000
# 6 0.000000 0.000000 0.000000 0.009890 0.000000 0.028878
#
#
# Mechanical properties :
#
#
# Convention : Reuss Voigt Hill
#
# Bulk Modulus (GPa) = 70.41121 85.86917 78.14019
# Shear Modulus (GPa) = 30.18597 35.75528 32.97062
#
# Velocity S-wave (km/s) = 4.09387 4.45555 4.27853
# Velocity P-wave (km/s) = 7.83836 8.61077 8.23362
#
# Compressibility (1/GPa) = 0.01420228
#
# Stress axis : x y z
#
# Youngs Moduli (GPa) = 137.17089 69.56974 58.74089
#
# Poissons Ratio (x) = 0.22776 0.19462
# Poissons Ratio (y) = 0.44907 0.33223
# Poissons Ratio (z) = 0.45448 0.39348
#
# Static dielectric constant tensor:
#      x y z
#    x 1.614220 0.000000 0.006860 
#    y 0.000000 1.643200 0.000000 
#    z 0.006860 0.000000 1.640780 
# 
# From -- ./inp_files/111571.got.cif
#   From: 2010.05.17/outbox.ucp.g08.bks.cvg/sg12_56_cif.got.tgz:111571.got - 2010.06.11 11:47:21.
