data_PCOD9225844
_publ_section_title
;
Structure prediction by ZEFSAII (Michael W. Deem and Ramdas Pophale) SiO2 
 PCOD9225844
Probable space group: C 2/M
;
_chemical_formula_sum "Si O2"
_cell_formula_units_Z 32
_cell_length_a 30.000000
_cell_length_b 9.000000
_cell_length_c 15.000000
_cell_angle_alpha 90.000000
_cell_angle_beta 120.000000
_cell_angle_gamma 90.000000
_cell_volume 3507.402885
_symmetry_space_group_name_H-M "C 2/M"
_symmetry_group_IT_number 12
_symmetry_cell_setting 'monoclinic'
loop_
_space_group_symop_operation_xyz
x,y,z
-x,y,-z
-x,-y,-z
x,-y,z
1/2+x,1/2+y,z
1/2-x,1/2+y,-z
1/2-x,1/2-y,-z
1/2+x,1/2-y,z
loop_
_atom_site_type_symbol
_atom_site_label
_atom_site_fract_x
_atom_site_fract_y
_atom_site_fract_z
Si Si1 0.876232 0.177850 0.325003
Si Si2 0.364239 0.675892 0.583764
Si Si3 0.444435 0.824444 0.546187
Si Si4 0.323003 0.324364 0.734985
Si Si5 0.215776 0.825721 0.659116
Si Si6 0.540350 0.675069 0.716737
Si Si7 0.492183 0.826713 0.137762
Si Si8 0.916817 0.672420 0.894375
O O1 0.913117 0.252441 0.434339
O O2 0.818668 0.223981 0.291230
O O3 0.901488 0.208916 0.255397
O O4 0.878096 0.000000 0.342124
O O5 0.378071 0.500000 0.600674
O O6 0.412792 0.771636 0.601720
O O7 0.341361 0.724699 0.654913
O O8 0.320684 0.692302 0.464026
O O9 0.501032 0.759422 0.612795
O O10 0.445430 0.000000 0.539449
O O11 0.321988 0.500000 0.733245
O O12 0.267372 0.262937 0.699781
O O13 0.365472 0.265594 0.845408
O O14 0.227781 0.000000 0.679270
O O15 0.531709 0.500000 0.698901
O O16 0.527183 0.729414 0.801161
O O17 0.545742 0.775331 0.147898
O O18 0.497589 0.000000 0.170429
O O19 0.450745 0.821160 0.016946
O O20 0.904341 0.500000 0.865206
#
# Coordination Sequence:
#
# PCOD9225844 Si02
#       8
#     8   8   8   8   8   8   8   8
#     4   9  20  37  52  69  98 136 172 205 247 297
#     4   9  19  34  49  70 103 138 168 201 247 299
#     4  11  21  31  48  75 104 134 170 208 243 286
#     4  11  21  31  49  77 103 129 167 209 246 292
#     4   9  18  34  52  68  95 135 172 205 245 293
#     4  11  21  33  52  75 101 133 166 203 250 300
#     4   9  19  36  56  78 102 128 163 203 243 293
#     4   9  19  36  55  75 103 135 161 194 246 301
#
# _framework density 9.1235599999999994
#
# number of rings (size 3 to 8) (size 9 to 14) (size 15 to 20)
#    0.000    2.250    0.000    4.875    0.000    8.500 
#    0.000    1.250    0.000    0.750    0.000    0.000 
#    0.000    0.000    0.000    0.000    0.000    0.000 
#
# Total GULP energy -178504.591752 kJ/mol
# GULP energy per Si atom -5578.268492 kJ/mol
# Density = 0.910279 g / cm^3
# Si number density = 9.123560 Si / 1000 Ang^3
#
#
#
# Elastic Constant Matrix: (Units=GPa)
#
#
# Indices 1 2 3 4 5 6 
#
# 1 115.1432 39.1223 22.3861 0.0000 2.4183 0.0000
# 2 39.1223 -6.3574 1.9149 0.0000 7.2682 0.0000
# 3 22.3861 1.9149 13.2723 0.0000 0.6845 0.0000
# 4 0.0000 0.0000 0.0000 24.1806 0.0000 2.5418
# 5 2.4183 7.2682 0.6845 0.0000 13.5524 0.0000
# 6 0.0000 0.0000 0.0000 2.5418 0.0000 21.4325
#
#
#
# Elastic Compliance Matrix: (Units=1/GPa)
#
#
# Indices 1 2 3 4 5 6 
#
# 1 0.005098 0.017207 -0.010587 0.000000 -0.009603 0.000000
# 2 0.017207 -0.037747 -0.024526 0.000000 0.018412 0.000000
# 3 -0.010587 -0.024526 0.096214 0.000000 0.010183 0.000000
# 4 0.000000 0.000000 0.000000 0.041877 0.000000 -0.004966
# 5 -0.009603 0.018412 0.010183 0.000000 0.065112 0.000000
# 6 0.000000 0.000000 0.000000 -0.004966 0.000000 0.047247
#
#
# Mechanical properties :
#
#
# Convention : Reuss Voigt Hill
#
# Bulk Modulus (GPa) = 36.02985 27.65609 31.84297
# Shear Modulus (GPa) = 19.02110 15.74211 17.38161
#
# Velocity S-wave (km/s) = 3.23215 2.94039 3.08972
# Velocity P-wave (km/s) = 5.80667 5.16887 5.49703
#
# Compressibility (1/GPa) = 0.02775476
#
# Stress axis : x y z
#
# Youngs Moduli (GPa) = 196.14006 -26.49240 10.39346
#
# Poissons Ratio (x) = 0.45585 0.11003
# Poissons Ratio (y) = -3.37495 0.25491
# Poissons Ratio (z) = 2.07647 -0.64975
#
# Static dielectric constant tensor:
#      x y z
#    x 1.660220 0.000000 -0.028590 
#    y 0.000000 1.607430 0.000000 
#    z -0.028590 0.000000 1.628810 
# 
# From -- ./inp_files/249135.got.cif
#   From: 2010.05.17/outbox.ucp.g08.bks.cvg/sg12_125_cif.got.tgz:249135.got - 2010.06.11 11:47:21.
