data_PCOD9225264
_publ_section_title
;
Structure prediction by ZEFSAII (Michael W. Deem and Ramdas Pophale) SiO2 
 PCOD9225264
Probable space group: C 2/M
;
_chemical_formula_sum "Si O2"
_cell_formula_units_Z 28
_cell_length_a 18.000000
_cell_length_b 9.000000
_cell_length_c 27.000000
_cell_angle_alpha 90.000000
_cell_angle_beta 140.000000
_cell_angle_gamma 90.000000
_cell_volume 2811.553005
_symmetry_space_group_name_H-M "C 2/M"
_symmetry_group_IT_number 12
_symmetry_cell_setting 'monoclinic'
loop_
_space_group_symop_operation_xyz
x,y,z
-x,y,-z
-x,-y,-z
x,-y,z
1/2+x,1/2+y,z
1/2-x,1/2+y,-z
1/2-x,1/2-y,-z
1/2+x,1/2-y,z
loop_
_atom_site_type_symbol
_atom_site_label
_atom_site_fract_x
_atom_site_fract_y
_atom_site_fract_z
Si Si1 0.581294 0.835434 0.133974
Si Si2 0.289905 0.825053 0.571016
Si Si3 0.862381 0.332686 0.429446
Si Si4 0.711088 0.667825 0.116664
Si Si5 0.856910 0.833720 0.032122
Si Si6 0.052337 0.322102 0.714945
Si Si7 0.323118 0.667565 0.311838
O O1 0.631776 0.772958 0.108763
O O2 0.480001 0.738156 0.104253
O O3 0.692980 0.839075 0.225623
O O4 0.534434 0.000000 0.102761
O O5 0.250000 0.750000 0.500000
O O6 0.196230 0.780083 0.563343
O O7 0.418868 0.781587 0.655499
O O8 0.292069 0.000000 0.564300
O O9 0.827110 0.500000 0.424588
O O10 0.826234 0.285676 0.356649
O O11 0.000000 0.324475 0.500000
O O12 0.696805 0.500000 0.129563
O O13 0.847731 0.703990 0.192767
O O14 0.666577 0.668337 0.038551
O O15 0.857002 0.000000 0.050914
O O16 0.750000 0.750000 0.000000
O O17 0.054810 0.500000 0.705743
O O18 0.096051 0.228072 0.690564
O O19 0.357651 0.500000 0.344690
#
# Coordination Sequence:
#
# PCOD9225264 Si02
#       7
#     8   8   8   8   8   8   8
#     4  10  21  37  58  84 113 145 184 229 276 332
#     4  11  23  38  58  84 114 149 187 229 279 333
#     4  11  24  40  58  82 113 149 188 231 280 333
#     4   9  19  37  59  81 108 144 185 227 274 331
#     4  11  23  37  55  81 113 149 188 233 283 332
#     4   9  19  37  59  82 110 144 181 225 278 332
#     4  10  21  37  59  86 113 144 184 229 276 329
#
# _framework density 9.9589090000000002
#
# number of rings (size 3 to 8) (size 9 to 14) (size 15 to 20)
#    0.000    1.857    0.000    3.429    0.000   11.429 
#    0.000    2.857    0.000    0.000    0.000    0.000 
#    0.000    0.000    0.000    0.000    0.000    0.000 
#
# Total GULP energy -156194.905807 kJ/mol
# GULP energy per Si atom -5578.389493 kJ/mol
# Density = 0.993624 g / cm^3
# Si number density = 9.958909 Si / 1000 Ang^3
#
#
#
# Elastic Constant Matrix: (Units=GPa)
#
#
# Indices 1 2 3 4 5 6 
#
# 1 28.9738 29.4337 20.3783 0.0000 22.0950 0.0000
# 2 29.4337 69.5360 22.7938 0.0000 24.3093 0.0000
# 3 20.3783 22.7938 6.4625 0.0000 8.8353 0.0000
# 4 0.0000 0.0000 0.0000 27.9788 0.0000 5.9321
# 5 22.0950 24.3093 8.8353 0.0000 22.3523 0.0000
# 6 0.0000 0.0000 0.0000 5.9321 0.0000 29.1914
#
#
#
# Elastic Compliance Matrix: (Units=1/GPa)
#
#
# Indices 1 2 3 4 5 6 
#
# 1 0.009968 -0.029899 0.093646 0.000000 -0.014353 0.000000
# 2 -0.029899 0.024881 0.006767 0.000000 -0.000180 0.000000
# 3 0.093646 0.006767 -0.060505 0.000000 -0.076012 0.000000
# 4 0.000000 0.000000 0.000000 0.037351 0.000000 -0.007590
# 5 -0.014353 -0.000180 -0.076012 0.000000 0.089168 0.000000
# 6 0.000000 0.000000 0.000000 -0.007590 0.000000 0.035799
#
#
# Mechanical properties :
#
#
# Convention : Reuss Voigt Hill
#
# Bulk Modulus (GPa) = 8.66742 27.79822 18.23282
# Shear Modulus (GPa) = 146.66802 18.06226 82.36514
#
# Velocity S-wave (km/s) = 8.59049 3.01464 6.43757
# Velocity P-wave (km/s) = 10.13688 5.10923 8.02685
#
# Compressibility (1/GPa) = 0.11537463
#
# Stress axis : x y z
#
# Youngs Moduli (GPa) = 100.32227 40.19059 -16.52763
#
# Poissons Ratio (x) = 1.20164 1.54775
# Poissons Ratio (y) = 2.99950 0.11185
# Poissons Ratio (z) = -9.39479 -0.27199
#
# Static dielectric constant tensor:
#      x y z
#    x 1.727800 0.000000 -0.029830 
#    y 0.000000 1.697670 0.000000 
#    z -0.029830 0.000000 1.714910 
# 
# From -- ./inp_files/363104.got.cif
#   From: 2010.05.17/outbox.ucp.g08.bks.cvg/sg12_182_cif.got.tgz:363104.got - 2010.06.11 11:47:21.
