data_PCOD9225049
_publ_section_title
;
Structure prediction by ZEFSAII (Michael W. Deem and Ramdas Pophale) SiO2 
 PCOD9225049
Probable space group: C 2/M
;
_chemical_formula_sum "Si O2"
_cell_formula_units_Z 24
_cell_length_a 24.000000
_cell_length_b 9.000000
_cell_length_c 12.000000
_cell_angle_alpha 90.000000
_cell_angle_beta 70.000000
_cell_angle_gamma 90.000000
_cell_volume 2435.683273
_symmetry_space_group_name_H-M "C 2/M"
_symmetry_group_IT_number 12
_symmetry_cell_setting 'monoclinic'
loop_
_space_group_symop_operation_xyz
x,y,z
-x,y,-z
-x,-y,-z
x,-y,z
1/2+x,1/2+y,z
1/2-x,1/2+y,-z
1/2-x,1/2-y,-z
1/2+x,1/2-y,z
loop_
_atom_site_type_symbol
_atom_site_label
_atom_site_fract_x
_atom_site_fract_y
_atom_site_fract_z
Si Si1 0.753717 0.333345 0.880797
Si Si2 0.069478 0.173305 0.108303
Si Si3 0.611752 0.164382 0.287780
Si Si4 0.064245 0.828733 0.772629
Si Si5 0.648860 0.827776 0.869759
Si Si6 0.065137 0.833600 0.508244
O O1 0.732115 0.500000 0.912868
O O2 0.820258 0.335994 0.793325
O O3 0.711392 0.252493 0.823911
O O4 0.750000 0.250000 0.000000
O O5 0.080605 0.218866 0.227942
O O6 0.000505 0.201177 0.133106
O O7 0.080949 0.000000 0.084614
O O8 0.112364 0.265936 0.000437
O O9 0.604141 0.212966 0.419396
O O10 0.586445 0.000000 0.285752
O O11 0.110607 0.715705 0.790242
O O12 0.061227 0.817170 0.642369
O O13 0.080007 0.000000 0.790876
O O14 0.657457 0.000000 0.878404
O O15 0.000000 0.821229 0.500000
O O16 0.087684 0.000000 0.468419
#
# Coordination Sequence:
#
# PCOD9225049 Si02
#       6
#     8   8   8   8   8   8
#     4  11  23  40  62  87 119 158 200 246 297 357
#     4  11  21  37  62  88 121 160 197 242 298 359
#     4  11  23  37  59  93 123 150 195 250 300 349
#     4  10  22  40  61  87 120 161 203 241 294 360
#     4  12  25  39  58  89 124 158 200 248 302 357
#     4  10  20  39  63  88 118 158 203 241 288 357
#
# _framework density 9.8534980000000001
#
# number of rings (size 3 to 8) (size 9 to 14) (size 15 to 20)
#    0.000    1.167    3.333    3.500    0.000    6.333 
#    0.000    0.833    0.000    0.000    0.000    0.000 
#    0.000    0.000    0.000    0.000    0.000    0.000 
#
# Total GULP energy -134018.011849 kJ/mol
# GULP energy per Si atom -5584.083827 kJ/mol
# Density = 0.983107 g / cm^3
# Si number density = 9.853498 Si / 1000 Ang^3
#
#
#
# Elastic Constant Matrix: (Units=GPa)
#
#
# Indices 1 2 3 4 5 6 
#
# 1 52.0307 60.6607 11.0173 0.0000 4.8275 0.0000
# 2 60.6607 80.3261 24.9660 0.0000 14.9104 0.0000
# 3 11.0173 24.9660 54.6558 0.0000 3.2699 0.0000
# 4 0.0000 0.0000 0.0000 25.8117 0.0000 2.4163
# 5 4.8275 14.9104 3.2699 0.0000 1.0156 0.0000
# 6 0.0000 0.0000 0.0000 2.4163 0.0000 20.3843
#
#
#
# Elastic Compliance Matrix: (Units=1/GPa)
#
#
# Indices 1 2 3 4 5 6 
#
# 1 0.033704 -0.002815 0.001987 0.000000 -0.125284 0.000000
# 2 -0.002815 -0.006404 -0.003633 0.000000 0.119103 0.000000
# 3 0.001987 -0.003633 0.020968 0.000000 -0.023623 0.000000
# 4 0.000000 0.000000 0.000000 0.039177 0.000000 -0.004644
# 5 -0.125284 0.119103 -0.023623 0.000000 -0.092384 0.000000
# 6 0.000000 0.000000 0.000000 -0.004644 0.000000 0.049608
#
#
# Mechanical properties :
#
#
# Convention : Reuss Voigt Hill
#
# Bulk Modulus (GPa) = 25.41450 42.25563 33.83507
# Shear Modulus (GPa) = 74.95623 15.46690 45.21157
#
# Velocity S-wave (km/s) = 6.17397 2.80454 4.79497
# Velocity P-wave (km/s) = 7.98424 5.65471 6.91823
#
# Compressibility (1/GPa) = 0.03934761
#
# Stress axis : x y z
#
# Youngs Moduli (GPa) = 29.67000 -156.14305 47.69063
#
# Poissons Ratio (x) = -0.43948 -0.09477
# Poissons Ratio (y) = 0.08351 0.17325
# Poissons Ratio (z) = -0.05896 -0.56724
#
# Static dielectric constant tensor:
#      x y z
#    x 1.711630 0.000000 0.016490 
#    y 0.000000 1.697530 0.000000 
#    z 0.016490 0.000000 1.684390 
# 
# From -- ./inp_files/172147.got.cif
#   From: 2010.05.17/outbox.ucp.g08.bks.cvg/sg12_87_cif.got.tgz:172147.got - 2010.06.11 11:47:21.
