data_PCOD9225375
_publ_section_title
;
Structure prediction by ZEFSAII (Michael W. Deem and Ramdas Pophale) SiO2 
 PCOD9225375
Probable space group: C 2/M
;
_chemical_formula_sum "Si O2"
_cell_formula_units_Z 28
_cell_length_a 15.000000
_cell_length_b 9.000000
_cell_length_c 24.000000
_cell_angle_alpha 90.000000
_cell_angle_beta 120.000000
_cell_angle_gamma 90.000000
_cell_volume 2805.922308
_symmetry_space_group_name_H-M "C 2/M"
_symmetry_group_IT_number 12
_symmetry_cell_setting 'monoclinic'
loop_
_space_group_symop_operation_xyz
x,y,z
-x,y,-z
-x,-y,-z
x,-y,z
1/2+x,1/2+y,z
1/2-x,1/2+y,-z
1/2-x,1/2-y,-z
1/2+x,1/2-y,z
loop_
_atom_site_type_symbol
_atom_site_label
_atom_site_fract_x
_atom_site_fract_y
_atom_site_fract_z
Si Si1 0.892134 0.178386 0.358718
Si Si2 0.315601 0.826316 0.441345
Si Si3 0.317261 0.821726 0.768898
Si Si4 0.106071 0.674232 0.406658
Si Si5 0.454991 0.820956 0.145676
Si Si6 0.357280 0.322436 0.013636
Si Si7 0.732958 0.322538 0.129997
O O1 0.883084 0.232759 0.419431
O O2 0.782473 0.227645 0.297693
O O3 0.993641 0.253657 0.364058
O O4 0.900972 0.000000 0.357893
O O5 0.199833 0.759951 0.406154
O O6 0.363072 0.816423 0.518178
O O7 0.314677 0.000000 0.425277
O O8 0.435730 0.775214 0.792744
O O9 0.295652 0.767254 0.824491
O O10 0.316915 0.000000 0.765529
O O11 0.105367 0.500000 0.390434
O O12 0.349461 0.782701 0.145816
O O13 0.454622 0.000000 0.139772
O O14 0.442221 0.748807 0.080373
O O15 0.356237 0.500000 0.021391
O O16 0.350133 0.295114 0.945276
O O17 0.250000 0.250000 0.000000
O O18 0.732924 0.500000 0.140743
#
# Coordination Sequence:
#
# PCOD9225375 Si02
#       7
#     8   8   8   8   8   8   8
#     4  11  23  38  56  82 117 154 191 231 274 326
#     4  10  21  38  61  89 116 144 184 231 280 334
#     4  10  23  39  54  77 109 146 188 225 264 320
#     4  10  21  38  61  88 116 147 184 229 280 331
#     4   9  19  37  56  76 106 142 178 221 273 325
#     4   9  17  31  53  81 107 134 173 221 274 327
#     4   9  19  35  55  78 106 139 177 224 275 325
#
# _framework density 9.9788940000000004
#
# number of rings (size 3 to 8) (size 9 to 14) (size 15 to 20)
#    0.000    2.286    0.000    3.000    0.000    9.714 
#    0.000    4.286    0.000    0.000    0.000    0.000 
#    0.000    0.000    0.000    0.000    0.000    0.000 
#
# Total GULP energy -156269.602128 kJ/mol
# GULP energy per Si atom -5581.057219 kJ/mol
# Density = 0.995618 g / cm^3
# Si number density = 9.978894 Si / 1000 Ang^3
#
#
#
# Elastic Constant Matrix: (Units=GPa)
#
#
# Indices 1 2 3 4 5 6 
#
# 1 61.6098 1.9551 -3.1589 0.0000 24.6875 0.0000
# 2 1.9551 36.6731 6.3863 0.0000 11.8945 0.0000
# 3 -3.1589 6.3863 28.3265 0.0000 21.8034 0.0000
# 4 0.0000 0.0000 0.0000 29.3370 0.0000 2.5698
# 5 24.6875 11.8945 21.8034 0.0000 36.1629 0.0000
# 6 0.0000 0.0000 0.0000 2.5698 0.0000 32.6565
#
#
#
# Elastic Compliance Matrix: (Units=1/GPa)
#
#
# Indices 1 2 3 4 5 6 
#
# 1 0.045934 0.009965 0.055112 0.000000 -0.067864 0.000000
# 2 0.009965 0.032724 0.013536 0.000000 -0.025727 0.000000
# 3 0.055112 0.013536 0.132079 0.000000 -0.121709 0.000000
# 4 0.000000 0.000000 0.000000 0.034323 0.000000 -0.002701
# 5 -0.067864 -0.025727 -0.121709 0.000000 0.155825 0.000000
# 6 0.000000 0.000000 0.000000 -0.002701 0.000000 0.030834
#
#
# Mechanical properties :
#
#
# Convention : Reuss Voigt Hill
#
# Bulk Modulus (GPa) = 2.71766 15.21939 8.96852
# Shear Modulus (GPa) = 12.58977 27.72640 20.15808
#
# Velocity S-wave (km/s) = 2.51434 3.73131 3.18155
# Velocity P-wave (km/s) = 3.12951 5.11917 4.24263
#
# Compressibility (1/GPa) = 0.36796352
#
# Stress axis : x y z
#
# Youngs Moduli (GPa) = 21.77019 30.55881 7.57124
#
# Poissons Ratio (x) = -0.30451 -0.41727
# Poissons Ratio (y) = -0.21693 -0.10249
# Poissons Ratio (z) = -1.19980 -0.41365
#
# Static dielectric constant tensor:
#      x y z
#    x 1.965250 0.000000 0.082220 
#    y 0.000000 1.664640 0.000000 
#    z 0.082220 0.000000 1.762360 
# 
# From -- ./inp_files/339095.got.cif
#   From: 2010.05.17/outbox.ucp.g08.bks.cvg/sg12_170_cif.got.tgz:339095.got - 2010.06.11 11:47:21.
