data_PCOD9225634
_publ_section_title
;
Structure prediction by ZEFSAII (Michael W. Deem and Ramdas Pophale) SiO2 
 PCOD9225634
Probable space group: C 2/M
;
_chemical_formula_sum "Si O2"
_cell_formula_units_Z 20
_cell_length_a 9.000000
_cell_length_b 21.000000
_cell_length_c 15.000000
_cell_angle_alpha 90.000000
_cell_angle_beta 50.000000
_cell_angle_gamma 90.000000
_cell_volume 2171.735996
_symmetry_space_group_name_H-M "C 2/M"
_symmetry_group_IT_number 12
_symmetry_cell_setting 'monoclinic'
loop_
_space_group_symop_operation_xyz
x,y,z
-x,y,-z
-x,-y,-z
x,-y,z
1/2+x,1/2+y,z
1/2-x,1/2+y,-z
1/2-x,1/2-y,-z
1/2+x,1/2-y,z
loop_
_atom_site_type_symbol
_atom_site_label
_atom_site_fract_x
_atom_site_fract_y
_atom_site_fract_z
Si Si1 0.881659 0.575748 0.954704
Si Si2 0.595391 0.709966 0.618790
Si Si3 0.065244 0.572316 0.694554
Si Si4 0.000000 0.887189 0.500000
Si Si5 0.714544 0.181402 0.262547
Si Si6 0.500000 0.635765 0.000000
O O1 0.853326 0.500000 0.978878
O O2 0.022822 0.586329 0.815288
O O3 0.670836 0.601041 0.996002
O O4 0.000000 0.598362 0.000000
O O5 0.750000 0.750000 0.500000
O O6 0.522639 0.654983 0.580704
O O7 0.414940 0.756482 0.706506
O O8 0.691969 0.687519 0.674643
O O9 0.999205 0.500000 0.702817
O O10 0.294108 0.577428 0.587431
O O11 0.935541 0.622029 0.688529
O O12 0.875188 0.172566 0.123279
#
# Coordination Sequence:
#
# PCOD9225634 Si02
#       6
#     8   8   8   4   8   4
#     4   9  19  38  61  87 124 172 213 248 303 378
#     4  12  22  41  66  86 117 166 213 253 304 367
#     4  10  22  40  61  93 129 157 201 260 312 373
#     4  12  23  38  66  88 123 164 208 256 306 370
#     4  11  23  42  64  93 122 164 207 258 312 373
#     4  10  23  38  62  94 130 158 203 266 322 372
#
# _framework density 9.2092229999999997
#
# number of rings (size 3 to 8) (size 9 to 14) (size 15 to 20)
#    0.000    1.400    4.000    0.600    2.800    1.600 
#    0.000    3.000    0.000    0.000    0.000    0.000 
#    0.000    0.000    0.000    0.000    0.000    0.000 
#
# Total GULP energy -111449.910258 kJ/mol
# GULP energy per Si atom -5572.495513 kJ/mol
# Density = 0.918826 g / cm^3
# Si number density = 9.209223 Si / 1000 Ang^3
#
#
#
# Elastic Constant Matrix: (Units=GPa)
#
#
# Indices 1 2 3 4 5 6 
#
# 1 183.0077 57.0819 64.3277 0.0000 24.7210 0.0000
# 2 57.0819 70.3096 41.6287 0.0000 11.1360 0.0000
# 3 64.3277 41.6287 128.1783 0.0000 -8.2538 0.0000
# 4 0.0000 0.0000 0.0000 25.9663 0.0000 0.3506
# 5 24.7210 11.1360 -8.2538 0.0000 47.0811 0.0000
# 6 0.0000 0.0000 0.0000 0.3506 0.0000 34.6223
#
#
#
# Elastic Compliance Matrix: (Units=1/GPa)
#
#
# Indices 1 2 3 4 5 6 
#
# 1 0.008450 -0.004430 -0.003055 0.000000 -0.003924 0.000000
# 2 -0.004430 0.021302 -0.004925 0.000000 -0.003576 0.000000
# 3 -0.003055 -0.004925 0.011239 0.000000 0.004739 0.000000
# 4 0.000000 0.000000 0.000000 0.038517 0.000000 -0.000390
# 5 -0.003924 -0.003576 0.004739 0.000000 0.024977 0.000000
# 6 0.000000 0.000000 0.000000 -0.000390 0.000000 0.028887
#
#
# Mechanical properties :
#
#
# Convention : Reuss Voigt Hill
#
# Bulk Modulus (GPa) = 61.83776 78.61913 70.22845
# Shear Modulus (GPa) = 30.56567 36.09776 33.33172
#
# Velocity S-wave (km/s) = 4.07813 4.43185 4.25866
# Velocity P-wave (km/s) = 7.47139 8.30458 7.89897
#
# Compressibility (1/GPa) = 0.01617135
#
# Stress axis : x y z
#
# Youngs Moduli (GPa) = 118.34549 46.94426 88.97290
#
# Poissons Ratio (x) = 0.20796 0.27178
# Poissons Ratio (y) = 0.52427 0.43821
# Poissons Ratio (z) = 0.36150 0.23121
#
# Static dielectric constant tensor:
#      x y z
#    x 1.634630 0.000000 -0.018030 
#    y 0.000000 1.660900 0.000000 
#    z -0.018030 0.000000 1.640250 
# 
# From -- ./inp_files/119182.got.cif
#   From: 2010.05.17/outbox.ucp.g08.bks.cvg/sg12_60_cif.got.tgz:119182.got - 2010.06.11 11:47:21.
