data_PCOD9225642
_publ_section_title
;
Structure prediction by ZEFSAII (Michael W. Deem and Ramdas Pophale) SiO2 
 PCOD9225642
Probable space group: C 2/M
;
_chemical_formula_sum "Si O2"
_cell_formula_units_Z 32
_cell_length_a 18.000000
_cell_length_b 24.000000
_cell_length_c 21.000000
_cell_angle_alpha 90.000000
_cell_angle_beta 20.000000
_cell_angle_gamma 90.000000
_cell_volume 3102.806740
_symmetry_space_group_name_H-M "C 2/M"
_symmetry_group_IT_number 12
_symmetry_cell_setting 'monoclinic'
loop_
_space_group_symop_operation_xyz
x,y,z
-x,y,-z
-x,-y,-z
x,-y,z
1/2+x,1/2+y,z
1/2-x,1/2+y,-z
1/2-x,1/2-y,-z
1/2+x,1/2-y,z
loop_
_atom_site_type_symbol
_atom_site_label
_atom_site_fract_x
_atom_site_fract_y
_atom_site_fract_z
Si Si1 0.745331 0.861626 0.330000
Si Si2 0.669438 0.564014 0.968039
Si Si3 0.331187 0.093370 0.467308
Si Si4 0.154783 0.059219 0.131828
Si Si5 0.739815 0.739325 0.286082
Si Si6 0.034843 0.750740 0.321905
Si Si7 0.109300 0.680355 0.670021
Si Si8 0.359461 0.170269 0.996964
O O1 0.500000 0.872854 0.500000
O O2 0.713930 0.873158 0.430327
O O3 0.793152 0.796136 0.280426
O O4 0.951802 0.896668 0.134699
O O5 0.609947 0.500000 0.999812
O O6 0.701570 0.567282 0.018671
O O7 0.911368 0.574770 0.741903
O O8 0.298413 0.121311 0.424016
O O9 0.107155 0.057920 0.650657
O O10 0.244533 0.000000 0.079520
O O11 0.277834 0.107822 0.069894
O O12 0.500000 0.717798 0.500000
O O13 0.694869 0.758599 0.250668
O O14 0.927600 0.693563 0.138519
O O15 0.996874 0.696997 0.311101
O O16 0.804075 0.777146 0.527082
O O17 0.151520 0.793518 0.181259
O O18 0.932099 0.679888 0.866274
#
# Coordination Sequence:
#
# PCOD9225642 Si02
#       8
#     8   8   8   8   8   8   8   8
#     4  10  24  42  59  89 129 170 212 259 313 376
#     4  10  22  40  63  91 123 165 215 267 317 364
#     4  11  21  39  64  92 123 161 209 266 316 369
#     4  10  22  41  63  92 124 157 208 268 321 374
#     4  11  23  43  60  89 135 171 205 254 319 386
#     4  11  24  39  59  93 131 166 202 253 316 377
#     4  11  22  36  62  94 127 157 209 260 306 376
#     4  12  23  39  64  93 124 168 207 256 317 376
#
# _framework density 10.313243
#
# number of rings (size 3 to 8) (size 9 to 14) (size 15 to 20)
#    0.000    1.250    3.750    2.625    3.500    1.250 
#    4.500    0.625    0.000    1.875    0.000    0.000 
#    0.000    0.000    0.000    0.000    0.000    0.000 
#
# Total GULP energy -178162.858074 kJ/mol
# GULP energy per Si atom -5567.589315 kJ/mol
# Density = 1.028977 g / cm^3
# Si number density = 10.313243 Si / 1000 Ang^3
#
#
#
# Elastic Constant Matrix: (Units=GPa)
#
#
# Indices 1 2 3 4 5 6 
#
# 1 37.2950 56.5250 25.6825 0.0330 -10.9450 0.3746
# 2 56.5250 73.7331 61.2170 0.1519 1.1496 -0.4461
# 3 25.6825 61.2170 144.4974 0.1405 5.3026 0.2537
# 4 0.0330 0.1519 0.1405 12.3951 0.0259 -6.0873
# 5 -10.9450 1.1496 5.3026 0.0259 34.5101 -0.1235
# 6 0.3746 -0.4461 0.2537 -6.0873 -0.1235 22.5642
#
#
#
# Elastic Compliance Matrix: (Units=1/GPa)
#
#
# Indices 1 2 3 4 5 6 
#
# 1 -0.069854 0.066230 -0.014839 0.000950 -0.022071 0.002771
# 2 0.066230 -0.041852 0.005171 -0.000789 0.021598 -0.002080
# 3 -0.014839 0.005171 0.007589 0.000018 -0.006044 0.000235
# 4 0.000950 -0.000789 0.000018 0.092989 0.000345 0.025056
# 5 -0.022071 0.021598 -0.006044 0.000345 0.022190 0.001076
# 6 0.002771 -0.002080 0.000235 0.025056 0.001076 0.050994
#
#
# Mechanical properties :
#
#
# Convention : Reuss Voigt Hill
#
# Bulk Modulus (GPa) = 111.01983 60.26383 85.64183
# Shear Modulus (GPa) = -104.02193 21.36727 -41.32733
#
# Velocity S-wave (km/s) = -7.10920 3.22205 -4.48102
# Velocity P-wave (km/s) = 3.66700 6.56676 3.85198
#
# Compressibility (1/GPa) = 0.00900740
#
# Stress axis : x y z
#
# Youngs Moduli (GPa) = -14.31558 -23.89393 131.77627
#
# Poissons Ratio (x) = 1.58250 1.95543
# Poissons Ratio (y) = 0.94812 -0.68141
# Poissons Ratio (z) = -0.21243 0.12355
#
# Static dielectric constant tensor:
#      x y z
#    x 1.794770 -0.000210 0.024500 
#    y -0.000210 1.951900 0.000230 
#    z 0.024500 0.000230 1.737500 
# 
# From -- ./inp_files/318327.got.cif
#   From: 2010.05.17/outbox.ucp.g08.bks.cvg/sg12_160_cif.got.tgz:318327.got - 2010.06.11 11:47:21.
