data_PCOD9225057
_publ_section_title
;
Structure prediction by ZEFSAII (Michael W. Deem and Ramdas Pophale) SiO2 
 PCOD9225057
Probable space group: C 2/M
;
_chemical_formula_sum "Si O2"
_cell_formula_units_Z 32
_cell_length_a 15.000000
_cell_length_b 30.000000
_cell_length_c 9.000000
_cell_angle_alpha 90.000000
_cell_angle_beta 130.000000
_cell_angle_gamma 90.000000
_cell_volume 3102.479995
_symmetry_space_group_name_H-M "C 2/M"
_symmetry_group_IT_number 12
_symmetry_cell_setting 'monoclinic'
loop_
_space_group_symop_operation_xyz
x,y,z
-x,y,-z
-x,-y,-z
x,-y,z
1/2+x,1/2+y,z
1/2-x,1/2+y,-z
1/2-x,1/2-y,-z
1/2+x,1/2-y,z
loop_
_atom_site_type_symbol
_atom_site_label
_atom_site_fract_x
_atom_site_fract_y
_atom_site_fract_z
Si Si1 0.672257 0.788893 0.343785
Si Si2 0.485679 0.946884 0.661561
Si Si3 0.370611 0.606611 0.308484
Si Si4 0.254948 0.949747 0.042707
Si Si5 0.372598 0.549296 0.792495
Si Si6 0.936853 0.716806 0.271339
Si Si7 0.269921 0.891926 0.558215
Si Si8 0.731426 0.300967 0.875677
O O1 0.750000 0.750000 0.500000
O O2 0.541077 0.783760 0.263766
O O3 0.712474 0.838851 0.432544
O O4 0.694536 0.786595 0.190761
O O5 0.500000 0.940115 0.500000
O O6 0.385359 0.917370 0.627152
O O7 0.464919 0.000000 0.663227
O O8 0.614903 0.935006 0.856599
O O9 0.500000 0.597717 0.500000
O O10 0.343338 0.580069 0.132281
O O11 0.270166 0.594987 0.319662
O O12 0.349249 0.658130 0.254407
O O13 0.242203 0.000000 0.973245
O O14 0.226841 0.950992 0.187109
O O15 0.367622 0.500000 0.713064
O O16 0.338016 0.590193 0.653493
O O17 0.500000 0.553113 0.000000
O O18 0.861607 0.762436 0.186528
O O19 0.000000 0.709957 0.500000
O O20 0.828680 0.685329 0.103573
#
# Coordination Sequence:
#
# PCOD9225057 Si02
#       8
#     8   8   8   8   8   8   8   8
#     4  11  24  43  63  94 137 169 219 282 329 391
#     4  10  20  40  67  96 133 166 209 276 330 387
#     4  11  25  43  64  89 131 173 213 267 321 400
#     4  10  22  39  62  95 133 167 208 267 328 389
#     4  10  20  39  64  95 132 168 217 274 322 386
#     4  11  22  42  70  93 123 166 220 268 330 395
#     4  11  24  39  66  94 124 178 220 266 330 401
#     4  10  24  44  67  93 126 174 211 272 338 378
#
# _framework density 10.314329000000001
#
# number of rings (size 3 to 8) (size 9 to 14) (size 15 to 20)
#    0.000    1.500    2.500    1.875    3.500    3.250 
#    0.000    1.250    0.000    0.000    0.000    0.000 
#    0.000    0.000    0.000    0.000    0.000    0.000 
#
# Total GULP energy -178500.601618 kJ/mol
# GULP energy per Si atom -5578.143801 kJ/mol
# Density = 1.029085 g / cm^3
# Si number density = 10.314329 Si / 1000 Ang^3
#
#
#
# Elastic Constant Matrix: (Units=GPa)
#
#
# Indices 1 2 3 4 5 6 
#
# 1 73.8648 40.4780 14.5700 0.0000 17.0937 0.0000
# 2 40.4780 56.0214 24.3882 0.0000 -2.7590 0.0000
# 3 14.5700 24.3882 72.2314 0.0000 6.4333 0.0000
# 4 0.0000 0.0000 0.0000 25.5302 0.0000 2.4099
# 5 17.0937 -2.7590 6.4333 0.0000 24.7822 0.0000
# 6 0.0000 0.0000 0.0000 2.4099 0.0000 33.1042
#
#
#
# Elastic Compliance Matrix: (Units=1/GPa)
#
#
# Indices 1 2 3 4 5 6 
#
# 1 0.035113 -0.029104 0.005312 0.000000 -0.028839 0.000000
# 2 -0.029104 0.045498 -0.012008 0.000000 0.028257 0.000000
# 3 0.005312 -0.012008 0.017681 0.000000 -0.009591 0.000000
# 4 0.000000 0.000000 0.000000 0.039440 0.000000 -0.002871
# 5 -0.028839 0.028257 -0.009591 0.000000 0.065879 0.000000
# 6 0.000000 0.000000 0.000000 -0.002871 0.000000 0.030417
#
#
# Mechanical properties :
#
#
# Convention : Reuss Voigt Hill
#
# Bulk Modulus (GPa) = 37.46194 40.11000 38.78597
# Shear Modulus (GPa) = 15.89698 24.86207 20.37953
#
# Velocity S-wave (km/s) = 2.77903 3.47539 3.14653
# Velocity P-wave (km/s) = 5.33825 5.96578 5.66072
#
# Compressibility (1/GPa) = 0.02669376
#
# Stress axis : x y z
#
# Youngs Moduli (GPa) = 28.47956 21.97890 56.55634
#
# Poissons Ratio (x) = 0.63966 -0.30044
# Poissons Ratio (y) = 0.82886 0.67914
# Poissons Ratio (z) = -0.15129 0.26393
#
# Static dielectric constant tensor:
#      x y z
#    x 1.718260 0.000000 -0.027580 
#    y 0.000000 1.775730 0.000000 
#    z -0.027580 0.000000 1.776350 
# 
# From -- ./inp_files/68655.got.cif
#   From: 2010.05.17/outbox.ucp.g08.bks.cvg/sg12_35_cif.got.tgz:68655.got - 2010.06.11 11:47:21.
