data_PCOD9225575
_publ_section_title
;
Structure prediction by ZEFSAII (Michael W. Deem and Ramdas Pophale) SiO2 
 PCOD9225575
Probable space group: C 2/M
;
_chemical_formula_sum "Si O2"
_cell_formula_units_Z 24
_cell_length_a 15.000000
_cell_length_b 24.000000
_cell_length_c 15.000000
_cell_angle_alpha 90.000000
_cell_angle_beta 30.000000
_cell_angle_gamma 90.000000
_cell_volume 2700.000000
_symmetry_space_group_name_H-M "C 2/M"
_symmetry_group_IT_number 12
_symmetry_cell_setting 'monoclinic'
loop_
_space_group_symop_operation_xyz
x,y,z
-x,y,-z
-x,-y,-z
x,-y,z
1/2+x,1/2+y,z
1/2-x,1/2+y,-z
1/2-x,1/2-y,-z
1/2+x,1/2-y,z
loop_
_atom_site_type_symbol
_atom_site_label
_atom_site_fract_x
_atom_site_fract_y
_atom_site_fract_z
Si Si1 0.866540 0.759197 0.258008
Si Si2 0.079241 0.566501 0.147576
Si Si3 0.083906 0.322209 0.623304
Si Si4 0.760164 0.244533 0.835958
Si Si5 0.797312 0.065387 0.617080
Si Si6 0.138909 0.113856 0.239876
O O1 0.755331 0.808371 0.408076
O O2 0.776464 0.750143 0.238888
O O3 0.860005 0.705767 0.330190
O O4 0.079172 0.762842 0.046948
O O5 0.102053 0.500000 0.157558
O O6 0.009120 0.616106 0.278052
O O7 0.907712 0.566472 0.232489
O O8 0.250788 0.585365 0.937976
O O9 0.923786 0.283561 0.723703
O O10 0.815098 0.179783 0.805609
O O11 0.805283 0.090704 0.710034
O O12 0.927103 0.098231 0.434279
O O13 0.851464 0.000000 0.568759
#
# Coordination Sequence:
#
# PCOD9225575 Si02
#       6
#     8   8   8   8   8   8
#     4  10  23  38  58  87 121 153 193 237 296 356
#     4  11  23  38  56  81 115 155 199 241 287 345
#     4  11  23  38  60  87 120 156 194 243 297 348
#     4  11  23  37  59  90 119 154 193 240 298 354
#     4  10  22  35  51  80 119 162 196 228 278 352
#     4  11  21  32  57  82 118 153 193 232 287 355
#
# _framework density 8.8888890000000007
#
# number of rings (size 3 to 8) (size 9 to 14) (size 15 to 20)
#    0.000    1.333    1.667    4.500   11.667    1.333 
#    0.000    0.000    0.000    2.000    0.000    2.333 
#    0.000    0.000    0.000    0.000    0.000    0.000 
#
# Total GULP energy -133704.474132 kJ/mol
# GULP energy per Si atom -5571.019755 kJ/mol
# Density = 0.886866 g / cm^3
# Si number density = 8.888889 Si / 1000 Ang^3
#
#
#
# Elastic Constant Matrix: (Units=GPa)
#
#
# Indices 1 2 3 4 5 6 
#
# 1 50.1657 16.0881 10.7115 -0.0012 4.8110 -0.0014
# 2 16.0881 137.6912 38.4445 -0.0067 11.0143 -0.0021
# 3 10.7115 38.4445 138.3093 -0.0137 16.7844 -0.0063
# 4 -0.0012 -0.0067 -0.0137 39.0907 -0.0076 3.8388
# 5 4.8110 11.0143 16.7844 -0.0076 33.3060 0.0064
# 6 -0.0014 -0.0021 -0.0063 3.8388 0.0064 24.3734
#
#
#
# Elastic Compliance Matrix: (Units=1/GPa)
#
#
# Indices 1 2 3 4 5 6 
#
# 1 0.020956 -0.002067 -0.000814 -0.000001 -0.001933 0.000001
# 2 -0.002067 0.008158 -0.001935 0.000000 -0.001424 0.000000
# 3 -0.000814 -0.001935 0.008243 0.000002 -0.003397 0.000003
# 4 -0.000001 0.000000 0.000002 0.025983 0.000006 -0.004092
# 5 -0.001933 -0.001424 -0.003397 0.000006 0.032487 -0.000011
# 6 0.000001 0.000000 0.000003 -0.004092 -0.000011 0.041673
#
#
# Mechanical properties :
#
#
# Convention : Reuss Voigt Hill
#
# Bulk Modulus (GPa) = 36.06614 50.73936 43.40275
# Shear Modulus (GPa) = 31.97480 36.74883 34.36182
#
# Velocity S-wave (km/s) = 4.24557 4.55149 4.40119
# Velocity P-wave (km/s) = 6.66066 7.49829 7.09185
#
# Compressibility (1/GPa) = 0.02772684
#
# Stress axis : x y z
#
# Youngs Moduli (GPa) = 47.71923 122.57551 121.31215
#
# Poissons Ratio (x) = 0.25332 0.09873
# Poissons Ratio (y) = 0.09862 0.23471
# Poissons Ratio (z) = 0.03884 0.23715
#
# Static dielectric constant tensor:
#      x y z
#    x 1.634470 -0.000010 -0.027230 
#    y -0.000010 1.645580 0.000020 
#    z -0.027230 0.000020 1.642760 
# 
# From -- ./inp_files/218426.got.cif
#   From: 2010.05.17/outbox.ucp.g08.bks.cvg/sg12_110_cif.got.tgz:218426.got - 2010.06.11 11:47:21.
