data_PCOD9225036
_publ_section_title
;
Structure prediction by ZEFSAII (Michael W. Deem and Ramdas Pophale) SiO2 
 PCOD9225036
Probable space group: C 2/M
;
_chemical_formula_sum "Si O2"
_cell_formula_units_Z 24
_cell_length_a 18.000000
_cell_length_b 9.000000
_cell_length_c 30.000000
_cell_angle_alpha 90.000000
_cell_angle_beta 150.000000
_cell_angle_gamma 90.000000
_cell_volume 2430.000000
_symmetry_space_group_name_H-M "C 2/M"
_symmetry_group_IT_number 12
_symmetry_cell_setting 'monoclinic'
loop_
_space_group_symop_operation_xyz
x,y,z
-x,y,-z
-x,-y,-z
x,-y,z
1/2+x,1/2+y,z
1/2-x,1/2+y,-z
1/2-x,1/2-y,-z
1/2+x,1/2-y,z
loop_
_atom_site_type_symbol
_atom_site_label
_atom_site_fract_x
_atom_site_fract_y
_atom_site_fract_z
Si Si1 0.213778 0.823747 0.934171
Si Si2 0.241455 0.181030 0.755815
Si Si3 0.648589 0.330381 0.559162
Si Si4 0.622404 0.320980 0.263367
Si Si5 0.902508 0.835112 0.571777
Si Si6 0.998464 0.832961 0.946858
O O1 0.052267 0.780195 0.831094
O O2 0.212910 0.000000 0.937561
O O3 0.250000 0.750000 0.000000
O O4 0.356528 0.768304 0.982433
O O5 0.296282 0.245251 0.736731
O O6 0.354611 0.252954 0.850542
O O7 0.066444 0.222495 0.670719
O O8 0.250816 0.000000 0.761008
O O9 0.500000 0.253736 0.500000
O O10 0.662990 0.500000 0.584893
O O11 0.794266 0.241929 0.649700
O O12 0.606567 0.345131 0.486118
O O13 0.635047 0.500000 0.267882
O O14 0.750000 0.750000 0.500000
O O15 0.890500 0.000000 0.585550
O O16 0.012374 0.000000 0.933202
O O17 0.000000 0.853301 0.000000
#
# Coordination Sequence:
#
# PCOD9225036 Si02
#       6
#     8   8   8   8   8   8
#     4  11  23  39  62  91 124 160 205 256 307 367
#     4  11  22  40  65  89 120 164 207 250 310 374
#     4  10  20  39  62  86 120 159 205 248 296 361
#     4  11  23  37  60  95 126 156 203 258 308 361
#     4  10  23  41  62  90 123 162 202 251 306 365
#     4  11  25  43  63  91 127 164 208 258 310 370
#
# _framework density 9.8765429999999999
#
# number of rings (size 3 to 8) (size 9 to 14) (size 15 to 20)
#    0.000    1.333    3.333    2.000    0.000    7.000 
#    0.000    6.667    0.000    0.000    0.000    0.000 
#    0.000    0.000    0.000    0.000    0.000    0.000 
#
# Total GULP energy -133695.721088 kJ/mol
# GULP energy per Si atom -5570.655045 kJ/mol
# Density = 0.985406 g / cm^3
# Si number density = 9.876543 Si / 1000 Ang^3
#
#
#
# Elastic Constant Matrix: (Units=GPa)
#
#
# Indices 1 2 3 4 5 6 
#
# 1 40.4454 10.2941 18.3450 0.0000 19.1408 0.0000
# 2 10.2941 69.5957 50.8501 0.0000 19.3716 0.0001
# 3 18.3450 50.8501 169.0144 0.0001 42.1074 0.0001
# 4 0.0000 0.0000 0.0001 41.2468 0.0000 6.1015
# 5 19.1408 19.3716 42.1074 0.0000 37.5006 0.0000
# 6 0.0000 0.0001 0.0001 6.1015 0.0000 36.6578
#
#
#
# Elastic Compliance Matrix: (Units=1/GPa)
#
#
# Indices 1 2 3 4 5 6 
#
# 1 0.032713 -0.000720 0.001018 0.000000 -0.017468 0.000000
# 2 -0.000720 0.019015 -0.004564 0.000000 -0.004330 0.000000
# 3 0.001018 -0.004564 0.009332 0.000000 -0.008640 0.000000
# 4 0.000000 0.000000 0.000000 0.024856 0.000000 -0.004137
# 5 -0.017468 -0.004330 -0.008640 0.000000 0.047521 0.000000
# 6 0.000000 0.000000 0.000000 -0.004137 0.000000 0.027968
#
#
# Mechanical properties :
#
#
# Convention : Reuss Voigt Hill
#
# Bulk Modulus (GPa) = 19.03758 48.67042 33.85400
# Shear Modulus (GPa) = 26.67420 36.38546 31.52983
#
# Velocity S-wave (km/s) = 3.67874 4.29653 3.99958
# Velocity P-wave (km/s) = 5.26335 7.02185 6.20521
#
# Compressibility (1/GPa) = 0.05252768
#
# Stress axis : x y z
#
# Youngs Moduli (GPa) = 30.56875 52.58941 107.15979
#
# Poissons Ratio (x) = 0.03788 -0.10908
# Poissons Ratio (y) = 0.02202 0.48907
# Poissons Ratio (z) = -0.03112 0.24001
#
# Static dielectric constant tensor:
#      x y z
#    x 1.505310 0.000000 -0.042540 
#    y 0.000000 1.166120 0.000000 
#    z -0.042540 0.000000 1.630420 
# 
# From -- ./inp_files/244646.got.cif
#   From: 2010.05.17/outbox.ucp.g08.bks.cvg/sg12_123_cif.got.tgz:244646.got - 2010.06.11 11:47:21.
