data_PCOD9225068
_publ_section_title
;
Structure prediction by ZEFSAII (Michael W. Deem and Ramdas Pophale) SiO2 
 PCOD9225068
Probable space group: C 2/M
;
_chemical_formula_sum "Si O2"
_cell_formula_units_Z 32
_cell_length_a 15.000000
_cell_length_b 18.000000
_cell_length_c 15.000000
_cell_angle_alpha 90.000000
_cell_angle_beta 50.000000
_cell_angle_gamma 90.000000
_cell_volume 3102.479995
_symmetry_space_group_name_H-M "C 2/M"
_symmetry_group_IT_number 12
_symmetry_cell_setting 'monoclinic'
loop_
_space_group_symop_operation_xyz
x,y,z
-x,y,-z
-x,-y,-z
x,-y,z
1/2+x,1/2+y,z
1/2-x,1/2+y,-z
1/2-x,1/2-y,-z
1/2+x,1/2-y,z
loop_
_atom_site_type_symbol
_atom_site_label
_atom_site_fract_x
_atom_site_fract_y
_atom_site_fract_z
Si Si1 0.045289 0.147655 0.178994
Si Si2 0.311370 0.241961 0.590931
Si Si3 0.198260 0.852492 0.909974
Si Si4 0.427277 0.219957 0.344088
Si Si5 0.195052 0.912933 0.711343
Si Si6 0.220711 0.193470 0.204538
Si Si7 0.444743 0.917615 0.773658
Si Si8 0.910657 0.420291 0.138111
O O1 0.144576 0.140573 0.189998
O O2 0.005107 0.231739 0.227287
O O3 0.928992 0.098626 0.258375
O O4 0.098042 0.139615 0.047036
O O5 0.402726 0.256808 0.454707
O O6 0.195909 0.282903 0.626922
O O7 0.278487 0.153542 0.620450
O O8 0.341498 0.272238 0.668611
O O9 0.175609 0.888257 0.827328
O O10 0.229355 0.765454 0.878954
O O11 0.312659 0.893738 0.872281
O O12 0.490480 0.143603 0.325544
O O13 0.230938 0.000000 0.682904
O O14 0.325456 0.146435 0.176231
O O15 0.514389 0.914571 0.820992
O O16 0.449678 0.000000 0.732639
O O17 0.847529 0.500000 0.181346
O O18 0.000000 0.421077 0.000000
#
# Coordination Sequence:
#
# PCOD9225068 Si02
#       8
#     8   8   8   8   8   8   8   8
#     4  11  23  37  61  88 121 163 199 250 298 363
#     4   9  21  39  64  88 118 160 203 262 295 355
#     4  11  23  37  60  91 121 159 203 250 303 363
#     4  10  20  40  60  91 120 155 213 246 304 355
#     4  10  23  42  61  89 123 162 206 251 308 365
#     4  11  21  36  61  87 121 159 202 249 301 364
#     4  11  22  38  60  89 124 158 196 247 309 368
#     4  10  22  36  55  86 124 159 193 242 303 367
#
# _framework density 10.314329000000001
#
# number of rings (size 3 to 8) (size 9 to 14) (size 15 to 20)
#    0.000    1.625    2.500    1.875    1.750    3.000 
#    0.000    0.000    0.000    2.250    0.000    3.500 
#    0.000    0.000    0.000    0.000    0.000    0.000 
#
# Total GULP energy -178491.215090 kJ/mol
# GULP energy per Si atom -5577.850472 kJ/mol
# Density = 1.029085 g / cm^3
# Si number density = 10.314329 Si / 1000 Ang^3
#
#
#
# Elastic Constant Matrix: (Units=GPa)
#
#
# Indices 1 2 3 4 5 6 
#
# 1 59.3085 12.9249 0.5544 0.0000 -15.3629 0.0000
# 2 12.9249 78.8142 -14.9389 0.0000 -24.8672 0.0000
# 3 0.5544 -14.9389 26.9763 0.0000 -10.1109 0.0000
# 4 0.0000 0.0000 0.0000 -0.4267 0.0000 -12.8798
# 5 -15.3629 -24.8672 -10.1109 0.0000 21.1407 0.0000
# 6 0.0000 0.0000 0.0000 -12.8798 0.0000 13.9747
#
#
#
# Elastic Compliance Matrix: (Units=1/GPa)
#
#
# Indices 1 2 3 4 5 6 
#
# 1 0.028122 0.022073 0.035379 0.000000 0.063320 0.000000
# 2 0.022073 0.075991 0.098867 0.000000 0.152712 0.000000
# 3 0.035379 0.098867 0.175838 0.000000 0.226102 0.000000
# 4 0.000000 0.000000 0.000000 -0.081318 0.000000 -0.074947
# 5 0.063320 0.152712 0.226102 0.000000 0.381086 0.000000
# 6 0.000000 0.000000 0.000000 -0.074947 0.000000 0.002483
#
#
# Mechanical properties :
#
#
# Convention : Reuss Voigt Hill
#
# Bulk Modulus (GPa) = 1.68751 18.01998 9.85374
# Shear Modulus (GPa) = 10.70446 18.04165 14.37306
#
# Velocity S-wave (km/s) = 2.28044 2.96056 2.64247
# Velocity P-wave (km/s) = 2.78454 4.52116 3.75464
#
# Compressibility (1/GPa) = 0.59258759
#
# Stress axis : x y z
#
# Youngs Moduli (GPa) = 35.55915 13.15940 5.68705
#
# Poissons Ratio (x) = -0.29046 -0.20120
# Poissons Ratio (y) = -0.78489 -0.56226
# Poissons Ratio (z) = -1.25803 -1.30103
#
# Static dielectric constant tensor:
#      x y z
#    x 1.800310 0.000000 -0.030880 
#    y 0.000000 1.783670 0.000000 
#    z -0.030880 0.000000 1.732900 
# 
# From -- ./inp_files/216791.got.cif
#   From: 2010.05.17/outbox.ucp.g08.bks.cvg/sg12_109_cif.got.tgz:216791.got - 2010.06.11 11:47:21.
