data_PCOD9225623
_publ_section_title
;
Structure prediction by ZEFSAII (Michael W. Deem and Ramdas Pophale) SiO2 
 PCOD9225623
Probable space group: C 2/M
;
_chemical_formula_sum "Si O2"
_cell_formula_units_Z 32
_cell_length_a 30.000000
_cell_length_b 9.000000
_cell_length_c 12.000000
_cell_angle_alpha 90.000000
_cell_angle_beta 90.000000
_cell_angle_gamma 90.000000
_cell_volume 3240.000000
_symmetry_space_group_name_H-M "C 2/M"
_symmetry_group_IT_number 12
_symmetry_cell_setting 'monoclinic'
loop_
_space_group_symop_operation_xyz
x,y,z
-x,y,-z
-x,-y,-z
x,-y,z
1/2+x,1/2+y,z
1/2-x,1/2+y,-z
1/2-x,1/2-y,-z
1/2+x,1/2-y,z
loop_
_atom_site_type_symbol
_atom_site_label
_atom_site_fract_x
_atom_site_fract_y
_atom_site_fract_z
Si Si1 0.920653 0.178199 0.289259
Si Si2 0.893556 0.176981 0.527493
Si Si3 0.005099 0.822284 0.131598
Si Si4 0.706705 0.677349 0.445005
Si Si5 0.259430 0.822460 0.766740
Si Si6 0.092284 0.678015 0.233097
Si Si7 0.830389 0.679381 0.935729
Si Si8 0.167011 0.678470 0.809449
O O1 0.924260 0.214277 0.421136
O O2 0.877617 0.265260 0.247437
O O3 0.961982 0.211736 0.208102
O O4 0.912709 0.000000 0.282927
O O5 0.841284 0.208233 0.500112
O O6 0.903929 0.258343 0.642450
O O7 0.897044 0.000000 0.546979
O O8 0.046378 0.732606 0.180054
O O9 0.013096 0.000000 0.141083
O O10 0.000000 0.788855 0.000000
O O11 0.712265 0.500000 0.440119
O O12 0.750000 0.750000 0.500000
O O13 0.707716 0.750737 0.323522
O O14 0.282199 0.786225 0.884515
O O15 0.211037 0.751150 0.757342
O O16 0.257251 0.000000 0.751430
O O17 0.094660 0.500000 0.238356
O O18 0.131381 0.731883 0.149171
O O19 0.833820 0.500000 0.937958
O O20 0.835366 0.730368 0.061698
O O21 0.170625 0.500000 0.804553
#
# Coordination Sequence:
#
# PCOD9225623 Si02
#       8
#     8   8   8   8   8   8   8   8
#     4  10  22  41  62  86 119 158 198 244 303 359
#     4  10  22  40  60  84 117 157 201 247 298 358
#     4  10  22  41  65  93 123 157 200 245 297 366
#     4  11  22  36  57  85 117 158 207 256 304 359
#     4  11  21  37  57  81 118 159 201 245 299 362
#     4  11  22  39  64  91 121 158 200 249 306 357
#     4   9  20  37  57  84 119 157 196 246 301 359
#     4  11  22  37  58  87 120 154 200 250 303 361
#
# _framework density 9.8765429999999999
#
# number of rings (size 3 to 8) (size 9 to 14) (size 15 to 20)
#    0.000    1.625    1.250    3.375    0.000    3.250 
#    0.000    6.250    0.000    0.000    0.000    0.000 
#    0.000    0.000    0.000    0.000    0.000    0.000 
#
# Total GULP energy -178702.373069 kJ/mol
# GULP energy per Si atom -5584.449158 kJ/mol
# Density = 0.985406 g / cm^3
# Si number density = 9.876543 Si / 1000 Ang^3
#
#
#
# Elastic Constant Matrix: (Units=GPa)
#
#
# Indices 1 2 3 4 5 6 
#
# 1 82.2103 37.0043 28.7868 0.0000 -14.0379 0.0000
# 2 37.0043 35.8417 24.4790 0.0000 -1.8553 0.0000
# 3 28.7868 24.4790 101.3685 0.0000 -12.9770 0.0000
# 4 0.0000 0.0000 0.0000 29.2667 0.0000 4.7755
# 5 -14.0379 -1.8553 -12.9770 0.0000 36.1531 0.0000
# 6 0.0000 0.0000 0.0000 4.7755 0.0000 25.7847
#
#
#
# Elastic Compliance Matrix: (Units=1/GPa)
#
#
# Indices 1 2 3 4 5 6 
#
# 1 0.025045 -0.025509 0.000131 0.000000 0.008463 0.000000
# 2 -0.025509 0.059445 -0.008373 0.000000 -0.009860 0.000000
# 3 0.000131 -0.008373 0.012370 0.000000 0.004061 0.000000
# 4 0.000000 0.000000 0.000000 0.035233 0.000000 -0.006525
# 5 0.008463 -0.009860 0.004061 0.000000 0.031898 0.000000
# 6 0.000000 0.000000 0.000000 -0.006525 0.000000 0.039991
#
#
# Mechanical properties :
#
#
# Convention : Reuss Voigt Hill
#
# Bulk Modulus (GPa) = 34.06259 44.44006 39.25133
# Shear Modulus (GPa) = 17.77646 26.85092 22.31369
#
# Velocity S-wave (km/s) = 3.00314 3.69091 3.36464
# Velocity P-wave (km/s) = 5.41357 6.38047 5.91680
#
# Compressibility (1/GPa) = 0.02935772
#
# Stress axis : x y z
#
# Youngs Moduli (GPa) = 39.92791 16.82219 80.84256
#
# Poissons Ratio (x) = 0.42912 -0.01059
# Poissons Ratio (y) = 1.01852 0.67692
# Poissons Ratio (z) = -0.00523 0.14086
#
# Static dielectric constant tensor:
#      x y z
#    x 1.657760 0.000000 0.097810 
#    y 0.000000 1.653610 0.000000 
#    z 0.097810 0.000000 1.423840 
# 
# From -- ./inp_files/187545.got.cif
#   From: 2010.05.17/outbox.ucp.g08.bks.cvg/sg12_94_cif.got.tgz:187545.got - 2010.06.11 11:47:21.
