data_PCOD9225600
_publ_section_title
;
Structure prediction by ZEFSAII (Michael W. Deem and Ramdas Pophale) SiO2 
 PCOD9225600
Probable space group: C 2/M
;
_chemical_formula_sum "Si O2"
_cell_formula_units_Z 22
_cell_length_a 12.000000
_cell_length_b 27.000000
_cell_length_c 9.000000
_cell_angle_alpha 90.000000
_cell_angle_beta 130.000000
_cell_angle_gamma 90.000000
_cell_volume 2233.785596
_symmetry_space_group_name_H-M "C 2/M"
_symmetry_group_IT_number 12
_symmetry_cell_setting 'monoclinic'
loop_
_space_group_symop_operation_xyz
x,y,z
-x,y,-z
-x,-y,-z
x,-y,z
1/2+x,1/2+y,z
1/2-x,1/2+y,-z
1/2-x,1/2-y,-z
1/2+x,1/2-y,z
loop_
_atom_site_type_symbol
_atom_site_label
_atom_site_fract_x
_atom_site_fract_y
_atom_site_fract_z
Si Si1 0.548817 0.000000 0.787644
Si Si2 0.341465 0.837468 0.542728
Si Si3 0.000000 0.582195 0.500000
Si Si4 0.169060 0.219618 0.150956
Si Si5 0.232862 0.500000 0.239593
Si Si6 0.844334 0.322434 0.025834
Si Si7 0.169735 0.889144 0.655995
O O1 0.549592 0.952689 0.678596
O O2 0.401127 0.000000 0.758241
O O3 0.672448 0.000000 0.018779
O O4 0.378723 0.880439 0.456251
O O5 0.259401 0.794345 0.377890
O O6 0.492663 0.826198 0.763126
O O7 0.237826 0.862492 0.572446
O O8 0.247703 0.192358 0.083090
O O9 0.168202 0.277592 0.104262
O O10 0.000000 0.204180 0.000000
O O11 0.315437 0.448512 0.335512
O O12 0.770065 0.369142 0.879442
O O13 0.000000 0.875732 0.500000
#
# Coordination Sequence:
#
# PCOD9225600 Si02
#       7
#     4   8   4   8   4   8   8
#     4  10  22  38  69  96 129 166 227 263 322 388
#     4  12  23  43  69  95 133 173 223 267 318 398
#     4  11  20  40  66 100 122 170 218 267 308 386
#     4  11  24  42  65  97 135 171 217 270 334 382
#     4  11  23  40  65  96 130 171 209 276 327 396
#     4  11  25  43  67  96 129 176 223 267 322 396
#     4  12  26  43  66  96 134 170 218 276 335 383
#
# _framework density 9.8487519999999993
#
# number of rings (size 3 to 8) (size 9 to 14) (size 15 to 20)
#    0.000    0.727    3.636    4.091    2.545    5.818 
#    0.000    0.000    0.000    1.091    0.000    0.000 
#    0.000    0.000    0.000    0.000    0.000    0.000 
#
# Total GULP energy -122835.778837 kJ/mol
# GULP energy per Si atom -5583.444493 kJ/mol
# Density = 0.982634 g / cm^3
# Si number density = 9.848752 Si / 1000 Ang^3
#
#
#
# Elastic Constant Matrix: (Units=GPa)
#
#
# Indices 1 2 3 4 5 6 
#
# 1 149.0645 50.0733 60.3018 0.0000 13.3370 0.0000
# 2 50.0733 119.3971 68.0488 0.0000 -2.6240 0.0000
# 3 60.3018 68.0488 155.6366 0.0000 8.1943 0.0000
# 4 0.0000 0.0000 0.0000 25.0348 0.0000 -16.3500
# 5 13.3370 -2.6240 8.1943 0.0000 39.9189 0.0000
# 6 0.0000 0.0000 0.0000 -16.3500 0.0000 26.3392
#
#
#
# Elastic Compliance Matrix: (Units=1/GPa)
#
#
# Indices 1 2 3 4 5 6 
#
# 1 0.008631 -0.002463 -0.002130 0.000000 -0.002608 0.000000
# 2 -0.002463 0.011981 -0.004417 0.000000 0.002517 0.000000
# 3 -0.002130 -0.004417 0.009259 0.000000 -0.001479 0.000000
# 4 0.000000 0.000000 0.000000 0.067179 0.000000 0.041701
# 5 -0.002608 0.002517 -0.001479 0.000000 0.026391 0.000000
# 6 0.000000 0.000000 0.000000 0.041701 0.000000 0.063852
#
#
# Mechanical properties :
#
#
# Convention : Reuss Voigt Hill
#
# Bulk Modulus (GPa) = 84.37280 86.77177 85.57228
# Shear Modulus (GPa) = 23.89338 34.63689 29.26513
#
# Velocity S-wave (km/s) = 3.48662 4.19793 3.85870
# Velocity P-wave (km/s) = 7.68999 8.22463 7.96180
#
# Compressibility (1/GPa) = 0.01185216
#
# Stress axis : x y z
#
# Youngs Moduli (GPa) = 115.86346 83.46627 107.99893
#
# Poissons Ratio (x) = 0.20559 0.23001
# Poissons Ratio (y) = 0.28539 0.47698
# Poissons Ratio (z) = 0.24676 0.36863
#
# Static dielectric constant tensor:
#      x y z
#    x 1.721790 0.000000 -0.000120 
#    y 0.000000 1.711350 0.000000 
#    z -0.000120 0.000000 1.696680 
# 
# From -- ./inp_files/53446.got.cif
#   From: 2010.05.17/outbox.ucp.g08.bks.cvg/sg12_27_cif.got.tgz:53446.got - 2010.06.11 11:47:21.
