data_PCOD9225316
_publ_section_title
;
Structure prediction by ZEFSAII (Michael W. Deem and Ramdas Pophale) SiO2 
 PCOD9225316
Probable space group: C 2/M
;
_chemical_formula_sum "Si O2"
_cell_formula_units_Z 28
_cell_length_a 27.000000
_cell_length_b 18.000000
_cell_length_c 9.000000
_cell_angle_alpha 90.000000
_cell_angle_beta 40.000000
_cell_angle_gamma 90.000000
_cell_volume 2811.553005
_symmetry_space_group_name_H-M "C 2/M"
_symmetry_group_IT_number 12
_symmetry_cell_setting 'monoclinic'
loop_
_space_group_symop_operation_xyz
x,y,z
-x,y,-z
-x,-y,-z
x,-y,z
1/2+x,1/2+y,z
1/2-x,1/2+y,-z
1/2-x,1/2-y,-z
1/2+x,1/2-y,z
loop_
_atom_site_type_symbol
_atom_site_label
_atom_site_fract_x
_atom_site_fract_y
_atom_site_fract_z
Si Si1 0.437822 0.160810 0.345683
Si Si2 0.726460 0.417013 0.449318
Si Si3 0.848200 0.084598 0.703614
Si Si4 0.230684 0.320464 0.149873
Si Si5 0.395100 0.861589 0.104615
Si Si6 0.506799 0.691996 0.649718
Si Si7 0.156559 0.805777 0.845688
O O1 0.359608 0.157604 0.625826
O O2 0.412851 0.134209 0.239562
O O3 0.461290 0.247623 0.306625
O O4 0.523661 0.124022 0.169281
O O5 0.708681 0.500000 0.546035
O O6 0.692689 0.409526 0.362424
O O7 0.819149 0.407473 0.237267
O O8 0.683927 0.356651 0.648249
O O9 0.926945 0.131052 0.519951
O O10 0.867026 0.000000 0.692683
O O11 0.784368 0.114468 0.963918
O O12 0.268930 0.300862 0.219546
O O13 0.250000 0.250000 0.000000
O O14 0.368300 0.776961 0.139921
O O15 0.500000 0.727989 0.500000
O O16 0.421909 0.664943 0.893894
#
# Coordination Sequence:
#
# PCOD9225316 Si02
#       7
#     8   8   8   8   8   8   8
#     4  10  21  37  63  93 120 152 203 255 307 359
#     4  11  24  42  62  88 123 166 209 249 304 367
#     4  11  25  41  59  87 128 167 201 249 310 368
#     4  12  21  38  63  91 121 159 204 252 305 360
#     4  10  21  39  63  94 121 153 201 263 310 347
#     4  11  21  39  57  93 125 158 200 251 309 362
#     4  11  22  36  66  90 118 159 206 253 301 367
#
# _framework density 9.9589090000000002
#
# number of rings (size 3 to 8) (size 9 to 14) (size 15 to 20)
#    0.000    1.143    4.286    2.143    0.000    4.286 
#    0.000    3.571    0.000    1.714    0.000    0.000 
#    0.000    0.000    0.000    0.000    0.000    0.000 
#
# Total GULP energy -156193.276733 kJ/mol
# GULP energy per Si atom -5578.331312 kJ/mol
# Density = 0.993624 g / cm^3
# Si number density = 9.958909 Si / 1000 Ang^3
#
#
#
# Elastic Constant Matrix: (Units=GPa)
#
#
# Indices 1 2 3 4 5 6 
#
# 1 41.0753 4.8478 -2.1484 0.0000 -18.1454 0.0000
# 2 4.8478 30.6253 -1.4239 0.0000 -2.5020 0.0000
# 3 -2.1484 -1.4239 114.8792 0.0000 -34.2096 0.0000
# 4 0.0000 0.0000 0.0000 19.5810 0.0000 -3.9785
# 5 -18.1454 -2.5020 -34.2096 0.0000 35.0178 0.0000
# 6 0.0000 0.0000 0.0000 -3.9785 0.0000 21.2113
#
#
#
# Elastic Compliance Matrix: (Units=1/GPa)
#
#
# Indices 1 2 3 4 5 6 
#
# 1 0.037596 -0.003239 0.009019 0.000000 0.028061 0.000000
# 2 -0.003239 0.033323 0.000792 0.000000 0.001476 0.000000
# 3 0.009019 0.000792 0.014514 0.000000 0.018909 0.000000
# 4 0.000000 0.000000 0.000000 0.053093 0.000000 0.009958
# 5 0.028061 0.001476 0.018909 0.000000 0.061676 0.000000
# 6 0.000000 0.000000 0.000000 0.009958 0.000000 0.049012
#
#
# Mechanical properties :
#
#
# Convention : Reuss Voigt Hill
#
# Bulk Modulus (GPa) = 10.14442 21.01452 15.57947
# Shear Modulus (GPa) = 18.59220 27.51565 23.05392
#
# Velocity S-wave (km/s) = 3.05855 3.72083 3.40583
# Velocity P-wave (km/s) = 4.19251 5.38822 4.82753
#
# Compressibility (1/GPa) = 0.09857639
#
# Stress axis : x y z
#
# Youngs Moduli (GPa) = 26.59874 30.00933 68.89767
#
# Poissons Ratio (x) = 0.09721 -0.62140
# Poissons Ratio (y) = 0.08616 -0.05457
# Poissons Ratio (z) = -0.23990 -0.02377
#
# Static dielectric constant tensor:
#      x y z
#    x 1.734320 0.000000 0.016650 
#    y 0.000000 1.708380 0.000000 
#    z 0.016650 0.000000 1.731630 
# 
# From -- ./inp_files/98066.got.cif
#   From: 2010.05.17/outbox.ucp.g08.bks.cvg/sg12_50_cif.got.tgz:98066.got - 2010.06.11 11:47:21.
