data_PCOD9225431
_publ_section_title
;
Structure prediction by ZEFSAII (Michael W. Deem and Ramdas Pophale) SiO2 
 PCOD9225431
Probable space group: C 2/M
;
_chemical_formula_sum "Si O2"
_cell_formula_units_Z 24
_cell_length_a 18.000000
_cell_length_b 15.000000
_cell_length_c 9.000000
_cell_angle_alpha 90.000000
_cell_angle_beta 90.000000
_cell_angle_gamma 90.000000
_cell_volume 2430.000000
_symmetry_space_group_name_H-M "C 2/M"
_symmetry_group_IT_number 12
_symmetry_cell_setting 'monoclinic'
loop_
_space_group_symop_operation_xyz
x,y,z
-x,y,-z
-x,-y,-z
x,-y,z
1/2+x,1/2+y,z
1/2-x,1/2+y,-z
1/2-x,1/2-y,-z
1/2+x,1/2-y,z
loop_
_atom_site_type_symbol
_atom_site_label
_atom_site_fract_x
_atom_site_fract_y
_atom_site_fract_z
Si Si1 0.951673 0.600396 0.846473
Si Si2 0.212322 0.601406 0.260565
Si Si3 0.312616 0.100356 0.383468
Si Si4 0.858429 0.795912 0.323500
Si Si5 0.988480 0.797280 0.822086
Si Si6 0.639288 0.395146 0.359851
O O1 0.962214 0.500000 0.780271
O O2 0.861007 0.612823 0.842789
O O3 0.977265 0.693370 0.774437
O O4 0.000000 0.598193 0.000000
O O5 0.239304 0.500000 0.237665
O O6 0.188917 0.607190 0.435584
O O7 0.282377 0.667420 0.248337
O O8 0.354131 0.188261 0.327190
O O9 0.227554 0.106677 0.323516
O O10 0.340590 0.000000 0.346141
O O11 0.863273 0.836825 0.489354
O O12 0.933281 0.827671 0.245027
O O13 0.918307 0.852699 0.758047
O O14 0.000000 0.801121 0.000000
O O15 0.621108 0.500000 0.386058
#
# Coordination Sequence:
#
# PCOD9225431 Si02
#       6
#     8   8   8   8   8   8
#     4   9  18  35  56  76 106 147 184 221 271 330
#     4   9  17  32  56  83 108 137 182 236 281 324
#     4   9  18  33  57  87 112 138 179 234 284 323
#     4  11  20  34  60  85 110 145 187 231 272 327
#     4  11  24  38  53  80 117 153 186 225 275 326
#     4  10  21  39  61  83 111 146 185 229 277 331
#
# _framework density 9.8765429999999999
#
# number of rings (size 3 to 8) (size 9 to 14) (size 15 to 20)
#    0.000    2.167    0.000    6.000    0.000    3.000 
#    0.000    7.500    0.000   13.000    0.000    0.000 
#    0.000    0.000    0.000    0.000    0.000    0.000 
#
# Total GULP energy -133753.924985 kJ/mol
# GULP energy per Si atom -5573.080208 kJ/mol
# Density = 0.985406 g / cm^3
# Si number density = 9.876543 Si / 1000 Ang^3
#
#
#
# Elastic Constant Matrix: (Units=GPa)
#
#
# Indices 1 2 3 4 5 6 
#
# 1 97.0848 35.2337 32.8823 0.0000 36.0234 0.0000
# 2 35.2337 123.8680 15.9103 0.0000 14.5055 0.0000
# 3 32.8823 15.9103 34.7986 0.0000 24.7369 0.0000
# 4 0.0000 0.0000 0.0000 16.1115 0.0000 21.8705
# 5 36.0234 14.5055 24.7369 0.0000 33.0697 0.0000
# 6 0.0000 0.0000 0.0000 21.8705 0.0000 27.2213
#
#
#
# Elastic Compliance Matrix: (Units=1/GPa)
#
#
# Indices 1 2 3 4 5 6 
#
# 1 0.018863 -0.002862 -0.005983 0.000000 -0.014817 0.000000
# 2 -0.002862 0.009060 -0.001771 0.000000 0.000468 0.000000
# 3 -0.005983 -0.001771 0.064099 0.000000 -0.040653 0.000000
# 4 0.000000 0.000000 0.000000 -0.684941 0.000000 0.550304
# 5 -0.014817 0.000468 -0.040653 0.000000 0.076585 0.000000
# 6 0.000000 0.000000 0.000000 0.550304 0.000000 -0.405397
#
#
# Mechanical properties :
#
#
# Convention : Reuss Voigt Hill
#
# Bulk Modulus (GPa) = 14.12614 47.08934 30.60774
# Shear Modulus (GPa) = -5.70189 26.72884 10.51348
#
# Velocity S-wave (km/s) = -1.70084 3.68251 2.30955
# Velocity P-wave (km/s) = 1.81927 6.47857 4.75824
#
# Compressibility (1/GPa) = 0.07079076
#
# Stress axis : x y z
#
# Youngs Moduli (GPa) = 53.01284 110.37783 15.60095
#
# Poissons Ratio (x) = 0.31589 0.09334
# Poissons Ratio (y) = 0.15172 0.02762
# Poissons Ratio (z) = 0.31717 0.19545
#
# Static dielectric constant tensor:
#      x y z
#    x 1.694140 0.000000 -0.010100 
#    y 0.000000 1.722820 0.000000 
#    z -0.010100 0.000000 1.685100 
# 
# From -- ./inp_files/73605.got.cif
#   From: 2010.05.17/outbox.ucp.g08.bks.cvg/sg12_37_cif.got.tgz:73605.got - 2010.06.11 11:47:21.
