data_PCOD9225833
_publ_section_title
;
Structure prediction by ZEFSAII (Michael W. Deem and Ramdas Pophale) SiO2 
 PCOD9225833
Probable space group: C 2/M
;
_chemical_formula_sum "Si O2"
_cell_formula_units_Z 32
_cell_length_a 18.000000
_cell_length_b 27.000000
_cell_length_c 24.000000
_cell_angle_alpha 90.000000
_cell_angle_beta 160.000000
_cell_angle_gamma 90.000000
_cell_volume 3989.322952
_symmetry_space_group_name_H-M "C 2/M"
_symmetry_group_IT_number 12
_symmetry_cell_setting 'monoclinic'
loop_
_space_group_symop_operation_xyz
x,y,z
-x,y,-z
-x,-y,-z
x,-y,z
1/2+x,1/2+y,z
1/2-x,1/2+y,-z
1/2-x,1/2-y,-z
1/2+x,1/2-y,z
loop_
_atom_site_type_symbol
_atom_site_label
_atom_site_fract_x
_atom_site_fract_y
_atom_site_fract_z
Si Si1 0.578806 0.658812 0.337177
Si Si2 0.672851 0.055703 0.199649
Si Si3 0.125610 0.264346 0.144218
Si Si4 0.743993 0.651317 0.678526
Si Si5 0.832560 0.942493 0.186126
Si Si6 0.809155 0.691063 0.613258
Si Si7 0.438667 0.212438 0.521743
Si Si8 0.788565 0.250139 0.093504
O O1 0.485451 0.602729 0.273615
O O2 0.660575 0.674333 0.457192
O O3 0.789034 0.670237 0.445600
O O4 0.386638 0.696701 0.182261
O O5 0.758025 0.096622 0.300375
O O6 0.788005 0.062447 0.220942
O O7 0.713688 0.000000 0.247009
O O8 0.412273 0.062350 0.010386
O O9 0.159052 0.312377 0.206642
O O10 0.341451 0.231344 0.292531
O O11 0.000000 0.279975 0.000000
O O12 0.943507 0.233925 0.047556
O O13 0.500000 0.669321 0.500000
O O14 0.843238 0.652663 0.687064
O O15 0.904591 0.000000 0.226346
O O16 0.711493 0.739076 0.576146
O O17 0.042303 0.711253 0.761022
O O18 0.500000 0.203393 0.500000
O O19 0.750000 0.250000 0.000000
#
# Coordination Sequence:
#
# PCOD9225833 Si02
#       8
#     8   8   8   8   8   8   8   8
#     4  11  22  35  57  77 106 147 180 216 272 323
#     4   9  20  35  52  79 109 137 178 226 270 313
#     4  12  21  31  49  73  99 140 181 214 256 308
#     4  12  21  31  50  71 107 147 175 214 256 315
#     4   9  19  36  57  80 105 134 179 232 271 319
#     4  11  20  36  47  75 110 146 177 214 261 319
#     4  11  20  37  50  73 112 141 173 217 267 312
#     4  11  21  33  49  75 106 137 180 219 254 314
#
# _framework density 8.0214110000000005
#
# number of rings (size 3 to 8) (size 9 to 14) (size 15 to 20)
#    0.000    1.250    3.750    6.000    3.500    0.250 
#    0.000    0.625    0.000    0.375    0.000    0.000 
#    0.000    1.750    0.000    0.000    0.000    0.000 
#
# Total GULP energy -178179.583834 kJ/mol
# GULP energy per Si atom -5568.111995 kJ/mol
# Density = 0.800315 g / cm^3
# Si number density = 8.021411 Si / 1000 Ang^3
#
#
#
# Elastic Constant Matrix: (Units=GPa)
#
#
# Indices 1 2 3 4 5 6 
#
# 1 70.9629 23.4983 23.0402 -0.0475 -5.5631 -0.0024
# 2 23.4983 61.8040 30.9567 -0.0538 0.0420 -0.0070
# 3 23.0402 30.9567 74.0835 -0.0319 -2.9391 0.0043
# 4 -0.0475 -0.0538 -0.0319 18.9987 0.0088 3.7164
# 5 -5.5631 0.0420 -2.9391 0.0088 34.6407 0.0012
# 6 -0.0024 -0.0070 0.0043 3.7164 0.0012 24.6219
#
#
#
# Elastic Compliance Matrix: (Units=1/GPa)
#
#
# Indices 1 2 3 4 5 6 
#
# 1 0.016911 -0.004864 -0.003130 0.000023 0.002456 -0.000003
# 2 -0.004864 0.021882 -0.007689 0.000037 -0.001460 0.000002
# 3 -0.003130 -0.007689 0.017725 0.000001 0.001011 -0.000006
# 4 0.000023 0.000037 0.000001 0.054237 -0.000010 -0.008186
# 5 0.002456 -0.001460 0.001011 -0.000010 0.029350 0.000000
# 6 -0.000003 0.000002 -0.000006 -0.008186 0.000000 0.041850
#
#
# Mechanical properties :
#
#
# Convention : Reuss Voigt Hill
#
# Bulk Modulus (GPa) = 39.75665 40.20453 39.98059
# Shear Modulus (GPa) = 22.55278 24.27594 23.41436
#
# Velocity S-wave (km/s) = 3.75345 3.89420 3.82447
# Velocity P-wave (km/s) = 6.60454 6.73312 6.66914
#
# Compressibility (1/GPa) = 0.02515302
#
# Stress axis : x y z
#
# Youngs Moduli (GPa) = 59.13271 45.70042 56.41904
#
# Poissons Ratio (x) = 0.22228 0.17657
# Poissons Ratio (y) = 0.28761 0.43379
# Poissons Ratio (z) = 0.18506 0.35138
#
# Static dielectric constant tensor:
#      x y z
#    x 1.575350 0.000030 0.069140 
#    y 0.000030 1.535780 -0.000060 
#    z 0.069140 -0.000060 1.526090 
# 
# From -- ./inp_files/345153.got.cif
#   From: 2010.05.17/outbox.ucp.g08.bks.cvg/sg12_173_cif.got.tgz:345153.got - 2010.06.11 11:47:21.
