data_PCOD9225894
_publ_section_title
;
Structure prediction by ZEFSAII (Michael W. Deem and Ramdas Pophale) SiO2 
 PCOD9225894
Probable space group: C 2/M
;
_chemical_formula_sum "Si O2"
_cell_formula_units_Z 28
_cell_length_a 18.000000
_cell_length_b 9.000000
_cell_length_c 21.000000
_cell_angle_alpha 90.000000
_cell_angle_beta 60.000000
_cell_angle_gamma 90.000000
_cell_volume 2946.218424
_symmetry_space_group_name_H-M "C 2/M"
_symmetry_group_IT_number 12
_symmetry_cell_setting 'monoclinic'
loop_
_space_group_symop_operation_xyz
x,y,z
-x,y,-z
-x,-y,-z
x,-y,z
1/2+x,1/2+y,z
1/2-x,1/2+y,-z
1/2-x,1/2-y,-z
1/2+x,1/2-y,z
loop_
_atom_site_type_symbol
_atom_site_label
_atom_site_fract_x
_atom_site_fract_y
_atom_site_fract_z
Si Si1 0.498850 0.680677 0.395265
Si Si2 0.835492 0.179240 0.157450
Si Si3 0.481314 0.821911 0.889870
Si Si4 0.490961 0.675706 0.254171
Si Si5 0.212229 0.173047 0.684832
Si Si6 0.135210 0.821520 0.445690
Si Si7 0.816141 0.178412 0.021307
O O1 0.496615 0.500000 0.393485
O O2 0.511176 0.729508 0.317173
O O3 0.411252 0.728045 0.469030
O O4 0.574131 0.722143 0.412148
O O5 0.780821 0.221091 0.243757
O O6 0.797512 0.211019 0.103967
O O7 0.926452 0.261377 0.126507
O O8 0.850097 0.000000 0.155406
O O9 0.469973 0.766575 0.821519
O O10 0.477511 0.000000 0.894917
O O11 0.408248 0.746812 0.963969
O O12 0.513516 0.500000 0.238164
O O13 0.387885 0.686483 0.289926
O O14 0.272030 0.260443 0.610841
O O15 0.235757 0.000000 0.671140
O O16 0.137192 0.000000 0.446365
O O17 0.817132 0.000000 0.013531
O O18 0.750000 0.250000 0.000000
#
# Coordination Sequence:
#
# PCOD9225894 Si02
#       7
#     8   8   8   8   8   8   8
#     4   8  16  32  52  72  97 134 176 213 253 306
#     4   9  20  39  59  77 104 143 178 212 261 318
#     4  11  22  36  56  82 109 137 175 222 266 313
#     4   9  18  35  55  73  99 138 177 211 255 312
#     4   9  18  32  50  74 102 131 166 208 255 307
#     4   9  17  31  51  74 100 131 170 214 258 306
#     4  11  23  39  58  81 110 142 177 217 262 311
#
# _framework density 9.5037079999999996
#
# number of rings (size 3 to 8) (size 9 to 14) (size 15 to 20)
#    0.000    2.571    0.000    3.857    0.000    6.857 
#    0.000    5.714    0.000    0.000    0.000    0.000 
#    0.000    0.000    0.000    0.000    0.000    0.000 
#
# Total GULP energy -156195.009310 kJ/mol
# GULP energy per Si atom -5578.393190 kJ/mol
# Density = 0.948208 g / cm^3
# Si number density = 9.503708 Si / 1000 Ang^3
#
#
#
# Elastic Constant Matrix: (Units=GPa)
#
#
# Indices 1 2 3 4 5 6 
#
# 1 13.4281 0.4092 -12.1739 0.0000 15.1833 0.0000
# 2 0.4092 34.4374 -1.1061 0.0000 3.5112 0.0000
# 3 -12.1739 -1.1061 33.0557 0.0000 16.3329 0.0000
# 4 0.0000 0.0000 0.0000 29.9679 0.0000 -2.3183
# 5 15.1833 3.5112 16.3329 0.0000 38.8383 0.0000
# 6 0.0000 0.0000 0.0000 -2.3183 0.0000 21.2613
#
#
#
# Elastic Compliance Matrix: (Units=1/GPa)
#
#
# Indices 1 2 3 4 5 6 
#
# 1 -0.169748 -0.014004 -0.121683 0.000000 0.118799 0.000000
# 2 -0.014004 0.028373 -0.007126 0.000000 0.005907 0.000000
# 3 -0.121683 -0.007126 -0.048754 0.000000 0.068717 0.000000
# 4 0.000000 0.000000 0.000000 0.033653 0.000000 0.003669
# 5 0.118799 0.005907 0.068717 0.000000 -0.050127 0.000000
# 6 0.000000 0.000000 0.000000 0.003669 0.000000 0.047434
#
#
# Mechanical properties :
#
#
# Convention : Reuss Voigt Hill
#
# Bulk Modulus (GPa) = -2.10192 6.13105 2.01457
# Shear Modulus (GPa) = -155.63251 24.26632 -65.68310
#
# Velocity S-wave (km/s) = -9.05857 3.57694 -5.88486
# Velocity P-wave (km/s) = 10.51277 4.50466 6.71664
#
# Compressibility (1/GPa) = -0.47575591
#
# Stress axis : x y z
#
# Youngs Moduli (GPa) = -5.89108 35.24423 -20.51110
#
# Poissons Ratio (x) = 0.49356 -2.49586
# Poissons Ratio (y) = -0.08250 -0.14617
# Poissons Ratio (z) = -0.71685 0.25117
#
# Static dielectric constant tensor:
#      x y z
#    x 1.675530 0.000000 0.011840 
#    y 0.000000 1.637150 0.000000 
#    z 0.011840 0.000000 1.670820 
# 
# From -- ./inp_files/275231.got.cif
#   From: 2010.05.17/outbox.ucp.g08.bks.cvg/sg12_138_cif.got.tgz:275231.got - 2010.06.11 11:47:21.
