data_PCOD9225770
_publ_section_title
;
Structure prediction by ZEFSAII (Michael W. Deem and Ramdas Pophale) SiO2 
 PCOD9225770
Probable space group: C 2/M
;
_chemical_formula_sum "Si O2"
_cell_formula_units_Z 24
_cell_length_a 9.000000
_cell_length_b 15.000000
_cell_length_c 18.000000
_cell_angle_alpha 90.000000
_cell_angle_beta 90.000000
_cell_angle_gamma 90.000000
_cell_volume 2430.000000
_symmetry_space_group_name_H-M "C 2/M"
_symmetry_group_IT_number 12
_symmetry_cell_setting 'monoclinic'
loop_
_space_group_symop_operation_xyz
x,y,z
-x,y,-z
-x,-y,-z
x,-y,z
1/2+x,1/2+y,z
1/2-x,1/2+y,-z
1/2-x,1/2-y,-z
1/2+x,1/2-y,z
loop_
_atom_site_type_symbol
_atom_site_label
_atom_site_fract_x
_atom_site_fract_y
_atom_site_fract_z
Si Si1 0.316909 0.604333 0.418588
Si Si2 0.204610 0.744698 0.302067
Si Si3 0.455320 0.254181 0.195237
Si Si4 0.574122 0.104200 0.921367
Si Si5 0.676042 0.396016 0.413275
Si Si6 0.070438 0.895133 0.078700
O O1 0.281205 0.500000 0.409444
O O2 0.240084 0.663538 0.356415
O O3 0.275137 0.630150 0.503261
O O4 0.496106 0.612147 0.412462
O O5 0.286971 0.738922 0.222932
O O6 0.036403 0.748874 0.274431
O O7 0.238567 0.833338 0.349266
O O8 0.478661 0.167674 0.144514
O O9 0.505497 0.337702 0.145956
O O10 0.752046 0.114632 0.926405
O O11 0.540765 0.000000 0.907242
O O12 0.500000 0.128513 0.000000
O O13 0.711852 0.500000 0.401887
O O14 0.036858 0.000000 0.089510
O O15 0.000000 0.867016 0.000000
#
# Coordination Sequence:
#
# PCOD9225770 Si02
#       6
#     8   8   8   8   8   8
#     4   9  19  38  62  87 115 156 205 244 285 349
#     4  12  23  38  58  91 123 155 196 241 299 349
#     4  12  25  38  60  89 124 160 190 241 299 353
#     4  10  23  43  64  87 118 156 197 243 294 346
#     4   9  19  38  63  85 115 160 202 241 290 350
#     4  10  23  43  65  87 115 157 203 240 284 352
#
# _framework density 9.8765429999999999
#
# number of rings (size 3 to 8) (size 9 to 14) (size 15 to 20)
#    0.000    1.667    3.333    2.000    2.333    4.000 
#    0.000    0.000    0.000    2.000    0.000    0.000 
#    0.000    0.000    0.000    0.000    0.000    0.000 
#
# Total GULP energy -133982.904407 kJ/mol
# GULP energy per Si atom -5582.621017 kJ/mol
# Density = 0.985406 g / cm^3
# Si number density = 9.876543 Si / 1000 Ang^3
#
#
#
# Elastic Constant Matrix: (Units=GPa)
#
#
# Indices 1 2 3 4 5 6 
#
# 1 15.6405 23.1211 20.0916 0.0000 -10.7588 0.0000
# 2 23.1211 97.6010 77.5810 0.0000 2.8950 0.0000
# 3 20.0916 77.5810 126.7254 0.0000 6.2227 0.0000
# 4 0.0000 0.0000 0.0000 2962.0521 0.0000 172.4088
# 5 -10.7588 2.8950 6.2227 0.0000 29.4446 0.0000
# 6 0.0000 0.0000 0.0000 172.4088 0.0000 33.0382
#
#
#
# Elastic Compliance Matrix: (Units=1/GPa)
#
#
# Indices 1 2 3 4 5 6 
#
# 1 0.180536 -0.037683 -0.009069 0.000000 0.071588 0.000000
# 2 -0.037683 0.027834 -0.010363 0.000000 -0.014316 0.000000
# 3 -0.009069 -0.010363 0.015951 0.000000 -0.005666 0.000000
# 4 0.000000 0.000000 0.000000 0.000485 0.000000 -0.002530
# 5 0.071588 -0.014316 -0.005666 0.000000 0.062725 0.000000
# 6 0.000000 0.000000 0.000000 -0.002530 0.000000 0.043473
#
#
# Mechanical properties :
#
#
# Convention : Reuss Voigt Hill
#
# Bulk Modulus (GPa) = 9.08325 53.50606 31.29466
# Shear Modulus (GPa) = 10.37494 612.85184 311.61339
#
# Velocity S-wave (km/s) = 2.29428 17.63320 12.57365
# Velocity P-wave (km/s) = 3.40979 21.01712 15.05566
#
# Compressibility (1/GPa) = 0.11009270
#
# Stress axis : x y z
#
# Youngs Moduli (GPa) = 5.53906 35.92679 62.69099
#
# Poissons Ratio (x) = 1.35381 0.56855
# Poissons Ratio (y) = 0.20873 0.64966
# Poissons Ratio (z) = 0.05023 0.37230
#
# Static dielectric constant tensor:
#      x y z
#    x 1.680390 0.000000 0.005110 
#    y 0.000000 1.671320 0.000000 
#    z 0.005110 0.000000 1.653840 
# 
# From -- ./inp_files/251430.got.cif
#   From: 2010.05.17/outbox.ucp.g08.bks.cvg/sg12_126_cif.got.tgz:251430.got - 2010.06.11 11:47:21.
