data_PCOD9225149
_publ_section_title
;
Structure prediction by ZEFSAII (Michael W. Deem and Ramdas Pophale) SiO2 
 PCOD9225149
Probable space group: C 2/M
;
_chemical_formula_sum "Si O2"
_cell_formula_units_Z 32
_cell_length_a 21.000000
_cell_length_b 18.000000
_cell_length_c 24.000000
_cell_angle_alpha 90.000000
_cell_angle_beta 20.000000
_cell_angle_gamma 90.000000
_cell_volume 3102.806740
_symmetry_space_group_name_H-M "C 2/M"
_symmetry_group_IT_number 12
_symmetry_cell_setting 'monoclinic'
loop_
_space_group_symop_operation_xyz
x,y,z
-x,y,-z
-x,-y,-z
x,-y,z
1/2+x,1/2+y,z
1/2-x,1/2+y,-z
1/2-x,1/2-y,-z
1/2+x,1/2-y,z
loop_
_atom_site_type_symbol
_atom_site_label
_atom_site_fract_x
_atom_site_fract_y
_atom_site_fract_z
Si Si1 0.984775 0.912284 0.372839
Si Si2 0.661052 0.282878 0.799772
Si Si3 0.157016 0.330535 0.076697
Si Si4 0.742711 0.696595 0.390501
Si Si5 0.067870 0.303788 0.314576
Si Si6 0.745958 0.087859 0.457702
Si Si7 0.517664 0.411129 0.128090
Si Si8 0.187683 0.313684 0.926674
O O1 0.856900 0.883060 0.528466
O O2 0.869935 0.890711 0.410200
O O3 0.180917 0.868994 0.215497
O O4 0.010730 0.000000 0.350823
O O5 0.751989 0.241685 0.671813
O O6 0.802708 0.302456 0.734679
O O7 0.559088 0.357707 0.858938
O O8 0.503025 0.219857 0.940524
O O9 0.936949 0.315466 0.262873
O O10 0.250000 0.250000 0.000000
O O11 0.281297 0.384771 0.012771
O O12 0.164211 0.353475 0.005280
O O13 0.604822 0.748266 0.538064
O O14 0.195018 0.263155 0.164603
O O15 0.958843 0.376957 0.384638
O O16 0.873183 0.101920 0.298223
O O17 0.719695 0.000000 0.484481
O O18 0.518966 0.500000 0.113957
#
# Coordination Sequence:
#
# PCOD9225149 Si02
#       8
#     8   8   8   8   8   8   8   8
#     4  10  22  39  60  92 123 145 189 251 313 364
#     4  11  22  40  57  88 120 157 208 240 275 352
#     4  11  19  36  58  87 117 150 202 248 295 348
#     4  10  22  35  61  84 113 153 195 250 296 341
#     4  11  22  37  59  85 119 159 201 241 278 345
#     4  10  21  35  56  88 123 159 192 233 295 357
#     4  11  22  36  59  90 125 160 195 245 297 350
#     4  10  22  36  63  84 114 157 198 245 299 347
#
# _framework density 10.313243
#
# number of rings (size 3 to 8) (size 9 to 14) (size 15 to 20)
#    0.000    1.500    5.000    0.750    1.750    2.000 
#    0.000    5.000    0.000   13.500    0.000    1.750 
#    0.000    0.000    0.000    0.000    0.000    0.000 
#
# Total GULP energy -178221.605085 kJ/mol
# GULP energy per Si atom -5569.425159 kJ/mol
# Density = 1.028977 g / cm^3
# Si number density = 10.313243 Si / 1000 Ang^3
#
#
#
# Elastic Constant Matrix: (Units=GPa)
#
#
# Indices 1 2 3 4 5 6 
#
# 1 92.0876 43.4814 22.6601 0.0037 -15.8216 0.0043
# 2 43.4814 111.8003 34.6329 0.0812 -10.8968 0.0389
# 3 22.6601 34.6329 90.3586 0.0523 -18.4216 0.0199
# 4 0.0037 0.0812 0.0523 33.3256 -0.0046 -6.6723
# 5 -15.8216 -10.8968 -18.4216 -0.0046 27.4073 -0.0155
# 6 0.0043 0.0389 0.0199 -6.6723 -0.0155 21.1475
#
#
#
# Elastic Compliance Matrix: (Units=1/GPa)
#
#
# Indices 1 2 3 4 5 6 
#
# 1 0.014288 -0.004813 -0.000518 0.000015 0.005986 0.000016
# 2 -0.004813 0.011835 -0.003403 -0.000028 -0.000360 -0.000027
# 3 -0.000518 -0.003403 0.014096 -0.000014 0.007823 -0.000006
# 4 0.000015 -0.000028 -0.000014 0.032031 -0.000001 0.010106
# 5 0.005986 -0.000360 0.007823 -0.000001 0.045057 0.000025
# 6 0.000016 -0.000027 -0.000006 0.010106 0.000025 0.050476
#
#
# Mechanical properties :
#
#
# Convention : Reuss Voigt Hill
#
# Bulk Modulus (GPa) = 43.95219 55.08837 49.52028
# Shear Modulus (GPa) = 25.92916 29.27423 27.60169
#
# Velocity S-wave (km/s) = 3.54938 3.77139 3.66207
# Velocity P-wave (km/s) = 6.17676 6.76240 6.47620
#
# Compressibility (1/GPa) = 0.02275199
#
# Stress axis : x y z
#
# Youngs Moduli (GPa) = 69.99034 84.49268 70.94263
#
# Poissons Ratio (x) = 0.40665 0.03675
# Poissons Ratio (y) = 0.33685 0.24139
# Poissons Ratio (z) = 0.03625 0.28750
#
# Static dielectric constant tensor:
#      x y z
#    x 1.772130 -0.000010 0.060250 
#    y -0.000010 1.755070 0.000030 
#    z 0.060250 0.000030 1.855530 
# 
# From -- ./inp_files/347884.got.cif
#   From: 2010.05.17/outbox.ucp.g08.bks.cvg/sg12_174_cif.got.tgz:347884.got - 2010.06.11 11:47:21.
