data_PCOD9225591
_publ_section_title
;
Structure prediction by ZEFSAII (Michael W. Deem and Ramdas Pophale) SiO2 
 PCOD9225591
Probable space group: C 2/M
;
_chemical_formula_sum "Si O2"
_cell_formula_units_Z 20
_cell_length_a 18.000000
_cell_length_b 15.000000
_cell_length_c 21.000000
_cell_angle_alpha 90.000000
_cell_angle_beta 160.000000
_cell_angle_gamma 90.000000
_cell_volume 1939.254213
_symmetry_space_group_name_H-M "C 2/M"
_symmetry_group_IT_number 12
_symmetry_cell_setting 'monoclinic'
loop_
_space_group_symop_operation_xyz
x,y,z
-x,y,-z
-x,-y,-z
x,-y,z
1/2+x,1/2+y,z
1/2-x,1/2+y,-z
1/2-x,1/2-y,-z
1/2+x,1/2-y,z
loop_
_atom_site_type_symbol
_atom_site_label
_atom_site_fract_x
_atom_site_fract_y
_atom_site_fract_z
Si Si1 0.528956 0.897227 0.947930
Si Si2 0.255006 0.099681 0.396822
Si Si3 0.266309 0.643788 0.023965
Si Si4 0.816347 0.400829 0.595689
Si Si5 0.824376 0.787961 0.406527
O O1 0.392838 0.821397 0.802532
O O2 0.457210 0.000000 0.877989
O O3 0.500000 0.883967 0.000000
O O4 0.750693 0.885167 0.086130
O O5 0.313120 0.114099 0.517975
O O6 0.346320 0.182808 0.431757
O O7 0.994783 0.109028 0.182703
O O8 0.323367 0.000000 0.433488
O O9 0.250000 0.750000 0.000000
O O10 0.061567 0.604342 0.820717
O O11 0.730640 0.500000 0.539232
O O12 0.680905 0.330680 0.527906
O O13 0.000000 0.825989 0.500000
#
# Coordination Sequence:
#
# PCOD9225591 Si02
#       5
#     8   8   8   8   8
#     4  10  22  38  58  88 120 151 188 236 298 355
#     4  11  23  40  63  86 115 159 200 240 289 343
#     4  11  20  37  64  87 120 154 192 245 289 346
#     4  10  22  39  61  90 118 148 195 245 294 352
#     4  11  23  38  58  84 120 153 191 242 290 347
#
# _framework density 10.313243
#
# number of rings (size 3 to 8) (size 9 to 14) (size 15 to 20)
#    0.000    1.400    4.000    4.200    2.800    2.000 
#    0.000    0.000    0.000    0.600    0.000    0.000 
#    0.000    0.000    0.000    0.000    0.000    0.000 
#
# Total GULP energy -111499.432482 kJ/mol
# GULP energy per Si atom -5574.971624 kJ/mol
# Density = 1.028977 g / cm^3
# Si number density = 10.313243 Si / 1000 Ang^3
#
#
#
# Elastic Constant Matrix: (Units=GPa)
#
#
# Indices 1 2 3 4 5 6 
#
# 1 69.8519 47.4889 16.3617 0.0167 -4.7715 0.0023
# 2 47.4889 146.8622 4.4669 -0.0029 -25.7378 0.0059
# 3 16.3617 4.4669 40.5545 0.0288 -7.8041 0.0057
# 4 0.0167 -0.0029 0.0288 14.4815 -0.0086 -11.9815
# 5 -4.7715 -25.7378 -7.8041 -0.0086 25.4402 0.0013
# 6 0.0023 0.0059 0.0057 -11.9815 0.0013 28.8165
#
#
#
# Elastic Compliance Matrix: (Units=1/GPa)
#
#
# Indices 1 2 3 4 5 6 
#
# 1 0.021242 -0.007755 -0.008990 -0.000016 -0.006620 -0.000005
# 2 -0.007755 0.011129 0.004028 0.000011 0.011040 0.000002
# 3 -0.008990 0.004028 0.030077 -0.000072 0.011615 -0.000036
# 4 -0.000016 0.000011 -0.000072 0.105266 0.000019 0.043768
# 5 -0.006620 0.011040 0.011615 0.000019 0.052799 0.000002
# 6 -0.000005 0.000002 -0.000036 0.043768 0.000002 0.052901
#
#
# Mechanical properties :
#
#
# Convention : Reuss Voigt Hill
#
# Bulk Modulus (GPa) = 27.01767 43.76707 35.39237
# Shear Modulus (GPa) = 16.06758 26.34440 21.20599
#
# Velocity S-wave (km/s) = 2.79405 3.57769 3.20987
# Velocity P-wave (km/s) = 4.85138 6.19124 5.56180
#
# Compressibility (1/GPa) = 0.03701282
#
# Stress axis : x y z
#
# Youngs Moduli (GPa) = 47.07632 89.85343 33.24839
#
# Poissons Ratio (x) = 0.69686 0.29889
# Poissons Ratio (y) = 0.36510 -0.13391
# Poissons Ratio (z) = 0.42320 -0.36190
#
# Static dielectric constant tensor:
#      x y z
#    x 1.731680 -0.000020 0.017750 
#    y -0.000020 1.753690 -0.000020 
#    z 0.017750 -0.000020 1.763980 
# 
# From -- ./inp_files/72355.got.cif
#   From: 2010.05.17/outbox.ucp.g08.bks.cvg/sg12_37_cif.got.tgz:72355.got - 2010.06.11 11:47:21.
