data_PCOD9225202
_publ_section_title
;
Structure prediction by ZEFSAII (Michael W. Deem and Ramdas Pophale) SiO2 
 PCOD9225202
Probable space group: C 2/M
;
_chemical_formula_sum "Si O2"
_cell_formula_units_Z 32
_cell_length_a 9.000000
_cell_length_b 18.000000
_cell_length_c 30.000000
_cell_angle_alpha 90.000000
_cell_angle_beta 40.000000
_cell_angle_gamma 90.000000
_cell_volume 3123.947783
_symmetry_space_group_name_H-M "C 2/M"
_symmetry_group_IT_number 12
_symmetry_cell_setting 'monoclinic'
loop_
_space_group_symop_operation_xyz
x,y,z
-x,y,-z
-x,-y,-z
x,-y,z
1/2+x,1/2+y,z
1/2-x,1/2+y,-z
1/2-x,1/2-y,-z
1/2+x,1/2-y,z
loop_
_atom_site_type_symbol
_atom_site_label
_atom_site_fract_x
_atom_site_fract_y
_atom_site_fract_z
Si Si1 0.723394 0.661351 0.789958
Si Si2 0.623323 0.082956 0.572318
Si Si3 0.256050 0.687806 0.366679
Si Si4 0.213011 0.366211 0.643403
Si Si5 0.644539 0.413924 0.069183
Si Si6 0.977884 0.413220 0.079727
Si Si7 0.626953 0.321914 0.212838
Si Si8 0.336867 0.416863 0.425347
O O1 0.591117 0.619761 0.859636
O O2 0.552077 0.673995 0.787393
O O3 0.798252 0.738712 0.794107
O O4 0.951028 0.621414 0.718981
O O5 0.449558 0.152218 0.614309
O O6 0.766162 0.094979 0.584192
O O7 0.748964 0.087849 0.496173
O O8 0.517834 0.000000 0.599097
O O9 0.250860 0.776804 0.368142
O O10 0.486702 0.657672 0.289563
O O11 0.234512 0.648593 0.419132
O O12 0.391354 0.401585 0.636572
O O13 0.611970 0.500000 0.066571
O O14 0.810573 0.409960 0.074651
O O15 0.781262 0.381742 0.995172
O O16 0.002758 0.500000 0.085674
O O17 0.848386 0.369796 0.148295
O O18 0.280731 0.500000 0.421794
#
# Coordination Sequence:
#
# PCOD9225202 Si02
#       8
#     8   8   8   8   8   8   8   8
#     4  10  21  36  57  83 114 148 187 233 280 332
#     4  11  23  41  61  85 114 149 190 237 287 346
#     4  11  23  39  60  85 115 152 193 236 284 342
#     4  11  23  39  60  85 115 152 193 236 284 342
#     4   8  15  30  53  82 113 145 187 233 273 324
#     4   8  15  30  53  82 113 145 187 233 273 324
#     4  10  21  36  57  83 114 148 187 233 280 332
#     4  11  25  41  59  85 118 147 186 241 295 340
#
# _framework density 10.243449
#
# number of rings (size 3 to 8) (size 9 to 14) (size 15 to 20)
#    0.000    2.000    1.250    3.000    5.250    7.500 
#    0.000    0.000    0.000    0.000    0.000    1.750 
#    0.000    0.000    0.000    0.000    0.000    0.000 
#
# Total GULP energy -178351.285794 kJ/mol
# GULP energy per Si atom -5573.477681 kJ/mol
# Density = 1.022013 g / cm^3
# Si number density = 10.243449 Si / 1000 Ang^3
#
#
#
# Elastic Constant Matrix: (Units=GPa)
#
#
# Indices 1 2 3 4 5 6 
#
# 1 38.8248 2.2438 12.7259 0.0015 -8.2038 0.0008
# 2 2.2438 44.0519 41.8601 0.0027 -2.1303 -0.0031
# 3 12.7259 41.8601 122.5946 -0.0050 -2.6102 0.0028
# 4 0.0015 0.0027 -0.0050 15.0376 0.0002 32.8597
# 5 -8.2038 -2.1303 -2.6102 0.0002 17.7868 -0.0027
# 6 0.0008 -0.0031 0.0028 32.8597 -0.0027 -7.6423
#
#
#
# Elastic Compliance Matrix: (Units=1/GPa)
#
#
# Indices 1 2 3 4 5 6 
#
# 1 0.029659 0.002655 -0.003699 0.000000 0.013455 -0.000002
# 2 0.002655 0.033939 -0.011788 0.000003 0.003559 -0.000006
# 3 -0.003699 -0.011788 0.012539 -0.000001 -0.001278 0.000004
# 4 0.000000 0.000003 -0.000001 0.006397 0.000005 0.027505
# 5 0.013455 0.003559 -0.001278 0.000005 0.062666 -0.000004
# 6 -0.000002 -0.000006 0.000004 0.027505 -0.000004 -0.012587
#
#
# Mechanical properties :
#
#
# Convention : Reuss Voigt Hill
#
# Bulk Modulus (GPa) = 19.81295 35.45900 27.63597
# Shear Modulus (GPa) = 28.55488 14.94586 21.75037
#
# Velocity S-wave (km/s) = 3.73743 2.70392 3.26187
# Velocity P-wave (km/s) = 5.32133 5.20518 5.26358
#
# Compressibility (1/GPa) = 0.05047203
#
# Stress axis : x y z
#
# Youngs Moduli (GPa) = 33.71692 29.46435 79.75196
#
# Poissons Ratio (x) = -0.07822 0.29498
# Poissons Ratio (y) = -0.08951 0.94015
# Poissons Ratio (z) = 0.12471 0.34734
#
# Static dielectric constant tensor:
#      x y z
#    x 1.781340 0.000000 -0.049950 
#    y 0.000000 1.693260 0.000000 
#    z -0.049950 0.000000 1.797760 
# 
# From -- ./inp_files/372937.got.cif
#   From: 2010.05.17/outbox.ucp.g08.bks.cvg/sg12_187_cif.got.tgz:372937.got - 2010.06.11 11:47:21.
