data_PCOD9225838
_publ_section_title
;
Structure prediction by ZEFSAII (Michael W. Deem and Ramdas Pophale) SiO2 
 PCOD9225838
Probable space group: C 2/M
;
_chemical_formula_sum "Si O2"
_cell_formula_units_Z 20
_cell_length_a 21.000000
_cell_length_b 12.000000
_cell_length_c 9.000000
_cell_angle_alpha 90.000000
_cell_angle_beta 110.000000
_cell_angle_gamma 90.000000
_cell_volume 2131.222864
_symmetry_space_group_name_H-M "C 2/M"
_symmetry_group_IT_number 12
_symmetry_cell_setting 'monoclinic'
loop_
_space_group_symop_operation_xyz
x,y,z
-x,y,-z
-x,-y,-z
x,-y,z
1/2+x,1/2+y,z
1/2-x,1/2+y,-z
1/2-x,1/2-y,-z
1/2+x,1/2-y,z
loop_
_atom_site_type_symbol
_atom_site_label
_atom_site_fract_x
_atom_site_fract_y
_atom_site_fract_z
Si Si1 0.025252 0.127702 0.687903
Si Si2 0.011169 0.500000 0.270032
Si Si3 0.444572 0.226815 0.837447
Si Si4 0.334384 0.772273 0.222043
Si Si5 0.804171 0.362617 0.867341
Si Si6 0.115314 0.500000 0.626190
O O1 0.095282 0.201421 0.743918
O O2 0.000000 0.122176 0.500000
O O3 0.961469 0.186829 0.719556
O O4 0.037853 0.000000 0.751349
O O5 0.025014 0.609101 0.188350
O O6 0.065334 0.500000 0.446422
O O7 0.935584 0.500000 0.273542
O O8 0.367646 0.197838 0.829959
O O9 0.500000 0.269695 0.000000
O O10 0.270669 0.693499 0.221961
O O11 0.345751 0.881480 0.335957
O O12 0.317185 0.828952 0.049375
O O13 0.804966 0.500000 0.848766
#
# Coordination Sequence:
#
# PCOD9225838 Si02
#       6
#     8   4   8   8   8   4
#     4  11  24  43  64  90 126 168 207 249 311 379
#     4  11  21  34  68  94 124 155 205 266 303 360
#     4  12  22  39  65  96 122 157 209 265 310 363
#     4  11  22  40  63  90 125 167 206 254 309 373
#     4  11  23  40  62  93 127 161 206 259 317 363
#     4  11  20  38  62  96 123 163 212 247 306 374
#
# _framework density 9.3842839999999992
#
# number of rings (size 3 to 8) (size 9 to 14) (size 15 to 20)
#    0.000    0.800    6.000    2.100    0.000    0.400 
#    1.800    4.000    0.000    0.000    0.000    0.000 
#    0.000    0.000    0.000    0.000    0.000    0.000 
#
# Total GULP energy -111462.467887 kJ/mol
# GULP energy per Si atom -5573.123394 kJ/mol
# Density = 0.936292 g / cm^3
# Si number density = 9.384284 Si / 1000 Ang^3
#
#
#
# Elastic Constant Matrix: (Units=GPa)
#
#
# Indices 1 2 3 4 5 6 
#
# 1 148.6425 52.7092 17.7584 0.0000 6.1484 0.0000
# 2 52.7092 144.4345 19.5330 0.0000 4.4941 0.0000
# 3 17.7584 19.5330 38.8598 0.0000 0.4687 0.0000
# 4 0.0000 0.0000 0.0000 16.9518 0.0000 9.7552
# 5 6.1484 4.4941 0.4687 0.0000 33.0757 0.0000
# 6 0.0000 0.0000 0.0000 9.7552 0.0000 43.2498
#
#
#
# Elastic Compliance Matrix: (Units=1/GPa)
#
#
# Indices 1 2 3 4 5 6 
#
# 1 0.007958 -0.002554 -0.002340 0.000000 -0.001099 0.000000
# 2 -0.002554 0.008278 -0.002987 0.000000 -0.000608 0.000000
# 3 -0.002340 -0.002987 0.028299 0.000000 0.000440 0.000000
# 4 0.000000 0.000000 0.000000 0.067790 0.000000 -0.015290
# 5 -0.001099 -0.000608 0.000440 0.000000 0.030514 0.000000
# 6 0.000000 0.000000 0.000000 -0.015290 0.000000 0.026570
#
#
# Mechanical properties :
#
#
# Convention : Reuss Voigt Hill
#
# Bulk Modulus (GPa) = 34.75286 56.88200 45.81743
# Shear Modulus (GPa) = 25.67238 34.78454 30.22846
#
# Velocity S-wave (km/s) = 3.70244 4.30971 4.01757
# Velocity P-wave (km/s) = 6.06912 7.42548 6.78129
#
# Compressibility (1/GPa) = 0.02877461
#
# Stress axis : x y z
#
# Youngs Moduli (GPa) = 125.65879 120.79828 35.33710
#
# Poissons Ratio (x) = 0.30846 0.08269
# Poissons Ratio (y) = 0.32087 0.10555
# Poissons Ratio (z) = 0.29403 0.36080
#
# Static dielectric constant tensor:
#      x y z
#    x 1.649730 0.000000 -0.022230 
#    y 0.000000 1.660760 0.000000 
#    z -0.022230 0.000000 1.726320 
# 
# From -- ./inp_files/83769.got.cif
#   From: 2010.05.17/outbox.ucp.g08.bks.cvg/sg12_42_cif.got.tgz:83769.got - 2010.06.11 11:47:21.
