data_PCOD9225199
_publ_section_title
;
Structure prediction by ZEFSAII (Michael W. Deem and Ramdas Pophale) SiO2 
 PCOD9225199
Probable space group: C 2/M
;
_chemical_formula_sum "Si O2"
_cell_formula_units_Z 32
_cell_length_a 9.000000
_cell_length_b 30.000000
_cell_length_c 12.000000
_cell_angle_alpha 90.000000
_cell_angle_beta 90.000000
_cell_angle_gamma 90.000000
_cell_volume 3240.000000
_symmetry_space_group_name_H-M "C 2/M"
_symmetry_group_IT_number 12
_symmetry_cell_setting 'monoclinic'
loop_
_space_group_symop_operation_xyz
x,y,z
-x,y,-z
-x,-y,-z
x,-y,z
1/2+x,1/2+y,z
1/2-x,1/2+y,-z
1/2-x,1/2-y,-z
1/2+x,1/2-y,z
loop_
_atom_site_type_symbol
_atom_site_label
_atom_site_fract_x
_atom_site_fract_y
_atom_site_fract_z
Si Si1 0.365501 0.745597 0.199924
Si Si2 0.874928 0.339366 0.085912
Si Si3 0.174047 0.052758 0.486721
Si Si4 0.379054 0.349752 0.090085
Si Si5 0.231961 0.605963 0.310391
Si Si6 0.607752 0.257863 0.356191
Si Si7 0.120548 0.386604 0.680510
Si Si8 0.775778 0.677977 0.498928
O O1 0.409934 0.789642 0.131405
O O2 0.412383 0.698483 0.146507
O O3 0.439009 0.745955 0.321663
O O4 0.193845 0.750874 0.237741
O O5 0.832949 0.368443 0.196373
O O6 0.743747 0.336093 0.999088
O O7 0.000000 0.357481 0.000000
O O8 0.231013 0.063246 0.612424
O O9 0.270540 0.078569 0.388483
O O10 0.000000 0.066116 0.500000
O O11 0.182387 0.000000 0.463136
O O12 0.315703 0.381073 0.193069
O O13 0.500000 0.368507 0.000000
O O14 0.267763 0.644964 0.400613
O O15 0.053044 0.602407 0.297363
O O16 0.646534 0.303546 0.418188
O O17 0.650863 0.218915 0.438794
O O18 0.120180 0.347121 0.589821
#
# Coordination Sequence:
#
# PCOD9225199 Si02
#       8
#     8   8   8   8   8   8   8   8
#     4  12  23  40  53  81 122 176 232 279 320 365
#     4  12  23  42  62  83 127 175 230 276 312 363
#     4  10  24  45  75 109 138 156 182 244 323 396
#     4  12  26  40  58  89 127 174 231 276 318 360
#     4  11  23  42  66  95 125 168 214 258 315 383
#     4  11  23  34  55  79 122 161 220 275 335 375
#     4  11  23  41  69  94 124 169 214 255 318 379
#     4  10  21  36  56  85 118 160 212 276 324 374
#
# _framework density 9.8765429999999999
#
# number of rings (size 3 to 8) (size 9 to 14) (size 15 to 20)
#    0.000    0.875    3.750    4.500    3.500    3.500 
#    0.000    0.000    0.000    1.500    0.000    0.000 
#    0.000    0.000    0.000    0.000    0.000    0.000 
#
# Total GULP energy -178271.086085 kJ/mol
# GULP energy per Si atom -5570.971440 kJ/mol
# Density = 0.985406 g / cm^3
# Si number density = 9.876543 Si / 1000 Ang^3
#
#
#
# Elastic Constant Matrix: (Units=GPa)
#
#
# Indices 1 2 3 4 5 6 
#
# 1 63.1154 20.9986 27.7120 0.0000 -19.9238 0.0000
# 2 20.9986 56.5037 27.2222 0.0000 -13.8114 0.0000
# 3 27.7120 27.2222 152.2248 0.0000 -30.3811 0.0000
# 4 0.0000 0.0000 0.0000 14.7477 0.0000 -4.4286
# 5 -19.9238 -13.8114 -30.3811 0.0000 45.8779 0.0000
# 6 0.0000 0.0000 0.0000 -4.4286 0.0000 19.0496
#
#
#
# Elastic Compliance Matrix: (Units=1/GPa)
#
#
# Indices 1 2 3 4 5 6 
#
# 1 0.020214 -0.005275 -0.001500 0.000000 0.006197 0.000000
# 2 -0.005275 0.021428 -0.002352 0.000000 0.002602 0.000000
# 3 -0.001500 -0.002352 0.008056 0.000000 0.003976 0.000000
# 4 0.000000 0.000000 0.000000 0.072896 0.000000 0.016947
# 5 0.006197 0.002602 0.003976 0.000000 0.027905 0.000000
# 6 0.000000 0.000000 0.000000 0.016947 0.000000 0.056434
#
#
# Mechanical properties :
#
#
# Convention : Reuss Voigt Hill
#
# Bulk Modulus (GPa) = 31.80227 47.07883 39.44055
# Shear Modulus (GPa) = 21.21633 28.99577 25.10605
#
# Velocity S-wave (km/s) = 3.28087 3.83549 3.56897
# Velocity P-wave (km/s) = 5.52150 6.59546 6.08223
#
# Compressibility (1/GPa) = 0.03144430
#
# Stress axis : x y z
#
# Youngs Moduli (GPa) = 49.47132 46.66881 124.12561
#
# Poissons Ratio (x) = 0.24617 0.18615
# Poissons Ratio (y) = 0.26095 0.29197
# Poissons Ratio (z) = 0.07419 0.10978
#
# Static dielectric constant tensor:
#      x y z
#    x 1.979580 0.000000 0.002480 
#    y 0.000000 1.717940 0.000000 
#    z 0.002480 0.000000 1.687450 
# 
# From -- ./inp_files/125742.got.cif
#   From: 2010.05.17/outbox.ucp.g08.bks.cvg/sg12_63_cif.got.tgz:125742.got - 2010.06.11 11:47:21.
