data_PCOD9225653
_publ_section_title
;
Structure prediction by ZEFSAII (Michael W. Deem and Ramdas Pophale) SiO2 
 PCOD9225653
Probable space group: C 2/M
;
_chemical_formula_sum "Si O2"
_cell_formula_units_Z 29
_cell_length_a 27.000000
_cell_length_b 18.000000
_cell_length_c 12.000000
_cell_angle_alpha 90.000000
_cell_angle_beta 30.000000
_cell_angle_gamma 90.000000
_cell_volume 2916.000000
_symmetry_space_group_name_H-M "C 2/M"
_symmetry_group_IT_number 12
_symmetry_cell_setting 'monoclinic'
loop_
_space_group_symop_operation_xyz
x,y,z
-x,y,-z
-x,-y,-z
x,-y,z
1/2+x,1/2+y,z
1/2-x,1/2+y,-z
1/2-x,1/2-y,-z
1/2+x,1/2-y,z
loop_
_atom_site_type_symbol
_atom_site_label
_atom_site_fract_x
_atom_site_fract_y
_atom_site_fract_z
Si Si1 0.896068 0.344468 0.893763
Si Si2 0.347979 0.223731 0.460654
Si Si3 0.494680 0.359058 0.179805
Si Si4 0.625806 0.228617 0.840758
Si Si5 0.078245 0.823040 0.248238
Si Si6 0.745677 0.085227 0.988522
Si Si7 0.000000 0.000000 0.000000
Si Si8 0.898401 0.415028 0.522427
O O1 0.903154 0.261551 0.828391
O O2 0.796403 0.382120 0.044422
O O3 0.987088 0.396016 0.681514
O O4 0.907185 0.331016 0.003868
O O5 0.405980 0.299899 0.377157
O O6 0.382144 0.201254 0.269603
O O7 0.236086 0.249319 0.661924
O O8 0.360000 0.154016 0.520341
O O9 0.543073 0.369414 0.207991
O O10 0.479915 0.433301 0.135904
O O11 0.568404 0.305819 0.966749
O O12 0.000000 0.820553 0.500000
O O13 0.172810 0.861745 0.117398
O O14 0.658050 0.086977 0.250433
O O15 0.779459 0.000000 0.910157
O O16 0.885803 0.500000 0.502092
#
# Coordination Sequence:
#
# PCOD9225653 Si02
#       8
#     8   8   8   8   8   8   2   8
#     4  11  22  39  67  92 124 168 218 263 317 383
#     4  11  21  42  66  92 129 166 213 270 322 379
#     4  11  23  43  69  97 129 169 217 264 315 392
#     4  10  22  40  66  94 125 167 216 268 314 384
#     4  11  24  41  66  94 127 171 217 265 316 384
#     4  11  25  42  60  93 131 170 211 267 318 386
#     4  12  24  44  74  96 130 174 214 260 324 382
#     4  11  22  39  65  93 127 167 211 266 325 383
#
# _framework density 9.9451300000000007
#
# number of rings (size 3 to 8) (size 9 to 14) (size 15 to 20)
#    0.000    1.103    4.138    3.724    2.897    1.379 
#    1.241    2.069    1.517    0.000    0.000    0.000 
#    0.000    0.000    0.000    0.000    0.000    0.000 
#
# Total GULP energy -161595.676928 kJ/mol
# GULP energy per Si atom -5572.264722 kJ/mol
# Density = 0.992249 g / cm^3
# Si number density = 9.945130 Si / 1000 Ang^3
#
#
#
# Elastic Constant Matrix: (Units=GPa)
#
#
# Indices 1 2 3 4 5 6 
#
# 1 52.8587 1.2772 -17.9118 0.0000 -10.2291 0.0000
# 2 1.2772 92.7039 -5.1628 0.0000 -0.7009 0.0000
# 3 -17.9118 -5.1628 32.3860 0.0000 -7.0930 0.0000
# 4 0.0000 0.0000 0.0000 9.6228 0.0000 -1.0792
# 5 -10.2291 -0.7009 -7.0930 0.0000 31.9975 0.0000
# 6 0.0000 0.0000 0.0000 -1.0792 0.0000 17.5145
#
#
#
# Elastic Compliance Matrix: (Units=1/GPa)
#
#
# Indices 1 2 3 4 5 6 
#
# 1 0.027541 0.000729 0.018162 0.000000 0.012847 0.000000
# 2 0.000729 0.010916 0.002362 0.000000 0.000996 0.000000
# 3 0.018162 0.002362 0.044755 0.000000 0.015779 0.000000
# 4 0.000000 0.000000 0.000000 0.104643 0.000000 0.006448
# 5 0.012847 0.000996 0.015779 0.000000 0.038879 0.000000
# 6 0.000000 0.000000 0.000000 0.006448 0.000000 0.057493
#
#
# Mechanical properties :
#
#
# Convention : Reuss Voigt Hill
#
# Bulk Modulus (GPa) = 7.95434 14.92822 11.44128
# Shear Modulus (GPa) = 17.62881 25.14336 21.38609
#
# Velocity S-wave (km/s) = 2.98032 3.55928 3.28259
# Velocity P-wave (km/s) = 3.98131 4.94094 4.48685
#
# Compressibility (1/GPa) = 0.12571752
#
# Stress axis : x y z
#
# Youngs Moduli (GPa) = 36.30920 91.60835 22.34400
#
# Poissons Ratio (x) = -0.06680 -0.40581
# Poissons Ratio (y) = -0.02647 -0.05277
# Poissons Ratio (z) = -0.65945 -0.21633
#
# Static dielectric constant tensor:
#      x y z
#    x 1.736690 0.000000 -0.022280 
#    y 0.000000 1.649410 0.000000 
#    z -0.022280 0.000000 1.787150 
# 
# From -- ./inp_files/184438.got.cif
#   From: 2010.05.17/outbox.ucp.g08.bks.cvg/sg12_93_cif.got.tgz:184438.got - 2010.06.11 11:47:21.
