data_PCOD9225044
_publ_section_title
;
Structure prediction by ZEFSAII (Michael W. Deem and Ramdas Pophale) SiO2 
 PCOD9225044
Probable space group: C 2/M
;
_chemical_formula_sum "Si O2"
_cell_formula_units_Z 28
_cell_length_a 18.000000
_cell_length_b 9.000000
_cell_length_c 27.000000
_cell_angle_alpha 90.000000
_cell_angle_beta 140.000000
_cell_angle_gamma 90.000000
_cell_volume 2811.553005
_symmetry_space_group_name_H-M "C 2/M"
_symmetry_group_IT_number 12
_symmetry_cell_setting 'monoclinic'
loop_
_space_group_symop_operation_xyz
x,y,z
-x,y,-z
-x,-y,-z
x,-y,z
1/2+x,1/2+y,z
1/2-x,1/2+y,-z
1/2-x,1/2-y,-z
1/2+x,1/2-y,z
loop_
_atom_site_type_symbol
_atom_site_label
_atom_site_fract_x
_atom_site_fract_y
_atom_site_fract_z
Si Si1 0.871404 0.820602 0.171976
Si Si2 0.709751 0.674901 0.574946
Si Si3 0.067605 0.175869 0.351043
Si Si4 0.993019 0.822845 0.129575
Si Si5 0.993052 0.328343 0.581200
Si Si6 0.766529 0.829402 0.701763
Si Si7 0.392440 0.179577 0.980191
O O1 0.963817 0.772140 0.261155
O O2 0.929708 0.785656 0.148932
O O3 0.866749 0.000000 0.174061
O O4 0.736588 0.769479 0.103140
O O5 0.689403 0.500000 0.558563
O O6 0.591759 0.767361 0.505320
O O7 0.764565 0.713604 0.656190
O O8 0.811670 0.737622 0.592687
O O9 0.028815 0.213471 0.386132
O O10 0.085794 0.000000 0.352578
O O11 0.130872 0.791304 0.207315
O O12 0.928668 0.739596 0.052474
O O13 0.982276 0.000000 0.115959
O O14 0.958470 0.500000 0.573544
O O15 0.131984 0.331051 0.647582
O O16 0.794550 0.000000 0.699247
O O17 0.388827 0.000000 0.979600
O O18 0.500000 0.224197 0.000000
#
# Coordination Sequence:
#
# PCOD9225044 Si02
#       7
#     8   8   8   8   8   8   8
#     4   9  19  38  62  85 117 159 198 240 294 354
#     4  12  24  40  62  90 121 156 205 253 300 362
#     4  11  22  40  64  87 120 162 204 250 303 358
#     4  10  20  39  63  86 116 157 202 240 289 354
#     4  11  24  40  60  88 123 160 202 252 306 358
#     4  10  22  41  63  87 121 162 201 250 305 357
#     4  10  22  38  59  91 126 155 189 240 298 352
#
# _framework density 9.9589090000000002
#
# number of rings (size 3 to 8) (size 9 to 14) (size 15 to 20)
#    0.000    1.571    1.429    3.429    2.000    3.714 
#    0.000    1.429    0.000    0.000    0.000    0.000 
#    0.000    0.000    0.000    0.000    0.000    0.000 
#
# Total GULP energy -156175.036348 kJ/mol
# GULP energy per Si atom -5577.679870 kJ/mol
# Density = 0.993624 g / cm^3
# Si number density = 9.958909 Si / 1000 Ang^3
#
#
#
# Elastic Constant Matrix: (Units=GPa)
#
#
# Indices 1 2 3 4 5 6 
#
# 1 43.9882 7.1056 18.0815 0.0000 18.3230 0.0000
# 2 7.1056 41.2165 10.1395 0.0000 9.2869 0.0000
# 3 18.0815 10.1395 115.0979 0.0000 24.1180 0.0000
# 4 0.0000 0.0000 0.0000 33.3252 0.0000 -6.6484
# 5 18.3230 9.2869 24.1180 0.0000 38.8361 0.0000
# 6 0.0000 0.0000 0.0000 -6.6484 0.0000 16.9748
#
#
#
# Elastic Compliance Matrix: (Units=1/GPa)
#
#
# Indices 1 2 3 4 5 6 
#
# 1 0.028783 -0.001803 -0.001848 0.000000 -0.012001 0.000000
# 2 -0.001803 0.025883 -0.001010 0.000000 -0.004712 0.000000
# 3 -0.001848 -0.001010 0.010156 0.000000 -0.005194 0.000000
# 4 0.000000 0.000000 0.000000 0.032551 0.000000 0.012749
# 5 -0.012001 -0.004712 -0.005194 0.000000 0.035763 0.000000
# 6 0.000000 0.000000 0.000000 0.012749 0.000000 0.063904
#
#
# Mechanical properties :
#
#
# Convention : Reuss Voigt Hill
#
# Bulk Modulus (GPa) = 18.01806 30.10620 24.06213
# Shear Modulus (GPa) = 22.23577 28.82561 25.53069
#
# Velocity S-wave (km/s) = 3.34485 3.80837 3.58411
# Velocity P-wave (km/s) = 4.89726 5.87250 5.40691
#
# Compressibility (1/GPa) = 0.05549988
#
# Stress axis : x y z
#
# Youngs Moduli (GPa) = 34.74232 38.63540 98.46584
#
# Poissons Ratio (x) = 0.06968 0.18198
# Poissons Ratio (y) = 0.06266 0.09941
# Poissons Ratio (z) = 0.06421 0.03900
#
# Static dielectric constant tensor:
#      x y z
#    x 1.773860 0.000000 -0.000370 
#    y 0.000000 1.668430 0.000000 
#    z -0.000370 0.000000 1.696200 
# 
# From -- ./inp_files/363247.got.cif
#   From: 2010.05.17/outbox.ucp.g08.bks.cvg/sg12_182_cif.got.tgz:363247.got - 2010.06.11 11:47:21.
