data_PCOD9225990
_publ_section_title
;
Structure prediction by ZEFSAII (Michael W. Deem and Ramdas Pophale) SiO2 
 PCOD9225990
Probable space group: C 2/M
;
_chemical_formula_sum "Si O2"
_cell_formula_units_Z 26
_cell_length_a 18.000000
_cell_length_b 21.000000
_cell_length_c 9.000000
_cell_angle_alpha 90.000000
_cell_angle_beta 50.000000
_cell_angle_gamma 90.000000
_cell_volume 2606.083195
_symmetry_space_group_name_H-M "C 2/M"
_symmetry_group_IT_number 12
_symmetry_cell_setting 'monoclinic'
loop_
_space_group_symop_operation_xyz
x,y,z
-x,y,-z
-x,-y,-z
x,-y,z
1/2+x,1/2+y,z
1/2-x,1/2+y,-z
1/2-x,1/2-y,-z
1/2+x,1/2-y,z
loop_
_atom_site_type_symbol
_atom_site_label
_atom_site_fract_x
_atom_site_fract_y
_atom_site_fract_z
Si Si1 0.388642 0.000000 0.615061
Si Si2 0.856730 0.855235 0.046192
Si Si3 0.524176 0.260586 0.306717
Si Si4 0.789421 0.500000 0.430613
Si Si5 0.114266 0.000000 0.879764
Si Si6 0.846534 0.367666 0.833155
Si Si7 0.144807 0.749432 0.704906
Si Si8 0.385324 0.888782 0.120431
O O1 0.500000 0.000000 0.500000
O O2 0.359057 0.931420 0.718914
O O3 0.359076 0.000000 0.483076
O O4 0.754582 0.842013 0.098330
O O5 0.866944 0.813916 0.184196
O O6 0.865921 0.931474 0.063800
O O7 0.929390 0.819108 0.842729
O O8 0.500000 0.284825 0.500000
O O9 0.583190 0.194262 0.255713
O O10 0.431020 0.243257 0.330089
O O11 0.682548 0.500000 0.644010
O O12 0.818383 0.436957 0.300923
O O13 0.000000 0.000000 0.000000
O O14 0.854822 0.394257 0.989001
O O15 0.250000 0.750000 0.500000
O O16 0.130508 0.685567 0.819683
O O17 0.500000 0.903514 0.000000
#
# Coordination Sequence:
#
# PCOD9225990 Si02
#       8
#     4   8   8   4   4   8   8   8
#     4  12  25  42  70 105 144 186 233 291 357 439
#     4  12  25  49  72 102 139 188 240 302 369 426
#     4  12  26  43  69 106 141 184 242 298 365 428
#     4  12  26  45  70 108 143 191 248 290 368 445
#     4  12  26  51  78  99 139 194 246 305 365 439
#     4  12  24  45  71 103 146 188 229 299 367 427
#     4  12  25  43  70 102 143 191 243 294 356 440
#     4  12  24  44  68 105 149 193 237 300 368 434
#
# _framework density 9.9766580000000005
#
# number of rings (size 3 to 8) (size 9 to 14) (size 15 to 20)
#    0.000    0.000    4.615    5.769    4.308    0.000 
#    0.000    0.385    0.000    0.000    0.000    0.000 
#    0.000    0.000    0.000    0.000    0.000    0.000 
#
# Total GULP energy -145124.925095 kJ/mol
# GULP energy per Si atom -5581.727888 kJ/mol
# Density = 0.995395 g / cm^3
# Si number density = 9.976658 Si / 1000 Ang^3
#
#
#
# Elastic Constant Matrix: (Units=GPa)
#
#
# Indices 1 2 3 4 5 6 
#
# 1 104.7354 -3.9589 3.0510 0.0000 -12.1282 0.0000
# 2 -3.9589 124.1354 23.4087 0.0000 -1.2755 0.0000
# 3 3.0510 23.4087 79.1597 0.0000 -2.4392 0.0000
# 4 0.0000 0.0000 0.0000 46.8682 0.0000 24.7665
# 5 -12.1282 -1.2755 -2.4392 0.0000 43.1740 0.0000
# 6 0.0000 0.0000 0.0000 24.7665 0.0000 52.6453
#
#
#
# Elastic Compliance Matrix: (Units=1/GPa)
#
#
# Indices 1 2 3 4 5 6 
#
# 1 0.009897 0.000424 -0.000421 0.000000 0.002769 0.000000
# 2 0.000424 0.008550 -0.002538 0.000000 0.000228 0.000000
# 3 -0.000421 -0.002538 0.013417 0.000000 0.000565 0.000000
# 4 0.000000 0.000000 0.000000 0.028395 0.000000 -0.013358
# 5 0.002769 0.000228 0.000565 0.000000 0.023979 0.000000
# 6 0.000000 0.000000 0.000000 -0.013358 0.000000 0.025279
#
#
# Mechanical properties :
#
#
# Convention : Reuss Voigt Hill
#
# Bulk Modulus (GPa) = 37.32374 39.22578 38.27476
# Shear Modulus (GPa) = 40.47967 47.57282 44.02625
#
# Velocity S-wave (km/s) = 4.50902 4.88813 4.70240
# Velocity P-wave (km/s) = 6.77159 7.18052 6.97905
#
# Compressibility (1/GPa) = 0.02679260
#
# Stress axis : x y z
#
# Youngs Moduli (GPa) = 101.04300 116.95748 74.53360
#
# Poissons Ratio (x) = -0.04954 0.03141
# Poissons Ratio (y) = -0.04280 0.18914
# Poissons Ratio (z) = 0.04258 0.29680
#
# Static dielectric constant tensor:
#      x y z
#    x 1.707440 0.000000 -0.030140 
#    y 0.000000 1.771460 0.000000 
#    z -0.030140 0.000000 1.763710 
# 
# From -- ./inp_files/77997.got.cif
#   From: 2010.05.17/outbox.ucp.g08.bks.cvg/sg12_39_cif.got.tgz:77997.got - 2010.06.11 11:47:21.
