data_PCOD9225975
_publ_section_title
;
Structure prediction by ZEFSAII (Michael W. Deem and Ramdas Pophale) SiO2 
 PCOD9225975
Probable space group: C 2/M
;
_chemical_formula_sum "Si O2"
_cell_formula_units_Z 20
_cell_length_a 9.000000
_cell_length_b 27.000000
_cell_length_c 9.000000
_cell_angle_alpha 90.000000
_cell_angle_beta 100.000000
_cell_angle_gamma 90.000000
_cell_volume 2153.774556
_symmetry_space_group_name_H-M "C 2/M"
_symmetry_group_IT_number 12
_symmetry_cell_setting 'monoclinic'
loop_
_space_group_symop_operation_xyz
x,y,z
-x,y,-z
-x,-y,-z
x,-y,z
1/2+x,1/2+y,z
1/2-x,1/2+y,-z
1/2-x,1/2-y,-z
1/2+x,1/2-y,z
loop_
_atom_site_type_symbol
_atom_site_label
_atom_site_fract_x
_atom_site_fract_y
_atom_site_fract_z
Si Si1 0.901464 0.634518 0.840043
Si Si2 0.159842 0.440102 0.438684
Si Si3 0.592554 0.211011 0.665271
Si Si4 0.374887 0.355728 0.607520
Si Si5 0.410171 0.311363 0.137629
O O1 0.857013 0.588665 0.723107
O O2 0.999399 0.671650 0.750896
O O3 0.756244 0.663865 0.882843
O O4 0.000000 0.619040 0.000000
O O5 0.192398 0.500000 0.433304
O O6 0.285430 0.406139 0.547154
O O7 0.000000 0.435507 0.500000
O O8 0.500000 0.222623 0.500000
O O9 0.253607 0.185406 0.372263
O O10 0.606800 0.260988 0.766359
O O11 0.500000 0.344827 0.500000
O O12 0.481146 0.352784 0.769555
O O13 0.500000 0.298547 0.000000
#
# Coordination Sequence:
#
# PCOD9225975 Si02
#       5
#     8   8   8   8   8
#     4  12  24  44  68  94 137 177 219 269 329 400
#     4  11  24  47  74 100 125 168 227 277 336 395
#     4  12  23  42  67  97 135 182 223 260 321 398
#     4  12  22  43  68  99 132 173 218 276 328 383
#     4  12  27  41  63 101 138 177 218 270 328 385
#
# _framework density 9.2860230000000001
#
# number of rings (size 3 to 8) (size 9 to 14) (size 15 to 20)
#    0.000    0.200    6.000    3.600    0.000    5.600 
#    0.000    2.000    0.000    1.200    0.000    0.000 
#    0.000    0.000    0.000    0.000    0.000    0.000 
#
# Total GULP energy -111654.097420 kJ/mol
# GULP energy per Si atom -5582.704871 kJ/mol
# Density = 0.926489 g / cm^3
# Si number density = 9.286023 Si / 1000 Ang^3
#
#
#
# Elastic Constant Matrix: (Units=GPa)
#
#
# Indices 1 2 3 4 5 6 
#
# 1 152.0911 49.4263 38.4950 0.0000 -17.9802 0.0000
# 2 49.4263 141.9526 53.2545 0.0000 2.0875 0.0000
# 3 38.4950 53.2545 109.4334 0.0000 -8.2843 0.0000
# 4 0.0000 0.0000 0.0000 27.7373 0.0000 -0.7071
# 5 -17.9802 2.0875 -8.2843 0.0000 46.4231 0.0000
# 6 0.0000 0.0000 0.0000 -0.7071 0.0000 26.3961
#
#
#
# Elastic Compliance Matrix: (Units=1/GPa)
#
#
# Indices 1 2 3 4 5 6 
#
# 1 0.008044 -0.002283 -0.001495 0.000000 0.002952 0.000000
# 2 -0.002283 0.009327 -0.003887 0.000000 -0.001997 0.000000
# 3 -0.001495 -0.003887 0.011683 0.000000 0.001681 0.000000
# 4 0.000000 0.000000 0.000000 0.036077 0.000000 0.000966
# 5 0.002952 -0.001997 0.001681 0.000000 0.023074 0.000000
# 6 0.000000 0.000000 0.000000 0.000966 0.000000 0.037910
#
#
# Mechanical properties :
#
#
# Convention : Reuss Voigt Hill
#
# Bulk Modulus (GPa) = 72.86884 76.20319 74.53602
# Shear Modulus (GPa) = 34.24159 37.59805 35.91982
#
# Velocity S-wave (km/s) = 4.29851 4.50426 4.40259
# Velocity P-wave (km/s) = 7.99732 8.25660 8.12799
#
# Compressibility (1/GPa) = 0.01372329
#
# Stress axis : x y z
#
# Youngs Moduli (GPa) = 124.30942 107.21225 85.59688
#
# Poissons Ratio (x) = 0.24482 0.12797
# Poissons Ratio (y) = 0.28386 0.33271
# Poissons Ratio (z) = 0.18585 0.41673
#
# Static dielectric constant tensor:
#      x y z
#    x 1.689100 0.000000 0.021850 
#    y 0.000000 1.627140 0.000000 
#    z 0.021850 0.000000 1.692210 
# 
# From -- ./inp_files/40512.got.cif
#   From: 2010.05.17/outbox.ucp.g08.bks.cvg/sg12_21_cif.got.tgz:40512.got - 2010.06.11 11:47:21.
