data_PCOD9225077
_publ_section_title
;
Structure prediction by ZEFSAII (Michael W. Deem and Ramdas Pophale) SiO2 
 PCOD9225077
Probable space group: C 2/M
;
_chemical_formula_sum "Si O2"
_cell_formula_units_Z 28
_cell_length_a 12.000000
_cell_length_b 30.000000
_cell_length_c 9.000000
_cell_angle_alpha 90.000000
_cell_angle_beta 120.000000
_cell_angle_gamma 90.000000
_cell_volume 2805.922308
_symmetry_space_group_name_H-M "C 2/M"
_symmetry_group_IT_number 12
_symmetry_cell_setting 'monoclinic'
loop_
_space_group_symop_operation_xyz
x,y,z
-x,y,-z
-x,-y,-z
x,-y,z
1/2+x,1/2+y,z
1/2-x,1/2+y,-z
1/2-x,1/2-y,-z
1/2+x,1/2-y,z
loop_
_atom_site_type_symbol
_atom_site_label
_atom_site_fract_x
_atom_site_fract_y
_atom_site_fract_z
Si Si1 0.096782 0.263305 0.425879
Si Si2 0.345806 0.947644 0.921126
Si Si3 0.199419 0.317670 0.078355
Si Si4 0.845047 0.883395 0.388710
Si Si5 0.413225 0.727713 0.045384
Si Si6 0.904319 0.389125 0.204449
Si Si7 0.159787 0.366553 0.509768
O O1 0.250000 0.250000 0.500000
O O2 0.110578 0.316720 0.443050
O O3 0.000000 0.251261 0.500000
O O4 0.003043 0.244402 0.236949
O O5 0.239209 0.922182 0.749538
O O6 0.329452 0.000000 0.891830
O O7 0.500000 0.937615 0.000000
O O8 0.332799 0.930649 0.082080
O O9 0.287986 0.340462 0.261178
O O10 0.292824 0.299992 0.013485
O O11 0.133476 0.271375 0.077071
O O12 0.105179 0.352155 0.933495
O O13 0.793165 0.876857 0.520351
O O14 0.000000 0.887368 0.500000
O O15 0.500000 0.697547 0.000000
O O16 0.839766 0.373536 0.314402
O O17 0.051072 0.396522 0.354446
#
# Coordination Sequence:
#
# PCOD9225077 Si02
#       7
#     8   8   8   8   8   8   8
#     4  12  27  40  60  87 127 173 221 276 329 372
#     4  10  21  42  71  99 126 160 204 250 313 399
#     4  10  23  38  55  82 118 160 223 250 320 365
#     4  11  25  40  64  96 126 166 205 264 323 384
#     4  11  24  37  55  81 117 166 213 271 308 367
#     4  10  20  40  63  90 119 162 207 257 311 373
#     4  11  21  39  63  88 127 167 214 260 316 370
#
# _framework density 9.9788940000000004
#
# number of rings (size 3 to 8) (size 9 to 14) (size 15 to 20)
#    0.000    1.286    4.286    0.857   10.000    0.286 
#    0.000    4.286    0.000    0.857    0.000    0.000 
#    0.000    0.000    0.000    0.000    0.000    0.000 
#
# Total GULP energy -155894.876769 kJ/mol
# GULP energy per Si atom -5567.674170 kJ/mol
# Density = 0.995618 g / cm^3
# Si number density = 9.978894 Si / 1000 Ang^3
#
#
#
# Elastic Constant Matrix: (Units=GPa)
#
#
# Indices 1 2 3 4 5 6 
#
# 1 124.0845 25.6489 30.8404 0.0000 3.0509 0.0000
# 2 25.6489 50.1176 21.2428 0.0000 -0.4737 0.0000
# 3 30.8404 21.2428 92.2194 0.0000 6.8938 0.0000
# 4 0.0000 0.0000 0.0000 12.5355 0.0000 6.5078
# 5 3.0509 -0.4737 6.8938 0.0000 30.6706 0.0000
# 6 0.0000 0.0000 0.0000 6.5078 0.0000 9.4736
#
#
#
# Elastic Compliance Matrix: (Units=1/GPa)
#
#
# Indices 1 2 3 4 5 6 
#
# 1 0.009427 -0.003888 -0.002220 0.000000 -0.000499 0.000000
# 2 -0.003888 0.023785 -0.004307 0.000000 0.001722 0.000000
# 3 -0.002220 -0.004307 0.012781 0.000000 -0.002719 0.000000
# 4 0.000000 0.000000 0.000000 0.123993 0.000000 -0.085177
# 5 -0.000499 0.001722 -0.002719 0.000000 0.033292 0.000000
# 6 0.000000 0.000000 0.000000 -0.085177 0.000000 0.164069
#
#
# Mechanical properties :
#
#
# Convention : Reuss Voigt Hill
#
# Bulk Modulus (GPa) = 39.74122 46.87620 43.30871
# Shear Modulus (GPa) = 12.60829 23.11522 17.86176
#
# Velocity S-wave (km/s) = 2.51619 3.40693 2.99486
# Velocity P-wave (km/s) = 5.32893 6.24619 5.80570
#
# Compressibility (1/GPa) = 0.02516279
#
# Stress axis : x y z
#
# Youngs Moduli (GPa) = 106.08200 42.04335 78.23870
#
# Poissons Ratio (x) = 0.16348 0.17365
# Poissons Ratio (y) = 0.41248 0.33700
# Poissons Ratio (z) = 0.23545 0.18109
#
# Static dielectric constant tensor:
#      x y z
#    x 1.812830 0.000000 -0.051070 
#    y 0.000000 1.758620 0.000000 
#    z -0.051070 0.000000 1.734390 
# 
# From -- ./inp_files/54796.got.cif
#   From: 2010.05.17/outbox.ucp.g08.bks.cvg/sg12_28_cif.got.tgz:54796.got - 2010.06.11 11:47:21.
