data_PCOD9225474
_publ_section_title
;
Structure prediction by ZEFSAII (Michael W. Deem and Ramdas Pophale) SiO2 
 PCOD9225474
Probable space group: C 2/M
;
_chemical_formula_sum "Si O2"
_cell_formula_units_Z 29
_cell_length_a 12.000000
_cell_length_b 18.000000
_cell_length_c 21.000000
_cell_angle_alpha 90.000000
_cell_angle_beta 140.000000
_cell_angle_gamma 90.000000
_cell_volume 2915.684598
_symmetry_space_group_name_H-M "C 2/M"
_symmetry_group_IT_number 12
_symmetry_cell_setting 'monoclinic'
loop_
_space_group_symop_operation_xyz
x,y,z
-x,y,-z
-x,-y,-z
x,-y,z
1/2+x,1/2+y,z
1/2-x,1/2+y,-z
1/2-x,1/2-y,-z
1/2+x,1/2-y,z
loop_
_atom_site_type_symbol
_atom_site_label
_atom_site_fract_x
_atom_site_fract_y
_atom_site_fract_z
Si Si1 0.248725 0.335908 0.771230
Si Si2 0.604437 0.412840 0.959816
Si Si3 0.697224 0.086024 0.086259
Si Si4 0.500000 0.500000 0.500000
Si Si5 0.596341 0.086248 0.813071
Si Si6 0.071328 0.823911 0.714239
Si Si7 0.217685 0.864768 0.645412
Si Si8 0.696218 0.196323 0.601784
O O1 0.444170 0.357519 0.877692
O O2 0.133298 0.398050 0.755369
O O3 0.161774 0.257738 0.754482
O O4 0.238701 0.333009 0.691034
O O5 0.546416 0.500000 0.943874
O O6 0.725028 0.412401 0.950336
O O7 0.731472 0.390048 0.072988
O O8 0.828056 0.130041 0.188221
O O9 0.689273 0.000000 0.104479
O O10 0.500000 0.115209 0.000000
O O11 0.648149 0.434344 0.575899
O O12 0.419598 0.127430 0.752821
O O13 0.573220 0.000000 0.817273
O O14 0.110352 0.860086 0.663447
O O15 0.864554 0.823814 0.633945
O O16 0.195156 0.786046 0.601315
O O17 0.500000 0.171494 0.500000
#
# Coordination Sequence:
#
# PCOD9225474 Si02
#       8
#     8   8   8   2   8   8   8   8
#     4  11  23  40  66  95 129 171 216 265 326 397
#     4  10  21  39  65  94 132 175 213 265 323 394
#     4  10  21  39  64  92 128 172 217 263 328 390
#     4  12  24  44  68  96 130 164 226 278 332 378
#     4  11  22  40  66  97 135 171 219 267 327 389
#     4  11  24  42  66  94 132 170 213 276 327 391
#     4  11  24  41  67  97 129 168 220 274 325 391
#     4  11  24  46  67  92 129 173 221 269 330 391
#
# _framework density 9.9462060000000001
#
# number of rings (size 3 to 8) (size 9 to 14) (size 15 to 20)
#    0.000    1.241    4.138    1.655    0.966    6.621 
#    0.000    2.759    0.000    2.069    0.000    0.000 
#    0.000    0.000    0.000    0.000    0.000    0.000 
#
# Total GULP energy -161630.543574 kJ/mol
# GULP energy per Si atom -5573.467020 kJ/mol
# Density = 0.992357 g / cm^3
# Si number density = 9.946206 Si / 1000 Ang^3
#
#
#
# Elastic Constant Matrix: (Units=GPa)
#
#
# Indices 1 2 3 4 5 6 
#
# 1 119.6686 21.7380 33.1642 0.0000 31.3766 0.0000
# 2 21.7380 17.3549 33.1912 0.0000 6.6423 0.0000
# 3 33.1642 33.1912 101.4166 0.0001 43.2723 0.0000
# 4 0.0000 0.0000 0.0001 21.9829 0.0000 9.2556
# 5 31.3766 6.6423 43.2723 0.0000 29.1049 0.0000
# 6 0.0000 0.0000 0.0000 9.2556 0.0000 16.1182
#
#
#
# Elastic Compliance Matrix: (Units=1/GPa)
#
#
# Indices 1 2 3 4 5 6 
#
# 1 -0.002702 0.052855 -0.034217 0.000000 0.041723 0.000000
# 2 0.052855 -0.185544 0.135889 0.000000 -0.216672 0.000000
# 3 -0.034217 0.135889 -0.070921 0.000000 0.111318 0.000000
# 4 0.000000 0.000000 0.000000 0.059995 0.000000 -0.034451
# 5 0.041723 -0.216672 0.111318 0.000000 -0.126676 0.000000
# 6 0.000000 0.000000 0.000000 -0.034451 0.000000 0.081825
#
#
# Mechanical properties :
#
#
# Convention : Reuss Voigt Hill
#
# Bulk Modulus (GPa) = 20.04460 46.06966 33.05713
# Shear Modulus (GPa) = -9.32059 23.46432 7.07187
#
# Velocity S-wave (km/s) = -2.16695 3.43820 1.88753
# Velocity P-wave (km/s) = 1.95895 6.24270 4.62649
#
# Compressibility (1/GPa) = 0.04988875
#
# Stress axis : x y z
#
# Youngs Moduli (GPa) = -370.13909 -5.38957 -14.10028
#
# Poissons Ratio (x) = 0.28487 -0.48247
# Poissons Ratio (y) = 19.56381 1.91607
# Poissons Ratio (z) = -12.66506 0.73238
#
# Static dielectric constant tensor:
#      x y z
#    x 1.736760 0.000000 0.004600 
#    y 0.000000 1.697370 0.000000 
#    z 0.004600 0.000000 1.696730 
# 
# From -- ./inp_files/207755.got.cif
#   From: 2010.05.17/outbox.ucp.g08.bks.cvg/sg12_104_cif.got.tgz:207755.got - 2010.06.11 11:47:21.
