data_PCOD9225469
_publ_section_title
;
Structure prediction by ZEFSAII (Michael W. Deem and Ramdas Pophale) SiO2 
 PCOD9225469
Probable space group: C 2/M
;
_chemical_formula_sum "Si O2"
_cell_formula_units_Z 28
_cell_length_a 9.000000
_cell_length_b 30.000000
_cell_length_c 21.000000
_cell_angle_alpha 90.000000
_cell_angle_beta 30.000000
_cell_angle_gamma 90.000000
_cell_volume 2835.000000
_symmetry_space_group_name_H-M "C 2/M"
_symmetry_group_IT_number 12
_symmetry_cell_setting 'monoclinic'
loop_
_space_group_symop_operation_xyz
x,y,z
-x,y,-z
-x,-y,-z
x,-y,z
1/2+x,1/2+y,z
1/2-x,1/2+y,-z
1/2-x,1/2-y,-z
1/2+x,1/2-y,z
loop_
_atom_site_type_symbol
_atom_site_label
_atom_site_fract_x
_atom_site_fract_y
_atom_site_fract_z
Si Si1 0.141576 0.095601 0.256542
Si Si2 0.663519 0.765864 0.743571
Si Si3 0.651686 0.446917 0.512094
Si Si4 0.641610 0.552230 0.757216
Si Si5 0.904540 0.791023 0.106046
Si Si6 0.279087 0.124233 0.020583
Si Si7 0.157187 0.190038 0.639033
O O1 0.021016 0.081021 0.370008
O O2 0.010895 0.060064 0.254887
O O3 0.004934 0.143589 0.288497
O O4 0.493463 0.103030 0.115499
O O5 0.444683 0.798844 0.784478
O O6 0.570992 0.746682 0.848122
O O7 0.660160 0.723133 0.698455
O O8 0.979570 0.787773 0.645205
O O9 0.500000 0.439032 0.500000
O O10 0.625271 0.500000 0.536174
O O11 0.006034 0.436911 0.377970
O O12 0.613444 0.500000 0.786435
O O13 0.459468 0.586925 0.868920
O O14 0.098579 0.833209 0.058853
O O15 0.000000 0.775026 0.000000
O O16 0.500000 0.134672 0.000000
O O17 0.500000 0.180727 0.500000
#
# Coordination Sequence:
#
# PCOD9225469 Si02
#       7
#     8   8   8   8   8   8   8
#     4  11  22  38  62  90 120 157 200 244 297 354
#     4  10  23  39  60  86 116 157 201 247 298 353
#     4  10  22  40  61  88 122 158 197 242 296 358
#     4  10  21  39  64  91 119 155 198 245 297 354
#     4  11  22  38  59  85 118 155 198 246 297 354
#     4  10  23  40  60  90 124 155 198 251 301 354
#     4  11  22  40  61  87 120 157 200 247 298 354
#
# _framework density 9.8765429999999999
#
# number of rings (size 3 to 8) (size 9 to 14) (size 15 to 20)
#    0.000    1.571    0.000    5.143    0.000    9.429 
#    0.000    2.143    0.000    3.000    0.000    0.000 
#    0.000    0.000    0.000    0.000    0.000    0.000 
#
# Total GULP energy -156236.221861 kJ/mol
# GULP energy per Si atom -5579.865066 kJ/mol
# Density = 0.985406 g / cm^3
# Si number density = 9.876543 Si / 1000 Ang^3
#
#
#
# Elastic Constant Matrix: (Units=GPa)
#
#
# Indices 1 2 3 4 5 6 
#
# 1 97.9530 27.1769 39.5055 0.0000 -17.9895 -0.0002
# 2 27.1769 72.0340 41.9527 0.0002 -5.2783 -0.0002
# 3 39.5055 41.9527 131.9099 -0.0015 -9.5158 -0.0001
# 4 0.0000 0.0002 -0.0015 35.1992 0.0000 -5.7571
# 5 -17.9895 -5.2783 -9.5158 0.0000 30.5609 0.0002
# 6 -0.0002 -0.0002 -0.0001 -5.7571 0.0002 30.1657
#
#
#
# Elastic Compliance Matrix: (Units=1/GPa)
#
#
# Indices 1 2 3 4 5 6 
#
# 1 0.013272 -0.003055 -0.002535 0.000000 0.006496 0.000000
# 2 -0.003055 0.017791 -0.004758 0.000000 -0.000207 0.000000
# 3 -0.002535 -0.004758 0.009909 0.000000 0.000772 0.000000
# 4 0.000000 0.000000 0.000000 0.029325 0.000000 0.005597
# 5 0.006496 -0.000207 0.000772 0.000000 0.036750 0.000000
# 6 0.000000 0.000000 0.000000 0.005597 0.000000 0.034218
#
#
# Mechanical properties :
#
#
# Convention : Reuss Voigt Hill
#
# Bulk Modulus (GPa) = 49.31935 57.68521 53.50228
# Shear Modulus (GPa) = 29.63507 32.06929 30.85218
#
# Velocity S-wave (km/s) = 3.87754 4.03365 3.95637
# Velocity P-wave (km/s) = 6.71336 7.13865 6.92927
#
# Compressibility (1/GPa) = 0.02027602
#
# Stress axis : x y z
#
# Youngs Moduli (GPa) = 75.34808 56.20829 100.91873
#
# Poissons Ratio (x) = 0.17172 0.25578
# Poissons Ratio (y) = 0.23019 0.48019
# Poissons Ratio (z) = 0.19097 0.26745
#
# Static dielectric constant tensor:
#      x y z
#    x 1.680250 0.000000 -0.011080 
#    y 0.000000 1.684130 0.000000 
#    z -0.011080 0.000000 1.775210 
# 
# From -- ./inp_files/302984.got.cif
#   From: 2010.05.17/outbox.ucp.g08.bks.cvg/sg12_152_cif.got.tgz:302984.got - 2010.06.11 11:47:21.
