data_PCOD9225056
_publ_section_title
;
Structure prediction by ZEFSAII (Michael W. Deem and Ramdas Pophale) SiO2 
 PCOD9225056
Probable space group: C 2/M
;
_chemical_formula_sum "Si O2"
_cell_formula_units_Z 24
_cell_length_a 15.000000
_cell_length_b 9.000000
_cell_length_c 27.000000
_cell_angle_alpha 90.000000
_cell_angle_beta 140.000000
_cell_angle_gamma 90.000000
_cell_volume 2342.960837
_symmetry_space_group_name_H-M "C 2/M"
_symmetry_group_IT_number 12
_symmetry_cell_setting 'monoclinic'
loop_
_space_group_symop_operation_xyz
x,y,z
-x,y,-z
-x,-y,-z
x,-y,z
1/2+x,1/2+y,z
1/2-x,1/2+y,-z
1/2-x,1/2-y,-z
1/2+x,1/2-y,z
loop_
_atom_site_type_symbol
_atom_site_label
_atom_site_fract_x
_atom_site_fract_y
_atom_site_fract_z
Si Si1 0.893887 0.175824 0.577367
Si Si2 0.584297 0.175316 0.084626
Si Si3 0.888675 0.162184 0.069372
Si Si4 0.402838 0.169846 0.410232
Si Si5 0.370883 0.829573 0.669396
Si Si6 0.898965 0.835279 0.190316
O O1 0.750000 0.250000 0.500000
O O2 0.916514 0.237860 0.641124
O O3 0.015426 0.234863 0.594782
O O4 0.881435 0.000000 0.570193
O O5 0.522345 0.257212 0.105053
O O6 0.747241 0.194512 0.147111
O O7 0.556260 0.000000 0.077601
O O8 0.500000 0.226182 0.000000
O O9 0.891297 0.148658 0.128774
O O10 0.880244 0.000000 0.042309
O O11 0.750000 0.250000 0.000000
O O12 0.500000 0.165163 0.500000
O O13 0.262082 0.250052 0.364628
O O14 0.380009 0.000000 0.384092
O O15 0.500588 0.802732 0.759253
O O16 0.341221 0.000000 0.645246
O O17 0.946740 0.000000 0.229675
#
# Coordination Sequence:
#
# PCOD9225056 Si02
#       6
#     8   8   8   8   8   8
#     4  12  24  41  67  97 129 167 213 261 314 376
#     4  10  20  39  64  91 123 164 208 256 312 372
#     4  11  22  38  63  93 124 163 209 260 311 372
#     4  11  23  41  68  97 127 167 213 263 315 373
#     4  12  26  43  65  95 132 170 211 262 319 378
#     4  10  23  43  63  87 129 171 206 258 321 374
#
# _framework density 10.243449
#
# number of rings (size 3 to 8) (size 9 to 14) (size 15 to 20)
#    0.000    1.000    3.333    4.000    0.000    4.333 
#    0.000    3.333    0.000    0.000    0.000    0.000 
#    0.000    0.000    0.000    0.000    0.000    0.000 
#
# Total GULP energy -133939.105743 kJ/mol
# GULP energy per Si atom -5580.796073 kJ/mol
# Density = 1.022013 g / cm^3
# Si number density = 10.243449 Si / 1000 Ang^3
#
#
#
# Elastic Constant Matrix: (Units=GPa)
#
#
# Indices 1 2 3 4 5 6 
#
# 1 197.2889 101.7310 18.4904 0.0000 12.9206 0.0000
# 2 101.7310 167.1370 40.9923 0.0000 13.7982 0.0000
# 3 18.4904 40.9923 32.3147 0.0000 -1.8898 0.0000
# 4 0.0000 0.0000 0.0000 21.1869 0.0000 -3.4419
# 5 12.9206 13.7982 -1.8898 0.0000 10.4520 0.0000
# 6 0.0000 0.0000 0.0000 -3.4419 0.0000 18.2180
#
#
#
# Elastic Compliance Matrix: (Units=1/GPa)
#
#
# Indices 1 2 3 4 5 6 
#
# 1 0.007554 -0.004741 0.001528 0.000000 -0.002802 0.000000
# 2 -0.004741 0.014115 -0.016110 0.000000 -0.015686 0.000000
# 3 0.001528 -0.016110 0.052192 0.000000 0.028815 0.000000
# 4 0.000000 0.000000 0.000000 0.048694 0.000000 0.009200
# 5 -0.002802 -0.015686 0.028815 0.000000 0.125057 0.000000
# 6 0.000000 0.000000 0.000000 0.009200 0.000000 0.056629
#
#
# Mechanical properties :
#
#
# Convention : Reuss Voigt Hill
#
# Bulk Modulus (GPa) = 28.39666 79.90758 54.15212
# Shear Modulus (GPa) = 14.09943 25.67318 19.88630
#
# Velocity S-wave (km/s) = 2.62623 3.54383 3.11896
# Velocity P-wave (km/s) = 4.80491 7.47221 6.28176
#
# Compressibility (1/GPa) = 0.03521541
#
# Stress axis : x y z
#
# Youngs Moduli (GPa) = 132.38370 70.84655 19.15997
#
# Poissons Ratio (x) = 0.33590 -0.02928
# Poissons Ratio (y) = 0.62766 0.30866
# Poissons Ratio (z) = -0.20231 1.14132
#
# Static dielectric constant tensor:
#      x y z
#    x 1.575220 0.000000 0.031510 
#    y 0.000000 1.681570 0.000000 
#    z 0.031510 0.000000 1.844690 
# 
# From -- ./inp_files/360307.got.cif
#   From: 2010.05.17/outbox.ucp.g08.bks.cvg/sg12_181_cif.got.tgz:360307.got - 2010.06.11 11:47:21.
