data_PCOD9225988
_publ_section_title
;
Structure prediction by ZEFSAII (Michael W. Deem and Ramdas Pophale) SiO2 
 PCOD9225988
Probable space group: C 2/M
;
_chemical_formula_sum "Si O2"
_cell_formula_units_Z 16
_cell_length_a 9.000000
_cell_length_b 21.000000
_cell_length_c 9.000000
_cell_angle_alpha 90.000000
_cell_angle_beta 80.000000
_cell_angle_gamma 90.000000
_cell_volume 1675.157988
_symmetry_space_group_name_H-M "C 2/M"
_symmetry_group_IT_number 12
_symmetry_cell_setting 'monoclinic'
loop_
_space_group_symop_operation_xyz
x,y,z
-x,y,-z
-x,-y,-z
x,-y,z
1/2+x,1/2+y,z
1/2-x,1/2+y,-z
1/2-x,1/2-y,-z
1/2+x,1/2-y,z
loop_
_atom_site_type_symbol
_atom_site_label
_atom_site_fract_x
_atom_site_fract_y
_atom_site_fract_z
Si Si1 0.780614 0.794691 0.148982
Si Si2 0.266886 0.425436 0.609343
Si Si3 0.427222 0.576450 0.257928
Si Si4 0.953414 0.695406 0.337028
O O1 0.873082 0.864327 0.157151
O O2 0.858839 0.748303 0.259209
O O3 0.611934 0.812186 0.226255
O O4 0.750000 0.750000 0.000000
O O5 0.218012 0.500000 0.634117
O O6 0.401110 0.414680 0.708136
O O7 0.331792 0.419168 0.429288
O O8 0.141232 0.370566 0.646595
O O9 0.414386 0.500000 0.210125
O O10 0.000000 0.713327 0.500000
#
# Coordination Sequence:
#
# PCOD9225988 Si02
#       4
#     8   8   8   8
#     4  12  26  42  62  95 137 175 218 269 329 389
#     4   9  19  37  66 102 130 163 217 274 321 381
#     4   9  19  39  67  96 131 171 214 265 326 390
#     4  12  24  40  65  94 128 175 223 273 319 383
#
# _framework density 9.5513379999999994
#
# number of rings (size 3 to 8) (size 9 to 14) (size 15 to 20)
#    0.000    1.500    2.500    4.500    3.500    1.500 
#    0.000    1.250    0.000    9.000    0.000    0.000 
#    0.000    0.000    0.000    0.000    0.000    0.000 
#
# Total GULP energy -89107.447467 kJ/mol
# GULP energy per Si atom -5569.215467 kJ/mol
# Density = 0.952960 g / cm^3
# Si number density = 9.551338 Si / 1000 Ang^3
#
#
#
# Elastic Constant Matrix: (Units=GPa)
#
#
# Indices 1 2 3 4 5 6 
#
# 1 129.7200 71.0818 39.0538 0.0000 6.2605 0.0000
# 2 71.0818 177.8263 47.4562 0.0000 17.7142 0.0000
# 3 39.0538 47.4562 90.5107 0.0000 17.9843 0.0000
# 4 0.0000 0.0000 0.0000 36.5995 0.0000 4.9593
# 5 6.2605 17.7142 17.9843 0.0000 41.1154 0.0000
# 6 0.0000 0.0000 0.0000 4.9593 0.0000 58.6957
#
#
#
# Elastic Compliance Matrix: (Units=1/GPa)
#
#
# Indices 1 2 3 4 5 6 
#
# 1 0.010456 -0.003524 -0.002901 0.000000 0.001195 0.000000
# 2 -0.003524 0.007805 -0.002202 0.000000 -0.001863 0.000000
# 3 -0.002901 -0.002202 0.014433 0.000000 -0.004923 0.000000
# 4 0.000000 0.000000 0.000000 0.027639 0.000000 -0.002335
# 5 0.001195 -0.001863 -0.004923 0.000000 0.027096 0.000000
# 6 0.000000 0.000000 0.000000 -0.002335 0.000000 0.017234
#
#
# Mechanical properties :
#
#
# Convention : Reuss Voigt Hill
#
# Bulk Modulus (GPa) = 64.76784 79.24896 72.00840
# Shear Modulus (GPa) = 39.35027 43.31314 41.33170
#
# Velocity S-wave (km/s) = 4.54357 4.76687 4.65656
# Velocity P-wave (km/s) = 7.84246 8.47781 8.16632
#
# Compressibility (1/GPa) = 0.01543976
#
# Stress axis : x y z
#
# Youngs Moduli (GPa) = 95.64025 128.11708 69.28721
#
# Poissons Ratio (x) = 0.45153 0.20101
# Poissons Ratio (y) = 0.33707 0.15254
# Poissons Ratio (z) = 0.27747 0.28206
#
# Static dielectric constant tensor:
#      x y z
#    x 1.685390 0.000000 -0.006430 
#    y 0.000000 1.709220 0.000000 
#    z -0.006430 0.000000 1.706700 
# 
# From -- ./inp_files/37490.got.cif
#   From: 2010.05.17/outbox.ucp.g08.bks.cvg/sg12_19_cif.got.tgz:37490.got - 2010.06.11 11:47:21.
