data_PCOD9225605
_publ_section_title
;
Structure prediction by ZEFSAII (Michael W. Deem and Ramdas Pophale) SiO2 
 PCOD9225605
Probable space group: C 2/M
;
_chemical_formula_sum "Si O2"
_cell_formula_units_Z 28
_cell_length_a 21.000000
_cell_length_b 30.000000
_cell_length_c 9.000000
_cell_angle_alpha 90.000000
_cell_angle_beta 150.000000
_cell_angle_gamma 90.000000
_cell_volume 2835.000000
_symmetry_space_group_name_H-M "C 2/M"
_symmetry_group_IT_number 12
_symmetry_cell_setting 'monoclinic'
loop_
_space_group_symop_operation_xyz
x,y,z
-x,y,-z
-x,-y,-z
x,-y,z
1/2+x,1/2+y,z
1/2-x,1/2+y,-z
1/2-x,1/2-y,-z
1/2+x,1/2-y,z
loop_
_atom_site_type_symbol
_atom_site_label
_atom_site_fract_x
_atom_site_fract_y
_atom_site_fract_z
Si Si1 0.444641 0.405716 0.724634
Si Si2 0.619014 0.551934 0.851518
Si Si3 0.226339 0.182893 0.614991
Si Si4 0.618142 0.000000 0.349734
Si Si5 0.903223 0.567214 0.426075
Si Si6 0.877507 0.723911 0.649430
Si Si7 0.487630 0.165312 0.310788
Si Si8 0.135123 0.000000 0.360642
O O1 0.568160 0.413892 0.871938
O O2 0.365036 0.360014 0.549786
O O3 0.365830 0.452848 0.552338
O O4 0.500000 0.404244 0.000000
O O5 0.500000 0.551874 0.500000
O O6 0.632718 0.500000 0.929528
O O7 0.757223 0.567035 0.072146
O O8 0.163836 0.231009 0.518447
O O9 0.278470 0.196784 0.554723
O O10 0.347363 0.171702 0.961271
O O11 0.607895 0.958611 0.441293
O O12 0.746721 0.000000 0.512985
O O13 0.500000 0.000000 0.000000
O O14 0.000000 0.547293 0.500000
O O15 0.964795 0.614758 0.583887
O O16 0.919970 0.689792 0.612904
O O17 0.000000 0.735299 0.000000
O O18 0.500000 0.184494 0.500000
O O19 0.000000 0.000000 0.000000
#
# Coordination Sequence:
#
# PCOD9225605 Si02
#       8
#     8   8   8   4   8   8   8   4
#     4  11  23  39  64  94 128 167 211 271 324 384
#     4  11  25  44  66  92 128 176 226 269 320 381
#     4  10  22  40  68  94 127 168 218 263 334 394
#     4  12  27  37  63 101 125 171 228 268 322 384
#     4  11  25  46  65  90 134 177 221 270 331 397
#     4   9  20  42  66  95 126 164 216 271 329 397
#     4  10  24  41  64  93 129 171 210 271 330 392
#     4  10  22  39  59  89 134 163 206 272 322 372
#
# _framework density 9.8765429999999999
#
# number of rings (size 3 to 8) (size 9 to 14) (size 15 to 20)
#    0.000    1.571    1.429    2.357   10.000    1.143 
#    0.000    0.714    0.000    0.000    0.000    0.000 
#    0.000    0.000    0.000    0.000    0.000    0.000 
#
# Total GULP energy -156010.776099 kJ/mol
# GULP energy per Si atom -5571.813432 kJ/mol
# Density = 0.985406 g / cm^3
# Si number density = 9.876543 Si / 1000 Ang^3
#
#
#
# Elastic Constant Matrix: (Units=GPa)
#
#
# Indices 1 2 3 4 5 6 
#
# 1 78.1389 27.5975 37.7734 0.0000 28.1604 0.0000
# 2 27.5975 131.3452 38.0099 0.0000 10.6296 0.0000
# 3 37.7734 38.0099 76.7906 0.0000 9.7080 0.0000
# 4 0.0000 0.0000 0.0000 -243.6304 0.0000 337.3928
# 5 28.1604 10.6296 9.7080 0.0000 31.2716 0.0000
# 6 0.0000 0.0000 0.0000 337.3928 0.0000 -374.0509
#
#
#
# Elastic Compliance Matrix: (Units=1/GPa)
#
#
# Indices 1 2 3 4 5 6 
#
# 1 0.024281 -0.000952 -0.009107 0.000000 -0.018714 0.000000
# 2 -0.000952 0.009014 -0.003866 0.000000 -0.001007 0.000000
# 3 -0.009107 -0.003866 0.018957 0.000000 0.003630 0.000000
# 4 0.000000 0.000000 0.000000 0.016475 0.000000 0.014861
# 5 -0.018714 -0.001007 0.003630 0.000000 0.048046 0.000000
# 6 0.000000 0.000000 0.000000 0.014861 0.000000 0.010731
#
#
# Mechanical properties :
#
#
# Convention : Reuss Voigt Hill
#
# Bulk Modulus (GPa) = 40.98045 54.78181 47.88113
# Shear Modulus (GPa) = 30.58363 -105.08900 -37.25269
#
# Velocity S-wave (km/s) = 3.93911 -7.30184 -4.34743
# Velocity P-wave (km/s) = 6.44051 6.57994 0.95274
#
# Compressibility (1/GPa) = 0.02440188
#
# Stress axis : x y z
#
# Youngs Moduli (GPa) = 41.18522 110.94079 52.75146
#
# Poissons Ratio (x) = 0.10559 0.48039
# Poissons Ratio (y) = 0.03920 0.20395
# Poissons Ratio (z) = 0.37506 0.42892
#
# Static dielectric constant tensor:
#      x y z
#    x 1.692750 0.000000 0.035860 
#    y 0.000000 1.700950 0.000000 
#    z 0.035860 0.000000 1.820620 
# 
# From -- ./inp_files/91690.got.cif
#   From: 2010.05.17/outbox.ucp.g08.bks.cvg/sg12_46_cif.got.tgz:91690.got - 2010.06.11 11:47:21.
