data_PCOD9225109
_publ_section_title
;
Structure prediction by ZEFSAII (Michael W. Deem and Ramdas Pophale) SiO2 
 PCOD9225109
Probable space group: C 2/M
;
_chemical_formula_sum "Si O2"
_cell_formula_units_Z 24
_cell_length_a 9.000000
_cell_length_b 30.000000
_cell_length_c 18.000000
_cell_angle_alpha 90.000000
_cell_angle_beta 150.000000
_cell_angle_gamma 90.000000
_cell_volume 2430.000000
_symmetry_space_group_name_H-M "C 2/M"
_symmetry_group_IT_number 12
_symmetry_cell_setting 'monoclinic'
loop_
_space_group_symop_operation_xyz
x,y,z
-x,y,-z
-x,-y,-z
x,-y,z
1/2+x,1/2+y,z
1/2-x,1/2+y,-z
1/2-x,1/2-y,-z
1/2+x,1/2-y,z
loop_
_atom_site_type_symbol
_atom_site_label
_atom_site_fract_x
_atom_site_fract_y
_atom_site_fract_z
Si Si1 0.154485 0.500000 0.862284
Si Si2 0.252707 0.834311 0.327677
Si Si3 0.308246 0.841412 0.175138
Si Si4 0.251133 0.083056 0.673808
Si Si5 0.177198 0.913911 0.819663
Si Si6 0.692884 0.257726 0.888708
Si Si7 0.321476 0.500000 0.104042
O O1 0.983087 0.543153 0.758967
O O2 0.500000 0.500000 0.000000
O O3 0.193388 0.500000 0.966799
O O4 0.500000 0.834009 0.500000
O O5 0.325346 0.845820 0.272343
O O6 0.010933 0.870136 0.248066
O O7 0.092149 0.786701 0.252318
O O8 0.574793 0.870417 0.257614
O O9 0.330713 0.789451 0.163137
O O10 0.000000 0.856337 0.000000
O O11 0.174933 0.077357 0.729249
O O12 0.000000 0.081324 0.500000
O O13 0.029126 0.955285 0.800665
O O14 0.500000 0.908133 0.000000
O O15 0.750000 0.250000 0.000000
O O16 0.000000 0.281850 0.000000
O O17 0.000000 0.500000 0.000000
#
# Coordination Sequence:
#
# PCOD9225109 Si02
#       7
#     4   8   8   8   8   8   4
#     4  12  25  42  68  98 125 174 217 266 312 378
#     4  12  26  42  64  99 133 163 211 272 326 372
#     4  11  24  43  65  95 130 166 219 264 308 391
#     4  12  25  42  65  98 133 166 210 268 327 375
#     4  11  22  42  71  90 125 176 215 257 311 393
#     4  11  23  44  68  92 124 172 217 261 311 382
#     4  10  20  42  66  94 121 161 228 252 295 381
#
# _framework density 9.8765429999999999
#
# number of rings (size 3 to 8) (size 9 to 14) (size 15 to 20)
#    0.000    0.667    6.667    3.250    4.667    1.333 
#    0.000    0.417    0.000    0.000    0.000    0.000 
#    0.000    0.000    0.000    0.000    0.000    0.000 
#
# Total GULP energy -133670.796640 kJ/mol
# GULP energy per Si atom -5569.616527 kJ/mol
# Density = 0.985406 g / cm^3
# Si number density = 9.876543 Si / 1000 Ang^3
#
#
#
# Elastic Constant Matrix: (Units=GPa)
#
#
# Indices 1 2 3 4 5 6 
#
# 1 58.1155 2.2935 50.3735 0.0000 -22.0984 0.0000
# 2 2.2935 90.4927 56.3185 0.0000 3.8719 0.0000
# 3 50.3735 56.3185 177.8516 0.0001 -35.4683 0.0000
# 4 0.0000 0.0000 0.0001 19.2789 0.0000 -8.7785
# 5 -22.0984 3.8719 -35.4683 0.0000 33.8148 0.0000
# 6 0.0000 0.0000 0.0000 -8.7785 0.0000 -6.6902
#
#
#
# Elastic Compliance Matrix: (Units=1/GPa)
#
#
# Indices 1 2 3 4 5 6 
#
# 1 0.026536 0.002835 -0.006348 0.000000 0.010359 0.000000
# 2 0.002835 0.015896 -0.007372 0.000000 -0.007701 0.000000
# 3 -0.006348 -0.007372 0.011502 0.000000 0.008760 0.000000
# 4 0.000000 0.000000 0.000000 0.032470 0.000000 -0.042605
# 5 0.010359 -0.007701 0.008760 0.000000 0.046413 0.000000
# 6 0.000000 0.000000 0.000000 -0.042605 0.000000 -0.093568
#
#
# Mechanical properties :
#
#
# Convention : Reuss Voigt Hill
#
# Bulk Modulus (GPa) = 31.09032 60.49231 45.79132
# Shear Modulus (GPa) = 69.69324 23.77899 46.73611
#
# Velocity S-wave (km/s) = 5.94633 3.47336 4.86945
# Velocity P-wave (km/s) = 7.93213 6.83933 7.40591
#
# Compressibility (1/GPa) = 0.03216435
#
# Stress axis : x y z
#
# Youngs Moduli (GPa) = 37.68398 62.90696 86.94013
#
# Poissons Ratio (x) = -0.17833 0.55188
# Poissons Ratio (y) = -0.10683 0.64096
# Poissons Ratio (z) = 0.23921 0.46377
#
# Static dielectric constant tensor:
#      x y z
#    x 1.728770 0.000000 0.030570 
#    y 0.000000 1.815830 0.000000 
#    z 0.030570 0.000000 1.664980 
# 
# From -- ./inp_files/260463.got.cif
#   From: 2010.05.17/outbox.ucp.g08.bks.cvg/sg12_131_cif.got.tgz:260463.got - 2010.06.11 11:47:21.
