data_PCOD9225456
_publ_section_title
;
Structure prediction by ZEFSAII (Michael W. Deem and Ramdas Pophale) SiO2 
 PCOD9225456
Probable space group: C 2/M
;
_chemical_formula_sum "Si O2"
_cell_formula_units_Z 28
_cell_length_a 9.000000
_cell_length_b 18.000000
_cell_length_c 27.000000
_cell_angle_alpha 90.000000
_cell_angle_beta 40.000000
_cell_angle_gamma 90.000000
_cell_volume 2811.553005
_symmetry_space_group_name_H-M "C 2/M"
_symmetry_group_IT_number 12
_symmetry_cell_setting 'monoclinic'
loop_
_space_group_symop_operation_xyz
x,y,z
-x,y,-z
-x,-y,-z
x,-y,z
1/2+x,1/2+y,z
1/2-x,1/2+y,-z
1/2-x,1/2-y,-z
1/2+x,1/2-y,z
loop_
_atom_site_type_symbol
_atom_site_label
_atom_site_fract_x
_atom_site_fract_y
_atom_site_fract_z
Si Si1 0.142001 0.684680 0.684118
Si Si2 0.638430 0.913259 0.773213
Si Si3 0.845435 0.591508 0.686671
Si Si4 0.490205 0.202062 0.445909
Si Si5 0.241872 0.298781 0.821885
Si Si6 0.081164 0.088006 0.924759
Si Si7 0.048521 0.832483 0.141656
O O1 0.242919 0.640162 0.704641
O O2 0.035326 0.619654 0.677766
O O3 0.318971 0.733705 0.608727
O O4 0.957434 0.744461 0.752996
O O5 0.742447 0.878518 0.795919
O O6 0.358711 0.903178 0.846001
O O7 0.686523 0.000000 0.754233
O O8 0.833316 0.500000 0.684498
O O9 0.927225 0.638312 0.615923
O O10 0.619178 0.625723 0.774279
O O11 0.500000 0.172688 0.500000
O O12 0.250000 0.250000 0.500000
O O13 0.041237 0.249121 0.850061
O O14 0.225289 0.315330 0.884173
O O15 0.959385 0.123595 0.907793
O O16 0.033573 0.000000 0.935933
O O17 0.000000 0.115322 0.000000
#
# Coordination Sequence:
#
# PCOD9225456 Si02
#       7
#     8   8   8   8   8   8   8
#     4  11  20  41  66  86 120 165 207 245 305 374
#     4  11  22  38  63  95 125 159 209 262 302 358
#     4  11  22  38  64  93 118 154 208 257 297 359
#     4  12  25  42  64  86 122 165 200 245 318 377
#     4  11  20  37  63  91 120 158 210 260 295 361
#     4  10  21  39  62  91 130 170 202 248 317 372
#     4  11  20  37  65  88 125 160 211 248 305 361
#
# _framework density 9.9589090000000002
#
# number of rings (size 3 to 8) (size 9 to 14) (size 15 to 20)
#    0.000    1.000    7.143    1.714    0.000    1.429 
#    0.000    5.714    0.000    2.571    0.000    0.000 
#    0.000    0.000    0.000    0.000    0.000    0.000 
#
# Total GULP energy -155950.980268 kJ/mol
# GULP energy per Si atom -5569.677867 kJ/mol
# Density = 0.993624 g / cm^3
# Si number density = 9.958909 Si / 1000 Ang^3
#
#
#
# Elastic Constant Matrix: (Units=GPa)
#
#
# Indices 1 2 3 4 5 6 
#
# 1 103.5435 14.3697 6.3784 0.0013 40.1049 -0.0032
# 2 14.3697 98.9125 4.4812 -0.0028 9.2946 -0.0015
# 3 6.3784 4.4812 39.2278 0.0079 35.0014 -0.0110
# 4 0.0013 -0.0028 0.0079 27.9582 -0.0060 15.2592
# 5 40.1049 9.2946 35.0014 -0.0060 32.5973 0.0001
# 6 -0.0032 -0.0015 -0.0110 15.2592 0.0001 35.5436
#
#
#
# Elastic Compliance Matrix: (Units=1/GPa)
#
#
# Indices 1 2 3 4 5 6 
#
# 1 -0.001055 -0.001621 -0.028948 0.000026 0.032843 -0.000020
# 2 -0.001621 0.010348 -0.001568 0.000002 0.000728 -0.000001
# 3 -0.028948 -0.001568 -0.042897 0.000052 0.082123 -0.000038
# 4 0.000026 0.000002 0.000052 0.046713 -0.000080 -0.020054
# 5 0.032843 0.000728 0.082123 -0.000080 -0.098117 0.000063
# 6 -0.000020 -0.000001 -0.000038 -0.020054 0.000063 0.036744
#
#
# Mechanical properties :
#
#
# Convention : Reuss Voigt Hill
#
# Bulk Modulus (GPa) = -10.21672 32.46025 11.12177
# Shear Modulus (GPa) = -300.92616 33.65013 -133.63801
#
# Velocity S-wave (km/s) = -12.30495 4.11475 -8.20002
# Velocity P-wave (km/s) = 14.38830 6.23758 9.16831
#
# Compressibility (1/GPa) = -0.09787878
#
# Stress axis : x y z
#
# Youngs Moduli (GPa) = -947.86676 96.63576 -23.31174
#
# Poissons Ratio (x) = 0.15669 -0.67483
# Poissons Ratio (y) = -1.53693 -0.03655
# Poissons Ratio (z) = -27.43893 0.15152
#
# Static dielectric constant tensor:
#      x y z
#    x 1.793940 0.000000 0.000470 
#    y 0.000000 1.675390 0.000000 
#    z 0.000470 0.000000 1.759830 
# 
# From -- ./inp_files/356646.got.cif
#   From: 2010.05.17/outbox.ucp.g08.bks.cvg/sg12_179_cif.got.tgz:356646.got - 2010.06.11 11:47:21.
