data_PCOD9225677
_publ_section_title
;
Structure prediction by ZEFSAII (Michael W. Deem and Ramdas Pophale) SiO2 
 PCOD9225677
Probable space group: C 2/M
;
_chemical_formula_sum "Si O2"
_cell_formula_units_Z 32
_cell_length_a 18.000000
_cell_length_b 9.000000
_cell_length_c 30.000000
_cell_angle_alpha 90.000000
_cell_angle_beta 40.000000
_cell_angle_gamma 90.000000
_cell_volume 3123.947783
_symmetry_space_group_name_H-M "C 2/M"
_symmetry_group_IT_number 12
_symmetry_cell_setting 'monoclinic'
loop_
_space_group_symop_operation_xyz
x,y,z
-x,y,-z
-x,-y,-z
x,-y,z
1/2+x,1/2+y,z
1/2-x,1/2+y,-z
1/2-x,1/2-y,-z
1/2+x,1/2-y,z
loop_
_atom_site_type_symbol
_atom_site_label
_atom_site_fract_x
_atom_site_fract_y
_atom_site_fract_z
Si Si1 0.776643 0.673839 0.706259
Si Si2 0.799895 0.177724 0.432545
Si Si3 0.626080 0.179758 0.431608
Si Si4 0.299195 0.325906 0.784267
Si Si5 0.869153 0.320707 0.067080
Si Si6 0.786483 0.675990 0.937147
Si Si7 0.010128 0.669990 0.711735
Si Si8 0.445116 0.167072 0.207558
O O1 0.795868 0.500000 0.699080
O O2 0.826173 0.734988 0.637269
O O3 0.830339 0.749918 0.724037
O O4 0.641999 0.712987 0.770982
O O5 0.750000 0.250000 0.500000
O O6 0.708999 0.206550 0.434779
O O7 0.914100 0.257451 0.361777
O O8 0.816096 0.000000 0.429928
O O9 0.500000 0.239444 0.500000
O O10 0.618914 0.000000 0.430797
O O11 0.301274 0.500000 0.777998
O O12 0.178910 0.281060 0.862003
O O13 0.398646 0.270348 0.771117
O O14 0.862132 0.500000 0.066165
O O15 0.788321 0.248109 0.067477
O O16 0.000000 0.274387 0.000000
O O17 0.765471 0.500000 0.948082
O O18 0.922778 0.695723 0.865434
O O19 0.750000 0.750000 0.000000
O O20 0.978857 0.500000 0.715518
O O21 0.071296 0.668267 0.731524
O O22 0.414818 0.000000 0.205293
#
# Coordination Sequence:
#
# PCOD9225677 Si02
#       8
#     8   8   8   8   8   8   8   8
#     4  11  23  39  64  93 123 162 208 252 305 369
#     4  11  23  40  63  93 126 164 209 257 313 371
#     4   9  20  39  60  85 121 162 201 246 300 360
#     4  11  24  41  63  92 127 163 205 258 312 370
#     4  10  23  43  64  88 124 167 205 251 313 373
#     4  11  24  42  64  93 124 162 208 257 311 370
#     4  11  22  41  66  90 121 163 210 262 314 367
#     4  10  22  41  64  88 123 161 204 258 311 364
#
# _framework density 10.243449
#
# number of rings (size 3 to 8) (size 9 to 14) (size 15 to 20)
#    0.000    1.500    2.500    1.875    3.500    2.250 
#    0.000    0.000    0.000    3.000    0.000    0.000 
#    0.000    0.000    0.000    0.000    0.000    0.000 
#
# Total GULP energy -178563.340594 kJ/mol
# GULP energy per Si atom -5580.104394 kJ/mol
# Density = 1.022013 g / cm^3
# Si number density = 10.243449 Si / 1000 Ang^3
#
#
#
# Elastic Constant Matrix: (Units=GPa)
#
#
# Indices 1 2 3 4 5 6 
#
# 1 60.6954 28.1506 40.3555 -0.0001 10.8302 0.0005
# 2 28.1506 6.3022 46.8218 0.0000 12.3261 0.0000
# 3 40.3555 46.8218 135.0105 0.0000 8.7991 0.0001
# 4 -0.0001 0.0000 0.0000 18.3099 -0.0001 -5.3318
# 5 10.8302 12.3261 8.7991 -0.0001 30.8269 0.0000
# 6 0.0005 0.0000 0.0001 -5.3318 0.0000 21.7147
#
#
#
# Elastic Compliance Matrix: (Units=1/GPa)
#
#
# Indices 1 2 3 4 5 6 
#
# 1 0.017539 0.015978 -0.010155 0.000000 -0.009652 0.000000
# 2 0.015978 -0.063699 0.016324 0.000000 0.015197 0.000000
# 3 -0.010155 0.016324 0.005068 0.000000 -0.004406 0.000000
# 4 0.000000 0.000000 0.000000 0.058821 0.000000 0.014443
# 5 -0.009652 0.015197 -0.004406 0.000000 0.031012 0.000000
# 6 0.000000 0.000000 0.000000 0.014443 0.000000 0.049598
#
#
# Mechanical properties :
#
#
# Convention : Reuss Voigt Hill
#
# Bulk Modulus (GPa) = 312.11759 48.07379 180.09569
# Shear Modulus (GPa) = 90.72506 19.94897 55.33702
#
# Velocity S-wave (km/s) = 6.66187 3.12387 5.20284
# Velocity P-wave (km/s) = 14.55523 6.04384 11.14412
#
# Compressibility (1/GPa) = 0.00320392
#
# Stress axis : x y z
#
# Youngs Moduli (GPa) = 57.01563 -15.69893 197.31650
#
# Poissons Ratio (x) = 0.25084 2.00368
# Poissons Ratio (y) = -0.91100 -3.22107
# Poissons Ratio (z) = 0.57898 0.25627
#
# Static dielectric constant tensor:
#      x y z
#    x 1.635480 0.000000 0.130590 
#    y 0.000000 1.699510 0.000000 
#    z 0.130590 0.000000 1.551360 
# 
# From -- ./inp_files/377974.got.cif
#   From: 2010.05.17/outbox.ucp.g08.bks.cvg/sg12_189_cif.got.tgz:377974.got - 2010.06.11 11:47:21.
