data_PCOD9225692
_publ_section_title
;
Structure prediction by ZEFSAII (Michael W. Deem and Ramdas Pophale) SiO2 
 PCOD9225692
Probable space group: C 2/M
;
_chemical_formula_sum "Si O2"
_cell_formula_units_Z 26
_cell_length_a 9.000000
_cell_length_b 15.000000
_cell_length_c 30.000000
_cell_angle_alpha 90.000000
_cell_angle_beta 40.000000
_cell_angle_gamma 90.000000
_cell_volume 2603.289819
_symmetry_space_group_name_H-M "C 2/M"
_symmetry_group_IT_number 12
_symmetry_cell_setting 'monoclinic'
loop_
_space_group_symop_operation_xyz
x,y,z
-x,y,-z
-x,-y,-z
x,-y,z
1/2+x,1/2+y,z
1/2-x,1/2+y,-z
1/2-x,1/2-y,-z
1/2+x,1/2-y,z
loop_
_atom_site_type_symbol
_atom_site_label
_atom_site_fract_x
_atom_site_fract_y
_atom_site_fract_z
Si Si1 0.440361 0.000000 0.429405
Si Si2 0.170832 0.102323 0.002124
Si Si3 0.647919 0.321664 0.355167
Si Si4 0.568318 0.500000 0.639928
Si Si5 0.476377 0.252996 0.113623
Si Si6 0.537030 0.697311 0.780999
Si Si7 0.743569 0.822857 0.566786
Si Si8 0.364918 0.500000 0.274499
O O1 0.292058 0.910472 0.456476
O O2 0.597242 0.000000 0.349219
O O3 0.645685 0.000000 0.420280
O O4 0.359979 0.172462 0.940507
O O5 0.243673 0.000000 0.997889
O O6 0.000000 0.092975 0.000000
O O7 0.042777 0.158555 0.070270
O O8 0.537538 0.412265 0.359616
O O9 0.820849 0.268752 0.281742
O O10 0.441697 0.249775 0.405661
O O11 0.763748 0.338069 0.377390
O O12 0.503543 0.500000 0.707580
O O13 0.462072 0.281801 0.167571
O O14 0.227977 0.211680 0.166611
O O15 0.596364 0.594497 0.757534
O O16 0.000000 0.788082 0.500000
#
# Coordination Sequence:
#
# PCOD9225692 Si02
#       8
#     4   8   8   4   8   8   8   4
#     4  10  22  44  64  95 133 172 221 282 334 402
#     4  10  22  45  65  91 136 172 214 269 319 389
#     4  12  24  45  65  98 137 173 222 286 340 396
#     4  10  23  43  67  90 131 181 208 266 350 399
#     4  11  24  42  64 100 125 176 218 268 325 398
#     4  12  24  41  67  96 132 167 220 272 332 394
#     4  12  24  43  69  97 130 180 226 278 342 408
#     4  10  22  41  66  91 135 164 214 270 341 385
#
# _framework density 9.9873630000000002
#
# number of rings (size 3 to 8) (size 9 to 14) (size 15 to 20)
#    0.462    0.462    3.077    4.846    2.154    0.000 
#    2.769    1.923    0.000    0.000    0.000    0.000 
#    0.000    0.000    0.000    0.000    0.000    0.000 
#
# Total GULP energy -144815.326821 kJ/mol
# GULP energy per Si atom -5569.820262 kJ/mol
# Density = 0.996463 g / cm^3
# Si number density = 9.987363 Si / 1000 Ang^3
#
#
#
# Elastic Constant Matrix: (Units=GPa)
#
#
# Indices 1 2 3 4 5 6 
#
# 1 120.3406 70.4834 14.1679 0.0191 28.6137 -0.0666
# 2 70.4834 182.8267 22.3667 0.0124 24.6305 -0.0436
# 3 14.1679 22.3667 86.3203 0.0299 6.7171 -0.0925
# 4 0.0191 0.0124 0.0299 229.0452 -0.0524 -699.8327
# 5 28.6137 24.6305 6.7171 -0.0524 45.5030 0.1723
# 6 -0.0666 -0.0436 -0.0925 -699.8327 0.1723 2372.5176
#
#
#
# Elastic Compliance Matrix: (Units=1/GPa)
#
#
# Indices 1 2 3 4 5 6 
#
# 1 0.011859 -0.003787 -0.000551 0.000000 -0.005326 0.000001
# 2 -0.003787 0.007256 -0.001151 0.000000 -0.001376 0.000000
# 3 -0.000551 -0.001151 0.012036 -0.000001 -0.000807 0.000000
# 4 0.000000 0.000000 -0.000001 0.044224 0.000002 0.013045
# 5 -0.005326 -0.001376 -0.000807 0.000002 0.026190 -0.000002
# 6 0.000001 0.000000 0.000000 0.013045 -0.000002 0.004269
#
#
# Mechanical properties :
#
#
# Convention : Reuss Voigt Hill
#
# Bulk Modulus (GPa) = 49.57134 67.05818 58.31476
# Shear Modulus (GPa) = 40.47369 548.24447 294.35908
#
# Velocity S-wave (km/s) = 4.50627 16.58508 12.15260
# Velocity P-wave (km/s) = 7.20737 20.00994 15.03901
#
# Compressibility (1/GPa) = 0.02017295
#
# Stress axis : x y z
#
# Youngs Moduli (GPa) = 84.32385 137.81912 83.08191
#
# Poissons Ratio (x) = 0.52192 0.04576
# Poissons Ratio (y) = 0.31933 0.09566
# Poissons Ratio (z) = 0.04644 0.15869
#
# Static dielectric constant tensor:
#      x y z
#    x 1.685780 0.000010 -0.002520 
#    y 0.000010 2.216480 0.000000 
#    z -0.002520 0.000000 1.718240 
# 
# From -- ./inp_files/372520.got.cif
#   From: 2010.05.17/outbox.ucp.g08.bks.cvg/sg12_187_cif.got.tgz:372520.got - 2010.06.11 11:47:21.
