data_PCOD9225900
_publ_section_title
;
Structure prediction by ZEFSAII (Michael W. Deem and Ramdas Pophale) SiO2 
 PCOD9225900
Probable space group: C 2/M
;
_chemical_formula_sum "Si O2"
_cell_formula_units_Z 24
_cell_length_a 30.000000
_cell_length_b 9.000000
_cell_length_c 15.000000
_cell_angle_alpha 90.000000
_cell_angle_beta 140.000000
_cell_angle_gamma 90.000000
_cell_volume 2603.289819
_symmetry_space_group_name_H-M "C 2/M"
_symmetry_group_IT_number 12
_symmetry_cell_setting 'monoclinic'
loop_
_space_group_symop_operation_xyz
x,y,z
-x,y,-z
-x,-y,-z
x,-y,z
1/2+x,1/2+y,z
1/2-x,1/2+y,-z
1/2-x,1/2-y,-z
1/2+x,1/2-y,z
loop_
_atom_site_type_symbol
_atom_site_label
_atom_site_fract_x
_atom_site_fract_y
_atom_site_fract_z
Si Si1 0.217227 0.321525 0.864255
Si Si2 0.231392 0.825251 0.255058
Si Si3 0.071966 0.674694 0.584179
Si Si4 0.114590 0.669053 0.444981
Si Si5 0.028194 0.825398 0.168597
Si Si6 0.093592 0.324872 0.094974
O O1 0.215727 0.500000 0.870731
O O2 0.254649 0.292703 0.827549
O O3 0.139311 0.261575 0.734082
O O4 0.250000 0.250000 0.000000
O O5 0.303484 0.806031 0.418046
O O6 0.172137 0.719685 0.199480
O O7 0.211770 0.000000 0.232940
O O8 0.069919 0.500000 0.607536
O O9 0.084371 0.676367 0.498063
O O10 0.000000 0.746180 0.500000
O O11 0.104013 0.500000 0.394449
O O12 0.075511 0.784819 0.324228
O O13 0.067537 0.758746 0.143289
O O14 0.017313 0.000000 0.142375
O O15 0.954823 0.740418 0.057599
O O16 0.083737 0.500000 0.088447
#
# Coordination Sequence:
#
# PCOD9225900 Si02
#       6
#     8   8   8   8   8   8
#     4   9  18  32  51  76 106 139 173 213 259 307
#     4   9  19  36  54  75 108 144 177 217 265 310
#     4   8  15  30  52  76 102 134 173 213 253 298
#     4   9  18  34  55  78 106 140 178 217 255 306
#     4  11  22  37  56  78 108 139 168 210 267 320
#     4  11  22  37  57  79 103 134 178 221 258 310
#
# _framework density 9.2191039999999997
#
# number of rings (size 3 to 8) (size 9 to 14) (size 15 to 20)
#    0.000    2.500    0.000    6.000    0.000    3.333 
#    0.000    4.167    0.000    1.000    0.000    0.000 
#    0.000    0.000    0.000    0.000    0.000    0.000 
#
# Total GULP energy -133753.969960 kJ/mol
# GULP energy per Si atom -5573.082082 kJ/mol
# Density = 0.919812 g / cm^3
# Si number density = 9.219104 Si / 1000 Ang^3
#
#
#
# Elastic Constant Matrix: (Units=GPa)
#
#
# Indices 1 2 3 4 5 6 
#
# 1 -8.3188 -45.8212 -30.3226 0.0000 53.9903 0.0000
# 2 -45.8212 -45.2491 -63.4554 0.0000 47.3808 0.0000
# 3 -30.3226 -63.4554 -28.6415 0.0000 26.8284 0.0000
# 4 0.0000 0.0000 0.0000 28.2926 0.0000 -5.9290
# 5 53.9903 47.3808 26.8284 0.0000 3.7447 0.0000
# 6 0.0000 0.0000 0.0000 -5.9290 0.0000 15.4516
#
#
#
# Elastic Compliance Matrix: (Units=1/GPa)
#
#
# Indices 1 2 3 4 5 6 
#
# 1 -0.097453 0.034581 0.120976 0.000000 0.100798 0.000000
# 2 0.034581 -0.001197 -0.063131 0.000000 -0.031144 0.000000
# 3 0.120976 -0.063131 -0.117847 0.000000 -0.101125 0.000000
# 4 0.000000 0.000000 0.000000 0.038436 0.000000 0.014748
# 5 0.100798 -0.031144 -0.101125 0.000000 -0.067695 0.000000
# 6 0.000000 0.000000 0.000000 0.014748 0.000000 0.070378
#
#
# Mechanical properties :
#
#
# Convention : Reuss Voigt Hill
#
# Bulk Modulus (GPa) = -31.60020 -40.15644 -35.87832
# Shear Modulus (GPa) = -13.48512 13.32375 -0.08069
#
# Velocity S-wave (km/s) = -2.70732 2.69107 -0.20942
# Velocity P-wave (km/s) = 5.19118 3.48861 4.42260
#
# Compressibility (1/GPa) = -0.03164537
#
# Stress axis : x y z
#
# Youngs Moduli (GPa) = -10.26137 -835.38659 -8.48559
#
# Poissons Ratio (x) = 28.88854 1.02655
# Poissons Ratio (y) = 0.35485 -0.53570
# Poissons Ratio (z) = 1.24138 -52.73878
#
# Static dielectric constant tensor:
#      x y z
#    x 1.648720 0.000000 0.031330 
#    y 0.000000 1.573400 0.000000 
#    z 0.031330 0.000000 1.632550 
# 
# From -- ./inp_files/249340.got.cif
#   From: 2010.05.17/outbox.ucp.g08.bks.cvg/sg12_125_cif.got.tgz:249340.got - 2010.06.11 11:47:21.
