data_PCOD9225932
_publ_section_title
;
Structure prediction by ZEFSAII (Michael W. Deem and Ramdas Pophale) SiO2 
 PCOD9225932
Probable space group: C 2/M
;
_chemical_formula_sum "Si O2"
_cell_formula_units_Z 32
_cell_length_a 15.000000
_cell_length_b 21.000000
_cell_length_c 30.000000
_cell_angle_alpha 90.000000
_cell_angle_beta 160.000000
_cell_angle_gamma 90.000000
_cell_volume 3232.090354
_symmetry_space_group_name_H-M "C 2/M"
_symmetry_group_IT_number 12
_symmetry_cell_setting 'monoclinic'
loop_
_space_group_symop_operation_xyz
x,y,z
-x,y,-z
-x,-y,-z
x,-y,z
1/2+x,1/2+y,z
1/2-x,1/2+y,-z
1/2-x,1/2-y,-z
1/2+x,1/2-y,z
loop_
_atom_site_type_symbol
_atom_site_label
_atom_site_fract_x
_atom_site_fract_y
_atom_site_fract_z
Si Si1 0.985573 0.234367 0.576153
Si Si2 0.364366 0.432648 0.563193
Si Si3 0.284214 0.153835 0.425433
Si Si4 0.777870 0.891018 0.429129
Si Si5 0.767264 0.218099 0.147208
Si Si6 0.027968 0.286556 0.128984
Si Si7 0.190039 0.360732 0.856851
Si Si8 0.518348 0.073460 0.152501
O O1 0.258615 0.226173 0.731124
O O2 0.750000 0.250000 0.500000
O O3 0.965540 0.289774 0.530486
O O4 0.910620 0.172378 0.512332
O O5 0.299636 0.500000 0.553998
O O6 0.313389 0.379847 0.575709
O O7 0.224012 0.427630 0.449732
O O8 0.670766 0.430553 0.696595
O O9 0.500000 0.113731 0.500000
O O10 0.027855 0.176358 0.277463
O O11 0.510062 0.878956 0.276793
O O12 0.000000 0.918176 0.500000
O O13 0.676785 0.236279 0.154583
O O14 0.830609 0.283422 0.150536
O O15 0.500000 0.189747 0.000000
O O16 0.975384 0.363356 0.101464
O O17 0.750000 0.250000 0.000000
O O18 0.097538 0.401389 0.855618
O O19 0.500000 0.372943 0.000000
O O20 0.432227 0.000000 0.100809
#
# Coordination Sequence:
#
# PCOD9225932 Si02
#       8
#     8   8   8   8   8   8   8   8
#     4  12  20  38  63  97 131 163 212 273 338 389
#     4  11  24  44  67  93 127 174 234 278 332 411
#     4  12  25  41  68  95 126 172 217 289 342 389
#     4  12  20  36  65  95 131 167 220 266 322 401
#     4  11  23  39  59  99 135 164 216 274 339 396
#     4  12  23  40  68  96 130 177 225 278 336 398
#     4  11  23  38  60  99 142 177 212 270 333 406
#     4  11  23  43  68  94 134 186 224 268 335 412
#
# _framework density 9.9007129999999997
#
# number of rings (size 3 to 8) (size 9 to 14) (size 15 to 20)
#    0.000    0.500    7.500    1.875    3.500    1.250 
#    0.000    0.000    0.000    1.500    0.000    0.000 
#    0.000    0.000    0.000    0.000    0.000    0.000 
#
# Total GULP energy -178391.500570 kJ/mol
# GULP energy per Si atom -5574.734393 kJ/mol
# Density = 0.987818 g / cm^3
# Si number density = 9.900713 Si / 1000 Ang^3
#
#
#
# Elastic Constant Matrix: (Units=GPa)
#
#
# Indices 1 2 3 4 5 6 
#
# 1 90.0793 13.5102 42.8470 0.0011 17.0257 0.0001
# 2 13.5102 99.9372 22.5244 -0.0184 3.1970 0.0135
# 3 42.8470 22.5244 161.5146 -0.0261 3.9771 0.0045
# 4 0.0011 -0.0184 -0.0261 15.7899 0.0053 7.0030
# 5 17.0257 3.1970 3.9771 0.0053 31.9606 0.0057
# 6 0.0001 0.0135 0.0045 7.0030 0.0057 -1.2686
#
#
#
# Elastic Compliance Matrix: (Units=1/GPa)
#
#
# Indices 1 2 3 4 5 6 
#
# 1 0.014223 -0.000915 -0.003472 0.000005 -0.007053 -0.000024
# 2 -0.000915 0.010413 -0.001200 -0.000010 -0.000405 0.000047
# 3 -0.003472 -0.001200 0.007253 0.000001 0.001067 0.000022
# 4 0.000005 -0.000010 0.000001 0.018366 -0.000023 0.101386
# 5 -0.007053 -0.000405 0.001067 -0.000023 0.034954 0.000029
# 6 -0.000024 0.000047 0.000022 0.101386 0.000029 -0.228599
#
#
# Mechanical properties :
#
#
# Convention : Reuss Voigt Hill
#
# Bulk Modulus (GPa) = 48.26833 56.58828 52.42830
# Shear Modulus (GPa) = -39.90039 27.47302 -6.21369
#
# Velocity S-wave (km/s) = -4.49377 3.72886 -1.77336
# Velocity P-wave (km/s) = 1.57995 6.86870 4.72667
#
# Compressibility (1/GPa) = 0.02071752
#
# Stress axis : x y z
#
# Youngs Moduli (GPa) = 70.30834 96.03143 137.86550
#
# Poissons Ratio (x) = 0.08783 0.47866
# Poissons Ratio (y) = 0.06431 0.16538
# Poissons Ratio (z) = 0.24410 0.11520
#
# Static dielectric constant tensor:
#      x y z
#    x 1.792610 -0.000020 0.001950 
#    y -0.000020 1.777390 -0.000030 
#    z 0.001950 -0.000030 1.668330 
# 
# From -- ./inp_files/377105.got.cif
#   From: 2010.05.17/outbox.ucp.g08.bks.cvg/sg12_189_cif.got.tgz:377105.got - 2010.06.11 11:47:21.
