data_PCOD9225401
_publ_section_title
;
Structure prediction by ZEFSAII (Michael W. Deem and Ramdas Pophale) SiO2 
 PCOD9225401
Probable space group: C 2/M
;
_chemical_formula_sum "Si O2"
_cell_formula_units_Z 32
_cell_length_a 18.000000
_cell_length_b 9.000000
_cell_length_c 30.000000
_cell_angle_alpha 90.000000
_cell_angle_beta 140.000000
_cell_angle_gamma 90.000000
_cell_volume 3123.947783
_symmetry_space_group_name_H-M "C 2/M"
_symmetry_group_IT_number 12
_symmetry_cell_setting 'monoclinic'
loop_
_space_group_symop_operation_xyz
x,y,z
-x,y,-z
-x,-y,-z
x,-y,z
1/2+x,1/2+y,z
1/2-x,1/2+y,-z
1/2-x,1/2-y,-z
1/2+x,1/2-y,z
loop_
_atom_site_type_symbol
_atom_site_label
_atom_site_fract_x
_atom_site_fract_y
_atom_site_fract_z
Si Si1 0.411013 0.677011 0.053673
Si Si2 0.673864 0.678024 0.184101
Si Si3 0.314786 0.176726 0.098709
Si Si4 0.251721 0.675560 0.683210
Si Si5 0.228989 0.825491 0.584435
Si Si6 0.874349 0.177495 0.218534
Si Si7 0.507164 0.327954 0.565908
Si Si8 0.090068 0.831453 0.379599
O O1 0.399142 0.500000 0.057463
O O2 0.545182 0.707043 0.107403
O O3 0.374157 0.765429 0.080858
O O4 0.321449 0.711234 0.972764
O O5 0.694837 0.500000 0.191491
O O6 0.688936 0.722063 0.243138
O O7 0.766633 0.761953 0.197198
O O8 0.366775 0.254132 0.165926
O O9 0.327125 0.000000 0.108656
O O10 0.265586 0.500000 0.685522
O O11 0.289931 0.753258 0.655297
O O12 0.117669 0.723835 0.621666
O O13 0.096200 0.780384 0.514537
O O14 0.302866 0.775571 0.576633
O O15 0.230596 0.000000 0.589479
O O16 0.987295 0.216493 0.299291
O O17 0.870431 0.000000 0.213588
O O18 0.541497 0.500000 0.571209
O O19 0.454256 0.332596 0.590797
O O20 0.124577 0.000000 0.383300
#
# Coordination Sequence:
#
# PCOD9225401 Si02
#       8
#     8   8   8   8   8   8   8   8
#     4   9  20  40  63  88 121 158 194 237 289 339
#     4  10  22  40  61  85 115 154 197 240 288 342
#     4  10  21  38  62  91 122 155 194 239 284 341
#     4  11  23  38  59  87 118 153 195 242 290 347
#     4  11  24  38  59  87 116 151 194 244 293 348
#     4  11  23  39  61  86 118 157 193 239 292 345
#     4  10  21  41  62  83 115 154 194 240 295 347
#     4  10  22  40  60  83 115 153 194 240 292 347
#
# _framework density 10.243449
#
# number of rings (size 3 to 8) (size 9 to 14) (size 15 to 20)
#    0.000    1.750    1.250    2.250    1.750    6.000 
#    0.000    2.500    0.000    0.000    0.000    0.000 
#    0.000    0.000    0.000    0.000    0.000    0.000 
#
# Total GULP energy -178689.913428 kJ/mol
# GULP energy per Si atom -5584.059795 kJ/mol
# Density = 1.022013 g / cm^3
# Si number density = 10.243449 Si / 1000 Ang^3
#
#
#
# Elastic Constant Matrix: (Units=GPa)
#
#
# Indices 1 2 3 4 5 6 
#
# 1 62.7446 23.2734 6.7248 0.0000 4.8293 0.0000
# 2 23.2734 18.0813 22.1019 0.0000 7.1554 0.0000
# 3 6.7248 22.1019 47.3622 0.0000 -1.8852 0.0000
# 4 0.0000 0.0000 0.0000 25.3798 0.0000 -4.0537
# 5 4.8293 7.1554 -1.8852 0.0000 32.7474 0.0000
# 6 0.0000 0.0000 0.0000 -4.0537 0.0000 25.1646
#
#
#
# Elastic Compliance Matrix: (Units=1/GPa)
#
#
# Indices 1 2 3 4 5 6 
#
# 1 -1.760316 5.739400 -2.473650 0.000001 -1.136883 -0.000008
# 2 5.739400-18.540275 7.982907 -0.000002 3.664267 0.000027
# 3 -2.473650 7.982907 -3.415687 0.000001 -1.576130 -0.000012
# 4 0.000001 -0.000002 0.000001 0.040442 0.000000 0.006515
# 5 -1.136883 3.664267 -1.576130 0.000000 -0.693194 -0.000005
# 6 -0.000008 0.000027 -0.000012 0.006515 -0.000005 0.040788
#
#
# Mechanical properties :
#
#
# Convention : Reuss Voigt Hill
#
# Bulk Modulus (GPa) = -0.82037 25.82093 12.50028
# Shear Modulus (GPa) = -0.10586 21.73089 10.81252
#
# Velocity S-wave (km/s) = -0.22756 3.26041 2.29983
# Velocity P-wave (km/s) = 0.68582 5.17732 3.62866
#
# Compressibility (1/GPa) = -1.21896291
#
# Stress axis : x y z
#
# Youngs Moduli (GPa) = -0.56808 -0.05394 -0.29277
#
# Poissons Ratio (x) = 0.30956 -0.72420
# Poissons Ratio (y) = 3.26044 2.33713
# Poissons Ratio (z) = -1.40523 0.43057
#
# Static dielectric constant tensor:
#      x y z
#    x 1.788570 0.000000 0.012830 
#    y 0.000000 1.688880 0.000000 
#    z 0.012830 0.000000 1.706480 
# 
# From -- ./inp_files/378278.got.cif
#   From: 2010.05.17/outbox.ucp.g08.bks.cvg/sg12_190_cif.got.tgz:378278.got - 2010.06.11 11:47:21.
