data_PCOD9225519
_publ_section_title
;
Structure prediction by ZEFSAII (Michael W. Deem and Ramdas Pophale) SiO2 
 PCOD9225519
Probable space group: C 2/M
;
_chemical_formula_sum "Si O2"
_cell_formula_units_Z 28
_cell_length_a 9.000000
_cell_length_b 18.000000
_cell_length_c 27.000000
_cell_angle_alpha 90.000000
_cell_angle_beta 40.000000
_cell_angle_gamma 90.000000
_cell_volume 2811.553005
_symmetry_space_group_name_H-M "C 2/M"
_symmetry_group_IT_number 12
_symmetry_cell_setting 'monoclinic'
loop_
_space_group_symop_operation_xyz
x,y,z
-x,y,-z
-x,-y,-z
x,-y,z
1/2+x,1/2+y,z
1/2-x,1/2+y,-z
1/2-x,1/2-y,-z
1/2+x,1/2-y,z
loop_
_atom_site_type_symbol
_atom_site_label
_atom_site_fract_x
_atom_site_fract_y
_atom_site_fract_z
Si Si1 0.012397 0.587878 0.836640
Si Si2 0.208714 0.330515 0.284758
Si Si3 0.768486 0.586825 0.438290
Si Si4 0.463401 0.673903 0.702684
Si Si5 0.228374 0.677439 0.471180
Si Si6 0.133165 0.088189 0.850826
Si Si7 0.304899 0.669787 0.007470
O O1 0.986209 0.500000 0.851027
O O2 0.275592 0.610853 0.760924
O O3 0.857444 0.607923 0.827727
O O4 0.909075 0.631299 0.910129
O O5 0.348622 0.324076 0.300844
O O6 0.171178 0.251741 0.267823
O O7 0.338709 0.380727 0.211421
O O8 0.955703 0.365482 0.360502
O O9 0.500000 0.608311 0.500000
O O10 0.795287 0.500000 0.419799
O O11 0.808135 0.605840 0.485416
O O12 0.575704 0.665443 0.619692
O O13 0.250000 0.750000 0.500000
O O14 0.000000 0.692458 0.500000
O O15 0.118383 0.000000 0.853224
O O16 0.914173 0.120985 0.935730
O O17 0.500000 0.675913 0.000000
O O18 0.250000 0.750000 0.000000
#
# Coordination Sequence:
#
# PCOD9225519 Si02
#       7
#     8   8   8   8   8   8   8
#     4  10  23  42  66  97 131 170 215 264 320 381
#     4  12  25  43  63  95 128 164 215 262 321 376
#     4  11  26  43  64  91 126 165 209 261 318 385
#     4  12  25  41  66  93 126 167 211 268 315 382
#     4  12  23  43  66  93 123 167 213 263 321 379
#     4  10  22  41  66  92 130 173 210 260 320 380
#     4  10  21  40  65  96 129 168 218 263 313 374
#
# _framework density 9.9589090000000002
#
# number of rings (size 3 to 8) (size 9 to 14) (size 15 to 20)
#    0.000    1.000    2.857    3.000    4.000    7.143 
#    0.000    0.000    0.000    2.571    0.000    0.000 
#    0.000    0.000    0.000    0.000    0.000    0.000 
#
# Total GULP energy -156464.990524 kJ/mol
# GULP energy per Si atom -5588.035376 kJ/mol
# Density = 0.993624 g / cm^3
# Si number density = 9.958909 Si / 1000 Ang^3
#
#
#
# Elastic Constant Matrix: (Units=GPa)
#
#
# Indices 1 2 3 4 5 6 
#
# 1 51.1947 0.1693 22.0965 0.0126 13.8649 0.0706
# 2 0.1693 47.6084 18.4432 -0.0055 14.5644 -0.0165
# 3 22.0965 18.4432 119.3696 -0.0421 20.9192 -0.2027
# 4 0.0126 -0.0055 -0.0421 27.3200 0.0025 -43.3860
# 5 13.8649 14.5644 20.9192 0.0025 29.7847 0.0101
# 6 0.0706 -0.0165 -0.2027 -43.3860 0.0101 -208.5341
#
#
#
# Elastic Compliance Matrix: (Units=1/GPa)
#
#
# Indices 1 2 3 4 5 6 
#
# 1 0.023901 0.004547 -0.003179 0.000002 -0.011117 0.000010
# 2 0.004547 0.025964 -0.002574 0.000002 -0.013005 0.000001
# 3 -0.003179 -0.002574 0.010130 0.000000 -0.004377 -0.000011
# 4 0.000002 0.000002 0.000000 0.027513 -0.000002 -0.005724
# 5 -0.011117 -0.013005 -0.004377 -0.000002 0.048183 0.000004
# 6 0.000010 0.000001 -0.000011 -0.005724 0.000004 -0.003604
#
#
# Mechanical properties :
#
#
# Convention : Reuss Voigt Hill
#
# Bulk Modulus (GPa) = 17.36578 33.28786 25.32682
# Shear Modulus (GPa) = 32.53244 -18.45495 7.03874
#
# Velocity S-wave (km/s) = 4.04584 -3.04724 1.88190
# Velocity P-wave (km/s) = 5.52835 2.08998 4.17916
#
# Compressibility (1/GPa) = 0.05758453
#
# Stress axis : x y z
#
# Youngs Moduli (GPa) = 41.83928 38.51445 98.71226
#
# Poissons Ratio (x) = -0.17514 0.31377
# Poissons Ratio (y) = -0.19026 0.25411
# Poissons Ratio (z) = 0.13299 0.09915
#
# Static dielectric constant tensor:
#      x y z
#    x 1.692680 0.000000 -0.004530 
#    y 0.000000 1.700070 0.000000 
#    z -0.004530 0.000000 1.657020 
# 
# From -- ./inp_files/356685.got.cif
#   From: 2010.05.17/outbox.ucp.g08.bks.cvg/sg12_179_cif.got.tgz:356685.got - 2010.06.11 11:47:21.
