data_PCOD9225610
_publ_section_title
;
Structure prediction by ZEFSAII (Michael W. Deem and Ramdas Pophale) SiO2 
 PCOD9225610
Probable space group: C 2/M
;
_chemical_formula_sum "Si O2"
_cell_formula_units_Z 32
_cell_length_a 24.000000
_cell_length_b 18.000000
_cell_length_c 21.000000
_cell_angle_alpha 90.000000
_cell_angle_beta 160.000000
_cell_angle_gamma 90.000000
_cell_volume 3102.806740
_symmetry_space_group_name_H-M "C 2/M"
_symmetry_group_IT_number 12
_symmetry_cell_setting 'monoclinic'
loop_
_space_group_symop_operation_xyz
x,y,z
-x,y,-z
-x,-y,-z
x,-y,z
1/2+x,1/2+y,z
1/2-x,1/2+y,-z
1/2-x,1/2-y,-z
1/2+x,1/2-y,z
loop_
_atom_site_type_symbol
_atom_site_label
_atom_site_fract_x
_atom_site_fract_y
_atom_site_fract_z
Si Si1 0.522260 0.412368 0.901965
Si Si2 0.092720 0.585009 0.272981
Si Si3 0.036508 0.699882 0.708748
Si Si4 0.471102 0.803154 0.895211
Si Si5 0.939683 0.847160 0.675816
Si Si6 0.226823 0.302579 0.793714
Si Si7 0.247188 0.328588 0.668434
Si Si8 0.235592 0.585068 0.995419
O O1 0.511727 0.500000 0.882337
O O2 0.472450 0.369546 0.784020
O O3 0.398964 0.384115 0.824565
O O4 0.701937 0.383335 0.111288
O O5 0.144085 0.500000 0.329312
O O6 0.049402 0.618394 0.158537
O O7 0.250384 0.632310 0.463267
O O8 0.920308 0.590016 0.124990
O O9 0.094212 0.727121 0.700965
O O10 0.184788 0.652314 0.894739
O O11 0.979897 0.763180 0.696749
O O12 0.888038 0.647216 0.527669
O O13 0.314231 0.751137 0.717042
O O14 0.500000 0.811174 0.000000
O O15 0.624140 0.754718 0.036688
O O16 0.077708 0.895472 0.785461
O O17 0.191615 0.314093 0.681120
O O18 0.235909 0.500000 0.971142
#
# Coordination Sequence:
#
# PCOD9225610 Si02
#       8
#     8   8   8   8   8   8   8   8
#     4  11  23  40  62  90 128 170 212 261 321 387
#     4  11  23  39  63  91 124 168 211 258 326 387
#     4  12  23  38  64  92 122 166 216 261 322 385
#     4   9  19  39  60  85 119 156 206 265 311 370
#     4  12  24  40  65  94 130 172 213 266 322 389
#     4  10  22  39  63  89 124 164 213 261 323 379
#     4  10  22  39  61  91 122 162 211 267 313 379
#     4  11  25  41  59  91 133 167 207 267 322 380
#
# _framework density 10.313243
#
# number of rings (size 3 to 8) (size 9 to 14) (size 15 to 20)
#    0.000    1.250    2.500    4.500    3.500    3.750 
#    0.000    0.000    0.000    2.250    0.000    4.375 
#    0.000    0.000    0.000    0.000    0.000    0.000 
#
# Total GULP energy -178249.069970 kJ/mol
# GULP energy per Si atom -5570.283437 kJ/mol
# Density = 1.028977 g / cm^3
# Si number density = 10.313243 Si / 1000 Ang^3
#
#
#
# Elastic Constant Matrix: (Units=GPa)
#
#
# Indices 1 2 3 4 5 6 
#
# 1 50.9970 31.6945 -0.7167 0.0000 18.9586 0.0000
# 2 31.6945 40.8579 -11.4934 0.0008 -1.8680 0.0009
# 3 -0.7167 -11.4934 42.7783 0.0004 6.4848 0.0013
# 4 0.0000 0.0008 0.0004 20.1316 0.0004 4.4938
# 5 18.9586 -1.8680 6.4848 0.0004 26.4698 0.0001
# 6 0.0000 0.0009 0.0013 4.4938 0.0001 12.3705
#
#
#
# Elastic Compliance Matrix: (Units=1/GPa)
#
#
# Indices 1 2 3 4 5 6 
#
# 1 0.097195 -0.081309 -0.009134 0.000003 -0.073115 0.000006
# 2 -0.081309 0.094495 0.014734 -0.000003 0.061295 -0.000008
# 3 -0.009134 0.014734 0.027037 0.000000 0.000958 -0.000004
# 4 0.000003 -0.000003 0.000000 0.054057 -0.000003 -0.019637
# 5 -0.073115 0.061295 0.000958 -0.000003 0.094238 -0.000004
# 6 0.000006 -0.000008 -0.000004 -0.019637 -0.000004 0.087971
#
#
# Mechanical properties :
#
#
# Convention : Reuss Voigt Hill
#
# Bulk Modulus (GPa) = 14.85622 19.28910 17.07266
# Shear Modulus (GPa) = 7.95109 19.47096 13.71102
#
# Velocity S-wave (km/s) = 1.96549 3.07576 2.58103
# Velocity P-wave (km/s) = 3.51696 4.68888 4.14455
#
# Compressibility (1/GPa) = 0.06731187
#
# Stress axis : x y z
#
# Youngs Moduli (GPa) = 10.28860 10.58254 36.98650
#
# Poissons Ratio (x) = 0.86045 0.33782
# Poissons Ratio (y) = 0.83655 -0.54497
# Poissons Ratio (z) = 0.09397 -0.15593
#
# Static dielectric constant tensor:
#      x y z
#    x 1.802550 0.000000 0.038590 
#    y 0.000000 1.704070 0.000000 
#    z 0.038590 0.000000 1.860070 
# 
# From -- ./inp_files/326126.got.cif
#   From: 2010.05.17/outbox.ucp.g08.bks.cvg/sg12_164_cif.got.tgz:326126.got - 2010.06.11 11:47:21.
