data_PCOD9225231
_publ_section_title
;
Structure prediction by ZEFSAII (Michael W. Deem and Ramdas Pophale) SiO2 
 PCOD9225231
Probable space group: C 2/M
;
_chemical_formula_sum "Si O2"
_cell_formula_units_Z 28
_cell_length_a 18.000000
_cell_length_b 9.000000
_cell_length_c 27.000000
_cell_angle_alpha 90.000000
_cell_angle_beta 140.000000
_cell_angle_gamma 90.000000
_cell_volume 2811.553005
_symmetry_space_group_name_H-M "C 2/M"
_symmetry_group_IT_number 12
_symmetry_cell_setting 'monoclinic'
loop_
_space_group_symop_operation_xyz
x,y,z
-x,y,-z
-x,-y,-z
x,-y,z
1/2+x,1/2+y,z
1/2-x,1/2+y,-z
1/2-x,1/2-y,-z
1/2+x,1/2-y,z
loop_
_atom_site_type_symbol
_atom_site_label
_atom_site_fract_x
_atom_site_fract_y
_atom_site_fract_z
Si Si1 0.672690 0.178169 0.188682
Si Si2 0.340063 0.832107 0.353153
Si Si3 0.214266 0.173306 0.580165
Si Si4 0.941098 0.320961 0.023434
Si Si5 0.024822 0.323824 0.288050
Si Si6 0.290244 0.322551 0.140677
Si Si7 0.588498 0.169873 0.428678
O O1 0.747913 0.257470 0.268961
O O2 0.538400 0.229139 0.112706
O O3 0.736466 0.203142 0.168236
O O4 0.672055 0.000000 0.197081
O O5 0.356695 0.744469 0.412178
O O6 0.465885 0.836759 0.393247
O O7 0.301773 0.000000 0.344418
O O8 0.346333 0.192690 0.667114
O O9 0.179498 0.249215 0.510690
O O10 0.192895 0.000000 0.563935
O O11 0.934862 0.500000 0.025589
O O12 0.808203 0.268245 0.948860
O O13 0.000000 0.292819 0.000000
O O14 0.998517 0.500000 0.278642
O O15 0.050501 0.262745 0.356493
O O16 0.917019 0.249484 0.205748
O O17 0.301449 0.500000 0.140369
O O18 0.629434 0.000000 0.440386
#
# Coordination Sequence:
#
# PCOD9225231 Si02
#       7
#     8   8   8   8   8   8   8
#     4   9  16  29  51  78 107 137 172 211 252 302
#     4  11  22  36  55  77 107 140 170 212 264 312
#     4  11  24  38  54  76 103 137 178 218 256 305
#     4   7  12  24  44  74 108 135 163 207 256 297
#     4  10  21  37  54  76 108 140 169 212 264 308
#     4   9  16  28  51  80 106 136 173 210 251 304
#     4  10  21  38  57  76 102 135 171 214 267 312
#
# _framework density 9.9589090000000002
#
# number of rings (size 3 to 8) (size 9 to 14) (size 15 to 20)
#    0.000    2.429    1.429    3.429    0.000    4.571 
#    0.000    0.714    0.000    3.429    0.000    0.000 
#    0.000    0.000    0.000    0.000    0.000    0.000 
#
# Total GULP energy -155982.670979 kJ/mol
# GULP energy per Si atom -5570.809678 kJ/mol
# Density = 0.993624 g / cm^3
# Si number density = 9.958909 Si / 1000 Ang^3
#
#
#
# Elastic Constant Matrix: (Units=GPa)
#
#
# Indices 1 2 3 4 5 6 
#
# 1 22.0006 13.0723 -2.5994 0.0000 -8.3913 0.0000
# 2 13.0723 35.4068 36.2397 0.0000 0.5000 0.0000
# 3 -2.5994 36.2397 130.9789 0.0000 21.0938 0.0000
# 4 0.0000 0.0000 0.0000 30.6638 0.0000 6.0406
# 5 -8.3913 0.5000 21.0938 0.0000 9.3829 0.0000
# 6 0.0000 0.0000 0.0000 6.0406 0.0000 13.6132
#
#
#
# Elastic Compliance Matrix: (Units=1/GPa)
#
#
# Indices 1 2 3 4 5 6 
#
# 1 0.109129 -0.035369 -0.006379 0.000000 0.113821 0.000000
# 2 -0.035369 0.059954 -0.018311 0.000000 0.006338 0.000000
# 3 -0.006379 -0.018311 0.020905 0.000000 -0.051724 0.000000
# 4 0.000000 0.000000 0.000000 0.035736 0.000000 -0.015857
# 5 0.113821 0.006338 -0.051724 0.000000 0.324313 0.000000
# 6 0.000000 0.000000 0.000000 -0.015857 0.000000 0.080495
#
#
# Mechanical properties :
#
#
# Convention : Reuss Voigt Hill
#
# Bulk Modulus (GPa) = 14.31248 31.31238 22.81243
# Shear Modulus (GPa) = 6.46047 20.17688 13.31867
#
# Velocity S-wave (km/s) = 1.80294 3.18623 2.58869
# Velocity P-wave (km/s) = 3.39640 5.41212 4.51810
#
# Compressibility (1/GPa) = 0.06986909
#
# Stress axis : x y z
#
# Youngs Moduli (GPa) = 9.16351 16.67951 47.83628
#
# Poissons Ratio (x) = 0.58995 0.30513
# Poissons Ratio (y) = 0.32411 0.87593
# Poissons Ratio (z) = 0.05845 0.30542
#
# Static dielectric constant tensor:
#      x y z
#    x 1.843740 0.000000 0.031530 
#    y 0.000000 1.699740 0.000000 
#    z 0.031530 0.000000 1.697050 
# 
# From -- ./inp_files/275126.got.cif
#   From: 2010.05.17/outbox.ucp.g08.bks.cvg/sg12_138_cif.got.tgz:275126.got - 2010.06.11 11:47:21.
