data_PCOD9225509
_publ_section_title
;
Structure prediction by ZEFSAII (Michael W. Deem and Ramdas Pophale) SiO2 
 PCOD9225509
Probable space group: C 2/M
;
_chemical_formula_sum "Si O2"
_cell_formula_units_Z 20
_cell_length_a 21.000000
_cell_length_b 18.000000
_cell_length_c 15.000000
_cell_angle_alpha 90.000000
_cell_angle_beta 20.000000
_cell_angle_gamma 90.000000
_cell_volume 1939.254213
_symmetry_space_group_name_H-M "C 2/M"
_symmetry_group_IT_number 12
_symmetry_cell_setting 'monoclinic'
loop_
_space_group_symop_operation_xyz
x,y,z
-x,y,-z
-x,-y,-z
x,-y,z
1/2+x,1/2+y,z
1/2-x,1/2+y,-z
1/2-x,1/2-y,-z
1/2+x,1/2-y,z
loop_
_atom_site_type_symbol
_atom_site_label
_atom_site_fract_x
_atom_site_fract_y
_atom_site_fract_z
Si Si1 0.285934 0.686674 0.748393
Si Si2 0.216568 0.351363 0.330365
Si Si3 0.147827 0.409760 0.093153
Si Si4 0.067578 0.915617 0.796718
Si Si5 0.418848 0.584938 0.426265
O O1 0.500000 0.681852 0.500000
O O2 0.263944 0.772243 0.745499
O O3 0.290764 0.637354 0.653440
O O4 0.158694 0.645230 0.991123
O O5 0.325916 0.357322 0.280969
O O6 0.008742 0.378781 0.631330
O O7 0.345450 0.406112 0.101778
O O8 0.117305 0.500000 0.116209
O O9 0.358843 0.402645 0.852844
O O10 0.120479 0.905341 0.625558
O O11 0.119728 0.000000 0.754579
O O12 0.384799 0.500000 0.498518
#
# Coordination Sequence:
#
# PCOD9225509 Si02
#       5
#     8   8   8   8   8
#     4  10  23  38  60  90 128 152 190 250 304 347
#     4  11  23  37  62  86 120 156 197 246 300 342
#     4  10  21  40  65  89 117 159 204 240 288 361
#     4  10  22  42  61  83 121 159 197 245 298 352
#     4   9  20  39  64  87 116 159 199 238 294 357
#
# _framework density 10.313243
#
# number of rings (size 3 to 8) (size 9 to 14) (size 15 to 20)
#    0.000    2.000    0.000    3.000    5.600    4.800 
#    3.600    3.000    0.000    3.600    0.000    0.000 
#    0.000    0.000    0.000    0.000    0.000    0.000 
#
# Total GULP energy -111485.546793 kJ/mol
# GULP energy per Si atom -5574.277340 kJ/mol
# Density = 1.028977 g / cm^3
# Si number density = 10.313243 Si / 1000 Ang^3
#
#
#
# Elastic Constant Matrix: (Units=GPa)
#
#
# Indices 1 2 3 4 5 6 
#
# 1 36.0803 7.6004 -32.3733 -0.0027 11.9031 0.0006
# 2 7.6004 70.8981 -21.1587 -0.0197 4.3080 0.0033
# 3 -32.3733 -21.1587 7.8547 -0.0206 0.1460 0.0040
# 4 -0.0027 -0.0197 -0.0206 15.9154 -0.0018 5.5174
# 5 11.9031 4.3080 0.1460 -0.0018 18.6465 0.0014
# 6 0.0006 0.0033 0.0040 5.5174 0.0014 41.8892
#
#
#
# Elastic Compliance Matrix: (Units=1/GPa)
#
#
# Indices 1 2 3 4 5 6 
#
# 1 -0.001552 -0.010100 -0.033671 -0.000060 0.003588 0.000012
# 2 -0.010100 0.012905 -0.006933 0.000006 0.003521 -0.000001
# 3 -0.033671 -0.006933 -0.030575 -0.000055 0.023335 0.000010
# 4 -0.000060 0.000006 -0.000055 0.065839 0.000044 -0.008672
# 5 0.003588 0.003521 0.023335 0.000044 0.050343 -0.000010
# 6 0.000012 -0.000001 0.000010 -0.008672 -0.000010 0.025015
#
#
# Mechanical properties :
#
#
# Convention : Reuss Voigt Hill
#
# Bulk Modulus (GPa) = -8.28968 2.55221 -2.86874
# Shear Modulus (GPa) = 27.29657 26.00788 26.65222
#
# Velocity S-wave (km/s) = 3.64177 3.55476 3.59853
# Velocity P-wave (km/s) = 3.69535 4.25306 3.98398
#
# Compressibility (1/GPa) = -0.12063191
#
# Stress axis : x y z
#
# Youngs Moduli (GPa) = -644.36303 77.49202 -32.70670
#
# Poissons Ratio (x) = 0.78271 -1.10128
# Poissons Ratio (y) = -6.50838 -0.22676
# Poissons Ratio (z) = -21.69661 0.53725
#
# Static dielectric constant tensor:
#      x y z
#    x 1.790310 0.000000 -0.018900 
#    y 0.000000 1.745690 0.000000 
#    z -0.018900 0.000000 1.737860 
# 
# From -- ./inp_files/88215.got.cif
#   From: 2010.05.17/outbox.ucp.g08.bks.cvg/sg12_45_cif.got.tgz:88215.got - 2010.06.11 11:47:21.
