data_PCOD9225114
_publ_section_title
;
Structure prediction by ZEFSAII (Michael W. Deem and Ramdas Pophale) SiO2 
 PCOD9225114
Probable space group: C 2/M
;
_chemical_formula_sum "Si O2"
_cell_formula_units_Z 24
_cell_length_a 15.000000
_cell_length_b 9.000000
_cell_length_c 27.000000
_cell_angle_alpha 90.000000
_cell_angle_beta 140.000000
_cell_angle_gamma 90.000000
_cell_volume 2342.960837
_symmetry_space_group_name_H-M "C 2/M"
_symmetry_group_IT_number 12
_symmetry_cell_setting 'monoclinic'
loop_
_space_group_symop_operation_xyz
x,y,z
-x,y,-z
-x,-y,-z
x,-y,z
1/2+x,1/2+y,z
1/2-x,1/2+y,-z
1/2-x,1/2-y,-z
1/2+x,1/2-y,z
loop_
_atom_site_type_symbol
_atom_site_label
_atom_site_fract_x
_atom_site_fract_y
_atom_site_fract_z
Si Si1 0.150851 0.322510 0.418104
Si Si2 0.683927 0.174221 0.322878
Si Si3 0.168473 0.680192 0.706495
Si Si4 0.868395 0.667057 0.979936
Si Si5 0.419026 0.331913 0.182229
Si Si6 0.944664 0.164202 0.867536
O O1 0.145017 0.500000 0.422471
O O2 0.250000 0.250000 0.500000
O O3 0.221754 0.294531 0.395318
O O4 0.989629 0.270789 0.352167
O O5 0.775526 0.263371 0.322595
O O6 0.521589 0.221224 0.253287
O O7 0.694923 0.000000 0.316307
O O8 0.174037 0.500000 0.710247
O O9 0.289418 0.731845 0.796728
O O10 0.827185 0.500000 0.977313
O O11 0.733871 0.728218 0.894872
O O12 0.000000 0.660183 0.000000
O O13 0.932314 0.751863 0.052876
O O14 0.409779 0.500000 0.199896
O O15 0.499692 0.346959 0.164484
O O16 0.932362 0.000000 0.884700
#
# Coordination Sequence:
#
# PCOD9225114 Si02
#       6
#     8   8   8   8   8   8
#     4  10  23  41  61  87 118 150 185 229 282 341
#     4  10  21  37  60  89 115 144 190 241 279 325
#     4   9  20  40  61  83 116 154 188 227 283 344
#     4  10  21  33  47  75 111 143 181 229 274 320
#     4   9  19  36  54  74 107 149 185 223 278 335
#     4   9  18  33  54  75 100 142 188 226 269 325
#
# _framework density 10.243449
#
# number of rings (size 3 to 8) (size 9 to 14) (size 15 to 20)
#    0.000    2.500    0.000    2.000    2.333    6.333 
#    0.000    3.333    0.000    0.000    0.000    0.000 
#    0.000    0.000    0.000    0.000    0.000    0.000 
#
# Total GULP energy -133689.879929 kJ/mol
# GULP energy per Si atom -5570.411664 kJ/mol
# Density = 1.022013 g / cm^3
# Si number density = 10.243449 Si / 1000 Ang^3
#
#
#
# Elastic Constant Matrix: (Units=GPa)
#
#
# Indices 1 2 3 4 5 6 
#
# 1 55.1447 8.6855 28.8479 0.0000 10.7426 0.0000
# 2 8.6855 -3.1177 0.4458 0.0000 -21.8584 0.0000
# 3 28.8479 0.4458 39.7822 0.0000 -13.6850 0.0000
# 4 0.0000 0.0000 0.0000 24.6153 0.0000 10.7372
# 5 10.7426 -21.8584 -13.6850 0.0000 26.3924 0.0000
# 6 0.0000 0.0000 0.0000 10.7372 0.0000 15.7881
#
#
#
# Elastic Compliance Matrix: (Units=1/GPa)
#
#
# Indices 1 2 3 4 5 6 
#
# 1 0.020624 0.024110 -0.013685 0.000000 0.004477 0.000000
# 2 0.024110 -0.012060 -0.029404 0.000000 -0.035049 0.000000
# 3 -0.013685 -0.029404 0.035209 0.000000 -0.000526 0.000000
# 4 0.000000 0.000000 0.000000 0.057760 0.000000 -0.039281
# 5 0.004477 -0.035049 -0.000526 0.000000 0.006767 0.000000
# 6 0.000000 0.000000 0.000000 -0.039281 0.000000 0.090053
#
#
# Mechanical properties :
#
#
# Convention : Reuss Voigt Hill
#
# Bulk Modulus (GPa) = 172.03703 18.64084 95.33893
# Shear Modulus (GPa) = 20.98625 16.94782 18.96704
#
# Velocity S-wave (km/s) = 3.20406 2.87932 3.04602
# Velocity P-wave (km/s) = 9.89164 4.49139 7.68170
#
# Compressibility (1/GPa) = 0.00581270
#
# Stress axis : x y z
#
# Youngs Moduli (GPa) = 48.48763 -82.91827 28.40153
#
# Poissons Ratio (x) = 1.99912 0.38868
# Poissons Ratio (y) = -1.16902 0.83513
# Poissons Ratio (z) = 0.66357 -2.43816
#
# Static dielectric constant tensor:
#      x y z
#    x 1.761830 0.000000 -0.059330 
#    y 0.000000 1.765030 0.000000 
#    z -0.059330 0.000000 1.835170 
# 
# From -- ./inp_files/274617.got.cif
#   From: 2010.05.17/outbox.ucp.g08.bks.cvg/sg12_138_cif.got.tgz:274617.got - 2010.06.11 11:47:21.
