data_PCOD9225422
_publ_section_title
;
Structure prediction by ZEFSAII (Michael W. Deem and Ramdas Pophale) SiO2 
 PCOD9225422
Probable space group: C 2/M
;
_chemical_formula_sum "Si O2"
_cell_formula_units_Z 32
_cell_length_a 21.000000
_cell_length_b 24.000000
_cell_length_c 18.000000
_cell_angle_alpha 90.000000
_cell_angle_beta 20.000000
_cell_angle_gamma 90.000000
_cell_volume 3102.806740
_symmetry_space_group_name_H-M "C 2/M"
_symmetry_group_IT_number 12
_symmetry_cell_setting 'monoclinic'
loop_
_space_group_symop_operation_xyz
x,y,z
-x,y,-z
-x,-y,-z
x,-y,z
1/2+x,1/2+y,z
1/2-x,1/2+y,-z
1/2-x,1/2-y,-z
1/2+x,1/2-y,z
loop_
_atom_site_type_symbol
_atom_site_label
_atom_site_fract_x
_atom_site_fract_y
_atom_site_fract_z
Si Si1 0.397149 0.565112 0.847950
Si Si2 0.222433 0.742136 0.269129
Si Si3 0.075079 0.386090 0.295851
Si Si4 0.963399 0.658052 0.952546
Si Si5 0.394973 0.225776 0.444379
Si Si6 0.657832 0.435755 0.265803
Si Si7 0.822310 0.165710 0.449116
Si Si8 0.290079 0.387491 0.208614
O O1 0.423967 0.500000 0.842073
O O2 0.414678 0.565779 0.739184
O O3 0.551900 0.610981 0.703103
O O4 0.190903 0.586076 0.101244
O O5 0.228553 0.749012 0.351687
O O6 0.290255 0.678757 0.189911
O O7 0.000000 0.747866 0.500000
O O8 0.341796 0.784284 0.088351
O O9 0.200261 0.406518 0.229043
O O10 0.048572 0.319132 0.306191
O O11 0.863064 0.398821 0.558032
O O12 0.145604 0.656341 0.699338
O O13 0.825532 0.607740 0.083263
O O14 0.000000 0.649786 0.000000
O O15 0.269392 0.189851 0.525507
O O16 0.448184 0.283114 0.344012
O O17 0.500000 0.420498 0.500000
O O18 0.714208 0.500000 0.220079
O O19 0.500000 0.404900 0.000000
#
# Coordination Sequence:
#
# PCOD9225422 Si02
#       8
#     8   8   8   8   8   8   8   8
#     4  11  26  47  69  95 133 183 236 290 345 406
#     4  11  21  38  62  96 135 179 216 263 343 418
#     4  10  22  42  68 104 134 184 218 273 341 412
#     4  12  23  36  62  95 128 175 226 282 335 415
#     4  10  22  43  59 102 138 171 219 274 341 411
#     4  10  23  43  65  87 121 175 236 296 345 392
#     4  11  25  40  64 100 139 180 223 285 343 409
#     4  10  21  38  69 104 139 174 217 270 334 414
#
# _framework density 10.313243
#
# number of rings (size 3 to 8) (size 9 to 14) (size 15 to 20)
#    0.000    1.375    3.750    2.250    7.000    2.250 
#    0.000    1.875    0.000    0.750    0.000    0.000 
#    0.000    0.000    0.000    0.000    0.000    0.000 
#
# Total GULP energy -178396.954327 kJ/mol
# GULP energy per Si atom -5574.904823 kJ/mol
# Density = 1.028977 g / cm^3
# Si number density = 10.313243 Si / 1000 Ang^3
#
#
#
# Elastic Constant Matrix: (Units=GPa)
#
#
# Indices 1 2 3 4 5 6 
#
# 1 72.1263 8.9765 31.8729 -0.0353 5.0587 0.0073
# 2 8.9765 94.2466 44.9598 -0.0555 1.4471 0.0312
# 3 31.8729 44.9598 144.9384 -0.0077 1.5293 -0.0070
# 4 -0.0353 -0.0555 -0.0077 28.5311 0.0311 -3.1191
# 5 5.0587 1.4471 1.5293 0.0311 34.9126 -0.0079
# 6 0.0073 0.0312 -0.0070 -3.1191 -0.0079 26.9986
#
#
#
# Elastic Compliance Matrix: (Units=1/GPa)
#
#
# Indices 1 2 3 4 5 6 
#
# 1 0.015512 0.000201 -0.003452 0.000021 -0.002105 -0.000004
# 2 0.000201 0.012460 -0.003905 0.000022 -0.000375 -0.000013
# 3 -0.003452 -0.003905 0.008867 -0.000009 0.000274 0.000007
# 4 0.000021 0.000022 -0.000009 0.035498 -0.000034 0.004101
# 5 -0.002105 -0.000375 0.000274 -0.000034 0.028952 0.000006
# 6 -0.000004 -0.000013 0.000007 0.004101 0.000006 0.037513
#
#
# Mechanical properties :
#
#
# Convention : Reuss Voigt Hill
#
# Bulk Modulus (GPa) = 44.38842 53.65886 49.02364
# Shear Modulus (GPa) = 31.12892 33.12196 32.12544
#
# Velocity S-wave (km/s) = 3.88902 4.01159 3.95078
# Velocity P-wave (km/s) = 6.46009 6.89406 6.68060
#
# Compressibility (1/GPa) = 0.02252840
#
# Stress axis : x y z
#
# Youngs Moduli (GPa) = 64.46460 80.25605 112.77667
#
# Poissons Ratio (x) = -0.01616 0.38925
# Poissons Ratio (y) = -0.01298 0.44044
# Poissons Ratio (z) = 0.22250 0.31344
#
# Static dielectric constant tensor:
#      x y z
#    x 1.843570 -0.000060 -0.017370 
#    y -0.000060 1.764120 0.000100 
#    z -0.017370 0.000100 1.728270 
# 
# From -- ./inp_files/286397.got.cif
#   From: 2010.05.17/outbox.ucp.g08.bks.cvg/sg12_144_cif.got.tgz:286397.got - 2010.06.11 11:47:21.
