data_PCOD9225461
_publ_section_title
;
Structure prediction by ZEFSAII (Michael W. Deem and Ramdas Pophale) SiO2 
 PCOD9225461
Probable space group: C 2/M
;
_chemical_formula_sum "Si O2"
_cell_formula_units_Z 20
_cell_length_a 24.000000
_cell_length_b 9.000000
_cell_length_c 30.000000
_cell_angle_alpha 90.000000
_cell_angle_beta 160.000000
_cell_angle_gamma 90.000000
_cell_volume 2216.290529
_symmetry_space_group_name_H-M "C 2/M"
_symmetry_group_IT_number 12
_symmetry_cell_setting 'monoclinic'
loop_
_space_group_symop_operation_xyz
x,y,z
-x,y,-z
-x,-y,-z
x,-y,z
1/2+x,1/2+y,z
1/2-x,1/2+y,-z
1/2-x,1/2-y,-z
1/2+x,1/2-y,z
loop_
_atom_site_type_symbol
_atom_site_label
_atom_site_fract_x
_atom_site_fract_y
_atom_site_fract_z
Si Si1 0.472358 0.821941 0.360860
Si Si2 0.389342 0.179875 0.194075
Si Si3 0.844851 0.180541 0.671575
Si Si4 0.040493 0.676101 0.902180
Si Si5 0.859418 0.325750 0.860373
O O1 0.432193 0.787739 0.278380
O O2 0.654196 0.778100 0.516110
O O3 0.315979 0.752419 0.268286
O O4 0.466675 0.000000 0.360971
O O5 0.536802 0.252813 0.277323
O O6 0.384242 0.000000 0.184886
O O7 0.217000 0.248074 0.046187
O O8 0.930510 0.246162 0.780988
O O9 0.852124 0.000000 0.678178
O O10 0.066263 0.500000 0.910712
O O11 0.936533 0.684870 0.869448
O O12 0.834853 0.500000 0.853206
O O13 0.000000 0.267019 0.000000
#
# Coordination Sequence:
#
# PCOD9225461 Si02
#       5
#     8   8   8   8   8
#     4  10  23  40  62  90 120 156 197 243 296 350
#     4  11  22  39  63  90 118 156 201 244 293 349
#     4  11  24  41  59  87 124 159 196 242 296 351
#     4  11  23  40  62  89 120 157 198 243 295 350
#     4  10  21  39  63  89 117 153 198 245 293 348
#
# _framework density 9.0240880000000008
#
# number of rings (size 3 to 8) (size 9 to 14) (size 15 to 20)
#    0.000    1.400    2.000    3.000    0.000    5.200 
#    0.000    4.000    0.000    0.000    0.000    0.000 
#    0.000    0.000    0.000    0.000    0.000    0.000 
#
# Total GULP energy -111585.245880 kJ/mol
# GULP energy per Si atom -5579.262294 kJ/mol
# Density = 0.900355 g / cm^3
# Si number density = 9.024088 Si / 1000 Ang^3
#
#
#
# Elastic Constant Matrix: (Units=GPa)
#
#
# Indices 1 2 3 4 5 6 
#
# 1 67.8979 31.2365 55.1454 0.0055 5.4540 0.0001
# 2 31.2365 83.7523 64.2337 0.0027 1.9913 0.0004
# 3 55.1454 64.2337 222.5026 0.0001 8.8648 -0.0012
# 4 0.0055 0.0027 0.0001 43.1246 -0.0002 3.5582
# 5 5.4540 1.9913 8.8648 -0.0002 40.4516 0.0004
# 6 0.0001 0.0004 -0.0012 3.5582 0.0004 29.6069
#
#
#
# Elastic Compliance Matrix: (Units=1/GPa)
#
#
# Indices 1 2 3 4 5 6 
#
# 1 0.019862 -0.004680 -0.003505 -0.000002 -0.001680 0.000000
# 2 -0.004680 0.016440 -0.003611 0.000000 0.000613 0.000000
# 3 -0.003505 -0.003611 0.006436 0.000001 -0.000760 0.000000
# 4 -0.000002 0.000000 0.000001 0.023421 0.000000 -0.002815
# 5 -0.001680 0.000613 -0.000760 0.000000 0.025084 0.000000
# 6 0.000000 0.000000 0.000000 -0.002815 0.000000 0.034114
#
#
# Mechanical properties :
#
#
# Convention : Reuss Voigt Hill
#
# Bulk Modulus (GPa) = 52.22667 75.04267 63.63467
# Shear Modulus (GPa) = 32.18955 37.53909 34.86432
#
# Velocity S-wave (km/s) = 4.22777 4.56558 4.39992
# Velocity P-wave (km/s) = 7.26858 8.33439 7.81967
#
# Compressibility (1/GPa) = 0.01914731
#
# Stress axis : x y z
#
# Youngs Moduli (GPa) = 50.34621 60.82733 155.38697
#
# Poissons Ratio (x) = 0.28468 0.54459
# Poissons Ratio (y) = 0.23562 0.56103
# Poissons Ratio (z) = 0.17645 0.21962
#
# Static dielectric constant tensor:
#      x y z
#    x 1.644250 0.000000 -0.015160 
#    y 0.000000 1.623450 0.000000 
#    z -0.015160 0.000000 1.599640 
# 
# From -- ./inp_files/92744.got.cif
#   From: 2010.05.17/outbox.ucp.g08.bks.cvg/sg12_47_cif.got.tgz:92744.got - 2010.06.11 11:47:21.
