data_PCOD9225940
_publ_section_title
;
Structure prediction by ZEFSAII (Michael W. Deem and Ramdas Pophale) SiO2 
 PCOD9225940
Probable space group: C 2/M
;
_chemical_formula_sum "Si O2"
_cell_formula_units_Z 18
_cell_length_a 15.000000
_cell_length_b 24.000000
_cell_length_c 15.000000
_cell_angle_alpha 90.000000
_cell_angle_beta 20.000000
_cell_angle_gamma 90.000000
_cell_volume 1846.908774
_symmetry_space_group_name_H-M "C 2/M"
_symmetry_group_IT_number 12
_symmetry_cell_setting 'monoclinic'
loop_
_space_group_symop_operation_xyz
x,y,z
-x,y,-z
-x,-y,-z
x,-y,z
1/2+x,1/2+y,z
1/2-x,1/2+y,-z
1/2-x,1/2-y,-z
1/2+x,1/2-y,z
loop_
_atom_site_type_symbol
_atom_site_label
_atom_site_fract_x
_atom_site_fract_y
_atom_site_fract_z
Si Si1 0.500000 0.303616 0.500000
Si Si2 0.044406 0.563702 0.058145
Si Si3 0.418243 0.614118 0.415663
Si Si4 0.215207 0.207396 0.856585
Si Si5 0.779472 0.801173 0.404635
O O1 0.588526 0.340431 0.499166
O O2 0.271291 0.264292 0.750731
O O3 0.125891 0.500000 0.971293
O O4 0.780797 0.568104 0.361541
O O5 0.285406 0.595697 0.873843
O O6 0.000000 0.586356 0.000000
O O7 0.316679 0.642282 0.422921
O O8 0.513400 0.190962 0.597899
O O9 0.000000 0.173729 0.000000
O O10 0.048865 0.212879 0.101860
O O11 0.750000 0.750000 0.500000
#
# Coordination Sequence:
#
# PCOD9225940 Si02
#       5
#     4   8   8   8   8
#     4  12  24  34  59  80 122 166 197 230 276 352
#     4  11  23  40  59  83 115 155 200 246 282 335
#     4  12  24  37  59  86 117 158 203 230 288 344
#     4  12  23  39  54  78 119 163 195 235 286 336
#     4  12  24  36  56  84 120 152 200 244 279 342
#
# _framework density 9.7460149999999999
#
# number of rings (size 3 to 8) (size 9 to 14) (size 15 to 20)
#    0.000    0.222    6.667    2.667    6.222    1.778 
#    0.000    0.000    0.000    0.000    0.000    0.000 
#    0.000   62.222    0.000    0.000    0.000    0.000 
#
# Total GULP energy -100280.641621 kJ/mol
# GULP energy per Si atom -5571.146757 kJ/mol
# Density = 0.972383 g / cm^3
# Si number density = 9.746015 Si / 1000 Ang^3
#
#
#
# Elastic Constant Matrix: (Units=GPa)
#
#
# Indices 1 2 3 4 5 6 
#
# 1 69.9206 28.1631 23.5616 -0.0831 -30.6220 0.4004
# 2 28.1631 28.6103 15.9473 -0.2131 -10.5325 0.3508
# 3 23.5616 15.9473 112.1062 -0.4684 -7.7601 0.6397
# 4 -0.0831 -0.2131 -0.4684 24.7540 0.1394 -0.6933
# 5 -30.6220 -10.5325 -7.7601 0.1394 48.5035 -0.2052
# 6 0.4004 0.3508 0.6397 -0.6933 -0.2052 6.4916
#
#
#
# Elastic Compliance Matrix: (Units=1/GPa)
#
#
# Indices 1 2 3 4 5 6 
#
# 1 0.030743 -0.023996 -0.002089 -0.000220 0.013865 0.000021
# 2 -0.023996 0.059579 -0.003616 0.000339 -0.002797 -0.001435
# 3 -0.002089 -0.003616 0.009841 0.000133 -0.000533 -0.000648
# 4 -0.000220 0.000339 0.000133 0.040524 -0.000142 0.004306
# 5 0.013865 -0.002797 -0.000533 -0.000142 0.028679 0.000240
# 6 0.000021 -0.001435 -0.000648 0.004306 0.000240 0.154653
#
#
# Mechanical properties :
#
#
# Convention : Reuss Voigt Hill
#
# Bulk Modulus (GPa) = 24.53314 38.44235 31.48774
# Shear Modulus (GPa) = 12.59422 25.48082 19.03752
#
# Velocity S-wave (km/s) = 2.54465 3.61950 3.12858
# Velocity P-wave (km/s) = 4.60947 6.10186 5.40740
#
# Compressibility (1/GPa) = 0.04076119
#
# Stress axis : x y z
#
# Youngs Moduli (GPa) = 32.52795 16.78446 101.61618
#
# Poissons Ratio (x) = 0.40275 0.21229
# Poissons Ratio (y) = 0.78052 0.36745
# Poissons Ratio (z) = 0.06796 0.06069
#
# Static dielectric constant tensor:
#      x y z
#    x 1.802530 -0.000440 -0.007130 
#    y -0.000440 1.717260 0.000580 
#    z -0.007130 0.000580 1.678260 
# 
# From -- ./inp_files/218373.got.cif
#   From: 2010.05.17/outbox.ucp.g08.bks.cvg/sg12_110_cif.got.tgz:218373.got - 2010.06.11 11:47:21.
