data_PCOD9225499
_publ_section_title
;
Structure prediction by ZEFSAII (Michael W. Deem and Ramdas Pophale) SiO2 
 PCOD9225499
Probable space group: C 2/M
;
_chemical_formula_sum "Si O2"
_cell_formula_units_Z 32
_cell_length_a 18.000000
_cell_length_b 9.000000
_cell_length_c 30.000000
_cell_angle_alpha 90.000000
_cell_angle_beta 140.000000
_cell_angle_gamma 90.000000
_cell_volume 3123.947783
_symmetry_space_group_name_H-M "C 2/M"
_symmetry_group_IT_number 12
_symmetry_cell_setting 'monoclinic'
loop_
_space_group_symop_operation_xyz
x,y,z
-x,y,-z
-x,-y,-z
x,-y,z
1/2+x,1/2+y,z
1/2-x,1/2+y,-z
1/2-x,1/2-y,-z
1/2+x,1/2-y,z
loop_
_atom_site_type_symbol
_atom_site_label
_atom_site_fract_x
_atom_site_fract_y
_atom_site_fract_z
Si Si1 0.232154 0.176794 0.921088
Si Si2 0.252628 0.830935 0.435130
Si Si3 0.425852 0.176641 0.076241
Si Si4 0.211869 0.670769 0.648588
Si Si5 0.659624 0.827449 0.797695
Si Si6 0.969554 0.674291 0.645485
Si Si7 0.335432 0.673970 0.796706
Si Si8 0.010878 0.173199 0.434486
O O1 0.141928 0.248796 0.913973
O O2 0.206722 0.232965 0.860031
O O3 0.220405 0.000000 0.917181
O O4 0.357578 0.216660 0.999389
O O5 0.226184 0.832008 0.370297
O O6 0.164679 0.714720 0.415687
O O7 0.382088 0.775915 0.502593
O O8 0.237078 0.000000 0.444747
O O9 0.555756 0.231969 0.137989
O O10 0.420230 0.000000 0.078576
O O11 0.171095 0.500000 0.638548
O O12 0.288145 0.715747 0.726055
O O13 0.103754 0.779203 0.592536
O O14 0.531676 0.791659 0.720827
O O15 0.737549 0.812329 0.789299
O O16 0.661783 0.000000 0.812508
O O17 0.989576 0.500000 0.645234
O O18 0.018787 0.779575 0.629758
O O19 0.368505 0.500000 0.809323
O O20 0.037087 0.000000 0.451004
#
# Coordination Sequence:
#
# PCOD9225499 Si02
#       8
#     8   8   8   8   8   8   8   8
#     4  10  22  40  63  90 125 162 200 245 294 354
#     4  11  24  40  62  90 120 158 202 249 303 362
#     4  10  22  40  62  92 125 160 201 246 296 348
#     4  10  22  42  63  87 121 159 200 247 301 360
#     4  10  22  40  63  89 121 159 200 248 300 356
#     4  11  23  42  63  87 122 158 200 252 302 358
#     4  10  21  40  63  89 121 160 201 245 301 358
#     4  12  24  40  63  89 120 158 202 250 301 359
#
# _framework density 10.243449
#
# number of rings (size 3 to 8) (size 9 to 14) (size 15 to 20)
#    0.000    1.500    1.250    3.375    1.750    6.500 
#    0.000    2.500    0.000    0.000    0.000    0.000 
#    0.000    0.000    0.000    0.000    0.000    0.000 
#
# Total GULP energy -178730.527515 kJ/mol
# GULP energy per Si atom -5585.328985 kJ/mol
# Density = 1.022013 g / cm^3
# Si number density = 10.243449 Si / 1000 Ang^3
#
#
#
# Elastic Constant Matrix: (Units=GPa)
#
#
# Indices 1 2 3 4 5 6 
#
# 1 26.9487 18.3675 16.1502 0.0000 -3.9052 0.0000
# 2 18.3675 59.1476 38.8096 0.0000 1.3138 0.0000
# 3 16.1502 38.8096 100.2564 0.0000 -3.9764 0.0000
# 4 0.0000 0.0000 0.0000 25.9085 0.0000 -0.2008
# 5 -3.9052 1.3138 -3.9764 0.0000 30.8742 0.0000
# 6 0.0000 0.0000 0.0000 -0.2008 0.0000 29.6130
#
#
#
# Elastic Compliance Matrix: (Units=1/GPa)
#
#
# Indices 1 2 3 4 5 6 
#
# 1 0.048819 -0.013823 -0.002256 0.000000 0.006473 0.000000
# 2 -0.013823 0.026714 -0.008271 0.000000 -0.003951 0.000000
# 3 -0.002256 -0.008271 0.013612 0.000000 0.001820 0.000000
# 4 0.000000 0.000000 0.000000 0.038599 0.000000 0.000262
# 5 0.006473 -0.003951 0.001820 0.000000 0.033611 0.000000
# 6 0.000000 0.000000 0.000000 0.000262 0.000000 0.033771
#
#
# Mechanical properties :
#
#
# Convention : Reuss Voigt Hill
#
# Bulk Modulus (GPa) = 24.72573 37.00079 30.86326
# Shear Modulus (GPa) = 19.43183 24.81418 22.12300
#
# Velocity S-wave (km/s) = 3.08311 3.48404 3.28969
# Velocity P-wave (km/s) = 4.97688 5.85531 5.43387
#
# Compressibility (1/GPa) = 0.04044371
#
# Stress axis : x y z
#
# Youngs Moduli (GPa) = 20.48363 37.43302 73.46536
#
# Poissons Ratio (x) = 0.51745 0.16577
# Poissons Ratio (y) = 0.28315 0.60764
# Poissons Ratio (z) = 0.04622 0.30961
#
# Static dielectric constant tensor:
#      x y z
#    x 1.777500 0.000000 0.000560 
#    y 0.000000 1.690370 0.000000 
#    z 0.000560 0.000000 1.731130 
# 
# From -- ./inp_files/378456.got.cif
#   From: 2010.05.17/outbox.ucp.g08.bks.cvg/sg12_190_cif.got.tgz:378456.got - 2010.06.11 11:47:21.
