data_PCOD9225491
_publ_section_title
;
Structure prediction by ZEFSAII (Michael W. Deem and Ramdas Pophale) SiO2 
 PCOD9225491
Probable space group: C 2/M
;
_chemical_formula_sum "Si O2"
_cell_formula_units_Z 22
_cell_length_a 12.000000
_cell_length_b 27.000000
_cell_length_c 9.000000
_cell_angle_alpha 90.000000
_cell_angle_beta 130.000000
_cell_angle_gamma 90.000000
_cell_volume 2233.785596
_symmetry_space_group_name_H-M "C 2/M"
_symmetry_group_IT_number 12
_symmetry_cell_setting 'monoclinic'
loop_
_space_group_symop_operation_xyz
x,y,z
-x,y,-z
-x,-y,-z
x,-y,z
1/2+x,1/2+y,z
1/2-x,1/2+y,-z
1/2-x,1/2-y,-z
1/2+x,1/2-y,z
loop_
_atom_site_type_symbol
_atom_site_label
_atom_site_fract_x
_atom_site_fract_y
_atom_site_fract_z
Si Si1 0.927290 0.923472 0.785349
Si Si2 0.555328 0.314504 0.299266
Si Si3 0.143424 0.557180 0.692978
Si Si4 0.000000 0.732564 0.000000
Si Si5 0.289415 0.441669 0.136038
Si Si6 0.725925 0.336047 0.741644
O O1 0.923980 0.864150 0.778795
O O2 0.763414 0.940909 0.665130
O O3 0.036344 0.940039 0.748971
O O4 0.000000 0.941610 0.000000
O O5 0.678054 0.318994 0.534171
O O6 0.405632 0.321115 0.261822
O O7 0.541065 0.267982 0.175944
O O8 0.108550 0.500000 0.695052
O O9 0.000000 0.582041 0.500000
O O10 0.211323 0.573860 0.910705
O O11 0.864731 0.695706 0.909329
O O12 0.253388 0.500000 0.140576
O O13 0.256653 0.396197 0.222013
#
# Coordination Sequence:
#
# PCOD9225491 Si02
#       6
#     8   8   8   4   8   8
#     4   9  16  31  55  80 110 151 197 234 281 339
#     4  10  21  40  60  86 118 151 195 249 292 350
#     4   9  17  29  50  83 118 151 192 239 284 340
#     4  12  22  40  65  84 117 156 198 248 304 336
#     4   9  18  35  57  81 118 160 192 233 287 348
#     4  10  23  39  60  90 120 151 197 243 295 358
#
# _framework density 9.8487519999999993
#
# number of rings (size 3 to 8) (size 9 to 14) (size 15 to 20)
#    0.000    2.364    0.909    1.636    0.000    3.636 
#    0.000    8.636    0.000    0.000    0.000    0.000 
#    0.000    0.000    0.000    0.000    0.000    0.000 
#
# Total GULP energy -122510.979792 kJ/mol
# GULP energy per Si atom -5568.680900 kJ/mol
# Density = 0.982634 g / cm^3
# Si number density = 9.848752 Si / 1000 Ang^3
#
#
#
# Elastic Constant Matrix: (Units=GPa)
#
#
# Indices 1 2 3 4 5 6 
#
# 1 28.6166 22.9896 34.1826 0.0000 6.7361 0.0000
# 2 22.9896 130.9407 37.7896 0.0000 -3.5980 0.0000
# 3 34.1826 37.7896 99.4264 0.0000 9.1367 0.0000
# 4 0.0000 0.0000 0.0000 22.4784 0.0000 0.3975
# 5 6.7361 -3.5980 9.1367 0.0000 32.6820 0.0000
# 6 0.0000 0.0000 0.0000 0.3975 0.0000 19.8441
#
#
#
# Elastic Compliance Matrix: (Units=1/GPa)
#
#
# Indices 1 2 3 4 5 6 
#
# 1 0.064744 -0.006078 -0.019153 0.000000 -0.008659 0.000000
# 2 -0.006078 0.009266 -0.001684 0.000000 0.002744 0.000000
# 3 -0.019153 -0.001684 0.017384 0.000000 -0.001098 0.000000
# 4 0.000000 0.000000 0.000000 0.044503 0.000000 -0.000892
# 5 -0.008659 0.002744 -0.001098 0.000000 0.032991 0.000000
# 6 0.000000 0.000000 0.000000 -0.000892 0.000000 0.050411
#
#
# Mechanical properties :
#
#
# Convention : Reuss Voigt Hill
#
# Bulk Modulus (GPa) = 26.62197 49.87859 38.25028
# Shear Modulus (GPa) = 17.50398 25.93569 21.71984
#
# Velocity S-wave (km/s) = 2.98424 3.63257 3.32425
# Velocity P-wave (km/s) = 5.04173 6.55525 5.84766
#
# Compressibility (1/GPa) = 0.03756296
#
# Stress axis : x y z
#
# Youngs Moduli (GPa) = 15.44545 107.92637 57.52567
#
# Poissons Ratio (x) = 0.65593 1.10180
# Poissons Ratio (y) = 0.09387 0.09689
# Poissons Ratio (z) = 0.29583 0.18178
#
# Static dielectric constant tensor:
#      x y z
#    x 1.706000 0.000000 0.016000 
#    y 0.000000 1.687370 0.000000 
#    z 0.016000 0.000000 1.765700 
# 
# From -- ./inp_files/53424.got.cif
#   From: 2010.05.17/outbox.ucp.g08.bks.cvg/sg12_27_cif.got.tgz:53424.got - 2010.06.11 11:47:21.
