data_PCOD9225643
_publ_section_title
;
Structure prediction by ZEFSAII (Michael W. Deem and Ramdas Pophale) SiO2 
 PCOD9225643
Probable space group: C 2/M
;
_chemical_formula_sum "Si O2"
_cell_formula_units_Z 24
_cell_length_a 27.000000
_cell_length_b 9.000000
_cell_length_c 21.000000
_cell_angle_alpha 90.000000
_cell_angle_beta 150.000000
_cell_angle_gamma 90.000000
_cell_volume 2551.500000
_symmetry_space_group_name_H-M "C 2/M"
_symmetry_group_IT_number 12
_symmetry_cell_setting 'monoclinic'
loop_
_space_group_symop_operation_xyz
x,y,z
-x,y,-z
-x,-y,-z
x,-y,z
1/2+x,1/2+y,z
1/2-x,1/2+y,-z
1/2-x,1/2-y,-z
1/2+x,1/2-y,z
loop_
_atom_site_type_symbol
_atom_site_label
_atom_site_fract_x
_atom_site_fract_y
_atom_site_fract_z
Si Si1 0.217498 0.174932 0.030500
Si Si2 0.874593 0.177758 0.290369
Si Si3 0.799521 0.820391 0.349189
Si Si4 0.981182 0.174126 0.782172
Si Si5 0.043091 0.679194 0.384272
Si Si6 0.088440 0.820646 0.149479
O O1 0.100815 0.181202 0.914436
O O2 0.246574 0.000000 0.062588
O O3 0.250000 0.250000 0.000000
O O4 0.272599 0.268472 0.145598
O O5 0.858548 0.213846 0.347922
O O6 0.955630 0.255923 0.333728
O O7 0.890468 0.000000 0.303526
O O8 0.859814 0.741898 0.472829
O O9 0.687391 0.759217 0.232579
O O10 0.799690 0.000000 0.354869
O O11 0.955974 0.262811 0.688364
O O12 0.940074 0.219282 0.807552
O O13 0.952834 0.000000 0.741859
O O14 0.037628 0.500000 0.378363
O O15 0.103457 0.000000 0.166153
O O16 0.000000 0.789735 0.000000
#
# Coordination Sequence:
#
# PCOD9225643 Si02
#       6
#     8   8   8   8   8   8
#     4  11  21  35  60  92 125 162 203 251 307 363
#     4  11  23  40  62  90 127 166 206 256 314 372
#     4  11  25  43  64  90 124 166 207 256 313 370
#     4  10  22  40  63  91 128 166 202 253 311 366
#     4  12  25  40  63  92 123 163 210 259 310 371
#     4  10  22  43  69  95 123 160 206 255 305 365
#
# _framework density 9.4062319999999993
#
# number of rings (size 3 to 8) (size 9 to 14) (size 15 to 20)
#    0.000    1.167    1.667    4.500    0.000    8.333 
#    0.000    0.000    0.000    0.000    0.000    0.000 
#    0.000    0.000    0.000    0.000    0.000    0.000 
#
# Total GULP energy -133900.743273 kJ/mol
# GULP energy per Si atom -5579.197636 kJ/mol
# Density = 0.938482 g / cm^3
# Si number density = 9.406232 Si / 1000 Ang^3
#
#
#
# Elastic Constant Matrix: (Units=GPa)
#
#
# Indices 1 2 3 4 5 6 
#
# 1 158.7599 57.1971 42.0271 0.0000 -17.7202 0.0000
# 2 57.1971 99.6049 41.6523 0.0000 -8.9570 0.0000
# 3 42.0271 41.6523 103.8249 0.0000 -14.6788 0.0000
# 4 0.0000 0.0000 0.0000 28.4587 0.0000 2.1758
# 5 -17.7202 -8.9570 -14.6788 0.0000 40.2602 0.0000
# 6 0.0000 0.0000 0.0000 2.1758 0.0000 38.3334
#
#
#
# Elastic Compliance Matrix: (Units=1/GPa)
#
#
# Indices 1 2 3 4 5 6 
#
# 1 0.008379 -0.003994 -0.001470 0.000000 0.002264 0.000000
# 2 -0.003994 0.014003 -0.004016 0.000000 -0.000107 0.000000
# 3 -0.001470 -0.004016 0.012251 0.000000 0.002926 0.000000
# 4 0.000000 0.000000 0.000000 0.035292 0.000000 -0.002003
# 5 0.002264 -0.000107 0.002926 0.000000 0.026878 0.000000
# 6 0.000000 0.000000 0.000000 -0.002003 0.000000 0.026201
#
#
# Mechanical properties :
#
#
# Convention : Reuss Voigt Hill
#
# Bulk Modulus (GPa) = 63.79681 71.54920 67.67301
# Shear Modulus (GPa) = 33.97018 36.16465 35.06741
#
# Velocity S-wave (km/s) = 4.25400 4.38925 4.32215
# Velocity P-wave (km/s) = 7.62327 7.98766 7.80759
#
# Compressibility (1/GPa) = 0.01567476
#
# Stress axis : x y z
#
# Youngs Moduli (GPa) = 119.34105 71.41416 81.62303
#
# Poissons Ratio (x) = 0.28520 0.11996
# Poissons Ratio (y) = 0.47660 0.32781
# Poissons Ratio (z) = 0.17539 0.28681
#
# Static dielectric constant tensor:
#      x y z
#    x 1.654790 0.000000 -0.003100 
#    y 0.000000 1.637410 0.000000 
#    z -0.003100 0.000000 1.701530 
# 
# From -- ./inp_files/327342.got.cif
#   From: 2010.05.17/outbox.ucp.g08.bks.cvg/sg12_164_cif.got.tgz:327342.got - 2010.06.11 11:47:21.
