data_PCOD9225274
_publ_section_title
;
Structure prediction by ZEFSAII (Michael W. Deem and Ramdas Pophale) SiO2 
 PCOD9225274
Probable space group: C 2/M
;
_chemical_formula_sum "Si O2"
_cell_formula_units_Z 26
_cell_length_a 9.000000
_cell_length_b 18.000000
_cell_length_c 21.000000
_cell_angle_alpha 90.000000
_cell_angle_beta 130.000000
_cell_angle_gamma 90.000000
_cell_volume 2606.083195
_symmetry_space_group_name_H-M "C 2/M"
_symmetry_group_IT_number 12
_symmetry_cell_setting 'monoclinic'
loop_
_space_group_symop_operation_xyz
x,y,z
-x,y,-z
-x,-y,-z
x,-y,z
1/2+x,1/2+y,z
1/2-x,1/2+y,-z
1/2-x,1/2-y,-z
1/2+x,1/2-y,z
loop_
_atom_site_type_symbol
_atom_site_label
_atom_site_fract_x
_atom_site_fract_y
_atom_site_fract_z
Si Si1 0.270214 0.797970 0.205802
Si Si2 0.109860 0.347600 0.094734
Si Si3 0.934694 0.249336 0.610579
Si Si4 0.988951 0.416085 0.184588
Si Si5 0.555019 0.584702 0.657098
Si Si6 0.000000 0.271562 0.500000
Si Si7 0.025228 0.084807 0.216048
O O1 0.153344 0.729611 0.143552
O O2 0.446839 0.762794 0.293557
O O3 0.355982 0.853221 0.177471
O O4 0.155968 0.850952 0.222610
O O5 0.995793 0.400774 0.111516
O O6 0.309295 0.390930 0.136944
O O7 0.000000 0.331992 0.000000
O O8 0.709660 0.266075 0.557386
O O9 0.971727 0.161327 0.603944
O O10 0.002495 0.303561 0.571995
O O11 0.927118 0.500000 0.181962
O O12 0.211142 0.407724 0.271492
O O13 0.516421 0.500000 0.620674
O O14 0.473354 0.585409 0.706738
O O15 0.070140 0.000000 0.208239
#
# Coordination Sequence:
#
# PCOD9225274 Si02
#       7
#     8   8   8   8   8   4   8
#     4  12  22  36  65  90 121 157 199 256 299 344
#     4  11  24  40  60  88 120 161 206 242 292 361
#     4  11  20  38  58  87 122 153 200 246 302 348
#     4  10  21  37  58  89 118 157 202 244 296 351
#     4   9  18  35  60  83 115 158 200 237 291 367
#     4  10  24  34  58  90 118 154 196 256 292 366
#     4  10  21  37  58  89 118 157 202 244 296 351
#
# _framework density 9.9766580000000005
#
# number of rings (size 3 to 8) (size 9 to 14) (size 15 to 20)
#    0.000    1.538    3.077    4.615    0.000    3.692 
#    0.000    0.769    0.000   10.154    0.000    0.000 
#    0.000    0.000    0.000    0.000    0.000    0.000 
#
# Total GULP energy -144825.523942 kJ/mol
# GULP energy per Si atom -5570.212459 kJ/mol
# Density = 0.995395 g / cm^3
# Si number density = 9.976658 Si / 1000 Ang^3
#
#
#
# Elastic Constant Matrix: (Units=GPa)
#
#
# Indices 1 2 3 4 5 6 
#
# 1 41.3119 -12.3644 -11.0952 0.0000 -3.5774 0.0000
# 2 -12.3644 101.8333 8.6367 0.0000 -2.3490 0.0000
# 3 -11.0952 8.6367 48.7311 0.0000 -17.1537 0.0000
# 4 0.0000 0.0000 0.0000 5.7617 0.0000 -2.0321
# 5 -3.5774 -2.3490 -17.1537 0.0000 -5.3510 0.0000
# 6 0.0000 0.0000 0.0000 -2.0321 0.0000 25.5719
#
#
#
# Elastic Compliance Matrix: (Units=1/GPa)
#
#
# Indices 1 2 3 4 5 6 
#
# 1 0.023514 0.002543 -0.000481 0.000000 -0.015295 0.000000
# 2 0.002543 0.010241 -0.001605 0.000000 -0.001049 0.000000
# 3 -0.000481 -0.001605 0.009893 0.000000 -0.030689 0.000000
# 4 0.000000 0.000000 0.000000 0.178565 0.000000 0.014190
# 5 -0.015295 -0.001049 -0.030689 0.000000 -0.077817 0.000000
# 6 0.000000 0.000000 0.000000 0.014190 0.000000 0.040233
#
#
# Mechanical properties :
#
#
# Convention : Reuss Voigt Hill
#
# Bulk Modulus (GPa) = 22.44123 18.02563 20.23343
# Shear Modulus (GPa) = 25.18018 18.97645 22.07832
#
# Velocity S-wave (km/s) = 3.55625 3.08724 3.33002
# Velocity P-wave (km/s) = 5.30414 4.66493 4.99477
#
# Compressibility (1/GPa) = 0.04456084
#
# Stress axis : x y z
#
# Youngs Moduli (GPa) = 42.52867 97.64972 101.07899
#
# Poissons Ratio (x) = -0.24832 0.04861
# Poissons Ratio (y) = -0.10815 0.16227
# Poissons Ratio (z) = 0.02045 0.15676
#
# Static dielectric constant tensor:
#      x y z
#    x 1.802240 0.000000 -0.039240 
#    y 0.000000 1.707900 0.000000 
#    z -0.039240 0.000000 1.709370 
# 
# From -- ./inp_files/256555.got.cif
#   From: 2010.05.17/outbox.ucp.g08.bks.cvg/sg12_129_cif.got.tgz:256555.got - 2010.06.11 11:47:21.
