data_PCOD9225235
_publ_section_title
;
Structure prediction by ZEFSAII (Michael W. Deem and Ramdas Pophale) SiO2 
 PCOD9225235
Probable space group: C 2/M
;
_chemical_formula_sum "Si O2"
_cell_formula_units_Z 32
_cell_length_a 24.000000
_cell_length_b 18.000000
_cell_length_c 21.000000
_cell_angle_alpha 90.000000
_cell_angle_beta 160.000000
_cell_angle_gamma 90.000000
_cell_volume 3102.806740
_symmetry_space_group_name_H-M "C 2/M"
_symmetry_group_IT_number 12
_symmetry_cell_setting 'monoclinic'
loop_
_space_group_symop_operation_xyz
x,y,z
-x,y,-z
-x,-y,-z
x,-y,z
1/2+x,1/2+y,z
1/2-x,1/2+y,-z
1/2-x,1/2-y,-z
1/2+x,1/2-y,z
loop_
_atom_site_type_symbol
_atom_site_label
_atom_site_fract_x
_atom_site_fract_y
_atom_site_fract_z
Si Si1 0.385129 0.415180 0.628411
Si Si2 0.539568 0.414433 0.469015
Si Si3 0.492371 0.915628 0.750976
Si Si4 0.687256 0.295560 0.555594
Si Si5 0.220342 0.666667 0.081769
Si Si6 0.480046 0.268381 0.052017
Si Si7 0.891854 0.692535 0.233256
Si Si8 0.363345 0.412650 0.985651
O O1 0.403471 0.500000 0.620703
O O2 0.376248 0.343165 0.573268
O O3 0.529669 0.407925 0.834455
O O4 0.202624 0.415171 0.460951
O O5 0.500000 0.406966 0.500000
O O6 0.574043 0.500000 0.492890
O O7 0.685197 0.360194 0.606036
O O8 0.377929 0.384797 0.259532
O O9 0.560411 0.855561 0.775806
O O10 0.547994 0.000000 0.798080
O O11 0.571728 0.885752 0.901303
O O12 0.862351 0.258009 0.738425
O O13 0.556025 0.232881 0.433279
O O14 0.271533 0.737408 0.093106
O O15 0.166950 0.714791 0.084954
O O16 0.453076 0.355870 0.034859
O O17 0.500000 0.256206 0.000000
O O18 0.806101 0.630782 0.185277
O O19 0.349772 0.500000 0.954483
#
# Coordination Sequence:
#
# PCOD9225235 Si02
#       8
#     8   8   8   8   8   8   8   8
#     4  10  22  37  58  87 123 160 191 238 301 356
#     4  10  21  37  56  80 115 160 204 246 292 343
#     4  11  21  35  54  82 118 153 190 230 289 356
#     4  11  22  38  61  86 123 153 200 249 294 356
#     4  10  21  37  55  82 116 150 200 245 290 340
#     4  11  23  40  64  89 116 158 203 247 298 349
#     4  10  23  35  58  87 114 154 192 238 297 353
#     4  10  23  42  61  88 122 153 195 247 301 361
#
# _framework density 10.313243
#
# number of rings (size 3 to 8) (size 9 to 14) (size 15 to 20)
#    0.000    1.625    1.250    3.000    7.000    1.250 
#    0.000    0.625    0.000    3.750    0.000    0.000 
#    0.000    0.000    0.000    0.000    0.000    0.000 
#
# Total GULP energy -178275.387388 kJ/mol
# GULP energy per Si atom -5571.105856 kJ/mol
# Density = 1.028977 g / cm^3
# Si number density = 10.313243 Si / 1000 Ang^3
#
#
#
# Elastic Constant Matrix: (Units=GPa)
#
#
# Indices 1 2 3 4 5 6 
#
# 1 48.1866 9.6935 -1.7659 0.0038 0.4879 0.0022
# 2 9.6935 137.3159 24.2562 0.0045 7.4781 0.0065
# 3 -1.7659 24.2562 25.0782 -0.0023 15.3153 -0.0019
# 4 0.0038 0.0045 -0.0023 19.9429 -0.0026 -2.6638
# 5 0.4879 7.4781 15.3153 -0.0026 18.2638 0.0017
# 6 0.0022 0.0065 -0.0019 -2.6638 0.0017 22.3331
#
#
#
# Elastic Compliance Matrix: (Units=1/GPa)
#
#
# Indices 1 2 3 4 5 6 
#
# 1 0.021601 -0.002543 0.007578 -0.000004 -0.005890 -0.000001
# 2 -0.002543 0.009574 -0.014526 -0.000003 0.008329 -0.000005
# 3 0.007578 -0.014526 0.104430 0.000006 -0.081826 0.000019
# 4 -0.000004 -0.000003 0.000006 0.050955 0.000003 0.006078
# 5 -0.005890 0.008329 -0.081826 0.000003 0.120117 -0.000018
# 6 -0.000001 -0.000005 0.000019 0.006078 -0.000018 0.045502
#
#
# Mechanical properties :
#
#
# Convention : Reuss Voigt Hill
#
# Bulk Modulus (GPa) = 8.57453 30.54980 19.56216
# Shear Modulus (GPa) = 12.19405 24.00109 18.09757
#
# Velocity S-wave (km/s) = 2.43407 3.41487 2.96530
# Velocity P-wave (km/s) = 3.47356 5.51285 4.60745
#
# Compressibility (1/GPa) = 0.11662449
#
# Stress axis : x y z
#
# Youngs Moduli (GPa) = 46.29309 104.44599 9.57577
#
# Poissons Ratio (x) = 0.26557 -0.07256
# Poissons Ratio (y) = 0.11771 0.13910
# Poissons Ratio (z) = -0.35080 1.51717
#
# Static dielectric constant tensor:
#      x y z
#    x 1.819840 0.000000 0.021330 
#    y 0.000000 1.704350 -0.000010 
#    z 0.021330 -0.000010 1.732420 
# 
# From -- ./inp_files/326143.got.cif
#   From: 2010.05.17/outbox.ucp.g08.bks.cvg/sg12_164_cif.got.tgz:326143.got - 2010.06.11 11:47:21.
