data_PCOD9225024
_publ_section_title
;
Structure prediction by ZEFSAII (Michael W. Deem and Ramdas Pophale) SiO2 
 PCOD9225024
Probable space group: C 2/M
;
_chemical_formula_sum "Si O2"
_cell_formula_units_Z 28
_cell_length_a 18.000000
_cell_length_b 9.000000
_cell_length_c 18.000000
_cell_angle_alpha 90.000000
_cell_angle_beta 70.000000
_cell_angle_gamma 90.000000
_cell_volume 2740.143682
_symmetry_space_group_name_H-M "C 2/M"
_symmetry_group_IT_number 12
_symmetry_cell_setting 'monoclinic'
loop_
_space_group_symop_operation_xyz
x,y,z
-x,y,-z
-x,-y,-z
x,-y,z
1/2+x,1/2+y,z
1/2-x,1/2+y,-z
1/2-x,1/2-y,-z
1/2+x,1/2-y,z
loop_
_atom_site_type_symbol
_atom_site_label
_atom_site_fract_x
_atom_site_fract_y
_atom_site_fract_z
Si Si1 0.690986 0.672948 0.720241
Si Si2 0.711434 0.821917 0.866005
Si Si3 0.884032 0.678933 0.824196
Si Si4 0.073792 0.680401 0.024846
Si Si5 0.157777 0.667992 0.421373
Si Si6 0.519556 0.824272 0.359313
Si Si7 0.857550 0.826253 0.424842
O O1 0.666569 0.500000 0.737902
O O2 0.675899 0.762744 0.800073
O O3 0.783889 0.675252 0.669072
O O4 0.661125 0.735678 0.651458
O O5 0.798119 0.752943 0.846420
O O6 0.716305 0.000000 0.861620
O O7 0.653823 0.778751 0.953556
O O8 0.873523 0.500000 0.829459
O O9 0.922891 0.726094 0.889807
O O10 0.936967 0.711347 0.733502
O O11 0.069702 0.500000 0.026960
O O12 0.000000 0.733156 0.000000
O O13 0.160534 0.500000 0.449177
O O14 0.075063 0.694741 0.411473
O O15 0.177224 0.767106 0.485586
O O16 0.448630 0.714287 0.398155
O O17 0.496409 0.000000 0.364134
O O18 0.839909 0.000000 0.426181
#
# Coordination Sequence:
#
# PCOD9225024 Si02
#       7
#     8   8   8   8   8   8   8
#     4  10  22  41  60  82 117 158 195 234 290 353
#     4  11  22  36  61  92 118 149 195 246 285 333
#     4  10  20  39  64  84 116 161 195 233 286 345
#     4   9  20  37  60  91 121 151 192 237 282 341
#     4  10  20  39  61  81 109 152 205 240 276 351
#     4  10  21  37  60  85 111 156 202 233 279 348
#     4  11  24  37  56  86 120 152 187 245 304 339
#
# _framework density 10.218442
#
# number of rings (size 3 to 8) (size 9 to 14) (size 15 to 20)
#    0.000    1.857    1.429    2.143    2.000    4.571 
#    0.000    0.714    0.000    2.143    0.000    0.000 
#    0.000    0.000    0.000    0.000    0.000    0.000 
#
# Total GULP energy -156137.689283 kJ/mol
# GULP energy per Si atom -5576.346046 kJ/mol
# Density = 1.019518 g / cm^3
# Si number density = 10.218442 Si / 1000 Ang^3
#
#
#
# Elastic Constant Matrix: (Units=GPa)
#
#
# Indices 1 2 3 4 5 6 
#
# 1 56.0888 25.1530 16.8105 0.0000 7.5584 0.0000
# 2 25.1530 -37.6010 20.5309 0.0000 37.6041 0.0000
# 3 16.8105 20.5309 118.3562 0.0000 24.3280 0.0000
# 4 0.0000 0.0000 0.0000 19.1320 0.0000 11.9899
# 5 7.5584 37.6041 24.3280 0.0000 20.3212 0.0000
# 6 0.0000 0.0000 0.0000 11.9899 0.0000 2.0503
#
#
#
# Elastic Compliance Matrix: (Units=1/GPa)
#
#
# Indices 1 2 3 4 5 6 
#
# 1 0.018466 0.002155 -0.001015 0.000000 -0.009642 0.000000
# 2 0.002155 -0.008527 -0.002528 0.000000 0.018004 0.000000
# 3 -0.001015 -0.002528 0.010601 0.000000 -0.007637 0.000000
# 4 0.000000 0.000000 0.000000 -0.019614 0.000000 0.114701
# 5 -0.009642 0.018004 -0.007637 0.000000 0.028622 0.000000
# 6 0.000000 0.000000 0.000000 0.114701 0.000000 -0.183026
#
#
# Mechanical properties :
#
#
# Convention : Reuss Voigt Hill
#
# Bulk Modulus (GPa) = 56.28778 29.09253 42.69015
# Shear Modulus (GPa) = -34.53450 13.25733 -10.63858
#
# Velocity S-wave (km/s) = -4.11519 2.54972 -2.28405
# Velocity P-wave (km/s) = 2.24105 4.78897 3.73875
#
# Compressibility (1/GPa) = 0.01776585
#
# Stress axis : x y z
#
# Youngs Moduli (GPa) = 54.15436 -117.26822 94.32698
#
# Poissons Ratio (x) = 0.25277 0.09571
# Poissons Ratio (y) = -0.11673 0.23843
# Poissons Ratio (z) = 0.05495 -0.29642
#
# Static dielectric constant tensor:
#      x y z
#    x 1.852050 0.000000 -0.010440 
#    y 0.000000 1.710280 0.000000 
#    z -0.010440 0.000000 1.710500 
# 
# From -- ./inp_files/275122.got.cif
#   From: 2010.05.17/outbox.ucp.g08.bks.cvg/sg12_138_cif.got.tgz:275122.got - 2010.06.11 11:47:21.
