data_PCOD9225102
_publ_section_title
;
Structure prediction by ZEFSAII (Michael W. Deem and Ramdas Pophale) SiO2 
 PCOD9225102
Probable space group: C 2/M
;
_chemical_formula_sum "Si O2"
_cell_formula_units_Z 24
_cell_length_a 18.000000
_cell_length_b 9.000000
_cell_length_c 15.000000
_cell_angle_alpha 90.000000
_cell_angle_beta 90.000000
_cell_angle_gamma 90.000000
_cell_volume 2430.000000
_symmetry_space_group_name_H-M "C 2/M"
_symmetry_group_IT_number 12
_symmetry_cell_setting 'monoclinic'
loop_
_space_group_symop_operation_xyz
x,y,z
-x,y,-z
-x,-y,-z
x,-y,z
1/2+x,1/2+y,z
1/2-x,1/2+y,-z
1/2-x,1/2-y,-z
1/2+x,1/2-y,z
loop_
_atom_site_type_symbol
_atom_site_label
_atom_site_fract_x
_atom_site_fract_y
_atom_site_fract_z
Si Si1 0.776040 0.327588 0.591187
Si Si2 0.949056 0.666374 0.913768
Si Si3 0.953918 0.669965 0.590903
Si Si4 0.817869 0.678554 0.252188
Si Si5 0.821866 0.679943 0.040251
Si Si6 0.473214 0.325731 0.252539
O O1 0.751664 0.500000 0.593471
O O2 0.750000 0.250000 0.500000
O O3 0.865200 0.325852 0.583348
O O4 0.743168 0.249497 0.680892
O O5 0.931732 0.500000 0.877679
O O6 0.990129 0.757388 0.836976
O O7 0.880492 0.737724 0.966017
O O8 0.000000 0.647022 0.000000
O O9 0.973904 0.500000 0.619398
O O10 0.000000 0.697678 0.500000
O O11 0.973411 0.789461 0.665573
O O12 0.813434 0.500000 0.259078
O O13 0.819817 0.717717 0.145813
O O14 0.898048 0.740626 0.279664
O O15 0.827622 0.500000 0.037076
O O16 0.750000 0.750000 0.000000
O O17 0.459687 0.500000 0.240461
#
# Coordination Sequence:
#
# PCOD9225102 Si02
#       6
#     8   8   8   8   8   8
#     4  11  24  42  67  98 128 164 207 255 311 373
#     4  10  20  41  65  87 120 168 215 253 307 372
#     4  10  23  44  68  93 124 165 207 250 308 376
#     4  11  23  43  65  89 126 171 212 256 314 375
#     4  10  23  40  62  89 123 167 210 258 311 368
#     4  12  25  39  63  97 128 162 208 264 315 366
#
# _framework density 9.8765429999999999
#
# number of rings (size 3 to 8) (size 9 to 14) (size 15 to 20)
#    0.000    1.333    1.667    3.500    2.333    5.333 
#    0.000    0.000    0.000    0.000    0.000    0.000 
#    0.000    0.000    0.000    0.000    0.000    0.000 
#
# Total GULP energy -133724.944574 kJ/mol
# GULP energy per Si atom -5571.872691 kJ/mol
# Density = 0.985406 g / cm^3
# Si number density = 9.876543 Si / 1000 Ang^3
#
#
#
# Elastic Constant Matrix: (Units=GPa)
#
#
# Indices 1 2 3 4 5 6 
#
# 1 103.7378 24.5140 26.1546 0.0000 -31.6900 0.0000
# 2 24.5140 76.5451 42.6994 0.0000 -13.6513 0.0000
# 3 26.1546 42.6994 85.4433 0.0000 -35.1182 0.0000
# 4 0.0000 0.0000 0.0000 8.6384 0.0000 -4.2250
# 5 -31.6900 -13.6513 -35.1182 0.0000 46.3163 0.0000
# 6 0.0000 0.0000 0.0000 -4.2250 0.0000 31.9903
#
#
#
# Elastic Compliance Matrix: (Units=1/GPa)
#
#
# Indices 1 2 3 4 5 6 
#
# 1 0.012756 -0.003264 0.001334 0.000000 0.008777 0.000000
# 2 -0.003264 0.019107 -0.010391 0.000000 -0.004480 0.000000
# 3 0.001334 -0.010391 0.022669 0.000000 0.015038 0.000000
# 4 0.000000 0.000000 0.000000 0.123757 0.000000 0.016345
# 5 0.008777 -0.004480 0.015038 0.000000 0.037678 0.000000
# 6 0.000000 0.000000 0.000000 0.016345 0.000000 0.033418
#
#
# Mechanical properties :
#
#
# Convention : Reuss Voigt Hill
#
# Bulk Modulus (GPa) = 33.45572 50.27358 41.86465
# Shear Modulus (GPa) = 17.60630 28.87954 23.24292
#
# Velocity S-wave (km/s) = 2.98874 3.82779 3.43399
# Velocity P-wave (km/s) = 5.37436 6.71135 6.07972
#
# Compressibility (1/GPa) = 0.02989025
#
# Stress axis : x y z
#
# Youngs Moduli (GPa) = 78.39493 52.33745 44.11334
#
# Poissons Ratio (x) = 0.17083 -0.05885
# Poissons Ratio (y) = 0.25588 0.45837
# Poissons Ratio (z) = -0.10458 0.54382
#
# Static dielectric constant tensor:
#      x y z
#    x 1.609080 0.000000 0.021810 
#    y 0.000000 1.713640 0.000000 
#    z 0.021810 0.000000 1.608620 
# 
# From -- ./inp_files/221694.got.cif
#   From: 2010.05.17/outbox.ucp.g08.bks.cvg/sg12_111_cif.got.tgz:221694.got - 2010.06.11 11:47:21.
