data_PCOD9225256
_publ_section_title
;
Structure prediction by ZEFSAII (Michael W. Deem and Ramdas Pophale) SiO2 
 PCOD9225256
Probable space group: C 2/M
;
_chemical_formula_sum "Si O2"
_cell_formula_units_Z 24
_cell_length_a 18.000000
_cell_length_b 18.000000
_cell_length_c 24.000000
_cell_angle_alpha 90.000000
_cell_angle_beta 160.000000
_cell_angle_gamma 90.000000
_cell_volume 2659.548635
_symmetry_space_group_name_H-M "C 2/M"
_symmetry_group_IT_number 12
_symmetry_cell_setting 'monoclinic'
loop_
_space_group_symop_operation_xyz
x,y,z
-x,y,-z
-x,-y,-z
x,-y,z
1/2+x,1/2+y,z
1/2-x,1/2+y,-z
1/2-x,1/2-y,-z
1/2+x,1/2-y,z
loop_
_atom_site_type_symbol
_atom_site_label
_atom_site_fract_x
_atom_site_fract_y
_atom_site_fract_z
Si Si1 0.020071 0.912084 0.249034
Si Si2 0.189183 0.190730 0.676214
Si Si3 0.603292 0.803673 0.474120
Si Si4 0.864362 0.670723 0.077037
Si Si5 0.944803 0.084088 0.323952
Si Si6 0.621254 0.155236 0.363052
O O1 0.231797 0.863164 0.382681
O O2 0.954076 0.891799 0.266230
O O3 0.064225 0.000000 0.278014
O O4 0.808790 0.888018 0.066857
O O5 0.418843 0.182901 0.807477
O O6 0.185346 0.138602 0.727785
O O7 0.000000 0.165000 0.500000
O O8 0.099001 0.271373 0.633395
O O9 0.543552 0.836742 0.371641
O O10 0.750159 0.730918 0.563589
O O11 0.933547 0.646588 0.187073
O O12 0.750000 0.750000 0.000000
O O13 0.199164 0.091707 0.518384
O O14 0.867365 0.000000 0.273990
#
# Coordination Sequence:
#
# PCOD9225256 Si02
#       6
#     8   8   8   8   8   8
#     4  10  21  37  57  83 116 148 178 225 285 335
#     4  11  20  34  55  82 108 148 189 231 261 317
#     4   9  17  36  58  76 105 143 198 224 260 322
#     4  12  22  35  53  82 114 144 180 231 284 328
#     4   9  19  35  54  80 113 148 182 216 267 336
#     4   9  17  33  56  76 105 148 182 225 262 327
#
# _framework density 9.0240880000000008
#
# number of rings (size 3 to 8) (size 9 to 14) (size 15 to 20)
#    0.000    2.000    5.000    1.000    0.000    2.333 
#    0.000    1.667    0.000    4.500    0.000    0.000 
#    0.000   10.667    0.000    0.000    0.000    0.000 
#
# Total GULP energy -133713.214638 kJ/mol
# GULP energy per Si atom -5571.383943 kJ/mol
# Density = 0.900355 g / cm^3
# Si number density = 9.024088 Si / 1000 Ang^3
#
#
#
# Elastic Constant Matrix: (Units=GPa)
#
#
# Indices 1 2 3 4 5 6 
#
# 1 44.7764 18.0984 26.2783 0.0066 -6.1893 -0.0080
# 2 18.0984 35.5451 6.3261 -0.0688 8.1071 0.0416
# 3 26.2783 6.3261 79.8297 -0.1027 -17.3855 -0.0466
# 4 0.0066 -0.0688 -0.1027 21.1148 -0.0093 0.1614
# 5 -6.1893 8.1071 -17.3855 -0.0093 23.7498 -0.0139
# 6 -0.0080 0.0416 -0.0466 0.1614 -0.0139 10.2795
#
#
#
# Elastic Compliance Matrix: (Units=1/GPa)
#
#
# Indices 1 2 3 4 5 6 
#
# 1 0.036389 -0.019349 -0.008258 -0.000111 0.010043 0.000085
# 2 -0.019349 0.043036 -0.001592 0.000131 -0.020899 -0.000227
# 3 -0.008258 -0.001592 0.017870 0.000089 0.011473 0.000095
# 4 -0.000111 0.000131 0.000089 0.047367 0.000009 -0.000744
# 5 0.010043 -0.020899 0.011473 0.000009 0.060255 0.000226
# 6 0.000085 -0.000227 0.000095 -0.000744 0.000226 0.097295
#
#
# Mechanical properties :
#
#
# Convention : Reuss Voigt Hill
#
# Bulk Modulus (GPa) = 25.71001 29.06188 27.38595
# Shear Modulus (GPa) = 13.38419 18.32537 15.85478
#
# Velocity S-wave (km/s) = 2.72615 3.18993 2.96711
# Velocity P-wave (km/s) = 4.91786 5.45022 5.19087
#
# Compressibility (1/GPa) = 0.03889535
#
# Stress axis : x y z
#
# Youngs Moduli (GPa) = 27.48105 23.23658 55.95979
#
# Poissons Ratio (x) = 0.44961 0.46212
# Poissons Ratio (y) = 0.53173 0.08911
# Poissons Ratio (z) = 0.22694 0.03700
#
# Static dielectric constant tensor:
#      x y z
#    x 1.641120 0.000020 -0.041370 
#    y 0.000020 1.639740 0.000030 
#    z -0.041370 0.000030 1.652270 
# 
# From -- ./inp_files/75097.got.cif
#   From: 2010.05.17/outbox.ucp.g08.bks.cvg/sg12_38_cif.got.tgz:75097.got - 2010.06.11 11:47:21.
