data_PCOD9225164
_publ_section_title
;
Structure prediction by ZEFSAII (Michael W. Deem and Ramdas Pophale) SiO2 
 PCOD9225164
Probable space group: C 2/M
;
_chemical_formula_sum "Si O2"
_cell_formula_units_Z 32
_cell_length_a 15.000000
_cell_length_b 27.000000
_cell_length_c 9.000000
_cell_angle_alpha 90.000000
_cell_angle_beta 70.000000
_cell_angle_gamma 90.000000
_cell_volume 3425.179603
_symmetry_space_group_name_H-M "C 2/M"
_symmetry_group_IT_number 12
_symmetry_cell_setting 'monoclinic'
loop_
_space_group_symop_operation_xyz
x,y,z
-x,y,-z
-x,-y,-z
x,-y,z
1/2+x,1/2+y,z
1/2-x,1/2+y,-z
1/2-x,1/2-y,-z
1/2+x,1/2-y,z
loop_
_atom_site_type_symbol
_atom_site_label
_atom_site_fract_x
_atom_site_fract_y
_atom_site_fract_z
Si Si1 0.687195 0.140215 0.976719
Si Si2 0.099137 0.246437 0.372149
Si Si3 0.910151 0.732623 0.968268
Si Si4 0.853709 0.107805 0.299719
Si Si5 0.257968 0.556475 0.099494
Si Si6 0.840965 0.866021 0.637574
Si Si7 0.554284 0.558448 0.211111
Si Si8 0.776412 0.199268 0.203403
O O1 0.594595 0.173416 0.023249
O O2 0.747524 0.138357 0.792317
O O3 0.682078 0.085593 0.044517
O O4 0.746220 0.169000 0.073039
O O5 0.119924 0.189733 0.403387
O O6 0.186502 0.284014 0.353049
O O7 0.000000 0.262242 0.500000
O O8 0.092070 0.248524 0.197562
O O9 0.821178 0.751053 0.113698
O O10 0.000000 0.753276 0.000000
O O11 0.773736 0.080649 0.249793
O O12 0.827146 0.109955 0.486029
O O13 0.850959 0.164519 0.244417
O O14 0.952846 0.079561 0.218217
O O15 0.234015 0.500000 0.126041
O O16 0.360456 0.561248 0.957543
O O17 0.912383 0.903078 0.681859
O O18 0.545805 0.500000 0.257870
#
# Coordination Sequence:
#
# PCOD9225164 Si02
#       8
#     8   8   8   8   8   8   8   8
#     4   9  18  39  55  72 109 141 184 220 267 326
#     4  11  22  38  54  78 112 144 187 228 276 321
#     4  11  22  35  58  79 104 150 187 224 264 321
#     4  11  22  30  49  76 108 137 179 223 267 312
#     4   9  19  35  57  75  99 143 184 223 271 331
#     4  11  21  34  51  74 110 149 178 227 274 316
#     4  10  21  36  51  73 108 148 185 223 272 332
#     4  10  21  38  55  75 107 155 185 221 265 325
#
# _framework density 9.3425759999999993
#
# number of rings (size 3 to 8) (size 9 to 14) (size 15 to 20)
#    0.000    1.750    2.500    2.625    3.500    4.000 
#    0.000    0.000    0.000    0.375    0.000    0.000 
#    0.000   51.000    0.000    0.000    0.000    0.000 
#
# Total GULP energy -178324.806835 kJ/mol
# GULP energy per Si atom -5572.650214 kJ/mol
# Density = 0.932131 g / cm^3
# Si number density = 9.342576 Si / 1000 Ang^3
#
#
#
# Elastic Constant Matrix: (Units=GPa)
#
#
# Indices 1 2 3 4 5 6 
#
# 1 23.4743 11.9996 4.8822 0.0000 -2.2952 0.0000
# 2 11.9996 98.2949 16.2083 0.0000 -0.7550 0.0000
# 3 4.8822 16.2083 42.9098 0.0000 -5.9298 0.0000
# 4 0.0000 0.0000 0.0000 29.5422 0.0000 -0.5770
# 5 -2.2952 -0.7550 -5.9298 0.0000 18.9704 0.0000
# 6 0.0000 0.0000 0.0000 -0.5770 0.0000 22.9786
#
#
#
# Elastic Compliance Matrix: (Units=1/GPa)
#
#
# Indices 1 2 3 4 5 6 
#
# 1 0.046244 -0.005168 -0.002680 0.000000 0.004552 0.000000
# 2 -0.005168 0.011441 -0.003927 0.000000 -0.001397 0.000000
# 3 -0.002680 -0.003927 0.026156 0.000000 0.007695 0.000000
# 4 0.000000 0.000000 0.000000 0.033866 0.000000 0.000850
# 5 0.004552 -0.001397 0.007695 0.000000 0.055614 0.000000
# 6 0.000000 0.000000 0.000000 0.000850 0.000000 0.043540
#
#
# Mechanical properties :
#
#
# Convention : Reuss Voigt Hill
#
# Bulk Modulus (GPa) = 16.58627 25.65101 21.11864
# Shear Modulus (GPa) = 19.19310 23.07085 21.13198
#
# Velocity S-wave (km/s) = 3.20845 3.51766 3.36661
# Velocity P-wave (km/s) = 4.75621 5.50059 5.14188
#
# Compressibility (1/GPa) = 0.06029082
#
# Stress axis : x y z
#
# Youngs Moduli (GPa) = 21.62433 87.40351 38.23163
#
# Poissons Ratio (x) = 0.45174 0.10247
# Poissons Ratio (y) = 0.11176 0.15013
# Poissons Ratio (z) = 0.05796 0.34321
#
# Static dielectric constant tensor:
#      x y z
#    x 1.686760 0.000000 0.025150 
#    y 0.000000 1.667260 0.000000 
#    z 0.025150 0.000000 1.640690 
# 
# From -- ./inp_files/66907.got.cif
#   From: 2010.05.17/outbox.ucp.g08.bks.cvg/sg12_34_cif.got.tgz:66907.got - 2010.06.11 11:47:21.
