data_PCOD9225550
_publ_section_title
;
Structure prediction by ZEFSAII (Michael W. Deem and Ramdas Pophale) SiO2 
 PCOD9225550
Probable space group: C 2/M
;
_chemical_formula_sum "Si O2"
_cell_formula_units_Z 32
_cell_length_a 18.000000
_cell_length_b 9.000000
_cell_length_c 30.000000
_cell_angle_alpha 90.000000
_cell_angle_beta 40.000000
_cell_angle_gamma 90.000000
_cell_volume 3123.947783
_symmetry_space_group_name_H-M "C 2/M"
_symmetry_group_IT_number 12
_symmetry_cell_setting 'monoclinic'
loop_
_space_group_symop_operation_xyz
x,y,z
-x,y,-z
-x,-y,-z
x,-y,z
1/2+x,1/2+y,z
1/2-x,1/2+y,-z
1/2-x,1/2-y,-z
1/2+x,1/2-y,z
loop_
_atom_site_type_symbol
_atom_site_label
_atom_site_fract_x
_atom_site_fract_y
_atom_site_fract_z
Si Si1 0.786052 0.323830 0.936969
Si Si2 0.373973 0.676064 0.569441
Si Si3 0.726068 0.175798 0.297308
Si Si4 0.300212 0.176386 0.432504
Si Si5 0.496748 0.671383 0.287388
Si Si6 0.717132 0.176419 0.205613
Si Si7 0.519834 0.330338 0.805586
Si Si8 0.635816 0.827403 0.929204
O O1 0.775239 0.500000 0.944401
O O2 0.917029 0.277131 0.865471
O O3 0.703838 0.260182 0.936141
O O4 0.750000 0.250000 0.000000
O O5 0.500000 0.738365 0.500000
O O6 0.384737 0.500000 0.571788
O O7 0.322553 0.743163 0.637829
O O8 0.291625 0.697844 0.565058
O O9 0.672410 0.221338 0.275095
O O10 0.861022 0.202113 0.224857
O O11 0.711203 0.000000 0.310968
O O12 0.250000 0.250000 0.500000
O O13 0.415011 0.255884 0.361635
O O14 0.319434 0.000000 0.429954
O O15 0.524284 0.500000 0.285467
O O16 0.610232 0.767789 0.225821
O O17 0.439946 0.673034 0.264560
O O18 0.827614 0.257197 0.134691
O O19 0.733041 0.000000 0.197228
O O20 0.481317 0.500000 0.832302
O O21 0.671195 0.000000 0.914042
O O22 0.500000 0.817404 0.000000
#
# Coordination Sequence:
#
# PCOD9225550 Si02
#       8
#     8   8   8   8   8   8   8   8
#     4  12  26  43  67  96 129 168 213 262 317 378
#     4  10  23  42  62  89 124 163 205 253 308 369
#     4  10  23  42  64  93 124 162 207 255 309 370
#     4  11  24  41  63  92 127 164 210 260 312 377
#     4  11  22  40  67  91 123 165 208 261 316 370
#     4  11  24  41  64  96 128 164 210 257 314 376
#     4  10  21  41  66  92 125 163 209 260 313 372
#     4  11  25  45  66  93 129 169 214 262 317 379
#
# _framework density 10.243449
#
# number of rings (size 3 to 8) (size 9 to 14) (size 15 to 20)
#    0.000    1.250    2.500    2.625    3.500    3.750 
#    0.000    0.000    0.000    0.000    0.000    0.000 
#    0.000    0.000    0.000    0.000    0.000    0.000 
#
# Total GULP energy -178646.193983 kJ/mol
# GULP energy per Si atom -5582.693562 kJ/mol
# Density = 1.022013 g / cm^3
# Si number density = 10.243449 Si / 1000 Ang^3
#
#
#
# Elastic Constant Matrix: (Units=GPa)
#
#
# Indices 1 2 3 4 5 6 
#
# 1 37.6497 44.0993 24.5193 -0.0005 22.7040 0.0005
# 2 44.0993 110.6230 75.0609 -0.0021 15.2594 0.0014
# 3 24.5193 75.0609 128.2726 -0.0004 31.1853 0.0001
# 4 -0.0005 -0.0021 -0.0004 34.8516 0.0003 12.3625
# 5 22.7040 15.2594 31.1853 0.0003 19.2983 -0.0001
# 6 0.0005 0.0014 0.0001 12.3625 -0.0001 7.9626
#
#
#
# Elastic Compliance Matrix: (Units=1/GPa)
#
#
# Indices 1 2 3 4 5 6 
#
# 1 -0.117393 0.060574 -0.057547 -0.000001 0.183209 0.000002
# 2 0.060574 -0.016090 0.019879 0.000004 -0.090665 -0.000009
# 3 -0.057547 0.019879 -0.009017 -0.000002 0.066557 0.000004
# 4 -0.000001 0.000004 -0.000002 0.063865 -0.000001 -0.099154
# 5 0.183209 -0.090665 0.066557 -0.000001 -0.199587 0.000002
# 6 0.000002 -0.000009 0.000004 -0.099154 0.000002 0.279531
#
#
# Mechanical properties :
#
#
# Convention : Reuss Voigt Hill
#
# Bulk Modulus (GPa) = -10.34232 62.65603 26.15685
# Shear Modulus (GPa) = -65.16196 21.28022 -21.94087
#
# Velocity S-wave (km/s) = -5.64586 3.22642 -3.27612
# Velocity P-wave (km/s) = 6.89639 6.67305 1.23097
#
# Compressibility (1/GPa) = -0.09669006
#
# Stress axis : x y z
#
# Youngs Moduli (GPa) = -8.51838 -62.15197 -110.89680
#
# Poissons Ratio (x) = 3.76478 -6.38182
# Poissons Ratio (y) = 0.51599 2.20448
# Poissons Ratio (z) = -0.49021 1.23550
#
# Static dielectric constant tensor:
#      x y z
#    x 1.721670 0.000000 -0.010580 
#    y 0.000000 1.643490 0.000000 
#    z -0.010580 0.000000 1.699670 
# 
# From -- ./inp_files/378008.got.cif
#   From: 2010.05.17/outbox.ucp.g08.bks.cvg/sg12_190_cif.got.tgz:378008.got - 2010.06.11 11:47:21.
