data_PCOD9225096
_publ_section_title
;
Structure prediction by ZEFSAII (Michael W. Deem and Ramdas Pophale) SiO2 
 PCOD9225096
Probable space group: C 2/M
;
_chemical_formula_sum "Si O2"
_cell_formula_units_Z 24
_cell_length_a 30.000000
_cell_length_b 18.000000
_cell_length_c 9.000000
_cell_angle_alpha 90.000000
_cell_angle_beta 30.000000
_cell_angle_gamma 90.000000
_cell_volume 2430.000000
_symmetry_space_group_name_H-M "C 2/M"
_symmetry_group_IT_number 12
_symmetry_cell_setting 'monoclinic'
loop_
_space_group_symop_operation_xyz
x,y,z
-x,y,-z
-x,-y,-z
x,-y,z
1/2+x,1/2+y,z
1/2-x,1/2+y,-z
1/2-x,1/2-y,-z
1/2+x,1/2-y,z
loop_
_atom_site_type_symbol
_atom_site_label
_atom_site_fract_x
_atom_site_fract_y
_atom_site_fract_z
Si Si1 0.805585 0.343429 0.671435
Si Si2 0.978623 0.851792 0.730789
Si Si3 0.436616 0.810778 0.556212
Si Si4 0.253547 0.184814 0.262376
Si Si5 0.659163 0.412487 0.306991
Si Si6 0.275196 0.410339 0.375097
O O1 0.891220 0.346621 0.537205
O O2 0.801151 0.260568 0.612777
O O3 0.788716 0.399940 0.584510
O O4 0.716694 0.361885 0.026062
O O5 0.000000 0.874230 0.500000
O O6 0.007560 0.763733 0.652034
O O7 0.054613 0.893508 0.605583
O O8 0.877064 0.877843 0.055820
O O9 0.500000 0.849538 0.500000
O O10 0.347101 0.796994 0.911724
O O11 0.201666 0.116164 0.336086
O O12 0.264540 0.150253 0.393499
O O13 0.673274 0.500000 0.238918
O O14 0.279236 0.500000 0.398861
#
# Coordination Sequence:
#
# PCOD9225096 Si02
#       6
#     8   8   8   8   8   8
#     4  11  20  39  64  89 126 174 223 260 306 388
#     4  11  20  37  61  96 134 163 210 251 316 396
#     4  10  20  40  68  94 118 164 225 273 304 366
#     4  11  22  42  60  91 132 175 216 260 318 383
#     4  11  20  35  62  91 129 172 209 261 316 385
#     4  12  26  40  63  99 138 173 204 264 338 390
#
# _framework density 9.8765429999999999
#
# number of rings (size 3 to 8) (size 9 to 14) (size 15 to 20)
#    0.000    1.000    5.000    4.000    0.000    1.333 
#    0.000    4.167    0.000   19.000    0.000    0.000 
#    0.000    0.000    0.000    0.000    0.000    0.000 
#
# Total GULP energy -133612.362466 kJ/mol
# GULP energy per Si atom -5567.181769 kJ/mol
# Density = 0.985406 g / cm^3
# Si number density = 9.876543 Si / 1000 Ang^3
#
#
#
# Elastic Constant Matrix: (Units=GPa)
#
#
# Indices 1 2 3 4 5 6 
#
# 1 132.8064 24.7721 9.9235 0.0000 -18.3164 0.0000
# 2 24.7721 102.2386 27.2406 0.0000 -7.1140 0.0000
# 3 9.9235 27.2406 16.9749 0.0000 -7.5362 0.0000
# 4 0.0000 0.0000 0.0000 26.1720 0.0000 -1.4739
# 5 -18.3164 -7.1140 -7.5362 0.0000 34.8794 0.0000
# 6 0.0000 0.0000 0.0000 -1.4739 0.0000 35.0538
#
#
#
# Elastic Compliance Matrix: (Units=1/GPa)
#
#
# Indices 1 2 3 4 5 6 
#
# 1 0.008421 -0.001611 -0.000576 0.000000 0.003969 0.000000
# 2 -0.001611 0.017628 -0.028898 0.000000 -0.003494 0.000000
# 3 -0.000576 -0.028898 0.113786 0.000000 0.018389 0.000000
# 4 0.000000 0.000000 0.000000 0.038299 0.000000 0.001610
# 5 0.003969 -0.003494 0.018389 0.000000 0.034015 0.000000
# 6 0.000000 0.000000 0.000000 0.001610 0.000000 0.028595
#
#
# Mechanical properties :
#
#
# Convention : Reuss Voigt Hill
#
# Bulk Modulus (GPa) = 12.87586 41.76583 27.32085
# Shear Modulus (GPa) = 15.20675 31.89330 23.55002
#
# Velocity S-wave (km/s) = 2.77761 4.02257 3.45660
# Velocity P-wave (km/s) = 4.10115 6.53946 5.45820
#
# Compressibility (1/GPa) = 0.07766471
#
# Stress axis : x y z
#
# Youngs Moduli (GPa) = 118.75611 56.72839 8.78845
#
# Poissons Ratio (x) = 0.09137 0.00506
# Poissons Ratio (y) = 0.19128 0.25397
# Poissons Ratio (z) = 0.06838 1.63935
#
# Static dielectric constant tensor:
#      x y z
#    x 1.809660 0.000000 0.038970 
#    y 0.000000 1.678060 0.000000 
#    z 0.038970 0.000000 1.698160 
# 
# From -- ./inp_files/112741.got.cif
#   From: 2010.05.17/outbox.ucp.g08.bks.cvg/sg12_57_cif.got.tgz:112741.got - 2010.06.11 11:47:21.
