data_PCOD9225002
_publ_section_title
;
Structure prediction by ZEFSAII (Michael W. Deem and Ramdas Pophale) SiO2 
 PCOD9225002
Probable space group: C 2/M
;
_chemical_formula_sum "Si O2"
_cell_formula_units_Z 24
_cell_length_a 27.000000
_cell_length_b 9.000000
_cell_length_c 15.000000
_cell_angle_alpha 90.000000
_cell_angle_beta 140.000000
_cell_angle_gamma 90.000000
_cell_volume 2342.960837
_symmetry_space_group_name_H-M "C 2/M"
_symmetry_group_IT_number 12
_symmetry_cell_setting 'monoclinic'
loop_
_space_group_symop_operation_xyz
x,y,z
-x,y,-z
-x,-y,-z
x,-y,z
1/2+x,1/2+y,z
1/2-x,1/2+y,-z
1/2-x,1/2-y,-z
1/2+x,1/2-y,z
loop_
_atom_site_type_symbol
_atom_site_label
_atom_site_fract_x
_atom_site_fract_y
_atom_site_fract_z
Si Si1 0.275511 0.829267 0.124618
Si Si2 0.412044 0.670094 0.906333
Si Si3 0.544126 0.823039 0.345503
Si Si4 0.167794 0.677470 0.364175
Si Si5 0.599588 0.673393 0.920048
Si Si6 0.085641 0.177083 0.581354
O O1 0.344923 0.741642 0.264795
O O2 0.298778 0.000000 0.143638
O O3 0.250000 0.750000 0.000000
O O4 0.191802 0.826777 0.054420
O O5 0.381714 0.500000 0.872029
O O6 0.359737 0.762425 0.768635
O O7 0.500000 0.658016 0.000000
O O8 0.420455 0.743639 0.013525
O O9 0.597685 0.781454 0.334824
O O10 0.456780 0.758706 0.224604
O O11 0.588311 0.754559 0.489845
O O12 0.540277 0.000000 0.345791
O O13 0.175609 0.500000 0.376704
O O14 0.250000 0.750000 0.500000
O O15 0.576605 0.500000 0.879568
O O16 0.000000 0.209626 0.500000
O O17 0.093353 0.000000 0.585895
#
# Coordination Sequence:
#
# PCOD9225002 Si02
#       6
#     8   8   8   8   8   8
#     4  11  24  42  65  94 127 160 202 253 305 365
#     4  10  20  38  64  90 120 162 206 249 303 361
#     4  11  24  41  63  92 125 162 206 255 307 365
#     4  11  25  41  60  89 126 165 208 257 306 361
#     4  10  22  40  63  91 124 161 202 252 306 364
#     4  11  25  44  66  92 124 162 205 253 308 368
#
# _framework density 10.243449
#
# number of rings (size 3 to 8) (size 9 to 14) (size 15 to 20)
#    0.000    1.333    1.667    3.000    2.333    9.667 
#    0.000    0.000    0.000    0.000    0.000    0.000 
#    0.000    0.000    0.000    0.000    0.000    0.000 
#
# Total GULP energy -133758.193827 kJ/mol
# GULP energy per Si atom -5573.258076 kJ/mol
# Density = 1.022013 g / cm^3
# Si number density = 10.243449 Si / 1000 Ang^3
#
#
#
# Elastic Constant Matrix: (Units=GPa)
#
#
# Indices 1 2 3 4 5 6 
#
# 1 35.6653 23.4152 24.3444 0.0000 -0.5461 0.0000
# 2 23.4152 48.6972 39.1128 0.0000 12.9614 0.0000
# 3 24.3444 39.1128 152.5428 0.0000 11.7454 0.0000
# 4 0.0000 0.0000 0.0000 34.1205 0.0000 1.7693
# 5 -0.5461 12.9614 11.7454 0.0000 25.8874 0.0000
# 6 0.0000 0.0000 0.0000 1.7693 0.0000 20.2470
#
#
#
# Elastic Compliance Matrix: (Units=1/GPa)
#
#
# Indices 1 2 3 4 5 6 
#
# 1 0.045316 -0.023682 -0.002224 0.000000 0.013822 0.000000
# 2 -0.023682 0.041190 -0.005342 0.000000 -0.018699 0.000000
# 3 -0.002224 -0.005342 0.008370 0.000000 -0.001170 0.000000
# 4 0.000000 0.000000 0.000000 0.029441 0.000000 -0.002573
# 5 0.013822 -0.018699 -0.001170 0.000000 0.048813 0.000000
# 6 0.000000 0.000000 0.000000 -0.002573 0.000000 0.049615
#
#
# Mechanical properties :
#
#
# Convention : Reuss Voigt Hill
#
# Bulk Modulus (GPa) = 30.88352 45.62778 38.25565
# Shear Modulus (GPa) = 16.88988 26.05317 21.47153
#
# Velocity S-wave (km/s) = 2.87439 3.56996 3.24089
# Velocity P-wave (km/s) = 5.11113 6.27000 5.71999
#
# Compressibility (1/GPa) = 0.03237972
#
# Stress axis : x y z
#
# Youngs Moduli (GPa) = 22.06725 24.27787 119.46995
#
# Poissons Ratio (x) = 0.57495 0.26571
# Poissons Ratio (y) = 0.52260 0.63822
# Poissons Ratio (z) = 0.04908 0.12969
#
# Static dielectric constant tensor:
#      x y z
#    x 1.786100 0.000000 -0.038400 
#    y 0.000000 1.752540 0.000000 
#    z -0.038400 0.000000 1.781730 
# 
# From -- ./inp_files/244892.got.cif
#   From: 2010.05.17/outbox.ucp.g08.bks.cvg/sg12_123_cif.got.tgz:244892.got - 2010.06.11 11:47:21.
