data_PCOD9225648
_publ_section_title
;
Structure prediction by ZEFSAII (Michael W. Deem and Ramdas Pophale) SiO2 
 PCOD9225648
Probable space group: C 2/M
;
_chemical_formula_sum "Si O2"
_cell_formula_units_Z 24
_cell_length_a 21.000000
_cell_length_b 9.000000
_cell_length_c 18.000000
_cell_angle_alpha 90.000000
_cell_angle_beta 50.000000
_cell_angle_gamma 90.000000
_cell_volume 2606.083195
_symmetry_space_group_name_H-M "C 2/M"
_symmetry_group_IT_number 12
_symmetry_cell_setting 'monoclinic'
loop_
_space_group_symop_operation_xyz
x,y,z
-x,y,-z
-x,-y,-z
x,-y,z
1/2+x,1/2+y,z
1/2-x,1/2+y,-z
1/2-x,1/2-y,-z
1/2+x,1/2-y,z
loop_
_atom_site_type_symbol
_atom_site_label
_atom_site_fract_x
_atom_site_fract_y
_atom_site_fract_z
Si Si1 0.341208 0.177985 0.936052
Si Si2 0.464646 0.173344 0.442781
Si Si3 0.729329 0.822884 0.758416
Si Si4 0.285745 0.320058 0.550003
Si Si5 0.613932 0.675955 0.251091
Si Si6 0.091337 0.822743 0.964188
O O1 0.378610 0.230757 0.829892
O O2 0.336385 0.000000 0.944907
O O3 0.250000 0.250000 0.000000
O O4 0.388422 0.241810 0.972974
O O5 0.500000 0.175650 0.500000
O O6 0.374194 0.243992 0.500763
O O7 0.527227 0.276282 0.350685
O O8 0.464561 0.000000 0.418701
O O9 0.736111 0.791358 0.665002
O O10 0.813984 0.790469 0.741815
O O11 0.657714 0.733224 0.853825
O O12 0.714658 0.000000 0.777227
O O13 0.292203 0.500000 0.537433
O O14 0.250000 0.250000 0.500000
O O15 0.618964 0.500000 0.231284
O O16 0.099124 0.000000 0.969473
O O17 0.000000 0.790812 0.000000
#
# Coordination Sequence:
#
# PCOD9225648 Si02
#       6
#     8   8   8   8   8   8
#     4  12  24  40  64  94 127 165 210 260 313 373
#     4  11  23  39  63  95 127 164 212 260 312 374
#     4  10  22  40  65  92 123 167 212 260 320 381
#     4  11  24  43  65  93 130 169 213 264 322 381
#     4  11  22  39  65  96 128 165 213 263 317 373
#     4  11  25  43  65  94 129 168 212 262 318 378
#
# _framework density 9.2092220000000005
#
# number of rings (size 3 to 8) (size 9 to 14) (size 15 to 20)
#    0.000    1.000    3.333    3.500    0.000    5.333 
#    0.000    3.333    0.000    0.000    0.000    0.000 
#    0.000    0.000    0.000    0.000    0.000    0.000 
#
# Total GULP energy -134056.716069 kJ/mol
# GULP energy per Si atom -5585.696503 kJ/mol
# Density = 0.918826 g / cm^3
# Si number density = 9.209222 Si / 1000 Ang^3
#
#
#
# Elastic Constant Matrix: (Units=GPa)
#
#
# Indices 1 2 3 4 5 6 
#
# 1 141.2759 72.8861 54.3636 0.0000 20.5389 0.0000
# 2 72.8861 114.2837 43.3277 0.0000 11.4072 0.0000
# 3 54.3636 43.3277 87.6261 0.0000 13.8543 0.0000
# 4 0.0000 0.0000 0.0000 35.6219 0.0000 3.6656
# 5 20.5389 11.4072 13.8543 0.0000 37.3133 0.0000
# 6 0.0000 0.0000 0.0000 3.6656 0.0000 36.7391
#
#
#
# Elastic Compliance Matrix: (Units=1/GPa)
#
#
# Indices 1 2 3 4 5 6 
#
# 1 0.012185 -0.005871 -0.004122 0.000000 -0.003382 0.000000
# 2 -0.005871 0.013667 -0.003151 0.000000 0.000223 0.000000
# 3 -0.004122 -0.003151 0.015953 0.000000 -0.002691 0.000000
# 4 0.000000 0.000000 0.000000 0.028364 0.000000 -0.002830
# 5 -0.003382 0.000223 -0.002691 0.000000 0.029593 0.000000
# 6 0.000000 0.000000 0.000000 -0.002830 0.000000 0.027501
#
#
# Mechanical properties :
#
#
# Convention : Reuss Voigt Hill
#
# Bulk Modulus (GPa) = 64.44377 76.03784 70.24081
# Shear Modulus (GPa) = 31.50171 33.44208 32.47189
#
# Velocity S-wave (km/s) = 4.14011 4.26571 4.20338
# Velocity P-wave (km/s) = 7.61043 8.10153 7.85982
#
# Compressibility (1/GPa) = 0.01551740
#
# Stress axis : x y z
#
# Youngs Moduli (GPa) = 82.06781 73.17143 62.68497
#
# Poissons Ratio (x) = 0.42958 0.25839
# Poissons Ratio (y) = 0.48181 0.19749
# Poissons Ratio (z) = 0.33829 0.23053
#
# Static dielectric constant tensor:
#      x y z
#    x 1.604130 0.000000 -0.086660 
#    y 0.000000 1.615980 0.000000 
#    z -0.086660 0.000000 1.411670 
# 
# From -- ./inp_files/280761.got.cif
#   From: 2010.05.17/outbox.ucp.g08.bks.cvg/sg12_141_cif.got.tgz:280761.got - 2010.06.11 11:47:21.
