data_PCOD9225802
_publ_section_title
;
Structure prediction by ZEFSAII (Michael W. Deem and Ramdas Pophale) SiO2 
 PCOD9225802
Probable space group: C 2/M
;
_chemical_formula_sum "Si O2"
_cell_formula_units_Z 20
_cell_length_a 15.000000
_cell_length_b 15.000000
_cell_length_c 27.000000
_cell_angle_alpha 90.000000
_cell_angle_beta 20.000000
_cell_angle_gamma 90.000000
_cell_volume 2077.772371
_symmetry_space_group_name_H-M "C 2/M"
_symmetry_group_IT_number 12
_symmetry_cell_setting 'monoclinic'
loop_
_space_group_symop_operation_xyz
x,y,z
-x,y,-z
-x,-y,-z
x,-y,z
1/2+x,1/2+y,z
1/2-x,1/2+y,-z
1/2-x,1/2-y,-z
1/2+x,1/2-y,z
loop_
_atom_site_type_symbol
_atom_site_label
_atom_site_fract_x
_atom_site_fract_y
_atom_site_fract_z
Si Si1 0.972064 0.500000 0.932872
Si Si2 0.306504 0.187386 0.838230
Si Si3 0.243668 0.851588 0.985035
Si Si4 0.285361 0.824531 0.569952
Si Si5 0.948606 0.000000 0.758791
Si Si6 0.359121 0.896777 0.703354
O O1 0.247529 0.500000 0.817403
O O2 0.931464 0.413591 0.919575
O O3 0.741937 0.500000 0.094116
O O4 0.541501 0.256505 0.704509
O O5 0.345458 0.124328 0.769682
O O6 0.321901 0.145843 0.885718
O O7 0.000000 0.222152 0.000000
O O8 0.946368 0.883213 0.150506
O O9 0.250000 0.750000 0.000000
O O10 0.500000 0.804756 0.500000
O O11 0.445994 0.837547 0.433541
O O12 0.140491 0.916698 0.657010
O O13 0.431205 0.000000 0.657878
#
# Coordination Sequence:
#
# PCOD9225802 Si02
#       6
#     4   8   8   8   4   8
#     4  11  24  40  66  97 137 171 222 277 330 387
#     4  10  25  42  69  96 135 172 222 271 328 393
#     4  11  23  42  68  99 132 175 227 273 327 395
#     4  12  24  44  67  97 131 173 222 272 333 393
#     4  11  25  38  65  95 132 171 217 274 330 386
#     4  11  23  42  69  98 134 176 218 271 337 395
#
# _framework density 9.6256930000000001
#
# number of rings (size 3 to 8) (size 9 to 14) (size 15 to 20)
#    0.000    1.000    2.000    4.500    9.800    1.200 
#    3.600    0.000    0.000    1.800    0.000    0.000 
#    0.000    0.000    0.000    0.000    0.000    0.000 
#
# Total GULP energy -111573.838850 kJ/mol
# GULP energy per Si atom -5578.691942 kJ/mol
# Density = 0.960378 g / cm^3
# Si number density = 9.625693 Si / 1000 Ang^3
#
#
#
# Elastic Constant Matrix: (Units=GPa)
#
#
# Indices 1 2 3 4 5 6 
#
# 1 109.4946 31.7355 29.8469 -0.0133 14.7905 0.0242
# 2 31.7355 84.9817 22.0236 -0.0163 -11.1763 0.0084
# 3 29.8469 22.0236 129.0584 0.0631 20.2116 0.0247
# 4 -0.0133 -0.0163 0.0631 37.5821 0.0061 0.6037
# 5 14.7905 -11.1763 20.2116 0.0061 45.6222 -0.0167
# 6 0.0242 0.0084 0.0247 0.6037 -0.0167 26.0789
#
#
#
# Elastic Compliance Matrix: (Units=1/GPa)
#
#
# Indices 1 2 3 4 5 6 
#
# 1 0.011329 -0.004480 -0.001191 0.000005 -0.004243 -0.000011
# 2 -0.004480 0.014897 -0.002477 0.000008 0.006199 0.000006
# 3 -0.001191 -0.002477 0.009113 -0.000016 -0.004258 -0.000009
# 4 0.000005 0.000008 -0.000016 0.026618 0.000004 -0.000616
# 5 -0.004243 0.006199 -0.004258 0.000004 0.026700 0.000023
# 6 -0.000011 0.000006 -0.000009 -0.000616 0.000023 0.038359
#
#
# Mechanical properties :
#
#
# Convention : Reuss Voigt Hill
#
# Bulk Modulus (GPa) = 52.51057 54.52741 53.51899
# Shear Modulus (GPa) = 33.40864 37.85188 35.63026
#
# Velocity S-wave (km/s) = 4.17032 4.43898 4.30675
# Velocity P-wave (km/s) = 7.10804 7.39311 7.25198
#
# Compressibility (1/GPa) = 0.01904378
#
# Stress axis : x y z
#
# Youngs Moduli (GPa) = 88.26803 67.12539 109.72788
#
# Poissons Ratio (x) = 0.30072 0.13070
# Poissons Ratio (y) = 0.39544 0.27180
# Poissons Ratio (z) = 0.10514 0.16627
#
# Static dielectric constant tensor:
#      x y z
#    x 1.709160 0.000010 -0.012250 
#    y 0.000010 1.717600 -0.000020 
#    z -0.012250 -0.000020 1.632390 
# 
# From -- ./inp_files/142235.got.cif
#   From: 2010.05.17/outbox.ucp.g08.bks.cvg/sg12_72_cif.got.tgz:142235.got - 2010.06.11 11:47:21.
