data_PCOD9225832
_publ_section_title
;
Structure prediction by ZEFSAII (Michael W. Deem and Ramdas Pophale) SiO2 
 PCOD9225832
Probable space group: C 2/M
;
_chemical_formula_sum "Si O2"
_cell_formula_units_Z 24
_cell_length_a 18.000000
_cell_length_b 18.000000
_cell_length_c 21.000000
_cell_angle_alpha 90.000000
_cell_angle_beta 20.000000
_cell_angle_gamma 90.000000
_cell_volume 2327.105055
_symmetry_space_group_name_H-M "C 2/M"
_symmetry_group_IT_number 12
_symmetry_cell_setting 'monoclinic'
loop_
_space_group_symop_operation_xyz
x,y,z
-x,y,-z
-x,-y,-z
x,-y,z
1/2+x,1/2+y,z
1/2-x,1/2+y,-z
1/2-x,1/2-y,-z
1/2+x,1/2-y,z
loop_
_atom_site_type_symbol
_atom_site_label
_atom_site_fract_x
_atom_site_fract_y
_atom_site_fract_z
Si Si1 0.263874 0.649230 0.550747
Si Si2 0.484475 0.791757 0.077089
Si Si3 0.337662 0.411903 0.354288
Si Si4 0.359590 0.580211 0.677128
Si Si5 0.672117 0.787239 0.416196
Si Si6 0.790995 0.334146 0.990760
O O1 0.260357 0.631342 0.479811
O O2 0.451598 0.595377 0.424809
O O3 0.343508 0.730319 0.511765
O O4 0.023050 0.638691 0.775268
O O5 0.316519 0.855990 0.191669
O O6 0.391002 0.738623 0.205729
O O7 0.684004 0.829628 0.952415
O O8 0.500000 0.746291 0.000000
O O9 0.318693 0.500000 0.374487
O O10 0.188966 0.372412 0.421149
O O11 0.586654 0.386425 0.141113
O O12 0.500000 0.579116 0.500000
O O13 0.256531 0.500000 0.770937
O O14 0.500000 0.771470 0.500000
O O15 0.750000 0.250000 0.000000
#
# Coordination Sequence:
#
# PCOD9225832 Si02
#       6
#     8   8   8   8   8   8
#     4  11  21  42  68  94 126 171 214 257 321 387
#     4  11  21  36  62  92 121 163 216 258 314 381
#     4  12  27  43  65  98 134 169 214 271 325 380
#     4  11  20  35  58  90 128 163 200 254 323 381
#     4  11  22  43  67  91 122 168 220 266 312 379
#     4  11  23  39  65  95 127 169 216 265 312 380
#
# _framework density 10.313243
#
# number of rings (size 3 to 8) (size 9 to 14) (size 15 to 20)
#    0.000    0.833    8.333    2.000    0.000    2.667 
#    0.000    0.000    0.000    0.500    0.000    0.000 
#    0.000    0.000    0.000    0.000    0.000    0.000 
#
# Total GULP energy -133703.035566 kJ/mol
# GULP energy per Si atom -5570.959815 kJ/mol
# Density = 1.028977 g / cm^3
# Si number density = 10.313243 Si / 1000 Ang^3
#
#
#
# Elastic Constant Matrix: (Units=GPa)
#
#
# Indices 1 2 3 4 5 6 
#
# 1 64.1135 57.8096 25.3797 0.1273 2.9010 0.0121
# 2 57.8096 106.7826 15.6185 0.2612 13.5530 0.0534
# 3 25.3797 15.6185 63.1264 -0.0076 9.6468 0.0154
# 4 0.1273 0.2612 -0.0076 89.7060 -0.1050 28.0937
# 5 2.9010 13.5530 9.6468 -0.1050 2.3924 -0.0091
# 6 0.0121 0.0534 0.0154 28.0937 -0.0091 52.6949
#
#
#
# Elastic Compliance Matrix: (Units=1/GPa)
#
#
# Indices 1 2 3 4 5 6 
#
# 1 0.005711 0.011008 0.014512 -0.000212 -0.127807 0.000074
# 2 0.011008 -0.009177 -0.021003 0.000172 0.123336 -0.000057
# 3 0.014512 -0.021003 -0.000759 0.000182 0.104452 -0.000061
# 4 -0.000212 0.000172 0.000182 0.013381 -0.000889 -0.007134
# 5 -0.127807 0.123336 0.104452 -0.000889 -0.546947 0.000253
# 6 0.000074 -0.000057 -0.000061 -0.007134 0.000253 0.022781
#
#
# Mechanical properties :
#
#
# Convention : Reuss Voigt Hill
#
# Bulk Modulus (GPa) = 207.98588 47.95980 127.97284
# Shear Modulus (GPa) = -9.57047 37.97297 14.20125
#
# Velocity S-wave (km/s) = -2.15638 4.29532 2.62677
# Velocity P-wave (km/s) = 9.73927 6.92111 8.44852
#
# Compressibility (1/GPa) = 0.00480802
#
# Stress axis : x y z
#
# Youngs Moduli (GPa) = 175.10082 -108.96990 -1318.11561
#
# Poissons Ratio (x) = 1.19950 19.12784
# Poissons Ratio (y) = -1.92744 -27.68420
# Poissons Ratio (z) = -2.54098 -2.28868
#
# Static dielectric constant tensor:
#      x y z
#    x 1.885780 0.000010 -0.050490 
#    y 0.000010 1.726450 0.000050 
#    z -0.050490 0.000050 1.642710 
# 
# From -- ./inp_files/317472.got.cif
#   From: 2010.05.17/outbox.ucp.g08.bks.cvg/sg12_159_cif.got.tgz:317472.got - 2010.06.11 11:47:21.
