data_PCOD9225169
_publ_section_title
;
Structure prediction by ZEFSAII (Michael W. Deem and Ramdas Pophale) SiO2 
 PCOD9225169
Probable space group: C 2/M
;
_chemical_formula_sum "Si O2"
_cell_formula_units_Z 28
_cell_length_a 21.000000
_cell_length_b 9.000000
_cell_length_c 21.000000
_cell_angle_alpha 90.000000
_cell_angle_beta 50.000000
_cell_angle_gamma 90.000000
_cell_volume 3040.430395
_symmetry_space_group_name_H-M "C 2/M"
_symmetry_group_IT_number 12
_symmetry_cell_setting 'monoclinic'
loop_
_space_group_symop_operation_xyz
x,y,z
-x,y,-z
-x,-y,-z
x,-y,z
1/2+x,1/2+y,z
1/2-x,1/2+y,-z
1/2-x,1/2-y,-z
1/2+x,1/2-y,z
loop_
_atom_site_type_symbol
_atom_site_label
_atom_site_fract_x
_atom_site_fract_y
_atom_site_fract_z
Si Si1 0.203835 0.826144 0.970588
Si Si2 0.158847 0.321840 0.564964
Si Si3 0.879096 0.677676 0.263197
Si Si4 0.552457 0.674087 0.154008
Si Si5 0.287218 0.320687 0.693336
Si Si6 0.575589 0.321880 0.498925
Si Si7 0.171988 0.820771 0.193775
O O1 0.239219 0.739407 0.887758
O O2 0.225269 0.000000 0.951764
O O3 0.250000 0.750000 0.000000
O O4 0.109949 0.814608 0.054435
O O5 0.163416 0.500000 0.553813
O O6 0.250000 0.250000 0.500000
O O7 0.135480 0.288578 0.652910
O O8 0.093868 0.255729 0.554862
O O9 0.879125 0.500000 0.257148
O O10 0.804937 0.734924 0.265179
O O11 0.969084 0.741134 0.192566
O O12 0.535601 0.500000 0.176212
O O13 0.602818 0.728115 0.185606
O O14 0.282600 0.500000 0.702238
O O15 0.343293 0.291561 0.595854
O O16 0.331966 0.271077 0.730046
O O17 0.500000 0.277725 0.500000
O O18 0.566925 0.500000 0.515438
O O19 0.170963 0.000000 0.191777
#
# Coordination Sequence:
#
# PCOD9225169 Si02
#       7
#     8   8   8   8   8   8   8
#     4   9  17  32  53  78 108 138 173 218 262 313
#     4  11  22  38  58  80 110 146 186 229 273 324
#     4  10  21  36  54  76 107 143 177 220 266 317
#     4   9  19  33  53  81 106 133 175 220 262 313
#     4   9  18  36  54  76 109 140 178 221 263 317
#     4  10  21  37  60  83 108 146 186 226 275 327
#     4   9  18  33  56  80 105 139 176 220 265 312
#
# _framework density 9.2092220000000005
#
# number of rings (size 3 to 8) (size 9 to 14) (size 15 to 20)
#    0.000    2.429    1.429    1.714    2.000    4.286 
#    0.000    2.143    0.000    4.286    0.000    0.000 
#    0.000    0.000    0.000    0.000    0.000    0.000 
#
# Total GULP energy -155878.538657 kJ/mol
# GULP energy per Si atom -5567.090666 kJ/mol
# Density = 0.918826 g / cm^3
# Si number density = 9.209222 Si / 1000 Ang^3
#
#
#
# Elastic Constant Matrix: (Units=GPa)
#
#
# Indices 1 2 3 4 5 6 
#
# 1 76.0932 -10.5001 -14.8484 0.0000 -10.1798 0.0001
# 2 -10.5001 -19.2507 -10.0118 0.0000 -2.9079 0.0000
# 3 -14.8484 -10.0118 -1.4773 0.0000 -2.9511 0.0000
# 4 0.0000 0.0000 0.0000 22.5824 0.0000 -0.8814
# 5 -10.1798 -2.9079 -2.9511 0.0000 21.3667 0.0000
# 6 0.0001 0.0000 0.0000 -0.8814 0.0000 29.3488
#
#
#
# Elastic Compliance Matrix: (Units=1/GPa)
#
#
# Indices 1 2 3 4 5 6 
#
# 1 0.019543 -0.040194 0.053526 0.000000 0.011234 0.000000
# 2 -0.040194 0.109063 -0.255918 0.000000 -0.039653 0.000000
# 3 0.053526 -0.255918 0.421736 0.000001 0.048921 0.000000
# 4 0.000000 0.000000 0.000001 0.044334 0.000000 0.001331
# 5 0.011234 -0.039653 0.048921 0.000000 0.053514 0.000000
# 6 0.000000 0.000000 0.000000 0.001331 0.000000 0.034113
#
#
# Mechanical properties :
#
#
# Convention : Reuss Voigt Hill
#
# Bulk Modulus (GPa) = 15.34440 -1.70615 6.81913
# Shear Modulus (GPa) = 4.20451 20.70793 12.45622
#
# Velocity S-wave (km/s) = 1.51252 3.35670 2.60338
# Velocity P-wave (km/s) = 3.37630 3.75432 3.57032
#
# Compressibility (1/GPa) = 0.06517034
#
# Stress axis : x y z
#
# Youngs Moduli (GPa) = 51.16902 9.16903 2.37115
#
# Poissons Ratio (x) = 0.36854 -0.12692
# Poissons Ratio (y) = 2.05668 0.60682
# Poissons Ratio (z) = -2.73887 2.34652
#
# Static dielectric constant tensor:
#      x y z
#    x 1.633350 0.000000 -0.021460 
#    y 0.000000 1.626860 0.000000 
#    z -0.021460 0.000000 1.692230 
# 
# From -- ./inp_files/313739.got.cif
#   From: 2010.05.17/outbox.ucp.g08.bks.cvg/sg12_157_cif.got.tgz:313739.got - 2010.06.11 11:47:21.
