data_PCOD9225793
_publ_section_title
;
Structure prediction by ZEFSAII (Michael W. Deem and Ramdas Pophale) SiO2 
 PCOD9225793
Probable space group: C 2/M
;
_chemical_formula_sum "Si O2"
_cell_formula_units_Z 28
_cell_length_a 21.000000
_cell_length_b 9.000000
_cell_length_c 30.000000
_cell_angle_alpha 90.000000
_cell_angle_beta 150.000000
_cell_angle_gamma 90.000000
_cell_volume 2835.000000
_symmetry_space_group_name_H-M "C 2/M"
_symmetry_group_IT_number 12
_symmetry_cell_setting 'monoclinic'
loop_
_space_group_symop_operation_xyz
x,y,z
-x,y,-z
-x,-y,-z
x,-y,z
1/2+x,1/2+y,z
1/2-x,1/2+y,-z
1/2-x,1/2-y,-z
1/2+x,1/2-y,z
loop_
_atom_site_type_symbol
_atom_site_label
_atom_site_fract_x
_atom_site_fract_y
_atom_site_fract_z
Si Si1 0.594325 0.676527 0.298603
Si Si2 0.911121 0.177991 0.341457
Si Si3 0.139902 0.675867 0.063896
Si Si4 0.696738 0.677090 0.513416
Si Si5 0.357355 0.681820 0.030989
Si Si6 0.109443 0.323444 0.765097
Si Si7 0.842053 0.174052 0.766651
O O1 0.587553 0.500000 0.304231
O O2 0.700539 0.763052 0.390039
O O3 0.460886 0.748721 0.234888
O O4 0.640770 0.692841 0.275999
O O5 0.938080 0.248119 0.309013
O O6 0.781918 0.242203 0.286947
O O7 0.054226 0.208308 0.446990
O O8 0.893454 0.000000 0.327436
O O9 0.170284 0.500000 0.086489
O O10 0.242526 0.780136 0.149483
O O11 0.157511 0.731367 0.024277
O O12 0.000000 0.697455 0.000000
O O13 0.702064 0.500000 0.510379
O O14 0.750000 0.750000 0.500000
O O15 0.340133 0.500000 0.018482
O O16 0.510011 0.709088 0.130755
O O17 0.250000 0.750000 0.000000
O O18 0.090545 0.500000 0.754867
O O19 0.821375 0.000000 0.764567
#
# Coordination Sequence:
#
# PCOD9225793 Si02
#       7
#     8   8   8   8   8   8   8
#     4  11  23  41  65  93 127 164 208 259 309 370
#     4  11  24  41  64  92 127 166 207 259 314 371
#     4  11  24  41  62  90 125 163 206 259 316 373
#     4  11  23  40  64  94 126 165 209 259 313 369
#     4  11  23  41  65  92 125 167 213 260 313 376
#     4  12  24  39  64  93 123 162 209 259 312 374
#     4  10  24  43  63  91 127 166 207 256 315 373
#
# _framework density 9.8765429999999999
#
# number of rings (size 3 to 8) (size 9 to 14) (size 15 to 20)
#    0.000    1.000    1.429    5.143    0.000    9.143 
#    0.000    2.857    0.000    0.000    0.000    0.000 
#    0.000    0.000    0.000    0.000    0.000    0.000 
#
# Total GULP energy -155980.243016 kJ/mol
# GULP energy per Si atom -5570.722965 kJ/mol
# Density = 0.985406 g / cm^3
# Si number density = 9.876543 Si / 1000 Ang^3
#
#
#
# Elastic Constant Matrix: (Units=GPa)
#
#
# Indices 1 2 3 4 5 6 
#
# 1 96.8874 44.3938 25.0158 0.0001 50.7257 0.0001
# 2 44.3938 91.4778 18.5511 -0.0001 26.8841 0.0001
# 3 25.0158 18.5511 59.8236 -0.0006 18.1103 -0.0002
# 4 0.0001 -0.0001 -0.0006 29.7020 -0.0001 13.2661
# 5 50.7257 26.8841 18.1103 -0.0001 30.6352 -0.0001
# 6 0.0001 0.0001 -0.0002 13.2661 -0.0001 43.0298
#
#
#
# Elastic Compliance Matrix: (Units=1/GPa)
#
#
# Indices 1 2 3 4 5 6 
#
# 1 0.080696 -0.000176 0.008177 0.000000 -0.138295 0.000000
# 2 -0.000176 0.014762 -0.000817 0.000000 -0.012180 0.000000
# 3 0.008177 -0.000817 0.021231 0.000000 -0.025373 0.000000
# 4 0.000000 0.000000 0.000000 0.039044 0.000000 -0.012037
# 5 -0.138295 -0.012180 -0.025373 0.000000 0.287319 0.000001
# 6 0.000000 0.000000 0.000000 -0.012037 0.000001 0.026951
#
#
# Mechanical properties :
#
#
# Convention : Reuss Voigt Hill
#
# Bulk Modulus (GPa) = 7.63032 47.12337 27.37684
# Shear Modulus (GPa) = 10.01359 31.35527 20.68443
#
# Velocity S-wave (km/s) = 2.25397 3.98849 3.23948
# Velocity P-wave (km/s) = 3.26268 6.71705 5.28033
#
# Compressibility (1/GPa) = 0.13105613
#
# Stress axis : x y z
#
# Youngs Moduli (GPa) = 12.39224 67.73982 47.10063
#
# Poissons Ratio (x) = 0.01195 -0.38513
# Poissons Ratio (y) = 0.00219 0.03847
# Poissons Ratio (z) = -0.10133 0.05533
#
# Static dielectric constant tensor:
#      x y z
#    x 1.688770 0.000000 -0.133600 
#    y 0.000000 1.652810 0.000000 
#    z -0.133600 0.000000 2.180570 
# 
# From -- ./inp_files/380743.got.cif
#   From: 2010.05.17/outbox.ucp.g08.bks.cvg/sg12_191_cif.got.tgz:380743.got - 2010.06.11 11:47:21.
