data_PCOD9225110
_publ_section_title
;
Structure prediction by ZEFSAII (Michael W. Deem and Ramdas Pophale) SiO2 
 PCOD9225110
Probable space group: C 2/M
;
_chemical_formula_sum "Si O2"
_cell_formula_units_Z 26
_cell_length_a 12.000000
_cell_length_b 24.000000
_cell_length_c 12.000000
_cell_angle_alpha 90.000000
_cell_angle_beta 50.000000
_cell_angle_gamma 90.000000
_cell_volume 2647.449595
_symmetry_space_group_name_H-M "C 2/M"
_symmetry_group_IT_number 12
_symmetry_cell_setting 'monoclinic'
loop_
_space_group_symop_operation_xyz
x,y,z
-x,y,-z
-x,-y,-z
x,-y,z
1/2+x,1/2+y,z
1/2-x,1/2+y,-z
1/2-x,1/2-y,-z
1/2+x,1/2-y,z
loop_
_atom_site_type_symbol
_atom_site_label
_atom_site_fract_x
_atom_site_fract_y
_atom_site_fract_z
Si Si1 0.000000 0.698021 0.000000
Si Si2 0.367577 0.383994 0.783331
Si Si3 0.276310 0.061943 0.327622
Si Si4 0.205613 0.757090 0.158793
Si Si5 0.127549 0.640944 0.326029
Si Si6 0.414058 0.898622 0.892299
Si Si7 0.179539 0.933382 0.639040
O O1 0.139942 0.733082 0.880939
O O2 0.963706 0.659153 0.918444
O O3 0.314760 0.397363 0.692278
O O4 0.378043 0.316518 0.784851
O O5 0.514704 0.415161 0.719780
O O6 0.238716 0.407511 0.946823
O O7 0.444335 0.063617 0.180888
O O8 0.263211 0.074999 0.467064
O O9 0.216240 0.000000 0.350117
O O10 0.143292 0.703268 0.262541
O O11 0.250000 0.750000 0.000000
O O12 0.104087 0.605836 0.228071
O O13 0.256663 0.608733 0.309091
O O14 0.000000 0.641527 0.500000
O O15 0.190778 0.000000 0.659780
#
# Coordination Sequence:
#
# PCOD9225110 Si02
#       7
#     4   8   8   8   8   8   8
#     4  10  20  42  67  92 139 172 222 276 342 390
#     4  11  23  43  69 102 138 171 229 282 340 397
#     4  11  22  42  70  97 133 179 224 281 339 397
#     4  11  23  41  69  98 136 176 216 279 346 396
#     4  12  26  43  68 100 136 181 229 268 343 418
#     4  11  21  42  65  98 133 173 224 279 323 403
#     4  11  27  46  68  99 142 184 222 281 347 405
#
# _framework density 9.8207719999999998
#
# number of rings (size 3 to 8) (size 9 to 14) (size 15 to 20)
#    0.000    0.923    7.692    0.923    2.154    5.846 
#    0.000    3.077    0.000    0.000    0.000    0.000 
#    0.000    0.000    0.000    0.000    0.000    0.000 
#
# Total GULP energy -144911.980645 kJ/mol
# GULP energy per Si atom -5573.537717 kJ/mol
# Density = 0.979842 g / cm^3
# Si number density = 9.820772 Si / 1000 Ang^3
#
#
#
# Elastic Constant Matrix: (Units=GPa)
#
#
# Indices 1 2 3 4 5 6 
#
# 1 95.0341 31.9566 39.3223 0.0000 5.5882 0.0000
# 2 31.9566 86.6459 21.5315 0.0000 11.9946 0.0000
# 3 39.3223 21.5315 78.3931 0.0000 4.5770 0.0000
# 4 0.0000 0.0000 0.0000 476.5495 0.0000 38.9508
# 5 5.5882 11.9946 4.5770 0.0000 42.2813 0.0000
# 6 0.0000 0.0000 0.0000 38.9508 0.0000 22.7792
#
#
#
# Elastic Compliance Matrix: (Units=1/GPa)
#
#
# Indices 1 2 3 4 5 6 
#
# 1 0.014335 -0.003734 -0.006155 0.000000 -0.000169 0.000000
# 2 -0.003734 0.013795 -0.001727 0.000000 -0.003233 0.000000
# 3 -0.006155 -0.001727 0.016345 0.000000 -0.000466 0.000000
# 4 0.000000 0.000000 0.000000 0.002439 0.000000 -0.004171
# 5 -0.000169 -0.003233 -0.000466 0.000000 0.024641 0.000000
# 6 0.000000 0.000000 0.000000 -0.004171 0.000000 0.051032
#
#
# Mechanical properties :
#
#
# Convention : Reuss Voigt Hill
#
# Bulk Modulus (GPa) = 47.07489 49.52156 48.29822
# Shear Modulus (GPa) = 32.70089 119.47283 76.08686
#
# Velocity S-wave (km/s) = 4.08473 7.80760 6.23072
# Velocity P-wave (km/s) = 6.80189 10.32209 8.74103
#
# Compressibility (1/GPa) = 0.02124275
#
# Stress axis : x y z
#
# Youngs Moduli (GPa) = 69.76005 72.48905 61.18010
#
# Poissons Ratio (x) = 0.27068 0.37656
# Poissons Ratio (y) = 0.26049 0.10567
# Poissons Ratio (z) = 0.42937 0.12521
#
# Static dielectric constant tensor:
#      x y z
#    x 1.761270 0.000000 -0.036380 
#    y 0.000000 1.729010 0.000000 
#    z -0.036380 0.000000 1.696280 
# 
# From -- ./inp_files/135856.got.cif
#   From: 2010.05.17/outbox.ucp.g08.bks.cvg/sg12_68_cif.got.tgz:135856.got - 2010.06.11 11:47:21.
