data_PCOD9225172
_publ_section_title
;
Structure prediction by ZEFSAII (Michael W. Deem and Ramdas Pophale) SiO2 
 PCOD9225172
Probable space group: C 2/M
;
_chemical_formula_sum "Si O2"
_cell_formula_units_Z 28
_cell_length_a 30.000000
_cell_length_b 9.000000
_cell_length_c 21.000000
_cell_angle_alpha 90.000000
_cell_angle_beta 30.000000
_cell_angle_gamma 90.000000
_cell_volume 2835.000000
_symmetry_space_group_name_H-M "C 2/M"
_symmetry_group_IT_number 12
_symmetry_cell_setting 'monoclinic'
loop_
_space_group_symop_operation_xyz
x,y,z
-x,y,-z
-x,-y,-z
x,-y,z
1/2+x,1/2+y,z
1/2-x,1/2+y,-z
1/2-x,1/2-y,-z
1/2+x,1/2-y,z
loop_
_atom_site_type_symbol
_atom_site_label
_atom_site_fract_x
_atom_site_fract_y
_atom_site_fract_z
Si Si1 0.367592 0.324172 0.461186
Si Si2 0.225253 0.674123 0.807083
Si Si3 0.688029 0.323010 0.729766
Si Si4 0.403244 0.318624 0.643644
Si Si5 0.570471 0.321335 0.246724
Si Si6 0.071357 0.176908 0.754720
Si Si7 0.393796 0.827323 0.924766
O O1 0.355337 0.500000 0.488887
O O2 0.286295 0.234668 0.590603
O O3 0.465295 0.283128 0.367490
O O4 0.370477 0.301657 0.381284
O O5 0.226095 0.500000 0.788307
O O6 0.170241 0.760150 0.821893
O O7 0.325987 0.730814 0.691501
O O8 0.184697 0.686369 0.927486
O O9 0.685896 0.500000 0.733088
O O10 0.620963 0.272074 0.757070
O O11 0.500000 0.273575 0.500000
O O12 0.399853 0.500000 0.647463
O O13 0.394284 0.272164 0.728226
O O14 0.575336 0.500000 0.237727
O O15 0.620165 0.254668 0.124580
O O16 0.979973 0.259335 0.852824
O O17 0.054174 0.000000 0.780635
O O18 0.409442 0.000000 0.892096
#
# Coordination Sequence:
#
# PCOD9225172 Si02
#       7
#     8   8   8   8   8   8   8
#     4   9  17  32  54  79 107 137 171 214 263 317
#     4  10  22  38  54  76 107 141 179 219 259 312
#     4  11  22  34  52  79 107 138 177 222 269 310
#     4   9  17  33  58  82 104 137 178 212 250 311
#     4   9  18  34  58  82 105 140 180 215 255 308
#     4   9  20  37  55  76 104 140 180 217 258 317
#     4  10  21  36  54  78 107 138 175 221 268 309
#
# _framework density 9.8765429999999999
#
# number of rings (size 3 to 8) (size 9 to 14) (size 15 to 20)
#    0.000    2.429    0.000    3.000    0.000    8.000 
#    0.000    3.571    0.000    1.714    0.000    0.000 
#    0.000    0.000    0.000    0.000    0.000    0.000 
#
# Total GULP energy -156254.096681 kJ/mol
# GULP energy per Si atom -5580.503453 kJ/mol
# Density = 0.985406 g / cm^3
# Si number density = 9.876543 Si / 1000 Ang^3
#
#
#
# Elastic Constant Matrix: (Units=GPa)
#
#
# Indices 1 2 3 4 5 6 
#
# 1 107.0436 20.7590 7.2114 0.0007 14.7548 0.0005
# 2 20.7590 13.8895 11.8529 -0.0028 3.8874 0.0022
# 3 7.2114 11.8529 23.7722 -0.0001 5.4257 0.0020
# 4 0.0007 -0.0028 -0.0001 24.1563 0.0026 9.5459
# 5 14.7548 3.8874 5.4257 0.0026 14.6293 -0.0007
# 6 0.0005 0.0022 0.0020 9.5459 -0.0007 18.9241
#
#
#
# Elastic Compliance Matrix: (Units=1/GPa)
#
#
# Indices 1 2 3 4 5 6 
#
# 1 0.016809 -0.034164 0.015003 -0.000004 -0.013439 0.000004
# 2 -0.034164 0.196417 -0.091246 0.000032 0.016105 -0.000028
# 3 0.015003 -0.091246 0.088414 -0.000010 -0.023675 0.000005
# 4 -0.000004 0.000032 -0.000010 0.051703 -0.000011 -0.026081
# 5 -0.013439 0.016105 -0.023675 -0.000011 0.086412 0.000010
# 6 0.000004 -0.000028 0.000005 -0.026081 0.000010 0.065999
#
#
# Mechanical properties :
#
#
# Convention : Reuss Voigt Hill
#
# Bulk Modulus (GPa) = 12.37241 24.92799 18.65020
# Shear Modulus (GPa) = 6.63559 18.53408 12.58484
#
# Velocity S-wave (km/s) = 1.83482 3.06647 2.52684
# Velocity P-wave (km/s) = 3.28114 5.01845 4.23974
#
# Compressibility (1/GPa) = 0.08082497
#
# Stress axis : x y z
#
# Youngs Moduli (GPa) = 59.49129 5.09120 11.31038
#
# Poissons Ratio (x) = 0.17394 -0.16968
# Poissons Ratio (y) = 2.03246 1.03203
# Poissons Ratio (z) = -0.89252 0.46455
#
# Static dielectric constant tensor:
#      x y z
#    x 1.688660 0.000000 0.020000 
#    y 0.000000 1.680250 0.000000 
#    z 0.020000 0.000000 1.725520 
# 
# From -- ./inp_files/329509.got.cif
#   From: 2010.05.17/outbox.ucp.g08.bks.cvg/sg12_165_cif.got.tgz:329509.got - 2010.06.11 11:47:21.
