data_PCOD9225366
_publ_section_title
;
Structure prediction by ZEFSAII (Michael W. Deem and Ramdas Pophale) SiO2 
 PCOD9225366
Probable space group: C 2/M
;
_chemical_formula_sum "Si O2"
_cell_formula_units_Z 24
_cell_length_a 18.000000
_cell_length_b 30.000000
_cell_length_c 9.000000
_cell_angle_alpha 90.000000
_cell_angle_beta 150.000000
_cell_angle_gamma 90.000000
_cell_volume 2430.000000
_symmetry_space_group_name_H-M "C 2/M"
_symmetry_group_IT_number 12
_symmetry_cell_setting 'monoclinic'
loop_
_space_group_symop_operation_xyz
x,y,z
-x,y,-z
-x,-y,-z
x,-y,z
1/2+x,1/2+y,z
1/2-x,1/2+y,-z
1/2-x,1/2-y,-z
1/2+x,1/2-y,z
loop_
_atom_site_type_symbol
_atom_site_label
_atom_site_fract_x
_atom_site_fract_y
_atom_site_fract_z
Si Si1 0.151036 0.948572 0.163977
Si Si2 0.616495 0.853636 0.962099
Si Si3 0.652783 0.306862 0.083096
Si Si4 0.976859 0.736789 0.626542
Si Si5 0.706401 0.868890 0.449470
Si Si6 0.147583 0.889274 0.855830
O O1 0.256408 0.919966 0.453778
O O2 0.193029 0.000000 0.216357
O O3 0.149773 0.924405 0.998644
O O4 0.000000 0.947327 0.000000
O O5 0.699360 0.855760 0.264709
O O6 0.706745 0.884598 0.000728
O O7 0.589883 0.805100 0.843156
O O8 0.448301 0.863736 0.727371
O O9 0.671547 0.337611 0.260296
O O10 0.808057 0.279742 0.346156
O O11 0.520964 0.272048 0.829207
O O12 0.641592 0.341791 0.928608
O O13 0.000000 0.754897 0.500000
O O14 0.000000 0.896242 0.500000
#
# Coordination Sequence:
#
# PCOD9225366 Si02
#       6
#     8   8   8   8   8   8
#     4  10  22  42  66  92 124 156 193 250 313 374
#     4  10  21  38  61  85 124 162 210 252 305 357
#     4  10  22  34  57  82 121 165 212 252 308 356
#     4  11  20  34  54  84 121 165 210 262 301 355
#     4   9  21  42  60  85 121 167 202 253 311 364
#     4  11  22  37  62  92 120 161 207 252 306 371
#
# _framework density 9.8765429999999999
#
# number of rings (size 3 to 8) (size 9 to 14) (size 15 to 20)
#    0.000    1.833    1.667    2.000    2.333    1.000 
#    0.000    4.167    3.667    0.000    0.000    0.000 
#    0.000    0.000    0.000    0.000    0.000    0.000 
#
# Total GULP energy -133849.514573 kJ/mol
# GULP energy per Si atom -5577.063107 kJ/mol
# Density = 0.985406 g / cm^3
# Si number density = 9.876543 Si / 1000 Ang^3
#
#
#
# Elastic Constant Matrix: (Units=GPa)
#
#
# Indices 1 2 3 4 5 6 
#
# 1 74.3298 15.7165 10.2637 0.0000 -10.0628 0.0000
# 2 15.7165 98.7953 38.1364 0.0000 -8.0596 0.0000
# 3 10.2637 38.1364 76.0481 0.0000 -22.3455 0.0000
# 4 0.0000 0.0000 0.0000 16.9260 0.0000 3.8747
# 5 -10.0628 -8.0596 -22.3455 0.0000 26.7228 0.0000
# 6 0.0000 0.0000 0.0000 3.8747 0.0000 20.9983
#
#
#
# Elastic Compliance Matrix: (Units=1/GPa)
#
#
# Indices 1 2 3 4 5 6 
#
# 1 0.014543 -0.002143 0.000704 0.000000 0.005419 0.000000
# 2 -0.002143 0.012945 -0.007016 0.000000 -0.002770 0.000000
# 3 0.000704 -0.007016 0.021251 0.000000 0.015919 0.000000
# 4 0.000000 0.000000 0.000000 0.061687 0.000000 -0.011383
# 5 0.005419 -0.002770 0.015919 0.000000 0.051937 0.000000
# 6 0.000000 0.000000 0.000000 -0.011383 0.000000 0.049723
#
#
# Mechanical properties :
#
#
# Convention : Reuss Voigt Hill
#
# Bulk Modulus (GPa) = 31.41877 41.93405 36.67641
# Shear Modulus (GPa) = 20.86753 25.26652 23.06702
#
# Velocity S-wave (km/s) = 3.25379 3.58036 3.42097
# Velocity P-wave (km/s) = 5.48238 6.19412 5.84908
#
# Compressibility (1/GPa) = 0.03182811
#
# Stress axis : x y z
#
# Youngs Moduli (GPa) = 68.76105 77.24755 47.05755
#
# Poissons Ratio (x) = 0.16557 -0.03314
# Poissons Ratio (y) = 0.14738 0.33018
# Poissons Ratio (z) = -0.04843 0.54200
#
# Static dielectric constant tensor:
#      x y z
#    x 1.708150 0.000000 0.024870 
#    y 0.000000 1.696730 0.000000 
#    z 0.024870 0.000000 1.730230 
# 
# From -- ./inp_files/80838.got.cif
#   From: 2010.05.17/outbox.ucp.g08.bks.cvg/sg12_41_cif.got.tgz:80838.got - 2010.06.11 11:47:21.
