data_PCOD9225858
_publ_section_title
;
Structure prediction by ZEFSAII (Michael W. Deem and Ramdas Pophale) SiO2 
 PCOD9225858
Probable space group: C 2/M
;
_chemical_formula_sum "Si O2"
_cell_formula_units_Z 20
_cell_length_a 15.000000
_cell_length_b 27.000000
_cell_length_c 15.000000
_cell_angle_alpha 90.000000
_cell_angle_beta 160.000000
_cell_angle_gamma 90.000000
_cell_volume 2077.772371
_symmetry_space_group_name_H-M "C 2/M"
_symmetry_group_IT_number 12
_symmetry_cell_setting 'monoclinic'
loop_
_space_group_symop_operation_xyz
x,y,z
-x,y,-z
-x,-y,-z
x,-y,z
1/2+x,1/2+y,z
1/2-x,1/2+y,-z
1/2-x,1/2-y,-z
1/2+x,1/2-y,z
loop_
_atom_site_type_symbol
_atom_site_label
_atom_site_fract_x
_atom_site_fract_y
_atom_site_fract_z
Si Si1 0.731829 0.894617 0.289361
Si Si2 0.375053 0.704453 0.521348
Si Si3 0.477398 0.627743 0.180072
Si Si4 0.556536 0.061375 0.313469
Si Si5 0.407771 0.269421 0.015358
O O1 0.789899 0.836752 0.367464
O O2 0.655545 0.924989 0.306495
O O3 0.000000 0.914662 0.500000
O O4 0.500000 0.896919 0.000000
O O5 0.462917 0.664898 0.680298
O O6 0.623537 0.742060 0.749127
O O7 0.114848 0.739663 0.274412
O O8 0.730508 0.590085 0.421723
O O9 0.420623 0.671787 0.053823
O O10 0.222413 0.591325 0.942514
O O11 0.542177 0.000000 0.311697
O O12 0.500000 0.265091 0.000000
#
# Coordination Sequence:
#
# PCOD9225858 Si02
#       5
#     8   8   8   8   8
#     4  11  21  35  56  86 122 152 186 228 272 333
#     4  11  21  36  57  85 121 158 184 214 275 348
#     4  11  23  40  60  84 116 150 193 237 277 340
#     4  11  24  41  61  81 108 153 198 241 289 331
#     4  12  23  36  59  88 119 151 187 232 282 337
#
# _framework density 9.6256939999999993
#
# number of rings (size 3 to 8) (size 9 to 14) (size 15 to 20)
#    0.000    0.800    0.000   11.400    0.000    0.800 
#    0.000    0.000    0.000    3.600    0.000    0.000 
#    0.000    0.000    0.000    0.000    0.000    0.000 
#
# Total GULP energy -111433.768122 kJ/mol
# GULP energy per Si atom -5571.688406 kJ/mol
# Density = 0.960378 g / cm^3
# Si number density = 9.625694 Si / 1000 Ang^3
#
#
#
# Elastic Constant Matrix: (Units=GPa)
#
#
# Indices 1 2 3 4 5 6 
#
# 1 37.4875 20.6572 16.1492 0.0009 0.5779 0.0003
# 2 20.6572 169.8976 44.9086 0.0012 8.1714 -0.0006
# 3 16.1492 44.9086 169.1720 0.0025 12.5889 0.0011
# 4 0.0009 0.0012 0.0025 43.6826 0.0004 6.8743
# 5 0.5779 8.1714 12.5889 0.0004 27.9973 0.0007
# 6 0.0003 -0.0006 0.0011 6.8743 0.0007 25.4540
#
#
#
# Elastic Compliance Matrix: (Units=1/GPa)
#
#
# Indices 1 2 3 4 5 6 
#
# 1 0.029238 -0.003067 -0.002068 0.000000 0.001221 0.000000
# 2 -0.003067 0.006687 -0.001388 0.000000 -0.001264 0.000000
# 3 -0.002068 -0.001388 0.006667 0.000000 -0.002550 0.000000
# 4 0.000000 0.000000 0.000000 0.023909 0.000000 -0.006457
# 5 0.001221 -0.001264 -0.002550 0.000000 0.037208 -0.000001
# 6 0.000000 0.000000 0.000000 -0.006457 -0.000001 0.041030
#
#
# Mechanical properties :
#
#
# Convention : Reuss Voigt Hill
#
# Bulk Modulus (GPa) = 33.84674 59.99858 46.92266
# Shear Modulus (GPa) = 29.82727 39.08293 34.45510
#
# Velocity S-wave (km/s) = 3.94046 4.51059 4.23513
# Velocity P-wave (km/s) = 6.19052 7.63942 6.95282
#
# Compressibility (1/GPa) = 0.02954494
#
# Stress axis : x y z
#
# Youngs Moduli (GPa) = 34.20260 149.55421 149.99745
#
# Poissons Ratio (x) = 0.45869 0.31015
# Poissons Ratio (y) = 0.10490 0.20822
# Poissons Ratio (z) = 0.07072 0.20761
#
# Static dielectric constant tensor:
#      x y z
#    x 1.768820 0.000000 -0.000600 
#    y 0.000000 1.665800 0.000000 
#    z -0.000600 0.000000 1.693890 
# 
# From -- ./inp_files/219179.got.cif
#   From: 2010.05.17/outbox.ucp.g08.bks.cvg/sg12_110_cif.got.tgz:219179.got - 2010.06.11 11:47:21.
