data_PCOD9225501
_publ_section_title
;
Structure prediction by ZEFSAII (Michael W. Deem and Ramdas Pophale) SiO2 
 PCOD9225501
Probable space group: C 2/M
;
_chemical_formula_sum "Si O2"
_cell_formula_units_Z 28
_cell_length_a 18.000000
_cell_length_b 12.000000
_cell_length_c 15.000000
_cell_angle_alpha 90.000000
_cell_angle_beta 120.000000
_cell_angle_gamma 90.000000
_cell_volume 2805.922308
_symmetry_space_group_name_H-M "C 2/M"
_symmetry_group_IT_number 12
_symmetry_cell_setting 'monoclinic'
loop_
_space_group_symop_operation_xyz
x,y,z
-x,y,-z
-x,-y,-z
x,-y,z
1/2+x,1/2+y,z
1/2-x,1/2+y,-z
1/2-x,1/2-y,-z
1/2+x,1/2-y,z
loop_
_atom_site_type_symbol
_atom_site_label
_atom_site_fract_x
_atom_site_fract_y
_atom_site_fract_z
Si Si1 0.467653 0.771957 0.576443
Si Si2 0.000036 0.366957 0.894772
Si Si3 0.392632 0.500000 0.037493
Si Si4 0.786454 0.627167 0.415252
Si Si5 0.889520 0.211692 0.706686
Si Si6 0.404155 0.500000 0.842614
Si Si7 0.639128 0.122023 0.734042
Si Si8 0.843596 0.767620 0.093178
O O1 0.500000 0.721831 0.500000
O O2 0.377077 0.832194 0.507518
O O3 0.450723 0.699484 0.656115
O O4 0.540936 0.860824 0.644872
O O5 0.997369 0.500000 0.886167
O O6 0.925495 0.312293 0.788990
O O7 0.087131 0.315076 0.908719
O O8 0.000000 0.336445 0.000000
O O9 0.493935 0.500000 0.086159
O O10 0.368645 0.391471 0.079457
O O11 0.360496 0.500000 0.914571
O O12 0.767291 0.500000 0.433963
O O13 0.708552 0.711775 0.385060
O O14 0.803384 0.623335 0.319232
O O15 0.887530 0.107443 0.772449
O O16 0.659044 0.228188 0.806550
O O17 0.648360 0.000000 0.783704
O O18 0.750000 0.750000 0.000000
#
# Coordination Sequence:
#
# PCOD9225501 Si02
#       8
#     8   8   4   8   8   4   8   8
#     4  10  21  40  63  92 129 167 212 267 329 382
#     4  11  25  44  65  92 130 173 212 260 322 387
#     4  11  24  42  60  96 122 172 215 266 308 380
#     4  10  22  37  65  97 126 162 218 275 314 373
#     4  12  22  40  65  96 127 167 213 265 322 379
#     4  11  22  40  69  86 124 165 223 263 316 372
#     4  10  21  40  64  93 128 169 212 265 325 377
#     4  12  26  38  63  93 130 165 211 264 317 376
#
# _framework density 9.9788940000000004
#
# number of rings (size 3 to 8) (size 9 to 14) (size 15 to 20)
#    0.000    1.143    3.571    2.143    6.000    2.286 
#    0.000    0.357    0.000    1.714    0.000    0.000 
#    0.000    0.000    0.000    0.000    0.000    0.000 
#
# Total GULP energy -156153.865036 kJ/mol
# GULP energy per Si atom -5576.923751 kJ/mol
# Density = 0.995618 g / cm^3
# Si number density = 9.978894 Si / 1000 Ang^3
#
#
#
# Elastic Constant Matrix: (Units=GPa)
#
#
# Indices 1 2 3 4 5 6 
#
# 1 91.5812 35.5973 32.9401 0.0000 16.8326 0.0000
# 2 35.5973 88.5490 45.7802 0.0000 -7.5009 0.0000
# 3 32.9401 45.7802 102.1721 0.0000 2.6231 0.0000
# 4 0.0000 0.0000 0.0000 21.0876 0.0000 -1.5780
# 5 16.8326 -7.5009 2.6231 0.0000 50.5940 0.0000
# 6 0.0000 0.0000 0.0000 -1.5780 0.0000 21.7655
#
#
#
# Elastic Compliance Matrix: (Units=1/GPa)
#
#
# Indices 1 2 3 4 5 6 
#
# 1 0.014805 -0.005247 -0.002279 0.000000 -0.005585 0.000000
# 2 -0.005247 0.016886 -0.005992 0.000000 0.004560 0.000000
# 3 -0.002279 -0.005992 0.013228 0.000000 -0.000816 0.000000
# 4 0.000000 0.000000 0.000000 0.047680 0.000000 0.003457
# 5 -0.005585 0.004560 -0.000816 0.000000 0.022342 0.000000
# 6 0.000000 0.000000 0.000000 0.003457 0.000000 0.046195
#
#
# Mechanical properties :
#
#
# Convention : Reuss Voigt Hill
#
# Bulk Modulus (GPa) = 55.91434 56.77084 56.34259
# Shear Modulus (GPa) = 25.75573 29.88842 27.82207
#
# Velocity S-wave (km/s) = 3.59626 3.87406 3.73774
# Velocity P-wave (km/s) = 6.73211 6.96551 6.84980
#
# Compressibility (1/GPa) = 0.01788450
#
# Stress axis : x y z
#
# Youngs Moduli (GPa) = 67.54547 59.21919 75.59837
#
# Poissons Ratio (x) = 0.31070 0.17227
# Poissons Ratio (y) = 0.35439 0.45297
# Poissons Ratio (z) = 0.15392 0.35483
#
# Static dielectric constant tensor:
#      x y z
#    x 1.294910 0.000000 0.135630 
#    y 0.000000 1.673910 0.000000 
#    z 0.135630 0.000000 1.780500 
# 
# From -- ./inp_files/223947.got.cif
#   From: 2010.05.17/outbox.ucp.g08.bks.cvg/sg12_112_cif.got.tgz:223947.got - 2010.06.11 11:47:21.
