data_PCOD9225724
_publ_section_title
;
Structure prediction by ZEFSAII (Michael W. Deem and Ramdas Pophale) SiO2 
 PCOD9225724
Probable space group: C 2/M
;
_chemical_formula_sum "Si O2"
_cell_formula_units_Z 22
_cell_length_a 9.000000
_cell_length_b 21.000000
_cell_length_c 12.000000
_cell_angle_alpha 90.000000
_cell_angle_beta 100.000000
_cell_angle_gamma 90.000000
_cell_volume 2233.543984
_symmetry_space_group_name_H-M "C 2/M"
_symmetry_group_IT_number 12
_symmetry_cell_setting 'monoclinic'
loop_
_space_group_symop_operation_xyz
x,y,z
-x,y,-z
-x,-y,-z
x,-y,z
1/2+x,1/2+y,z
1/2-x,1/2+y,-z
1/2-x,1/2-y,-z
1/2+x,1/2-y,z
loop_
_atom_site_type_symbol
_atom_site_label
_atom_site_fract_x
_atom_site_fract_y
_atom_site_fract_z
Si Si1 0.000000 0.110744 0.000000
Si Si2 0.356706 0.321275 0.189284
Si Si3 0.781154 0.425174 0.192830
Si Si4 0.999141 0.311551 0.135168
Si Si5 0.113774 0.074382 0.619639
Si Si6 0.669019 0.076987 0.541815
O O1 0.125182 0.078475 0.099658
O O2 0.897515 0.150219 0.073126
O O3 0.176956 0.317415 0.185045
O O4 0.428853 0.250268 0.189762
O O5 0.415395 0.372992 0.288913
O O6 0.831147 0.500000 0.194822
O O7 0.769111 0.407911 0.324887
O O8 0.900847 0.374320 0.156506
O O9 0.000000 0.302842 0.000000
O O10 0.256045 0.096358 0.565377
O O11 0.000000 0.072010 0.500000
O O12 0.124832 0.000000 0.663314
O O13 0.500000 0.099173 0.500000
O O14 0.675585 0.000000 0.540231
#
# Coordination Sequence:
#
# PCOD9225724 Si02
#       6
#     4   8   8   8   8   8
#     4  12  23  42  64  94 135 172 220 276 335 406
#     4  12  25  43  70  94 130 180 228 269 335 403
#     4  11  24  41  67 102 134 172 222 277 337 401
#     4  12  24  46  66  94 135 181 222 275 340 398
#     4  10  22  42  68  99 134 171 215 272 334 394
#     4   9  18  37  62  89 126 167 207 258 324 388
#
# _framework density 9.8498169999999998
#
# number of rings (size 3 to 8) (size 9 to 14) (size 15 to 20)
#    0.000    1.091    2.727    4.091    0.000    5.455 
#    0.000    4.545    0.000    0.000    0.000    0.000 
#    0.000    0.000    0.000    0.000    0.000    0.000 
#
# Total GULP energy -122551.855383 kJ/mol
# GULP energy per Si atom -5570.538881 kJ/mol
# Density = 0.982740 g / cm^3
# Si number density = 9.849817 Si / 1000 Ang^3
#
#
#
# Elastic Constant Matrix: (Units=GPa)
#
#
# Indices 1 2 3 4 5 6 
#
# 1 118.1369 54.4721 25.5445 0.0000 0.5035 0.0000
# 2 54.4721 136.8098 60.2438 0.0000 -14.8194 0.0000
# 3 25.5445 60.2438 127.9830 0.0000 -0.4374 0.0000
# 4 0.0000 0.0000 0.0000 38.0311 0.0000 -9.2048
# 5 0.5035 -14.8194 -0.4374 0.0000 33.3101 0.0000
# 6 0.0000 0.0000 0.0000 -9.2048 0.0000 27.1488
#
#
#
# Elastic Compliance Matrix: (Units=1/GPa)
#
#
# Indices 1 2 3 4 5 6 
#
# 1 0.010509 -0.004398 -0.000034 0.000000 -0.002116 0.000000
# 2 -0.004398 0.011641 -0.004584 0.000000 0.005185 0.000000
# 3 -0.000034 -0.004584 0.009972 0.000000 -0.001908 0.000000
# 4 0.000000 0.000000 0.000000 0.028645 0.000000 0.009712
# 5 -0.002116 0.005185 -0.001908 0.000000 0.032335 0.000000
# 6 0.000000 0.000000 0.000000 0.009712 0.000000 0.040127
#
#
# Mechanical properties :
#
#
# Convention : Reuss Voigt Hill
#
# Bulk Modulus (GPa) = 70.98116 73.71673 72.34895
# Shear Modulus (GPa) = 32.05991 35.87597 33.96794
#
# Velocity S-wave (km/s) = 4.03853 4.27212 4.15697
# Velocity P-wave (km/s) = 7.60633 7.86361 7.73604
#
# Compressibility (1/GPa) = 0.01408824
#
# Stress axis : x y z
#
# Youngs Moduli (GPa) = 95.15379 85.90397 100.28458
#
# Poissons Ratio (x) = 0.37785 0.00345
# Poissons Ratio (y) = 0.41853 0.45970
# Poissons Ratio (z) = 0.00327 0.39378
#
# Static dielectric constant tensor:
#      x y z
#    x 1.346390 0.000000 0.042800 
#    y 0.000000 1.687700 0.000000 
#    z 0.042800 0.000000 1.683320 
# 
# From -- ./inp_files/120807.got.cif
#   From: 2010.05.17/outbox.ucp.g08.bks.cvg/sg12_61_cif.got.tgz:120807.got - 2010.06.11 11:47:21.
