data_PCOD9225507
_publ_section_title
;
Structure prediction by ZEFSAII (Michael W. Deem and Ramdas Pophale) SiO2 
 PCOD9225507
Probable space group: C 2/M
;
_chemical_formula_sum "Si O2"
_cell_formula_units_Z 24
_cell_length_a 18.000000
_cell_length_b 18.000000
_cell_length_c 15.000000
_cell_angle_alpha 90.000000
_cell_angle_beta 30.000000
_cell_angle_gamma 90.000000
_cell_volume 2430.000000
_symmetry_space_group_name_H-M "C 2/M"
_symmetry_group_IT_number 12
_symmetry_cell_setting 'monoclinic'
loop_
_space_group_symop_operation_xyz
x,y,z
-x,y,-z
-x,-y,-z
x,-y,z
1/2+x,1/2+y,z
1/2-x,1/2+y,-z
1/2-x,1/2-y,-z
1/2+x,1/2-y,z
loop_
_atom_site_type_symbol
_atom_site_label
_atom_site_fract_x
_atom_site_fract_y
_atom_site_fract_z
Si Si1 0.240390 0.339930 0.582690
Si Si2 0.116499 0.673151 0.013602
Si Si3 0.668153 0.586283 0.342562
Si Si4 0.846515 0.324060 0.517915
Si Si5 0.654592 0.337094 0.894144
Si Si6 0.652591 0.090062 0.161397
O O1 0.301039 0.402395 0.585000
O O2 0.244431 0.356248 0.473063
O O3 0.333853 0.264512 0.507513
O O4 0.064030 0.331137 0.790568
O O5 0.176773 0.634286 0.042176
O O6 0.202938 0.629202 0.845386
O O7 0.146099 0.759313 0.958092
O O8 0.500000 0.614562 0.500000
O O9 0.673469 0.500000 0.311588
O O10 0.773173 0.332296 0.690393
O O11 0.004519 0.366548 0.351445
O O12 0.715656 0.395310 0.904069
O O13 0.500000 0.349692 0.000000
O O14 0.630991 0.000000 0.171546
#
# Coordination Sequence:
#
# PCOD9225507 Si02
#       6
#     8   8   8   8   8   8
#     4  10  21  40  64  96 128 171 226 276 335 394
#     4  11  22  44  70  97 133 173 230 282 330 400
#     4  11  24  38  61  99 139 177 218 271 339 404
#     4  10  22  40  66  95 128 168 227 281 321 402
#     4  12  23  41  68 103 132 174 229 280 334 395
#     4  11  27  45  67  99 136 185 226 273 340 401
#
# _framework density 9.8765429999999999
#
# number of rings (size 3 to 8) (size 9 to 14) (size 15 to 20)
#    0.000    1.167    3.333    2.000    2.333    7.000 
#    0.000    0.000    0.000    0.000    0.000    0.000 
#    0.000    0.000    0.000    0.000    0.000    0.000 
#
# Total GULP energy -133892.993878 kJ/mol
# GULP energy per Si atom -5578.874745 kJ/mol
# Density = 0.985406 g / cm^3
# Si number density = 9.876543 Si / 1000 Ang^3
#
#
#
# Elastic Constant Matrix: (Units=GPa)
#
#
# Indices 1 2 3 4 5 6 
#
# 1 132.8033 38.6169 27.8649 -0.0005 6.5275 0.0004
# 2 38.6169 77.1688 30.7446 -0.0016 -10.9362 0.0012
# 3 27.8649 30.7446 55.1876 -0.0015 9.0828 0.0012
# 4 -0.0005 -0.0016 -0.0015 26.9766 0.0006 2.5162
# 5 6.5275 -10.9362 9.0828 0.0006 31.6016 -0.0005
# 6 0.0004 0.0012 0.0012 2.5162 -0.0005 34.0558
#
#
#
# Elastic Compliance Matrix: (Units=1/GPa)
#
#
# Indices 1 2 3 4 5 6 
#
# 1 0.009318 -0.004362 -0.001795 0.000000 -0.002918 0.000000
# 2 -0.004362 0.021443 -0.011665 0.000000 0.011674 0.000000
# 3 -0.001795 -0.011665 0.027425 0.000001 -0.011549 -0.000001
# 4 0.000000 0.000000 0.000001 0.037326 -0.000001 -0.002758
# 5 -0.002918 0.011674 -0.011549 -0.000001 0.039606 0.000001
# 6 0.000000 0.000000 -0.000001 -0.002758 0.000001 0.029567
#
#
# Mechanical properties :
#
#
# Convention : Reuss Voigt Hill
#
# Bulk Modulus (GPa) = 44.35759 51.06807 47.71283
# Shear Modulus (GPa) = 24.05652 29.72234 26.88943
#
# Velocity S-wave (km/s) = 3.49357 3.88325 3.69355
# Velocity P-wave (km/s) = 6.22721 6.78347 6.51128
#
# Compressibility (1/GPa) = 0.02254406
#
# Stress axis : x y z
#
# Youngs Moduli (GPa) = 107.31661 46.63508 36.46256
#
# Poissons Ratio (x) = 0.20340 0.06544
# Poissons Ratio (y) = 0.46807 0.42533
# Poissons Ratio (z) = 0.19261 0.54400
#
# Static dielectric constant tensor:
#      x y z
#    x 1.723040 0.000000 -0.005870 
#    y 0.000000 1.678060 0.000000 
#    z -0.005870 0.000000 1.700340 
# 
# From -- ./inp_files/226724.got.cif
#   From: 2010.05.17/outbox.ucp.g08.bks.cvg/sg12_114_cif.got.tgz:226724.got - 2010.06.11 11:47:21.
