data_PCOD9225001
_publ_section_title
;
Structure prediction by ZEFSAII (Michael W. Deem and Ramdas Pophale) SiO2 
 PCOD9225001
Probable space group: C 2/M
;
_chemical_formula_sum "Si O2"
_cell_formula_units_Z 32
_cell_length_a 18.000000
_cell_length_b 9.000000
_cell_length_c 30.000000
_cell_angle_alpha 90.000000
_cell_angle_beta 140.000000
_cell_angle_gamma 90.000000
_cell_volume 3123.947783
_symmetry_space_group_name_H-M "C 2/M"
_symmetry_group_IT_number 12
_symmetry_cell_setting 'monoclinic'
loop_
_space_group_symop_operation_xyz
x,y,z
-x,y,-z
-x,-y,-z
x,-y,z
1/2+x,1/2+y,z
1/2-x,1/2+y,-z
1/2-x,1/2-y,-z
1/2+x,1/2-y,z
loop_
_atom_site_type_symbol
_atom_site_label
_atom_site_fract_x
_atom_site_fract_y
_atom_site_fract_z
Si Si1 0.735913 0.672622 0.359432
Si Si2 0.989071 0.675401 0.721268
Si Si3 0.752351 0.319427 0.133847
Si Si4 0.994878 0.168480 0.633506
Si Si5 0.094101 0.821418 0.142604
Si Si6 0.426609 0.175062 0.511681
Si Si7 0.666683 0.320231 0.997609
Si Si8 0.747326 0.666210 0.717554
O O1 0.746501 0.500000 0.354664
O O2 0.606422 0.729376 0.297860
O O3 0.796022 0.699020 0.434349
O O4 0.796244 0.762784 0.348104
O O5 0.974689 0.500000 0.721796
O O6 0.116067 0.721238 0.795622
O O7 0.968986 0.716299 0.660517
O O8 0.748623 0.500000 0.132446
O O9 0.670611 0.268422 0.136139
O O10 0.704907 0.271074 0.064393
O O11 0.134203 0.163581 0.696019
O O12 0.951733 0.225096 0.565851
O O13 0.953257 0.000000 0.623846
O O14 0.152626 0.759430 0.213633
O O15 0.098461 0.000000 0.146012
O O16 0.963360 0.775839 0.074079
O O17 0.500000 0.203567 0.500000
O O18 0.444368 0.000000 0.530719
O O19 0.672766 0.500000 0.999181
O O20 0.750000 0.250000 0.000000
O O21 0.788249 0.500000 0.728395
#
# Coordination Sequence:
#
# PCOD9225001 Si02
#       8
#     8   8   8   8   8   8   8   8
#     4  11  24  41  62  89 123 158 200 253 305 362
#     4  11  23  40  63  90 123 162 201 248 305 362
#     4   9  19  38  63  87 116 156 202 246 290 351
#     4  11  23  39  62  91 123 158 201 254 303 358
#     4  10  20  38  64  89 115 159 209 248 293 352
#     4  10  21  39  63  88 117 158 203 250 305 363
#     4  10  22  39  60  90 124 158 197 246 301 356
#     4  11  23  38  60  91 124 158 200 252 304 357
#
# _framework density 10.243449
#
# number of rings (size 3 to 8) (size 9 to 14) (size 15 to 20)
#    0.000    1.625    2.500    1.875    1.750    4.750 
#    0.000    1.250    0.000    1.500    0.000    0.000 
#    0.000    0.000    0.000    0.000    0.000    0.000 
#
# Total GULP energy -178577.460883 kJ/mol
# GULP energy per Si atom -5580.545653 kJ/mol
# Density = 1.022013 g / cm^3
# Si number density = 10.243449 Si / 1000 Ang^3
#
#
#
# Elastic Constant Matrix: (Units=GPa)
#
#
# Indices 1 2 3 4 5 6 
#
# 1 34.5117 -6.4916 18.4527 0.0000 7.1375 0.0000
# 2 -6.4916 -18.1348 4.0763 0.0000 4.1439 0.0000
# 3 18.4527 4.0763 79.5820 0.0000 -0.8582 0.0000
# 4 0.0000 0.0000 0.0000 8.6428 0.0000 3.9384
# 5 7.1375 4.1439 -0.8582 0.0000 32.8092 0.0000
# 6 0.0000 0.0000 0.0000 3.9384 0.0000 23.3339
#
#
#
# Elastic Compliance Matrix: (Units=1/GPa)
#
#
# Indices 1 2 3 4 5 6 
#
# 1 0.030954 -0.013730 -0.006530 0.000000 -0.005171 0.000000
# 2 -0.013730 -0.046881 0.005682 0.000000 0.009057 0.000000
# 3 -0.006530 0.005682 0.013800 0.000000 0.001064 0.000000
# 4 0.000000 0.000000 0.000000 0.125344 0.000000 -0.021156
# 5 -0.005171 0.009057 0.001064 0.000000 0.030488 0.000000
# 6 0.000000 0.000000 0.000000 -0.021156 0.000000 0.046427
#
#
# Mechanical properties :
#
#
# Convention : Reuss Voigt Hill
#
# Bulk Modulus (GPa) = -31.96820 14.22596 -8.87112
# Shear Modulus (GPa) = 22.84575 18.28527 20.56551
#
# Velocity S-wave (km/s) = 3.34299 2.99077 3.17178
# Velocity P-wave (km/s) = 0.85865 4.34572 3.01231
#
# Compressibility (1/GPa) = -0.03128109
#
# Stress axis : x y z
#
# Youngs Moduli (GPa) = 32.30621 -21.33056 72.46315
#
# Poissons Ratio (x) = -0.29286 0.47317
# Poissons Ratio (y) = 0.44355 -0.41177
# Poissons Ratio (z) = 0.21095 0.12121
#
# Static dielectric constant tensor:
#      x y z
#    x 2.229010 0.000000 0.171220 
#    y 0.000000 1.701610 0.000000 
#    z 0.171220 0.000000 1.768930 
# 
# From -- ./inp_files/378383.got.cif
#   From: 2010.05.17/outbox.ucp.g08.bks.cvg/sg12_190_cif.got.tgz:378383.got - 2010.06.11 11:47:21.
