data_PCOD9225945
_publ_section_title
;
Structure prediction by ZEFSAII (Michael W. Deem and Ramdas Pophale) SiO2 
 PCOD9225945
Probable space group: C 2/M
;
_chemical_formula_sum "Si O2"
_cell_formula_units_Z 20
_cell_length_a 24.000000
_cell_length_b 9.000000
_cell_length_c 30.000000
_cell_angle_alpha 90.000000
_cell_angle_beta 160.000000
_cell_angle_gamma 90.000000
_cell_volume 2216.290529
_symmetry_space_group_name_H-M "C 2/M"
_symmetry_group_IT_number 12
_symmetry_cell_setting 'monoclinic'
loop_
_space_group_symop_operation_xyz
x,y,z
-x,y,-z
-x,-y,-z
x,-y,z
1/2+x,1/2+y,z
1/2-x,1/2+y,-z
1/2-x,1/2-y,-z
1/2+x,1/2-y,z
loop_
_atom_site_type_symbol
_atom_site_label
_atom_site_fract_x
_atom_site_fract_y
_atom_site_fract_z
Si Si1 0.281675 0.820225 0.901438
Si Si2 0.222598 0.179529 0.360584
Si Si3 0.138762 0.178750 0.191900
Si Si4 0.921666 0.820498 0.344307
Si Si5 0.619784 0.819402 0.866733
O O1 0.172549 0.795064 0.774365
O O2 0.184362 0.739746 0.867954
O O3 0.292691 0.000000 0.915628
O O4 0.467972 0.754032 0.046151
O O5 0.182260 0.201309 0.277222
O O6 0.397053 0.248765 0.509174
O O7 0.063380 0.256335 0.263316
O O8 0.225460 0.000000 0.370550
O O9 0.291698 0.249480 0.280857
O O10 0.127033 0.000000 0.175840
O O11 0.935947 0.000000 0.360321
O O12 0.621919 0.000000 0.871184
O O13 0.750000 0.750000 0.000000
#
# Coordination Sequence:
#
# PCOD9225945 Si02
#       5
#     8   8   8   8   8
#     4  11  24  42  65  93 127 167 211 260 312 371
#     4  11  24  42  65  94 127 166 211 259 311 373
#     4  11  23  40  65  94 126 167 213 260 312 372
#     4  11  25  42  62  93 130 168 210 259 316 371
#     4  12  24  41  67  95 124 162 208 259 312 372
#
# _framework density 9.0240880000000008
#
# number of rings (size 3 to 8) (size 9 to 14) (size 15 to 20)
#    0.000    0.800    2.000    5.400    0.000   11.200 
#    0.000    0.000    0.000    0.000    0.000    0.000 
#    0.000    0.000    0.000    0.000    0.000    0.000 
#
# Total GULP energy -111627.591850 kJ/mol
# GULP energy per Si atom -5581.379592 kJ/mol
# Density = 0.900355 g / cm^3
# Si number density = 9.024088 Si / 1000 Ang^3
#
#
#
# Elastic Constant Matrix: (Units=GPa)
#
#
# Indices 1 2 3 4 5 6 
#
# 1 109.1028 63.1614 73.9763 -0.0055 13.2002 -0.0002
# 2 63.1614 172.6190 92.1677 -0.0046 6.5804 0.0004
# 3 73.9763 92.1677 225.7179 -0.0075 17.3741 0.0002
# 4 -0.0055 -0.0046 -0.0075 53.4253 0.0019 0.8650
# 5 13.2002 6.5804 17.3741 0.0019 44.5635 0.0008
# 6 -0.0002 0.0004 0.0002 0.8650 0.0008 33.8387
#
#
#
# Elastic Compliance Matrix: (Units=1/GPa)
#
#
# Indices 1 2 3 4 5 6 
#
# 1 0.013251 -0.003244 -0.002838 0.000001 -0.002340 0.000000
# 2 -0.003244 0.008203 -0.002337 0.000000 0.000661 0.000000
# 3 -0.002838 -0.002337 0.006416 0.000000 -0.001316 0.000000
# 4 0.000001 0.000000 0.000000 0.018725 -0.000001 -0.000479
# 5 -0.002340 0.000661 -0.001316 -0.000001 0.023548 -0.000001
# 6 0.000000 0.000000 0.000000 -0.000479 -0.000001 0.029564
#
#
# Mechanical properties :
#
#
# Convention : Reuss Voigt Hill
#
# Bulk Modulus (GPa) = 90.65069 107.33896 98.99482
# Shear Modulus (GPa) = 41.58914 44.90780 43.24847
#
# Velocity S-wave (km/s) = 4.80556 4.99362 4.90049
# Velocity P-wave (km/s) = 9.00707 9.63592 9.32680
#
# Compressibility (1/GPa) = 0.01103136
#
# Stress axis : x y z
#
# Youngs Moduli (GPa) = 75.46512 121.90988 155.85815
#
# Poissons Ratio (x) = 0.39548 0.44236
# Poissons Ratio (y) = 0.24481 0.36426
# Poissons Ratio (z) = 0.21418 0.28492
#
# Static dielectric constant tensor:
#      x y z
#    x 1.656610 0.000000 -0.008740 
#    y 0.000000 1.612880 0.000000 
#    z -0.008740 0.000000 1.600670 
# 
# From -- ./inp_files/381957.got.cif
#   From: 2010.05.17/outbox.ucp.g08.bks.cvg/sg12_191_cif.got.tgz:381957.got - 2010.06.11 11:47:21.
