data_PCOD9225026
_publ_section_title
;
Structure prediction by ZEFSAII (Michael W. Deem and Ramdas Pophale) SiO2 
 PCOD9225026
Probable space group: C 2/M
;
_chemical_formula_sum "Si O2"
_cell_formula_units_Z 32
_cell_length_a 18.000000
_cell_length_b 9.000000
_cell_length_c 30.000000
_cell_angle_alpha 90.000000
_cell_angle_beta 40.000000
_cell_angle_gamma 90.000000
_cell_volume 3123.947783
_symmetry_space_group_name_H-M "C 2/M"
_symmetry_group_IT_number 12
_symmetry_cell_setting 'monoclinic'
loop_
_space_group_symop_operation_xyz
x,y,z
-x,y,-z
-x,-y,-z
x,-y,z
1/2+x,1/2+y,z
1/2-x,1/2+y,-z
1/2-x,1/2-y,-z
1/2+x,1/2-y,z
loop_
_atom_site_type_symbol
_atom_site_label
_atom_site_fract_x
_atom_site_fract_y
_atom_site_fract_z
Si Si1 0.738303 0.172754 0.391508
Si Si2 0.695517 0.324508 0.737077
Si Si3 0.350721 0.676915 0.483614
Si Si4 0.594808 0.666728 0.326557
Si Si5 0.354014 0.826376 0.859876
Si Si6 0.603406 0.680754 0.981387
Si Si7 0.001945 0.839101 0.724884
Si Si8 0.959704 0.178273 0.891306
O O1 0.766946 0.233433 0.329104
O O2 0.659280 0.263254 0.461328
O O3 0.867635 0.175702 0.351861
O O4 0.700203 0.000000 0.406305
O O5 0.679367 0.500000 0.738765
O O6 0.807156 0.286995 0.713535
O O7 0.582328 0.266632 0.814557
O O8 0.335033 0.500000 0.489629
O O9 0.250000 0.750000 0.500000
O O10 0.477012 0.709983 0.405761
O O11 0.628665 0.500000 0.326717
O O12 0.571832 0.657242 0.285068
O O13 0.225959 0.786973 0.902532
O O14 0.454181 0.782585 0.779899
O O15 0.368580 0.732119 0.897447
O O16 0.359243 0.000000 0.867567
O O17 0.597079 0.500000 0.985533
O O18 0.500000 0.740413 0.000000
O O19 0.580293 0.732318 0.042180
O O20 0.994766 0.000000 0.751877
O O21 0.966536 0.000000 0.890135
#
# Coordination Sequence:
#
# PCOD9225026 Si02
#       8
#     8   8   8   8   8   8   8   8
#     4  10  20  39  61  84 115 150 196 241 282 341
#     4  10  22  38  60  87 114 152 196 237 284 344
#     4  11  22  38  60  86 115 153 194 237 292 345
#     4  10  23  40  58  83 118 153 187 237 295 346
#     4  11  22  35  59  92 117 147 197 247 281 331
#     4   9  20  37  58  86 119 153 191 238 287 337
#     4  10  20  39  61  82 116 157 192 234 292 347
#     4  10  20  39  63  82 114 161 194 229 289 348
#
# _framework density 10.243449
#
# number of rings (size 3 to 8) (size 9 to 14) (size 15 to 20)
#    0.000    1.875    2.500    1.125    1.750    3.500 
#    0.000    3.125    0.000    1.875    0.000    0.000 
#    0.000    0.000    0.000    0.000    0.000    0.000 
#
# Total GULP energy -178228.462430 kJ/mol
# GULP energy per Si atom -5569.639451 kJ/mol
# Density = 1.022013 g / cm^3
# Si number density = 10.243449 Si / 1000 Ang^3
#
#
#
# Elastic Constant Matrix: (Units=GPa)
#
#
# Indices 1 2 3 4 5 6 
#
# 1 37.5853 10.8664 3.2717 -0.0009 -6.5720 0.0000
# 2 10.8664 -3.5380 17.3444 -0.0016 0.2864 0.0000
# 3 3.2717 17.3444 49.2111 -0.0001 5.5521 -0.0002
# 4 -0.0009 -0.0016 -0.0001 172.8405 -0.0001 61.8473
# 5 -6.5720 0.2864 5.5521 -0.0001 15.6915 -0.0001
# 6 0.0000 0.0000 -0.0002 61.8473 -0.0001 43.2984
#
#
#
# Elastic Compliance Matrix: (Units=1/GPa)
#
#
# Indices 1 2 3 4 5 6 
#
# 1 0.023640 0.021494 -0.010645 0.000001 0.013275 -0.000001
# 2 0.021494 -0.082121 0.027424 -0.000001 0.000798 0.000002
# 3 -0.010645 0.027424 0.012418 0.000000 -0.009353 0.000000
# 4 0.000001 -0.000001 0.000000 0.011835 0.000000 -0.016905
# 5 0.013275 0.000798 -0.009353 0.000000 0.072583 0.000000
# 6 -0.000001 0.000002 0.000000 -0.016905 0.000000 0.047242
#
#
# Mechanical properties :
#
#
# Convention : Reuss Voigt Hill
#
# Bulk Modulus (GPa) = 32.80390 16.24706 24.52548
# Shear Modulus (GPa) = 260.26651 49.81780 155.04216
#
# Velocity S-wave (km/s) = 11.28345 4.93657 8.70879
# Velocity P-wave (km/s) = 13.63092 6.35929 10.63585
#
# Compressibility (1/GPa) = 0.03048418
#
# Stress axis : x y z
#
# Youngs Moduli (GPa) = 42.30172 -12.17720 80.52911
#
# Poissons Ratio (x) = 0.26174 0.85724
# Poissons Ratio (y) = -0.90925 -2.20845
# Poissons Ratio (z) = 0.45030 0.33395
#
# Static dielectric constant tensor:
#      x y z
#    x 2.270390 0.000000 0.203950 
#    y 0.000000 1.778520 0.000000 
#    z 0.203950 0.000000 1.801950 
# 
# From -- ./inp_files/345998.got.cif
#   From: 2010.05.17/outbox.ucp.g08.bks.cvg/sg12_173_cif.got.tgz:345998.got - 2010.06.11 11:47:21.
