data_PCOD9225937
_publ_section_title
;
Structure prediction by ZEFSAII (Michael W. Deem and Ramdas Pophale) SiO2 
 PCOD9225937
Probable space group: C 2/M
;
_chemical_formula_sum "Si O2"
_cell_formula_units_Z 30
_cell_length_a 9.000000
_cell_length_b 21.000000
_cell_length_c 21.000000
_cell_angle_alpha 90.000000
_cell_angle_beta 130.000000
_cell_angle_gamma 90.000000
_cell_volume 3040.430395
_symmetry_space_group_name_H-M "C 2/M"
_symmetry_group_IT_number 12
_symmetry_cell_setting 'monoclinic'
loop_
_space_group_symop_operation_xyz
x,y,z
-x,y,-z
-x,-y,-z
x,-y,z
1/2+x,1/2+y,z
1/2-x,1/2+y,-z
1/2-x,1/2-y,-z
1/2+x,1/2-y,z
loop_
_atom_site_type_symbol
_atom_site_label
_atom_site_fract_x
_atom_site_fract_y
_atom_site_fract_z
Si Si1 0.874363 0.823396 0.202346
Si Si2 0.463428 0.199469 0.617622
Si Si3 0.000000 0.378493 0.500000
Si Si4 0.565916 0.427935 0.091188
Si Si5 0.571271 0.424425 0.352018
Si Si6 0.592898 0.331343 0.594507
Si Si7 0.795544 0.568268 0.910013
Si Si8 0.790371 0.188894 0.796666
O O1 0.704983 0.870537 0.134419
O O2 0.793692 0.757827 0.207854
O O3 0.002888 0.873143 0.279618
O O4 0.998536 0.803148 0.175331
O O5 0.432547 0.164337 0.541827
O O6 0.497476 0.273078 0.607722
O O7 0.307126 0.190622 0.631227
O O8 0.653944 0.169195 0.700654
O O9 0.803192 0.415991 0.427647
O O10 0.650627 0.500000 0.121273
O O11 0.378379 0.426605 0.086364
O O12 0.697692 0.368289 0.149207
O O13 0.500000 0.420706 0.000000
O O14 0.535048 0.500000 0.331052
O O15 0.447866 0.395779 0.377855
O O16 0.500000 0.338155 0.500000
O O17 0.766324 0.500000 0.868214
O O18 0.000000 0.566087 0.000000
#
# Coordination Sequence:
#
# PCOD9225937 Si02
#       8
#     8   8   4   8   8   8   8   8
#     4  11  23  40  64  92 127 163 209 265 312 376
#     4  12  22  39  65  95 121 162 211 266 314 369
#     4  12  23  44  68  92 119 166 220 266 315 384
#     4   9  20  41  65  91 125 164 204 252 311 376
#     4  12  26  44  62  89 128 170 213 266 326 379
#     4  12  23  39  64  89 125 162 212 261 317 378
#     4   9  19  38  63  90 121 163 208 251 306 374
#     4  11  23  39  64  93 126 161 209 260 312 371
#
# _framework density 9.8670240000000007
#
# number of rings (size 3 to 8) (size 9 to 14) (size 15 to 20)
#    0.000    1.067    4.667    2.600    0.000    2.400 
#    0.000    3.333    0.000    0.000    0.000    0.000 
#    0.000    0.000    0.000    0.000    0.000    0.000 
#
# Total GULP energy -167108.804436 kJ/mol
# GULP energy per Si atom -5570.293481 kJ/mol
# Density = 0.984457 g / cm^3
# Si number density = 9.867024 Si / 1000 Ang^3
#
#
#
# Elastic Constant Matrix: (Units=GPa)
#
#
# Indices 1 2 3 4 5 6 
#
# 1 69.0065 51.3219 7.4090 0.0000 2.7540 0.0000
# 2 51.3219 184.6448 69.6616 0.0000 -5.8857 0.0000
# 3 7.4090 69.6616 79.9262 0.0000 -2.5468 0.0000
# 4 0.0000 0.0000 0.0000 28.0217 0.0000 5.2427
# 5 2.7540 -5.8857 -2.5468 0.0000 22.0294 0.0000
# 6 0.0000 0.0000 0.0000 5.2427 0.0000 14.5966
#
#
#
# Elastic Compliance Matrix: (Units=1/GPa)
#
#
# Indices 1 2 3 4 5 6 
#
# 1 0.019522 -0.007181 0.004327 0.000000 -0.003859 0.000000
# 2 -0.007181 0.010751 -0.008616 0.000000 0.002774 0.000000
# 3 0.004327 -0.008616 0.019602 0.000000 -0.000577 0.000000
# 4 0.000000 0.000000 0.000000 0.038257 0.000000 -0.013741
# 5 -0.003859 0.002774 -0.000577 0.000000 0.046551 0.000000
# 6 0.000000 0.000000 0.000000 -0.013741 0.000000 0.073445
#
#
# Mechanical properties :
#
#
# Convention : Reuss Voigt Hill
#
# Bulk Modulus (GPa) = 37.12992 65.59585 51.36288
# Shear Modulus (GPa) = 20.82926 26.60853 23.71889
#
# Velocity S-wave (km/s) = 3.25237 3.67598 3.47064
# Velocity P-wave (km/s) = 5.74107 7.16444 6.49188
#
# Compressibility (1/GPa) = 0.02693246
#
# Stress axis : x y z
#
# Youngs Moduli (GPa) = 51.22470 93.01521 51.01595
#
# Poissons Ratio (x) = 0.66798 -0.22072
# Poissons Ratio (y) = 0.36786 0.43956
# Poissons Ratio (z) = -0.22162 0.80143
#
# Static dielectric constant tensor:
#      x y z
#    x 1.769240 0.000000 0.022780 
#    y 0.000000 1.684890 0.000000 
#    z 0.022780 0.000000 1.762480 
# 
# From -- ./inp_files/301892.got.cif
#   From: 2010.05.17/outbox.ucp.g08.bks.cvg/sg12_151_cif.got.tgz:301892.got - 2010.06.11 11:47:21.
