data_PCOD9225624
_publ_section_title
;
Structure prediction by ZEFSAII (Michael W. Deem and Ramdas Pophale) SiO2 
 PCOD9225624
Probable space group: C 2/M
;
_chemical_formula_sum "Si O2"
_cell_formula_units_Z 28
_cell_length_a 12.000000
_cell_length_b 15.000000
_cell_length_c 30.000000
_cell_angle_alpha 90.000000
_cell_angle_beta 30.000000
_cell_angle_gamma 90.000000
_cell_volume 2700.000000
_symmetry_space_group_name_H-M "C 2/M"
_symmetry_group_IT_number 12
_symmetry_cell_setting 'monoclinic'
loop_
_space_group_symop_operation_xyz
x,y,z
-x,y,-z
-x,-y,-z
x,-y,z
1/2+x,1/2+y,z
1/2-x,1/2+y,-z
1/2-x,1/2-y,-z
1/2+x,1/2-y,z
loop_
_atom_site_type_symbol
_atom_site_label
_atom_site_fract_x
_atom_site_fract_y
_atom_site_fract_z
Si Si1 0.181784 0.898419 0.634536
Si Si2 0.649742 0.103704 0.808941
Si Si3 0.379471 0.105160 0.665322
Si Si4 0.089856 0.107500 0.850516
Si Si5 0.915700 0.390287 0.979850
Si Si6 0.483372 0.109114 0.244618
Si Si7 0.251531 0.199958 0.410891
O O1 0.275576 0.887633 0.652300
O O2 0.251252 0.807802 0.585716
O O3 0.914410 0.895074 0.724385
O O4 0.244531 0.000000 0.597486
O O5 0.547673 0.141799 0.890105
O O6 0.584183 0.137704 0.782151
O O7 0.576183 0.000000 0.832857
O O8 0.204363 0.134065 0.764176
O O9 0.598774 0.161115 0.600928
O O10 0.428426 0.000000 0.655714
O O11 0.258365 0.128388 0.832422
O O12 0.076583 0.000000 0.853998
O O13 0.838446 0.139265 0.939180
O O14 0.928453 0.500000 0.975759
O O15 0.000000 0.362724 0.000000
O O16 0.352640 0.162085 0.329074
O O17 0.448436 0.000000 0.261106
O O18 0.000000 0.167105 0.500000
#
# Coordination Sequence:
#
# PCOD9225624 Si02
#       7
#     8   8   8   8   8   8   8
#     4  10  22  40  60  84 119 159 196 244 305 364
#     4   9  18  33  54  84 120 157 198 244 298 352
#     4   9  19  38  61  87 119 158 199 240 298 361
#     4   8  14  27  50  81 116 153 197 243 286 343
#     4   9  15  24  47  85 120 155 204 247 280 342
#     4   9  19  36  57  85 121 160 196 243 309 363
#     4  11  24  39  64  88 114 149 206 253 302 361
#
# _framework density 10.370369999999999
#
# number of rings (size 3 to 8) (size 9 to 14) (size 15 to 20)
#    0.000    2.714    0.000    2.143    2.000    6.000 
#    0.000    2.857    0.000    3.429    7.429    0.000 
#    0.000    0.000    0.000    0.000    0.000    0.286 
#
# Total GULP energy -156199.906933 kJ/mol
# GULP energy per Si atom -5578.568105 kJ/mol
# Density = 1.034677 g / cm^3
# Si number density = 10.370370 Si / 1000 Ang^3
#
#
#
# Elastic Constant Matrix: (Units=GPa)
#
#
# Indices 1 2 3 4 5 6 
#
# 1 149.1333 27.7015 35.4623 0.0009 -23.6075 0.0023
# 2 27.7015 59.3829 7.1139 0.0017 -6.0079 -0.0002
# 3 35.4623 7.1139 78.9455 0.0038 -35.1576 0.0069
# 4 0.0009 0.0017 0.0038 11.3864 0.0039 -0.4325
# 5 -23.6075 -6.0079 -35.1576 0.0039 24.3225 -0.0009
# 6 0.0023 -0.0002 0.0069 -0.4325 -0.0009 24.6719
#
#
#
# Elastic Compliance Matrix: (Units=1/GPa)
#
#
# Indices 1 2 3 4 5 6 
#
# 1 0.008487 -0.003222 -0.000584 -0.000002 0.006598 0.000000
# 2 -0.003222 0.018521 0.001187 -0.000004 0.003164 0.000000
# 3 -0.000584 0.001187 0.035648 -0.000030 0.051255 -0.000008
# 4 -0.000002 -0.000004 -0.000030 0.087882 -0.000060 0.001540
# 5 0.006598 0.003164 0.051255 -0.000060 0.122388 -0.000011
# 6 0.000000 0.000000 -0.000008 0.001540 -0.000011 0.040559
#
#
# Mechanical properties :
#
#
# Convention : Reuss Voigt Hill
#
# Bulk Modulus (GPa) = 17.41561 47.55744 32.48652
# Shear Modulus (GPa) = 14.79900 26.55512 20.67706
#
# Velocity S-wave (km/s) = 2.67408 3.58206 3.16084
# Velocity P-wave (km/s) = 4.23667 6.33147 5.38687
#
# Compressibility (1/GPa) = 0.05741975
#
# Stress axis : x y z
#
# Youngs Moduli (GPa) = 117.82590 53.99393 28.05202
#
# Poissons Ratio (x) = 0.17395 0.01637
# Poissons Ratio (y) = 0.37960 -0.03331
# Poissons Ratio (z) = 0.06877 -0.06411
#
# Static dielectric constant tensor:
#      x y z
#    x 1.704590 0.000000 0.000530 
#    y 0.000000 1.770870 0.000000 
#    z 0.000530 0.000000 1.750580 
# 
# From -- ./inp_files/374216.got.cif
#   From: 2010.05.17/outbox.ucp.g08.bks.cvg/sg12_188_cif.got.tgz:374216.got - 2010.06.11 11:47:21.
