data_PCOD9225353
_publ_section_title
;
Structure prediction by ZEFSAII (Michael W. Deem and Ramdas Pophale) SiO2 
 PCOD9225353
Probable space group: C 2/M
;
_chemical_formula_sum "Si O2"
_cell_formula_units_Z 25
_cell_length_a 15.000000
_cell_length_b 9.000000
_cell_length_c 27.000000
_cell_angle_alpha 90.000000
_cell_angle_beta 130.000000
_cell_angle_gamma 90.000000
_cell_volume 2792.231995
_symmetry_space_group_name_H-M "C 2/M"
_symmetry_group_IT_number 12
_symmetry_cell_setting 'monoclinic'
loop_
_space_group_symop_operation_xyz
x,y,z
-x,y,-z
-x,-y,-z
x,-y,z
1/2+x,1/2+y,z
1/2-x,1/2+y,-z
1/2-x,1/2-y,-z
1/2+x,1/2-y,z
loop_
_atom_site_type_symbol
_atom_site_label
_atom_site_fract_x
_atom_site_fract_y
_atom_site_fract_z
Si Si1 0.161745 0.178360 0.429661
Si Si2 0.685206 0.321951 0.322310
Si Si3 0.000000 0.000000 0.000000
Si Si4 0.106170 0.176135 0.659883
Si Si5 0.299056 0.324505 0.195437
Si Si6 0.054232 0.165399 0.118453
Si Si7 0.974360 0.677832 0.184499
O O1 0.250000 0.250000 0.500000
O O2 0.180695 0.221167 0.378766
O O3 0.028459 0.214977 0.395660
O O4 0.173746 0.000000 0.436121
O O5 0.667522 0.500000 0.312995
O O6 0.806941 0.272601 0.341932
O O7 0.585509 0.240220 0.254717
O O8 0.004444 0.872433 0.046343
O O9 0.137334 0.196412 0.728994
O O10 0.123051 0.000000 0.655201
O O11 0.302708 0.500000 0.185252
O O12 0.168934 0.264842 0.154631
O O13 0.363798 0.230502 0.176598
O O14 0.974702 0.246378 0.130546
O O15 0.086367 0.000000 0.150202
O O16 0.980409 0.500000 0.182776
#
# Coordination Sequence:
#
# PCOD9225353 Si02
#       7
#     8   8   2   8   8   8   8
#     4  10  23  42  59  81 122 167 208 256 318 376
#     4  11  22  38  60  90 123 160 208 266 314 370
#     4   8  24  44  70  88 136 166 204 244 312 388
#     4  10  21  38  59  89 123 158 205 262 315 372
#     4  11  21  37  64  97 127 160 208 264 312 363
#     4  10  21  42  66  90 126 164 202 248 310 367
#     4  12  23  36  62  98 127 162 210 261 313 365
#
# _framework density 8.9534109999999991
#
# number of rings (size 3 to 8) (size 9 to 14) (size 15 to 20)
#    0.480    0.960    3.200    2.880    0.000    3.200 
#    0.000    5.600    0.000    0.000    0.000    0.000 
#    0.000    0.000    0.000    0.000    0.000    0.000 
#
# Total GULP energy -139283.116340 kJ/mol
# GULP energy per Si atom -5571.324654 kJ/mol
# Density = 0.893303 g / cm^3
# Si number density = 8.953411 Si / 1000 Ang^3
#
#
#
# Elastic Constant Matrix: (Units=GPa)
#
#
# Indices 1 2 3 4 5 6 
#
# 1 66.8275 13.3244 -10.4471 0.0000 -10.4686 0.0000
# 2 13.3244 71.2439 9.6543 0.0000 -12.9510 0.0000
# 3 -10.4471 9.6543 25.3662 0.0000 -20.1036 0.0000
# 4 0.0000 0.0000 0.0000 27.7793 0.0000 -5.3305
# 5 -10.4686 -12.9510 -20.1036 0.0000 21.2539 0.0000
# 6 0.0000 0.0000 0.0000 -5.3305 0.0000 35.2636
#
#
#
# Elastic Compliance Matrix: (Units=1/GPa)
#
#
# Indices 1 2 3 4 5 6 
#
# 1 -0.280567 -0.006181 -0.901551 0.000000 -0.994720 0.000000
# 2 -0.006181 0.015917 -0.013299 0.000000 -0.005924 0.000000
# 3 -0.901551 -0.013299 -2.736826 0.000000 -3.040876 0.000000
# 4 0.000000 0.000000 0.000000 0.037073 0.000000 0.005604
# 5 -0.994720 -0.005924 -3.040876 0.000000 -3.322818 0.000000
# 6 0.000000 0.000000 0.000000 0.005604 0.000000 0.029205
#
#
# Mechanical properties :
#
#
# Convention : Reuss Voigt Hill
#
# Bulk Modulus (GPa) = -0.20646 20.94453 10.36904
# Shear Modulus (GPa) = -0.82912 26.91975 13.04531
#
# Velocity S-wave (km/s) = -0.68119 3.88148 2.70202
# Velocity P-wave (km/s) = 0.85688 5.64000 3.94179
#
# Compressibility (1/GPa) = -4.84353741
#
# Stress axis : x y z
#
# Youngs Moduli (GPa) = -3.56421 62.82414 -0.36539
#
# Poissons Ratio (x) = 0.38830 -0.32941
# Poissons Ratio (y) = -0.02203 -0.00486
# Poissons Ratio (z) = -3.21332 0.83548
#
# Static dielectric constant tensor:
#      x y z
#    x 1.622650 0.000000 0.006410 
#    y 0.000000 1.600930 0.000000 
#    z 0.006410 0.000000 1.594900 
# 
# From -- ./inp_files/337813.got.cif
#   From: 2010.05.17/outbox.ucp.g08.bks.cvg/sg12_169_cif.got.tgz:337813.got - 2010.06.11 11:47:21.
