data_PCOD9225558
_publ_section_title
;
Structure prediction by ZEFSAII (Michael W. Deem and Ramdas Pophale) SiO2 
 PCOD9225558
Probable space group: C 2/M
;
_chemical_formula_sum "Si O2"
_cell_formula_units_Z 24
_cell_length_a 9.000000
_cell_length_b 24.000000
_cell_length_c 12.000000
_cell_angle_alpha 90.000000
_cell_angle_beta 110.000000
_cell_angle_gamma 90.000000
_cell_volume 2435.683273
_symmetry_space_group_name_H-M "C 2/M"
_symmetry_group_IT_number 12
_symmetry_cell_setting 'monoclinic'
loop_
_space_group_symop_operation_xyz
x,y,z
-x,y,-z
-x,-y,-z
x,-y,z
1/2+x,1/2+y,z
1/2-x,1/2+y,-z
1/2-x,1/2-y,-z
1/2+x,1/2-y,z
loop_
_atom_site_type_symbol
_atom_site_label
_atom_site_fract_x
_atom_site_fract_y
_atom_site_fract_z
Si Si1 0.841536 0.563914 0.213242
Si Si2 0.315371 0.565590 0.587399
Si Si3 0.193210 0.566496 0.045290
Si Si4 0.074694 0.763302 0.407636
Si Si5 0.614613 0.141902 0.365985
Si Si6 0.899797 0.136232 0.277351
O O1 0.896724 0.500000 0.221401
O O2 0.732803 0.568984 0.294374
O O3 0.991612 0.601946 0.274150
O O4 0.763982 0.575755 0.073962
O O5 0.303364 0.500000 0.550577
O O6 0.197126 0.606450 0.487716
O O7 0.492712 0.589916 0.632436
O O8 0.214162 0.500000 0.077851
O O9 0.307964 0.605217 0.150970
O O10 0.000000 0.577217 0.000000
O O11 0.250000 0.750000 0.500000
O O12 0.023710 0.699677 0.369770
O O13 0.000000 0.787405 0.500000
O O14 0.019974 0.809366 0.301494
O O15 0.754215 0.155722 0.316169
#
# Coordination Sequence:
#
# PCOD9225558 Si02
#       6
#     8   8   8   8   8   8
#     4  10  22  40  64  93 128 171 209 251 319 387
#     4  11  23  37  60  98 133 160 204 268 325 382
#     4  10  21  41  68  93 126 173 215 258 314 379
#     4  12  23  42  63  91 128 170 211 261 324 386
#     4  12  23  39  65  91 127 166 213 262 319 387
#     4  12  24  40  63  95 125 165 221 263 316 381
#
# _framework density 9.8534980000000001
#
# number of rings (size 3 to 8) (size 9 to 14) (size 15 to 20)
#    0.000    0.833    5.000    3.000    0.000    4.667 
#    0.000    3.333    0.000    0.000    0.000    0.000 
#    0.000    0.000    0.000    0.000    0.000    0.000 
#
# Total GULP energy -133722.910033 kJ/mol
# GULP energy per Si atom -5571.787918 kJ/mol
# Density = 0.983107 g / cm^3
# Si number density = 9.853498 Si / 1000 Ang^3
#
#
#
# Elastic Constant Matrix: (Units=GPa)
#
#
# Indices 1 2 3 4 5 6 
#
# 1 35.4100 5.4202 8.8572 0.0000 18.1244 0.0000
# 2 5.4202 130.5253 72.4675 0.0000 23.1251 0.0000
# 3 8.8572 72.4675 136.6879 0.0000 19.6342 0.0000
# 4 0.0000 0.0000 0.0000 45.0575 0.0000 15.0357
# 5 18.1244 23.1251 19.6342 0.0000 30.8959 0.0000
# 6 0.0000 0.0000 0.0000 15.0357 0.0000 32.8623
#
#
#
# Elastic Compliance Matrix: (Units=1/GPa)
#
#
# Indices 1 2 3 4 5 6 
#
# 1 0.041377 0.003310 -0.000653 0.000000 -0.026336 0.000000
# 2 0.003310 0.011846 -0.005439 0.000000 -0.007352 0.000000
# 3 -0.000653 -0.005439 0.010567 0.000000 -0.002261 0.000000
# 4 0.000000 0.000000 0.000000 0.026193 0.000000 -0.011984
# 5 -0.026336 -0.007352 -0.002261 0.000000 0.054756 0.000000
# 6 0.000000 0.000000 0.000000 -0.011984 0.000000 0.035913
#
#
# Mechanical properties :
#
#
# Convention : Reuss Voigt Hill
#
# Bulk Modulus (GPa) = 17.17442 52.90145 35.03794
# Shear Modulus (GPa) = 24.31624 36.15504 30.23564
#
# Velocity S-wave (km/s) = 3.51649 4.28790 3.92121
# Velocity P-wave (km/s) = 5.02209 7.17057 6.19025
#
# Compressibility (1/GPa) = 0.05822612
#
# Stress axis : x y z
#
# Youngs Moduli (GPa) = 24.16797 84.41593 94.63853
#
# Poissons Ratio (x) = -0.27945 0.06183
# Poissons Ratio (y) = -0.08000 0.51472
# Poissons Ratio (z) = 0.01579 0.45912
#
# Static dielectric constant tensor:
#      x y z
#    x 1.796020 0.000000 -0.028830 
#    y 0.000000 1.746800 0.000000 
#    z -0.028830 0.000000 1.734720 
# 
# From -- ./inp_files/122455.got.cif
#   From: 2010.05.17/outbox.ucp.g08.bks.cvg/sg12_62_cif.got.tgz:122455.got - 2010.06.11 11:47:21.
