data_PCOD9225257
_publ_section_title
;
Structure prediction by ZEFSAII (Michael W. Deem and Ramdas Pophale) SiO2 
 PCOD9225257
Probable space group: C 2/M
;
_chemical_formula_sum "Si O2"
_cell_formula_units_Z 28
_cell_length_a 18.000000
_cell_length_b 9.000000
_cell_length_c 27.000000
_cell_angle_alpha 90.000000
_cell_angle_beta 40.000000
_cell_angle_gamma 90.000000
_cell_volume 2811.553005
_symmetry_space_group_name_H-M "C 2/M"
_symmetry_group_IT_number 12
_symmetry_cell_setting 'monoclinic'
loop_
_space_group_symop_operation_xyz
x,y,z
-x,y,-z
-x,-y,-z
x,-y,z
1/2+x,1/2+y,z
1/2-x,1/2+y,-z
1/2-x,1/2-y,-z
1/2+x,1/2-y,z
loop_
_atom_site_type_symbol
_atom_site_label
_atom_site_fract_x
_atom_site_fract_y
_atom_site_fract_z
Si Si1 0.454925 0.165221 0.784954
Si Si2 0.452578 0.336571 0.591727
Si Si3 0.187593 0.666305 0.486233
Si Si4 0.371036 0.676410 0.923567
Si Si5 0.162797 0.831429 0.242010
Si Si6 0.210861 0.243855 0.668739
Si Si7 0.376067 0.669657 0.177375
O O1 0.402927 0.276881 0.851699
O O2 0.406558 0.221790 0.757894
O O3 0.594234 0.164639 0.716832
O O4 0.413019 0.000000 0.817672
O O5 0.499086 0.500000 0.556945
O O6 0.561421 0.227831 0.535082
O O7 0.404913 0.334026 0.671721
O O8 0.336757 0.310336 0.618574
O O9 0.171565 0.500000 0.512208
O O10 0.250000 0.750000 0.500000
O O11 0.263703 0.666560 0.396929
O O12 0.360888 0.500000 0.933427
O O13 0.490090 0.720727 0.891334
O O14 0.250000 0.750000 0.000000
O O15 0.290507 0.772219 0.189718
O O16 0.166071 0.000000 0.220704
O O17 0.171245 0.168864 0.741215
O O18 0.370156 0.500000 0.162591
#
# Coordination Sequence:
#
# PCOD9225257 Si02
#       7
#     8   8   8   8   8   8   8
#     4  11  22  37  61  89 116 150 191 233 280 337
#     4  10  22  39  59  83 113 148 188 237 289 342
#     4  12  26  40  56  80 112 151 193 240 292 342
#     4  10  21  38  61  89 121 154 189 231 279 333
#     4  10  21  37  57  84 117 151 189 235 286 337
#     4  10  22  38  60  84 111 146 191 237 286 341
#     4   9  19  37  61  85 111 147 188 232 281 336
#
# _framework density 9.9589090000000002
#
# number of rings (size 3 to 8) (size 9 to 14) (size 15 to 20)
#    0.000    1.714    0.000    3.857    0.000   14.857 
#    0.000    0.714    0.000    4.286    0.000    0.000 
#    0.000    0.000    0.000    0.000    0.000    0.000 
#
# Total GULP energy -156026.187567 kJ/mol
# GULP energy per Si atom -5572.363842 kJ/mol
# Density = 0.993624 g / cm^3
# Si number density = 9.958909 Si / 1000 Ang^3
#
#
#
# Elastic Constant Matrix: (Units=GPa)
#
#
# Indices 1 2 3 4 5 6 
#
# 1 109.5863 39.3747 36.6556 0.0000 -15.5280 0.0002
# 2 39.3747 81.5329 30.0118 0.0000 -24.0468 0.0005
# 3 36.6556 30.0118 80.8972 0.0000 -31.0524 0.0000
# 4 0.0000 0.0000 0.0000 22.1282 0.0000 -7.1446
# 5 -15.5280 -24.0468 -31.0524 0.0000 28.7889 0.0000
# 6 0.0002 0.0005 0.0000 -7.1446 0.0000 10.9225
#
#
#
# Elastic Compliance Matrix: (Units=1/GPa)
#
#
# Indices 1 2 3 4 5 6 
#
# 1 0.012067 -0.004877 -0.004648 0.000000 -0.002579 0.000000
# 2 -0.004877 0.018339 0.000472 0.000000 0.013196 -0.000001
# 3 -0.004648 0.000472 0.023007 0.000000 0.022703 0.000000
# 4 0.000000 0.000000 0.000000 0.057291 0.000000 0.037475
# 5 -0.002579 0.013196 0.022703 0.000000 0.068855 -0.000001
# 6 0.000000 -0.000001 0.000000 0.037475 -0.000001 0.116067
#
#
# Mechanical properties :
#
#
# Convention : Reuss Voigt Hill
#
# Bulk Modulus (GPa) = 28.32406 53.78897 41.05652
# Shear Modulus (GPa) = 15.36094 23.43287 19.39690
#
# Velocity S-wave (km/s) = 2.78009 3.43370 3.12404
# Velocity P-wave (km/s) = 4.95546 6.54099 5.80263
#
# Compressibility (1/GPa) = 0.03530567
#
# Stress axis : x y z
#
# Youngs Moduli (GPa) = 82.87077 54.52969 43.46494
#
# Poissons Ratio (x) = 0.26595 0.20204
# Poissons Ratio (y) = 0.40417 -0.02051
# Poissons Ratio (z) = 0.38521 -0.02573
#
# Static dielectric constant tensor:
#      x y z
#    x 1.697620 0.000000 0.016700 
#    y 0.000000 1.721780 0.000000 
#    z 0.016700 0.000000 1.677740 
# 
# From -- ./inp_files/362886.got.cif
#   From: 2010.05.17/outbox.ucp.g08.bks.cvg/sg12_182_cif.got.tgz:362886.got - 2010.06.11 11:47:21.
