data_PCOD9225211
_publ_section_title
;
Structure prediction by ZEFSAII (Michael W. Deem and Ramdas Pophale) SiO2 
 PCOD9225211
Probable space group: C 2/M
;
_chemical_formula_sum "Si O2"
_cell_formula_units_Z 32
_cell_length_a 15.000000
_cell_length_b 9.000000
_cell_length_c 30.000000
_cell_angle_alpha 90.000000
_cell_angle_beta 50.000000
_cell_angle_gamma 90.000000
_cell_volume 3102.479995
_symmetry_space_group_name_H-M "C 2/M"
_symmetry_group_IT_number 12
_symmetry_cell_setting 'monoclinic'
loop_
_space_group_symop_operation_xyz
x,y,z
-x,y,-z
-x,-y,-z
x,-y,z
1/2+x,1/2+y,z
1/2-x,1/2+y,-z
1/2-x,1/2-y,-z
1/2+x,1/2-y,z
loop_
_atom_site_type_symbol
_atom_site_label
_atom_site_fract_x
_atom_site_fract_y
_atom_site_fract_z
Si Si1 0.696712 0.175066 0.353551
Si Si2 0.699808 0.832176 0.757879
Si Si3 0.439448 0.821932 0.434244
Si Si4 0.286765 0.323688 0.820482
Si Si5 0.063647 0.334131 0.169542
Si Si6 0.152381 0.171001 0.059496
Si Si7 0.566348 0.327706 0.935137
Si Si8 0.251053 0.675782 0.436491
O O1 0.783739 0.242284 0.291279
O O2 0.567946 0.240106 0.389224
O O3 0.738986 0.201953 0.389056
O O4 0.689650 0.000000 0.348795
O O5 0.767246 0.763804 0.777266
O O6 0.563426 0.835747 0.810308
O O7 0.741004 0.000000 0.737766
O O8 0.356551 0.766390 0.422316
O O9 0.369567 0.779368 0.501167
O O10 0.446661 0.000000 0.432123
O O11 0.276126 0.500000 0.823399
O O12 0.411605 0.273786 0.797724
O O13 0.179915 0.259266 0.883426
O O14 0.094843 0.500000 0.173070
O O15 0.143446 0.268773 0.105901
O O16 0.030513 0.173251 0.072381
O O17 0.180474 0.000000 0.060621
O O18 0.250000 0.250000 0.000000
O O19 0.598064 0.500000 0.934307
O O20 0.500000 0.267292 0.000000
O O21 0.268084 0.500000 0.439848
#
# Coordination Sequence:
#
# PCOD9225211 Si02
#       8
#     8   8   8   8   8   8   8   8
#     4  10  21  36  58  84 113 153 199 241 288 348
#     4  10  24  43  60  82 117 156 195 246 297 348
#     4   9  18  34  56  84 118 154 193 239 292 347
#     4  11  23  41  63  87 113 149 195 241 294 350
#     4  11  23  42  63  84 115 154 194 240 296 351
#     4  11  22  36  59  90 123 155 190 235 288 349
#     4  10  21  37  58  87 120 151 185 231 286 347
#     4   9  18  34  56  84 118 154 193 240 291 344
#
# _framework density 10.314329000000001
#
# number of rings (size 3 to 8) (size 9 to 14) (size 15 to 20)
#    0.000    1.875    1.250    2.250    0.000    7.250 
#    0.000    5.000    0.000    3.750    0.000    0.000 
#    0.000    0.000    0.000    0.000    0.000    0.000 
#
# Total GULP energy -178316.347891 kJ/mol
# GULP energy per Si atom -5572.385872 kJ/mol
# Density = 1.029085 g / cm^3
# Si number density = 10.314329 Si / 1000 Ang^3
#
#
#
# Elastic Constant Matrix: (Units=GPa)
#
#
# Indices 1 2 3 4 5 6 
#
# 1 -39.5801 -1.7636 11.0304 0.0000 12.7051 0.0001
# 2 -1.7636 0.6964 20.0750 0.0000 -2.3849 0.0001
# 3 11.0304 20.0750 49.2945 0.0000 25.4321 0.0000
# 4 0.0000 0.0000 0.0000 17.2819 0.0000 -1.2404
# 5 12.7051 -2.3849 25.4321 0.0000 31.8435 0.0000
# 6 0.0001 0.0001 0.0000 -1.2404 0.0000 26.7816
#
#
#
# Elastic Compliance Matrix: (Units=1/GPa)
#
#
# Indices 1 2 3 4 5 6 
#
# 1 -0.022452 0.002060 -0.000878 0.000000 0.009813 0.000000
# 2 0.002060 -0.062105 0.047036 0.000000 -0.043039 0.000000
# 3 -0.000878 0.047036 -0.001140 0.000000 0.004784 0.000000
# 4 0.000000 0.000000 0.000000 0.058057 0.000000 0.002689
# 5 0.009813 -0.043039 0.004784 0.000000 0.020444 0.000000
# 6 0.000000 0.000000 0.000000 0.002689 0.000000 0.037464
#
#
# Mechanical properties :
#
#
# Convention : Reuss Voigt Hill
#
# Bulk Modulus (GPa) = 93.12641 7.67714 50.40178
# Shear Modulus (GPa) = -79.88715 13.91935 -32.98390
#
# Velocity S-wave (km/s) = -6.22980 2.60043 -4.00301
# Velocity P-wave (km/s) = 2.55048 3.57015 1.76650
#
# Compressibility (1/GPa) = 0.01073809
#
# Stress axis : x y z
#
# Youngs Moduli (GPa) = -44.54021 -16.10174 -876.87483
#
# Poissons Ratio (x) = 0.03317 -0.76996
# Poissons Ratio (y) = 0.09176 41.24429
# Poissons Ratio (z) = -0.03911 0.75735
#
# Static dielectric constant tensor:
#      x y z
#    x 1.742440 0.000000 0.052810 
#    y 0.000000 1.713790 0.000000 
#    z 0.052810 0.000000 1.661390 
# 
# From -- ./inp_files/375495.got.cif
#   From: 2010.05.17/outbox.ucp.g08.bks.cvg/sg12_188_cif.got.tgz:375495.got - 2010.06.11 11:47:21.
