data_PCOD9225372
_publ_section_title
;
Structure prediction by ZEFSAII (Michael W. Deem and Ramdas Pophale) SiO2 
 PCOD9225372
Probable space group: C 2/M
;
_chemical_formula_sum "Si O2"
_cell_formula_units_Z 32
_cell_length_a 18.000000
_cell_length_b 9.000000
_cell_length_c 30.000000
_cell_angle_alpha 90.000000
_cell_angle_beta 40.000000
_cell_angle_gamma 90.000000
_cell_volume 3123.947783
_symmetry_space_group_name_H-M "C 2/M"
_symmetry_group_IT_number 12
_symmetry_cell_setting 'monoclinic'
loop_
_space_group_symop_operation_xyz
x,y,z
-x,y,-z
-x,-y,-z
x,-y,z
1/2+x,1/2+y,z
1/2-x,1/2+y,-z
1/2-x,1/2-y,-z
1/2+x,1/2-y,z
loop_
_atom_site_type_symbol
_atom_site_label
_atom_site_fract_x
_atom_site_fract_y
_atom_site_fract_z
Si Si1 0.916410 0.323007 0.104247
Si Si2 0.075093 0.827491 0.506961
Si Si3 0.428871 0.823451 0.266757
Si Si4 0.062064 0.831341 0.340996
Si Si5 0.188696 0.178481 0.764648
Si Si6 0.798690 0.678859 0.850852
Si Si7 0.312385 0.178366 0.014056
Si Si8 0.819625 0.179880 0.400332
O O1 0.906916 0.500000 0.100065
O O2 0.891072 0.274841 0.165947
O O3 0.807743 0.240852 0.130325
O O4 0.052936 0.281698 0.035051
O O5 0.189115 0.737659 0.471370
O O6 0.000000 0.765816 0.500000
O O7 0.979591 0.833620 0.589256
O O8 0.109852 0.000000 0.481398
O O9 0.369514 0.725515 0.255310
O O10 0.563402 0.789596 0.219235
O O11 0.348530 0.779087 0.344506
O O12 0.424521 0.000000 0.258041
O O13 0.177749 0.730097 0.286845
O O14 0.938583 0.794022 0.374050
O O15 0.094663 0.000000 0.311332
O O16 0.181669 0.000000 0.774341
O O17 0.788105 0.500000 0.857175
O O18 0.768498 0.760622 0.910155
O O19 0.311388 0.000000 0.010367
O O20 0.250000 0.250000 0.000000
O O21 0.813766 0.000000 0.397023
#
# Coordination Sequence:
#
# PCOD9225372 Si02
#       8
#     8   8   8   8   8   8   8   8
#     4  11  24  42  63  89 124 163 201 244 299 360
#     4  10  21  38  61  87 118 161 205 245 298 359
#     4  11  24  42  62  86 120 159 199 246 302 361
#     4  10  22  40  61  88 124 163 200 243 300 360
#     4  12  25  40  63  93 121 155 201 250 300 354
#     4  11  24  41  64  93 122 158 204 252 302 356
#     4  11  24  41  63  91 123 162 204 249 303 360
#     4  11  23  38  60  90 121 157 202 250 298 350
#
# _framework density 10.243449
#
# number of rings (size 3 to 8) (size 9 to 14) (size 15 to 20)
#    0.000    1.125    0.000    6.000    0.000   13.250 
#    0.000    0.000    0.000    0.000    0.000    0.000 
#    0.000    0.000    0.000    0.000    0.000    0.000 
#
# Total GULP energy -178234.426954 kJ/mol
# GULP energy per Si atom -5569.825842 kJ/mol
# Density = 1.022013 g / cm^3
# Si number density = 10.243449 Si / 1000 Ang^3
#
#
#
# Elastic Constant Matrix: (Units=GPa)
#
#
# Indices 1 2 3 4 5 6 
#
# 1 52.5200 16.8913 -21.1571 0.0000 -11.2970 0.0004
# 2 16.8913 60.2334 8.6567 0.0000 -30.4806 0.0012
# 3 -21.1571 8.6567 73.7445 0.0000 -24.3255 -0.0001
# 4 0.0000 0.0000 0.0000 31.2018 0.0000 -11.9767
# 5 -11.2970 -30.4806 -24.3255 0.0000 43.9008 0.0003
# 6 0.0004 0.0012 -0.0001 -11.9767 0.0003 39.2159
#
#
#
# Elastic Compliance Matrix: (Units=1/GPa)
#
#
# Indices 1 2 3 4 5 6 
#
# 1 0.027473 -0.003839 0.011974 0.000000 0.011039 0.000000
# 2 -0.003839 0.026890 0.001927 0.000000 0.018750 -0.000001
# 3 0.011974 0.001927 0.022304 0.000000 0.016778 0.000000
# 4 0.000000 0.000000 0.000000 0.036305 0.000000 0.011088
# 5 0.011039 0.018750 0.016778 0.000000 0.047934 -0.000001
# 6 0.000000 -0.000001 0.000000 0.011088 -0.000001 0.028886
#
#
# Mechanical properties :
#
#
# Convention : Reuss Voigt Hill
#
# Bulk Modulus (GPa) = 10.33162 21.69774 16.01468
# Shear Modulus (GPa) = 24.76083 35.00417 29.88250
#
# Velocity S-wave (km/s) = 3.48029 4.13802 3.82333
# Velocity P-wave (km/s) = 4.60477 5.78316 5.22728
#
# Compressibility (1/GPa) = 0.09679026
#
# Stress axis : x y z
#
# Youngs Moduli (GPa) = 36.39926 37.18880 44.83554
#
# Poissons Ratio (x) = 0.14277 -0.53686
# Poissons Ratio (y) = 0.13974 -0.08639
# Poissons Ratio (z) = -0.43584 -0.07166
#
# Static dielectric constant tensor:
#      x y z
#    x 1.790340 0.000000 0.057090 
#    y 0.000000 1.712280 0.000000 
#    z 0.057090 0.000000 1.737020 
# 
# From -- ./inp_files/378214.got.cif
#   From: 2010.05.17/outbox.ucp.g08.bks.cvg/sg12_190_cif.got.tgz:378214.got - 2010.06.11 11:47:21.
