data_PCOD9225831
_publ_section_title
;
Structure prediction by ZEFSAII (Michael W. Deem and Ramdas Pophale) SiO2 
 PCOD9225831
Probable space group: C 2/M
;
_chemical_formula_sum "Si O2"
_cell_formula_units_Z 28
_cell_length_a 21.000000
_cell_length_b 24.000000
_cell_length_c 18.000000
_cell_angle_alpha 90.000000
_cell_angle_beta 20.000000
_cell_angle_gamma 90.000000
_cell_volume 3102.806740
_symmetry_space_group_name_H-M "C 2/M"
_symmetry_group_IT_number 12
_symmetry_cell_setting 'monoclinic'
loop_
_space_group_symop_operation_xyz
x,y,z
-x,y,-z
-x,-y,-z
x,-y,z
1/2+x,1/2+y,z
1/2-x,1/2+y,-z
1/2-x,1/2-y,-z
1/2+x,1/2-y,z
loop_
_atom_site_type_symbol
_atom_site_label
_atom_site_fract_x
_atom_site_fract_y
_atom_site_fract_z
Si Si1 0.473143 0.184351 0.617543
Si Si2 0.817377 0.128488 0.524027
Si Si3 0.223113 0.246542 0.619602
Si Si4 0.192019 0.716150 0.921983
Si Si5 0.970931 0.436833 0.862320
Si Si6 0.744534 0.365288 0.006867
Si Si7 0.278035 0.391162 0.734021
O O1 0.500000 0.164557 0.500000
O O2 0.660961 0.200299 0.460145
O O3 0.362050 0.241963 0.730143
O O4 0.337984 0.149840 0.824417
O O5 0.796278 0.193411 0.565409
O O6 0.645577 0.105425 0.664742
O O7 0.768235 0.099068 0.656778
O O8 0.020534 0.124753 0.262349
O O9 0.250000 0.250000 0.500000
O O10 0.000123 0.249620 0.874962
O O11 0.212529 0.669708 0.835228
O O12 0.205235 0.683791 0.987349
O O13 0.036317 0.500000 0.787246
O O14 0.838847 0.419781 0.938909
O O15 0.845818 0.428617 0.074511
O O16 0.500000 0.395825 0.500000
#
# Coordination Sequence:
#
# PCOD9225831 Si02
#       7
#     8   8   8   8   8   8   8
#     4  12  24  37  59  93 125 156 201 250 296 357
#     4  12  21  36  59  81 116 159 200 236 293 355
#     4  12  21  34  58  84 119 166 203 235 289 353
#     4  11  20  35  56  85 123 165 203 227 286 356
#     4  11  25  41  59  85 115 154 203 252 306 359
#     4  11  22  41  60  83 116 162 197 248 296 358
#     4  11  20  36  55  84 119 158 192 239 288 345
#
# _framework density 9.0240880000000008
#
# number of rings (size 3 to 8) (size 9 to 14) (size 15 to 20)
#    0.000    0.571    8.571    3.000    0.000    3.714 
#    0.000    0.000    0.000    0.429    0.000    1.000 
#    0.000    0.000    0.000    0.000    0.000    0.000 
#
# Total GULP energy -156006.229092 kJ/mol
# GULP energy per Si atom -5571.651039 kJ/mol
# Density = 0.900355 g / cm^3
# Si number density = 9.024088 Si / 1000 Ang^3
#
#
#
# Elastic Constant Matrix: (Units=GPa)
#
#
# Indices 1 2 3 4 5 6 
#
# 1 77.0468 0.0400 44.8015 -0.0078 17.1993 0.0371
# 2 0.0400 34.4339 15.4317 -0.0717 5.6303 0.0412
# 3 44.8015 15.4317 135.8752 -0.1370 -5.0026 0.0938
# 4 -0.0078 -0.0717 -0.1370 12.5769 -0.0104 2.2826
# 5 17.1993 5.6303 -5.0026 -0.0104 41.9034 -0.0349
# 6 0.0371 0.0412 0.0938 2.2826 -0.0349 8.3734
#
#
#
# Elastic Compliance Matrix: (Units=1/GPa)
#
#
# Indices 1 2 3 4 5 6 
#
# 1 0.019298 0.004769 -0.007252 -0.000037 -0.009427 -0.000057
# 2 0.004769 0.032665 -0.005540 0.000158 -0.007008 -0.000192
# 3 -0.007252 -0.005540 0.010564 0.000095 0.004982 -0.000064
# 4 -0.000037 0.000158 0.000095 0.083651 0.000007 -0.022805
# 5 -0.009427 -0.007008 0.004982 0.000007 0.029270 0.000140
# 6 -0.000057 -0.000192 -0.000064 -0.022805 0.000140 0.125645
#
#
# Mechanical properties :
#
#
# Convention : Reuss Voigt Hill
#
# Bulk Modulus (GPa) = 21.51427 40.87802 31.19615
# Shear Modulus (GPa) = 15.03162 25.04294 20.03728
#
# Velocity S-wave (km/s) = 2.88906 3.72904 3.33560
# Velocity P-wave (km/s) = 4.80367 6.42180 5.67075
#
# Compressibility (1/GPa) = 0.04648078
#
# Stress axis : x y z
#
# Youngs Moduli (GPa) = 51.81900 30.61396 94.66529
#
# Poissons Ratio (x) = -0.14600 0.68649
# Poissons Ratio (y) = -0.24712 0.52445
# Poissons Ratio (z) = 0.37578 0.16960
#
# Static dielectric constant tensor:
#      x y z
#    x 1.740340 -0.000020 -0.031070 
#    y -0.000020 1.617300 0.000040 
#    z -0.031070 0.000040 1.647260 
# 
# From -- ./inp_files/286326.got.cif
#   From: 2010.05.17/outbox.ucp.g08.bks.cvg/sg12_144_cif.got.tgz:286326.got - 2010.06.11 11:47:21.
