data_PCOD9225702
_publ_section_title
;
Structure prediction by ZEFSAII (Michael W. Deem and Ramdas Pophale) SiO2 
 PCOD9225702
Probable space group: C 2/M
;
_chemical_formula_sum "Si O2"
_cell_formula_units_Z 25
_cell_length_a 15.000000
_cell_length_b 12.000000
_cell_length_c 27.000000
_cell_angle_alpha 90.000000
_cell_angle_beta 30.000000
_cell_angle_gamma 90.000000
_cell_volume 2430.000000
_symmetry_space_group_name_H-M "C 2/M"
_symmetry_group_IT_number 12
_symmetry_cell_setting 'monoclinic'
loop_
_space_group_symop_operation_xyz
x,y,z
-x,y,-z
-x,-y,-z
x,-y,z
1/2+x,1/2+y,z
1/2-x,1/2+y,-z
1/2-x,1/2-y,-z
1/2+x,1/2-y,z
loop_
_atom_site_type_symbol
_atom_site_label
_atom_site_fract_x
_atom_site_fract_y
_atom_site_fract_z
Si Si1 0.728894 0.818862 0.587546
Si Si2 0.000000 0.000000 0.500000
Si Si3 0.262042 0.237825 0.236460
Si Si4 0.331408 0.134242 0.813144
Si Si5 0.266617 0.000000 0.070501
Si Si6 0.829867 0.500000 0.157901
Si Si7 0.361650 0.261800 0.896281
Si Si8 0.423934 0.130571 0.444138
O O1 0.853072 0.902534 0.557252
O O2 0.531829 0.821442 0.705475
O O3 0.700525 0.864778 0.545096
O O4 0.818009 0.697258 0.537773
O O5 0.283997 0.312766 0.176010
O O6 0.433962 0.238354 0.188646
O O7 0.095665 0.293874 0.345660
O O8 0.249384 0.110252 0.222835
O O9 0.288139 0.182184 0.888073
O O10 0.328023 0.000000 0.813001
O O11 0.161297 0.111496 0.109312
O O12 0.294770 0.000000 0.116073
O O13 0.451848 0.000000 0.949089
O O14 0.250000 0.250000 0.000000
O O15 0.465746 0.000000 0.434021
#
# Coordination Sequence:
#
# PCOD9225702 Si02
#       8
#     8   2   8   8   4   4   8   8
#     4  10  22  41  68  95 133 172 219 272 327 384
#     4  12  20  38  68 106 130 168 222 274 328 384
#     4  11  24  43  70  98 135 181 220 274 337 400
#     4  11  25  48  66  96 138 176 222 276 333 401
#     4  11  24  46  67  92 141 167 228 290 329 400
#     4  11  22  45  68  96 131 180 223 281 341 383
#     4  12  27  44  68 101 130 175 226 278 341 398
#     4  10  22  45  65  97 136 178 217 266 327 402
#
# _framework density 10.288066000000001
#
# number of rings (size 3 to 8) (size 9 to 14) (size 15 to 20)
#    0.000    1.120    4.800    1.440    6.720    1.280 
#   10.080    1.200    0.000    0.000    0.000    0.000 
#    0.000    0.000    0.000    0.000    0.000    0.000 
#
# Total GULP energy -139456.008804 kJ/mol
# GULP energy per Si atom -5578.240352 kJ/mol
# Density = 1.026465 g / cm^3
# Si number density = 10.288066 Si / 1000 Ang^3
#
#
#
# Elastic Constant Matrix: (Units=GPa)
#
#
# Indices 1 2 3 4 5 6 
#
# 1 35.6854 7.5749 -19.3997 -0.0002 1.9900 -0.0001
# 2 7.5749 188.6102 28.3950 -0.0003 15.8138 -0.0001
# 3 -19.3997 28.3950 16.4800 -0.0005 11.7073 -0.0005
# 4 -0.0002 -0.0003 -0.0005 38.6706 -0.0004 -0.1165
# 5 1.9900 15.8138 11.7073 -0.0004 28.7586 0.0000
# 6 -0.0001 -0.0001 -0.0005 -0.1165 0.0000 35.4623
#
#
#
# Elastic Compliance Matrix: (Units=1/GPa)
#
#
# Indices 1 2 3 4 5 6 
#
# 1 -0.074059 0.023678 -0.172153 -0.000002 0.062186 -0.000003
# 2 0.023678 -0.000363 0.041531 0.000000 -0.018345 0.000001
# 3 -0.172153 0.041531 -0.289487 -0.000003 0.106921 -0.000005
# 4 -0.000002 0.000000 -0.000003 0.025860 0.000002 0.000085
# 5 0.062186 -0.018345 0.106921 0.000002 -0.002969 0.000002
# 6 -0.000003 0.000001 -0.000005 0.000085 0.000002 0.028199
#
#
# Mechanical properties :
#
#
# Convention : Reuss Voigt Hill
#
# Bulk Modulus (GPa) = -1.73071 30.43509 14.35219
# Shear Modulus (GPa) = -17.15088 35.52534 9.18723
#
# Velocity S-wave (km/s) = -2.89023 4.15966 2.11535
# Velocity P-wave (km/s) = 3.46134 6.15581 3.59952
#
# Compressibility (1/GPa) = -0.57779626
#
# Stress axis : x y z
#
# Youngs Moduli (GPa) = -13.50278 -2752.77447 -3.45439
#
# Poissons Ratio (x) = 65.17943 -0.59468
# Poissons Ratio (y) = 0.31972 0.14346
# Poissons Ratio (z) = -2.32454 114.32538
#
# Static dielectric constant tensor:
#      x y z
#    x 1.752070 0.000000 0.009380 
#    y 0.000000 1.711220 0.000000 
#    z 0.009380 0.000000 1.757870 
# 
# From -- ./inp_files/361000.got.cif
#   From: 2010.05.17/outbox.ucp.g08.bks.cvg/sg12_181_cif.got.tgz:361000.got - 2010.06.11 11:47:21.
