data_PCOD9225951
_publ_section_title
;
Structure prediction by ZEFSAII (Michael W. Deem and Ramdas Pophale) SiO2 
 PCOD9225951
Probable space group: C 2/M
;
_chemical_formula_sum "Si O2"
_cell_formula_units_Z 28
_cell_length_a 15.000000
_cell_length_b 30.000000
_cell_length_c 12.000000
_cell_angle_alpha 90.000000
_cell_angle_beta 30.000000
_cell_angle_gamma 90.000000
_cell_volume 2700.000000
_symmetry_space_group_name_H-M "C 2/M"
_symmetry_group_IT_number 12
_symmetry_cell_setting 'monoclinic'
loop_
_space_group_symop_operation_xyz
x,y,z
-x,y,-z
-x,-y,-z
x,-y,z
1/2+x,1/2+y,z
1/2-x,1/2+y,-z
1/2-x,1/2-y,-z
1/2+x,1/2-y,z
loop_
_atom_site_type_symbol
_atom_site_label
_atom_site_fract_x
_atom_site_fract_y
_atom_site_fract_z
Si Si1 0.871418 0.126810 0.246351
Si Si2 0.283949 0.051747 0.021713
Si Si3 0.686304 0.718481 0.244080
Si Si4 0.711834 0.118645 0.776763
Si Si5 0.526178 0.880686 0.348572
Si Si6 0.661864 0.306983 0.010928
Si Si7 0.630228 0.448019 0.585120
O O1 0.665804 0.141820 0.464589
O O2 0.846434 0.077260 0.323571
O O3 0.000000 0.122613 0.000000
O O4 0.981290 0.164436 0.193609
O O5 0.258728 0.083853 0.154966
O O6 0.083081 0.049235 0.194337
O O7 0.341593 0.000000 0.981048
O O8 0.413016 0.080057 0.800897
O O9 0.500000 0.733575 0.500000
O O10 0.727853 0.670158 0.261022
O O11 0.813921 0.763099 0.095380
O O12 0.668578 0.706618 0.132951
O O13 0.792362 0.089675 0.585656
O O14 0.500000 0.122528 0.000000
O O15 0.500000 0.900384 0.500000
O O16 0.677629 0.842407 0.183325
O O17 0.696126 0.500000 0.501453
#
# Coordination Sequence:
#
# PCOD9225951 Si02
#       7
#     8   8   8   8   8   8   8
#     4  12  24  42  72  96 136 182 225 286 338 411
#     4  11  23  42  68  96 133 180 228 278 341 411
#     4  11  24  44  70  96 135 180 226 289 341 407
#     4  12  24  41  64  99 143 176 227 286 339 408
#     4  12  23  43  68  96 137 177 223 282 345 403
#     4  11  24  47  68 100 134 179 232 281 346 404
#     4  11  24  43  70 101 136 183 230 280 345 408
#
# _framework density 10.370369999999999
#
# number of rings (size 3 to 8) (size 9 to 14) (size 15 to 20)
#    0.000    0.571    4.286    3.857    0.000    5.143 
#    0.000    1.429    0.000    0.000    0.000    0.000 
#    0.000    0.000    0.000    0.000    0.000    0.000 
#
# Total GULP energy -156023.099500 kJ/mol
# GULP energy per Si atom -5572.253554 kJ/mol
# Density = 1.034677 g / cm^3
# Si number density = 10.370370 Si / 1000 Ang^3
#
#
#
# Elastic Constant Matrix: (Units=GPa)
#
#
# Indices 1 2 3 4 5 6 
#
# 1 9.0828 -4.8941 -2.9660 0.0000 -17.8805 0.0002
# 2 -4.8941 137.0438 8.8037 -0.0005 -10.7716 0.0000
# 3 -2.9660 8.8037 96.5433 0.0011 -19.6482 0.0002
# 4 0.0000 -0.0005 0.0011 40.3611 -0.0008 4.2515
# 5 -17.8805 -10.7716 -19.6482 -0.0008 48.4762 -0.0002
# 6 0.0002 0.0000 0.0002 4.2515 -0.0002 17.3708
#
#
#
# Elastic Compliance Matrix: (Units=1/GPa)
#
#
# Indices 1 2 3 4 5 6 
#
# 1 1.264722 0.078610 0.141884 0.000011 0.541469 -0.000013
# 2 0.078610 0.012325 0.008446 0.000001 0.035157 -0.000001
# 3 0.141884 0.008446 0.027225 0.000001 0.065246 -0.000001
# 4 0.000011 0.000001 0.000001 0.025432 0.000005 -0.006224
# 5 0.541469 0.035157 0.065246 0.000005 0.254607 -0.000005
# 6 -0.000013 -0.000001 -0.000001 -0.006224 -0.000005 0.059091
#
#
# Mechanical properties :
#
#
# Convention : Reuss Voigt Hill
#
# Bulk Modulus (GPa) = 0.56749 27.17303 13.87026
# Shear Modulus (GPa) = 2.82023 37.35671 20.08847
#
# Velocity S-wave (km/s) = 1.16735 4.24857 3.11553
# Velocity P-wave (km/s) = 1.44608 6.09892 4.43216
#
# Compressibility (1/GPa) = 1.76215329
#
# Stress axis : x y z
#
# Youngs Moduli (GPa) = 0.79069 81.13585 36.73045
#
# Poissons Ratio (x) = -6.37809 -5.21147
# Poissons Ratio (y) = -0.06216 -0.31023
# Poissons Ratio (z) = -0.11219 -0.68529
#
# Static dielectric constant tensor:
#      x y z
#    x 1.761990 0.000000 0.090780 
#    y 0.000000 1.747610 0.000000 
#    z 0.090780 0.000000 1.639370 
# 
# From -- ./inp_files/150395.got.cif
#   From: 2010.05.17/outbox.ucp.g08.bks.cvg/sg12_76_cif.got.tgz:150395.got - 2010.06.11 11:47:21.
