data_PCOD9225047
_publ_section_title
;
Structure prediction by ZEFSAII (Michael W. Deem and Ramdas Pophale) SiO2 
 PCOD9225047
Probable space group: C 2/M
;
_chemical_formula_sum "Si O2"
_cell_formula_units_Z 32
_cell_length_a 30.000000
_cell_length_b 9.000000
_cell_length_c 18.000000
_cell_angle_alpha 90.000000
_cell_angle_beta 140.000000
_cell_angle_gamma 90.000000
_cell_volume 3123.947783
_symmetry_space_group_name_H-M "C 2/M"
_symmetry_group_IT_number 12
_symmetry_cell_setting 'monoclinic'
loop_
_space_group_symop_operation_xyz
x,y,z
-x,y,-z
-x,-y,-z
x,-y,z
1/2+x,1/2+y,z
1/2-x,1/2+y,-z
1/2-x,1/2-y,-z
1/2+x,1/2-y,z
loop_
_atom_site_type_symbol
_atom_site_label
_atom_site_fract_x
_atom_site_fract_y
_atom_site_fract_z
Si Si1 0.398171 0.327280 0.522050
Si Si2 0.183689 0.677271 0.876785
Si Si3 0.535930 0.822180 0.755397
Si Si4 0.610237 0.830737 0.224103
Si Si5 0.193514 0.173625 0.732138
Si Si6 0.957134 0.678005 0.061620
Si Si7 0.676697 0.675123 0.180998
Si Si8 0.808724 0.669049 0.527614
O O1 0.401697 0.500000 0.546795
O O2 0.471255 0.252256 0.632216
O O3 0.373323 0.314389 0.405853
O O4 0.337466 0.253007 0.493344
O O5 0.188838 0.500000 0.889632
O O6 0.110839 0.724462 0.820156
O O7 0.184191 0.729742 0.792999
O O8 0.250000 0.750000 0.000000
O O9 0.534496 0.788462 0.840856
O O10 0.529723 0.000000 0.738802
O O11 0.530131 0.788885 0.115278
O O12 0.661622 0.723188 0.246341
O O13 0.627525 0.834728 0.332901
O O14 0.620400 0.000000 0.208966
O O15 0.259671 0.235180 0.772141
O O16 0.204734 0.000000 0.764732
O O17 0.944990 0.500000 0.038842
O O18 0.893209 0.769410 0.948538
O O19 0.687104 0.500000 0.186734
O O20 0.789051 0.500000 0.484711
O O21 0.750000 0.750000 0.500000
#
# Coordination Sequence:
#
# PCOD9225047 Si02
#       8
#     8   8   8   8   8   8   8   8
#     4  11  24  41  64  93 125 166 214 264 317 371
#     4  11  24  43  71 103 132 166 209 258 316 379
#     4  10  22  42  67  95 127 166 208 256 318 383
#     4  10  21  38  59  84 119 166 211 250 310 386
#     4  11  25  45  65  89 126 169 212 258 312 377
#     4  10  20  39  63  87 121 168 209 249 312 386
#     4  12  25  38  58  91 125 161 209 268 322 371
#     4  11  22  38  60  88 123 166 215 264 314 376
#
# _framework density 10.243449
#
# number of rings (size 3 to 8) (size 9 to 14) (size 15 to 20)
#    0.000    1.250    1.250    4.500    0.000   11.000 
#    0.000    2.500    0.000    0.000    0.000    0.000 
#    0.000    0.000    0.000    0.000    0.000    0.000 
#
# Total GULP energy -178927.026126 kJ/mol
# GULP energy per Si atom -5591.469566 kJ/mol
# Density = 1.022013 g / cm^3
# Si number density = 10.243449 Si / 1000 Ang^3
#
#
#
# Elastic Constant Matrix: (Units=GPa)
#
#
# Indices 1 2 3 4 5 6 
#
# 1 95.8226 28.1967 26.3208 0.0000 7.7024 0.0000
# 2 28.1967 57.3501 29.1441 0.0000 10.1879 0.0000
# 3 26.3208 29.1441 70.5652 0.0000 7.9912 0.0000
# 4 0.0000 0.0000 0.0000 34.9886 0.0000 2.5188
# 5 7.7024 10.1879 7.9912 0.0000 24.9269 0.0000
# 6 0.0000 0.0000 0.0000 2.5188 0.0000 33.2239
#
#
#
# Elastic Compliance Matrix: (Units=1/GPa)
#
#
# Indices 1 2 3 4 5 6 
#
# 1 0.012628 -0.004654 -0.002658 0.000000 -0.001148 0.000000
# 2 -0.004654 0.024789 -0.007801 0.000000 -0.006193 0.000000
# 3 -0.002658 -0.007801 0.018606 0.000000 -0.001955 0.000000
# 4 0.000000 0.000000 0.000000 0.028738 0.000000 -0.002179
# 5 -0.001148 -0.006193 -0.001955 0.000000 0.043630 0.000000
# 6 0.000000 0.000000 0.000000 -0.002179 0.000000 0.030264
#
#
# Mechanical properties :
#
#
# Convention : Reuss Voigt Hill
#
# Bulk Modulus (GPa) = 38.76395 43.45123 41.10759
# Shear Modulus (GPa) = 25.31908 27.96630 26.64269
#
# Velocity S-wave (km/s) = 3.51930 3.69871 3.61012
# Velocity P-wave (km/s) = 5.95621 6.28458 6.12260
#
# Compressibility (1/GPa) = 0.02579716
#
# Stress axis : x y z
#
# Youngs Moduli (GPa) = 79.19043 40.34002 53.74592
#
# Poissons Ratio (x) = 0.18774 0.14286
# Poissons Ratio (y) = 0.36854 0.41927
# Poissons Ratio (z) = 0.21049 0.31469
#
# Static dielectric constant tensor:
#      x y z
#    x 1.718270 0.000000 -0.017040 
#    y 0.000000 1.691500 0.000000 
#    z -0.017040 0.000000 1.793830 
# 
# From -- ./inp_files/295730.got.cif
#   From: 2010.05.17/outbox.ucp.g08.bks.cvg/sg12_148_cif.got.tgz:295730.got - 2010.06.11 11:47:21.
