data_PCOD9225826
_publ_section_title
;
Structure prediction by ZEFSAII (Michael W. Deem and Ramdas Pophale) SiO2 
 PCOD9225826
Probable space group: C 2/M
;
_chemical_formula_sum "Si O2"
_cell_formula_units_Z 32
_cell_length_a 12.000000
_cell_length_b 21.000000
_cell_length_c 21.000000
_cell_angle_alpha 90.000000
_cell_angle_beta 40.000000
_cell_angle_gamma 90.000000
_cell_volume 3401.632030
_symmetry_space_group_name_H-M "C 2/M"
_symmetry_group_IT_number 12
_symmetry_cell_setting 'monoclinic'
loop_
_space_group_symop_operation_xyz
x,y,z
-x,y,-z
-x,-y,-z
x,-y,z
1/2+x,1/2+y,z
1/2-x,1/2+y,-z
1/2-x,1/2-y,-z
1/2+x,1/2-y,z
loop_
_atom_site_type_symbol
_atom_site_label
_atom_site_fract_x
_atom_site_fract_y
_atom_site_fract_z
Si Si1 0.208190 0.210580 0.906140
Si Si2 0.604332 0.338785 0.170086
Si Si3 0.301356 0.298991 0.236072
Si Si4 0.375532 0.576746 0.615508
Si Si5 0.934768 0.656506 0.204646
Si Si6 0.034976 0.296190 0.555426
Si Si7 0.085605 0.831595 0.614795
Si Si8 0.357560 0.929082 0.116836
O O1 0.252921 0.283858 0.905306
O O2 0.251361 0.206262 0.813151
O O3 0.359497 0.167285 0.872291
O O4 0.000000 0.198590 0.000000
O O5 0.475069 0.339718 0.167860
O O6 0.484077 0.321042 0.283466
O O7 0.689890 0.403851 0.153625
O O8 0.352455 0.227564 0.237374
O O9 0.141632 0.328236 0.344162
O O10 0.500000 0.587545 0.500000
O O11 0.355864 0.500000 0.631299
O O12 0.188742 0.613567 0.694950
O O13 0.477565 0.611823 0.628839
O O14 0.908273 0.621266 0.148837
O O15 0.055453 0.234451 0.590707
O O16 0.206828 0.338961 0.479722
O O17 0.000000 0.271991 0.500000
O O18 0.336978 0.000000 0.152801
O O19 0.500000 0.930549 0.000000
#
# Coordination Sequence:
#
# PCOD9225826 Si02
#       8
#     8   8   8   8   8   8   8   8
#     4  11  24  38  57  87 122 160 190 241 301 353
#     4  11  21  36  58  87 120 153 194 240 295 349
#     4  11  22  36  56  90 124 155 191 236 294 361
#     4  11  23  38  58  84 113 150 195 243 294 341
#     4  11  23  38  61  87 120 153 200 239 296 354
#     4  11  20  32  53  84 118 148 185 225 287 353
#     4  11  21  32  56  82 117 154 184 234 288 347
#     4  11  23  40  63  86 111 148 198 249 292 338
#
# _framework density 9.4072490000000002
#
# number of rings (size 3 to 8) (size 9 to 14) (size 15 to 20)
#    0.000    1.000    6.250    1.125    3.500    1.000 
#    0.000    0.000    0.000    4.125    0.000    0.000 
#    0.000    0.000    0.000    0.000    0.000    0.000 
#
# Total GULP energy -178432.212877 kJ/mol
# GULP energy per Si atom -5576.006652 kJ/mol
# Density = 0.938584 g / cm^3
# Si number density = 9.407249 Si / 1000 Ang^3
#
#
#
# Elastic Constant Matrix: (Units=GPa)
#
#
# Indices 1 2 3 4 5 6 
#
# 1 68.5495 20.4018 13.8573 -0.0098 -28.9424 0.0045
# 2 20.4018 58.1737 21.2639 -0.0077 -15.1189 0.0053
# 3 13.8573 21.2639 85.8318 0.0047 -25.6200 0.0033
# 4 -0.0098 -0.0077 0.0047 5.8793 0.0035 5.2340
# 5 -28.9424 -15.1189 -25.6200 0.0035 39.4682 -0.0040
# 6 0.0045 0.0053 0.0033 5.2340 -0.0040 17.2172
#
#
#
# Elastic Compliance Matrix: (Units=1/GPa)
#
#
# Indices 1 2 3 4 5 6 
#
# 1 0.022251 -0.004465 0.002324 0.000028 0.016115 -0.000010
# 2 -0.004465 0.020703 -0.003743 0.000034 0.002226 -0.000014
# 3 0.002324 -0.003743 0.015236 -0.000026 0.010160 0.000008
# 4 0.000028 0.000034 -0.000026 0.233197 -0.000011 -0.070891
# 5 0.016115 0.002226 0.010160 -0.000011 0.044602 0.000007
# 6 -0.000010 -0.000014 0.000008 -0.070891 0.000007 0.079632
#
#
# Mechanical properties :
#
#
# Convention : Reuss Voigt Hill
#
# Bulk Modulus (GPa) = 21.54212 35.95568 28.74890
# Shear Modulus (GPa) = 11.29017 22.98175 17.13596
#
# Velocity S-wave (km/s) = 2.45231 3.49878 3.02120
# Velocity P-wave (km/s) = 4.41509 5.95601 5.24247
#
# Compressibility (1/GPa) = 0.04642069
#
# Stress axis : x y z
#
# Youngs Moduli (GPa) = 44.94172 48.30287 65.63574
#
# Poissons Ratio (x) = 0.21566 -0.15254
# Poissons Ratio (y) = 0.20066 0.24571
# Poissons Ratio (z) = -0.10444 0.18082
#
# Static dielectric constant tensor:
#      x y z
#    x 1.690430 0.000000 -0.015890 
#    y 0.000000 1.618650 0.000010 
#    z -0.015890 0.000010 1.742960 
# 
# From -- ./inp_files/306772.got.cif
#   From: 2010.05.17/outbox.ucp.g08.bks.cvg/sg12_154_cif.got.tgz:306772.got - 2010.06.11 11:47:21.
