data_PCOD9225921
_publ_section_title
;
Structure prediction by ZEFSAII (Michael W. Deem and Ramdas Pophale) SiO2 
 PCOD9225921
Probable space group: C 2/M
;
_chemical_formula_sum "Si O2"
_cell_formula_units_Z 24
_cell_length_a 18.000000
_cell_length_b 18.000000
_cell_length_c 21.000000
_cell_angle_alpha 90.000000
_cell_angle_beta 160.000000
_cell_angle_gamma 90.000000
_cell_volume 2327.105055
_symmetry_space_group_name_H-M "C 2/M"
_symmetry_group_IT_number 12
_symmetry_cell_setting 'monoclinic'
loop_
_space_group_symop_operation_xyz
x,y,z
-x,y,-z
-x,-y,-z
x,-y,z
1/2+x,1/2+y,z
1/2-x,1/2+y,-z
1/2-x,1/2-y,-z
1/2+x,1/2-y,z
loop_
_atom_site_type_symbol
_atom_site_label
_atom_site_fract_x
_atom_site_fract_y
_atom_site_fract_z
Si Si1 0.576032 0.356248 0.989241
Si Si2 0.206256 0.410838 0.118653
Si Si3 0.700489 0.921939 0.613200
Si Si4 0.433322 0.163413 0.608654
Si Si5 0.077669 0.290121 0.911611
Si Si6 0.860885 0.830194 0.519501
O O1 0.426921 0.412212 0.830419
O O2 0.535650 0.274350 0.928977
O O3 0.500000 0.359046 0.000000
O O4 0.831228 0.370524 0.191010
O O5 0.224273 0.500000 0.121581
O O6 0.428780 0.378124 0.329609
O O7 0.169234 0.361895 0.024040
O O8 0.000000 0.399311 0.000000
O O9 0.500000 0.921727 0.500000
O O10 0.659623 0.854700 0.534461
O O11 0.693554 0.000000 0.571694
O O12 0.263485 0.132406 0.521995
O O13 0.449938 0.252643 0.621162
O O14 0.844532 0.312004 0.692166
O O15 0.250000 0.250000 0.000000
#
# Coordination Sequence:
#
# PCOD9225921 Si02
#       6
#     8   8   8   8   8   8
#     4  12  23  39  67  98 133 178 230 280 342 413
#     4  11  27  49  70 102 145 187 236 301 367 424
#     4  11  25  41  60  92 136 181 222 274 335 402
#     4  11  22  41  64  98 133 172 227 288 339 412
#     4  12  23  43  73 106 137 176 237 297 348 424
#     4  11  23  41  71  97 132 176 229 287 354 418
#
# _framework density 10.313243
#
# number of rings (size 3 to 8) (size 9 to 14) (size 15 to 20)
#    0.000    0.667    6.667    1.500    0.000    3.000 
#    0.000    1.667    0.000    0.000    0.000    0.000 
#    0.000    0.000    0.000    0.000    0.000    0.000 
#
# Total GULP energy -133867.602194 kJ/mol
# GULP energy per Si atom -5577.816758 kJ/mol
# Density = 1.028977 g / cm^3
# Si number density = 10.313243 Si / 1000 Ang^3
#
#
#
# Elastic Constant Matrix: (Units=GPa)
#
#
# Indices 1 2 3 4 5 6 
#
# 1 56.9401 29.0809 46.7207 0.0287 17.2073 0.0022
# 2 29.0809 81.9622 33.3179 -0.0333 10.6717 -0.0062
# 3 46.7207 33.3179 173.0888 -0.0629 17.2804 -0.0123
# 4 0.0287 -0.0333 -0.0629 56.2055 -0.0169 1.4267
# 5 17.2073 10.6717 17.2804 -0.0169 34.3197 0.0043
# 6 0.0022 -0.0062 -0.0123 1.4267 0.0043 18.2323
#
#
#
# Elastic Compliance Matrix: (Units=1/GPa)
#
#
# Indices 1 2 3 4 5 6 
#
# 1 0.028193 -0.006586 -0.005407 -0.000027 -0.009365 -0.000005
# 2 -0.006586 0.015071 -0.001037 0.000011 -0.000862 0.000005
# 3 -0.005407 -0.001037 0.007511 0.000010 -0.000748 0.000005
# 4 -0.000027 0.000011 0.000010 0.017827 0.000014 -0.001395
# 5 -0.009365 -0.000862 -0.000748 0.000014 0.034478 -0.000009
# 6 -0.000005 0.000005 0.000005 -0.001395 -0.000009 0.054957
#
#
# Mechanical properties :
#
#
# Convention : Reuss Voigt Hill
#
# Bulk Modulus (GPa) = 40.46159 58.91447 49.68803
# Shear Modulus (GPa) = 25.99616 35.27627 30.63621
#
# Velocity S-wave (km/s) = 3.55396 4.13999 3.85812
# Velocity P-wave (km/s) = 6.04150 7.17477 6.63238
#
# Compressibility (1/GPa) = 0.02471480
#
# Stress axis : x y z
#
# Youngs Moduli (GPa) = 35.47035 66.35108 133.13225
#
# Poissons Ratio (x) = 0.43696 0.71988
# Poissons Ratio (y) = 0.23359 0.13811
# Poissons Ratio (z) = 0.19180 0.06883
#
# Static dielectric constant tensor:
#      x y z
#    x 1.761120 0.000010 -0.013240 
#    y 0.000010 1.604630 0.000010 
#    z -0.013240 0.000010 1.747710 
# 
# From -- ./inp_files/317544.got.cif
#   From: 2010.05.17/outbox.ucp.g08.bks.cvg/sg12_159_cif.got.tgz:317544.got - 2010.06.11 11:47:21.
