data_PCOD9225786
_publ_section_title
;
Structure prediction by ZEFSAII (Michael W. Deem and Ramdas Pophale) SiO2 
 PCOD9225786
Probable space group: C 2/M
;
_chemical_formula_sum "Si O2"
_cell_formula_units_Z 32
_cell_length_a 18.000000
_cell_length_b 24.000000
_cell_length_c 24.000000
_cell_angle_alpha 90.000000
_cell_angle_beta 20.000000
_cell_angle_gamma 90.000000
_cell_volume 3546.064846
_symmetry_space_group_name_H-M "C 2/M"
_symmetry_group_IT_number 12
_symmetry_cell_setting 'monoclinic'
loop_
_space_group_symop_operation_xyz
x,y,z
-x,y,-z
-x,-y,-z
x,-y,z
1/2+x,1/2+y,z
1/2-x,1/2+y,-z
1/2-x,1/2-y,-z
1/2+x,1/2-y,z
loop_
_atom_site_type_symbol
_atom_site_label
_atom_site_fract_x
_atom_site_fract_y
_atom_site_fract_z
Si Si1 0.465533 0.639352 0.458221
Si Si2 0.625479 0.936234 0.853582
Si Si3 0.505004 0.142905 0.211246
Si Si4 0.527788 0.231405 0.399699
Si Si5 0.663906 0.762183 0.182018
Si Si6 0.777565 0.067196 0.947667
Si Si7 0.571565 0.327744 0.718109
Si Si8 0.448580 0.246776 0.170018
O O1 0.500000 0.636110 0.500000
O O2 0.675207 0.607159 0.287012
O O3 0.228278 0.615020 0.611774
O O4 0.444945 0.704524 0.456512
O O5 0.708199 0.000000 0.787545
O O6 0.500000 0.932892 0.000000
O O7 0.434111 0.927197 0.943278
O O8 0.575584 0.184464 0.210458
O O9 0.462353 0.186322 0.189468
O O10 0.683939 0.096781 0.069474
O O11 0.655445 0.223630 0.252242
O O12 0.329766 0.186804 0.540188
O O13 0.708046 0.234469 0.321207
O O14 0.515591 0.707874 0.272962
O O15 0.896868 0.747657 0.992056
O O16 0.973064 0.109549 0.790032
O O17 0.828332 0.000000 0.915255
O O18 0.474182 0.292480 0.839209
#
# Coordination Sequence:
#
# PCOD9225786 Si02
#       8
#     8   8   8   8   8   8   8   8
#     4  12  21  34  57  82 118 156 193 228 277 335
#     4  10  24  40  55  82 118 158 200 239 276 323
#     4  11  20  37  55  85 115 150 190 235 277 335
#     4  12  23  33  54  92 118 147 183 232 294 353
#     4  11  22  34  56  85 118 148 185 231 293 341
#     4  11  22  38  61  81 108 155 201 235 275 335
#     4  11  21  37  56  82 118 147 184 237 282 338
#     4  11  19  37  58  79 117 153 183 225 289 344
#
# _framework density 9.0240880000000008
#
# number of rings (size 3 to 8) (size 9 to 14) (size 15 to 20)
#    0.000    0.875    7.500    1.875    1.750    0.750 
#    0.000    0.000    0.000    2.250    0.000    0.875 
#    0.000    0.000    0.000    0.000    0.000    0.000 
#
# Total GULP energy -178475.746482 kJ/mol
# GULP energy per Si atom -5577.367078 kJ/mol
# Density = 0.900355 g / cm^3
# Si number density = 9.024088 Si / 1000 Ang^3
#
#
#
# Elastic Constant Matrix: (Units=GPa)
#
#
# Indices 1 2 3 4 5 6 
#
# 1 46.1722 16.9180 14.5379 -0.0070 1.4766 0.0256
# 2 16.9180 117.5921 28.0747 -0.0681 -7.0827 0.0271
# 3 14.5379 28.0747 88.0781 -0.1439 -10.3840 0.0134
# 4 -0.0070 -0.0681 -0.1439 31.1041 0.0287 -4.5644
# 5 1.4766 -7.0827 -10.3840 0.0287 29.5426 -0.0118
# 6 0.0256 0.0271 0.0134 -4.5644 -0.0118 14.2166
#
#
#
# Elastic Compliance Matrix: (Units=1/GPa)
#
#
# Indices 1 2 3 4 5 6 
#
# 1 0.023855 -0.002804 -0.003405 -0.000020 -0.003061 -0.000043
# 2 -0.002804 0.009577 -0.002402 0.000007 0.001592 -0.000008
# 3 -0.003405 -0.002402 0.013180 0.000054 0.004227 0.000019
# 4 -0.000020 0.000007 0.000054 0.033740 -0.000007 0.010833
# 5 -0.003061 0.001592 0.004227 -0.000007 0.035870 0.000026
# 6 -0.000043 -0.000008 0.000019 0.010833 0.000026 0.073818
#
#
# Mechanical properties :
#
#
# Convention : Reuss Voigt Hill
#
# Bulk Modulus (GPa) = 34.02445 41.21151 37.61798
# Shear Modulus (GPa) = 23.03539 27.79345 25.41442
#
# Velocity S-wave (km/s) = 3.57645 3.92849 3.75659
# Velocity P-wave (km/s) = 5.99563 6.59250 6.30114
#
# Compressibility (1/GPa) = 0.02939063
#
# Stress axis : x y z
#
# Youngs Moduli (GPa) = 41.91950 104.42008 75.87473
#
# Poissons Ratio (x) = 0.29275 0.25834
# Poissons Ratio (y) = 0.11752 0.18226
# Poissons Ratio (z) = 0.14273 0.25083
#
# Static dielectric constant tensor:
#      x y z
#    x 1.657200 -0.000030 0.013770 
#    y -0.000030 1.601050 0.000090 
#    z 0.013770 0.000090 1.700540 
# 
# From -- ./inp_files/89587.got.cif
#   From: 2010.05.17/outbox.ucp.g08.bks.cvg/sg12_45_cif.got.tgz:89587.got - 2010.06.11 11:47:21.
