data_PCOD9225120
_publ_section_title
;
Structure prediction by ZEFSAII (Michael W. Deem and Ramdas Pophale) SiO2 
 PCOD9225120
Probable space group: C 2/M
;
_chemical_formula_sum "Si O2"
_cell_formula_units_Z 24
_cell_length_a 12.000000
_cell_length_b 15.000000
_cell_length_c 21.000000
_cell_angle_alpha 90.000000
_cell_angle_beta 140.000000
_cell_angle_gamma 90.000000
_cell_volume 2429.737165
_symmetry_space_group_name_H-M "C 2/M"
_symmetry_group_IT_number 12
_symmetry_cell_setting 'monoclinic'
loop_
_space_group_symop_operation_xyz
x,y,z
-x,y,-z
-x,-y,-z
x,-y,z
1/2+x,1/2+y,z
1/2-x,1/2+y,-z
1/2-x,1/2-y,-z
1/2+x,1/2-y,z
loop_
_atom_site_type_symbol
_atom_site_label
_atom_site_fract_x
_atom_site_fract_y
_atom_site_fract_z
Si Si1 0.645672 0.604753 0.777028
Si Si2 0.233327 0.391818 0.363267
Si Si3 0.369278 0.893447 0.144122
Si Si4 0.922228 0.107185 0.566184
Si Si5 0.367192 0.396195 0.075469
Si Si6 0.113267 0.236384 0.108902
O O1 0.689592 0.500000 0.780817
O O2 0.469337 0.627818 0.660423
O O3 0.640036 0.610948 0.851365
O O4 0.784520 0.679547 0.818462
O O5 0.228207 0.500000 0.362951
O O6 0.401799 0.369353 0.395080
O O7 0.268443 0.359663 0.451735
O O8 0.059121 0.364655 0.250886
O O9 0.240296 0.835428 0.130804
O O10 0.351991 0.000000 0.148635
O O11 0.308023 0.881175 0.043546
O O12 0.903491 0.000000 0.557492
O O13 0.418998 0.500000 0.084191
O O14 0.498558 0.321803 0.106893
O O15 0.000000 0.271078 0.000000
#
# Coordination Sequence:
#
# PCOD9225120 Si02
#       6
#     8   8   8   8   8   8
#     4  10  21  35  52  76 106 140 175 212 259 311
#     4   8  14  27  50  76 101 131 172 216 255 302
#     4   9  17  31  53  78 102 134 176 217 257 308
#     4   8  15  29  48  72 102 137 172 210 258 306
#     4   9  19  36  55  77 107 139 170 211 264 313
#     4  10  21  34  52  76 106 140 176 213 255 308
#
# _framework density 9.8776119999999992
#
# number of rings (size 3 to 8) (size 9 to 14) (size 15 to 20)
#    0.000    3.000    0.000    1.500    0.000    7.667 
#    0.000    4.167    0.000    2.000    0.000    5.833 
#    0.000    0.000    0.000    0.000    0.000    1.333 
#
# Total GULP energy -133713.027752 kJ/mol
# GULP energy per Si atom -5571.376156 kJ/mol
# Density = 0.985513 g / cm^3
# Si number density = 9.877612 Si / 1000 Ang^3
#
#
#
# Elastic Constant Matrix: (Units=GPa)
#
#
# Indices 1 2 3 4 5 6 
#
# 1 38.2822 23.5227 52.3437 0.0000 -13.7991 0.0000
# 2 23.5227 61.8675 26.3035 0.0000 -10.6635 0.0000
# 3 52.3437 26.3035 172.8148 0.0000 -33.0890 0.0000
# 4 0.0000 0.0000 0.0000 23.1062 0.0000 4.9255
# 5 -13.7991 -10.6635 -33.0890 0.0000 23.2381 0.0000
# 6 0.0000 0.0000 0.0000 4.9255 0.0000 18.3061
#
#
#
# Elastic Compliance Matrix: (Units=1/GPa)
#
#
# Indices 1 2 3 4 5 6 
#
# 1 0.055764 -0.014241 -0.013245 0.000000 0.007719 0.000000
# 2 -0.014241 0.021497 0.001802 0.000000 0.003975 0.000000
# 3 -0.013245 0.001802 0.011241 0.000000 0.008969 0.000000
# 4 0.000000 0.000000 0.000000 0.045912 0.000000 -0.012353
# 5 0.007719 0.003975 0.008969 0.000000 0.062211 0.000000
# 6 0.000000 0.000000 0.000000 -0.012353 0.000000 0.057950
#
#
# Mechanical properties :
#
#
# Convention : Reuss Voigt Hill
#
# Bulk Modulus (GPa) = 26.92795 53.03383 39.98089
# Shear Modulus (GPa) = 15.70745 24.31639 20.01192
#
# Velocity S-wave (km/s) = 2.82282 3.51220 3.18621
# Velocity P-wave (km/s) = 4.92796 6.58416 5.81532
#
# Compressibility (1/GPa) = 0.03713614
#
# Stress axis : x y z
#
# Youngs Moduli (GPa) = 17.93259 46.51860 88.95877
#
# Poissons Ratio (x) = 0.66245 1.17825
# Poissons Ratio (y) = 0.25537 -0.16034
# Poissons Ratio (z) = 0.23752 -0.08385
#
# Static dielectric constant tensor:
#      x y z
#    x 1.718370 0.000000 -0.005740 
#    y 0.000000 1.685370 0.000000 
#    z -0.005740 0.000000 1.751860 
# 
# From -- ./inp_files/305687.got.cif
#   From: 2010.05.17/outbox.ucp.g08.bks.cvg/sg12_153_cif.got.tgz:305687.got - 2010.06.11 11:47:21.
