data_PCOD9225048
_publ_section_title
;
Structure prediction by ZEFSAII (Michael W. Deem and Ramdas Pophale) SiO2 
 PCOD9225048
Probable space group: C 2/M
;
_chemical_formula_sum "Si O2"
_cell_formula_units_Z 32
_cell_length_a 27.000000
_cell_length_b 9.000000
_cell_length_c 15.000000
_cell_angle_alpha 90.000000
_cell_angle_beta 110.000000
_cell_angle_gamma 90.000000
_cell_volume 3425.179603
_symmetry_space_group_name_H-M "C 2/M"
_symmetry_group_IT_number 12
_symmetry_cell_setting 'monoclinic'
loop_
_space_group_symop_operation_xyz
x,y,z
-x,y,-z
-x,-y,-z
x,-y,z
1/2+x,1/2+y,z
1/2-x,1/2+y,-z
1/2-x,1/2-y,-z
1/2+x,1/2-y,z
loop_
_atom_site_type_symbol
_atom_site_label
_atom_site_fract_x
_atom_site_fract_y
_atom_site_fract_z
Si Si1 0.473117 0.180500 0.890252
Si Si2 0.902272 0.821816 0.528450
Si Si3 0.179384 0.327119 0.872766
Si Si4 0.695789 0.179872 0.430331
Si Si5 0.493253 0.173925 0.703490
Si Si6 0.193834 0.171484 0.063287
Si Si7 0.648697 0.821655 0.208943
Si Si8 0.603270 0.174078 0.667564
O O1 0.499044 0.220799 0.810757
O O2 0.412273 0.227459 0.838186
O O3 0.474069 0.000000 0.896012
O O4 0.500000 0.233028 0.000000
O O5 0.850823 0.744224 0.537841
O O6 0.951140 0.765189 0.619199
O O7 0.904453 0.766756 0.427361
O O8 0.899066 0.000000 0.530115
O O9 0.163864 0.500000 0.876733
O O10 0.242531 0.321070 0.901384
O O11 0.149358 0.276438 0.764636
O O12 0.169225 0.236921 0.957132
O O13 0.750000 0.250000 0.500000
O O14 0.678812 0.223083 0.318419
O O15 0.698313 0.000000 0.436491
O O16 0.549287 0.181184 0.689901
O O17 0.475484 0.000000 0.692946
O O18 0.176896 0.262934 0.138648
O O19 0.178622 0.000000 0.063400
O O20 0.648144 0.000000 0.209085
O O21 0.613139 0.000000 0.650044
#
# Coordination Sequence:
#
# PCOD9225048 Si02
#       8
#     8   8   8   8   8   8   8   8
#     4   9  18  34  61  92 118 150 197 249 298 355
#     4  12  25  41  61  87 122 161 199 245 305 366
#     4   9  20  39  59  85 115 153 198 245 296 350
#     4  11  24  43  65  92 124 160 205 252 304 359
#     4  10  20  39  63  88 117 154 201 252 303 356
#     4  10  21  36  57  85 121 157 193 239 293 353
#     4  10  21  38  62  89 120 155 196 247 297 357
#     4  10  22  38  63  90 115 153 206 258 302 356
#
# _framework density 9.3425759999999993
#
# number of rings (size 3 to 8) (size 9 to 14) (size 15 to 20)
#    0.000    1.875    1.250    2.250    3.500    4.000 
#    0.000    0.000    0.000    0.750    0.000    0.000 
#    0.000    0.000    0.000    0.000    0.000    0.000 
#
# Total GULP energy -178575.336266 kJ/mol
# GULP energy per Si atom -5580.479258 kJ/mol
# Density = 0.932131 g / cm^3
# Si number density = 9.342576 Si / 1000 Ang^3
#
#
#
# Elastic Constant Matrix: (Units=GPa)
#
#
# Indices 1 2 3 4 5 6 
#
# 1 31.8827 11.7247 33.8597 0.0000 -2.6456 0.0000
# 2 11.7247 40.9681 38.8360 0.0000 2.5811 0.0000
# 3 33.8597 38.8360 183.8927 0.0000 1.1897 0.0000
# 4 0.0000 0.0000 0.0000 27.0518 0.0000 4.1682
# 5 -2.6456 2.5811 1.1897 0.0000 33.8599 0.0000
# 6 0.0000 0.0000 0.0000 4.1682 0.0000 20.8476
#
#
#
# Elastic Compliance Matrix: (Units=1/GPa)
#
#
# Indices 1 2 3 4 5 6 
#
# 1 0.040473 -0.005922 -0.006226 0.000000 0.003833 0.000000
# 2 -0.005922 0.031536 -0.005552 0.000000 -0.002672 0.000000
# 3 -0.006226 -0.005552 0.007759 0.000000 -0.000336 0.000000
# 4 0.000000 0.000000 0.000000 0.038141 0.000000 -0.007626
# 5 0.003833 -0.002672 -0.000336 0.000000 0.030048 0.000000
# 6 0.000000 0.000000 0.000000 -0.007626 0.000000 0.049492
#
#
# Mechanical properties :
#
#
# Convention : Reuss Voigt Hill
#
# Bulk Modulus (GPa) = 22.53952 47.28715 34.91333
# Shear Modulus (GPa) = 20.19061 27.84008 24.01535
#
# Velocity S-wave (km/s) = 3.29077 3.86418 3.58895
# Velocity P-wave (km/s) = 5.15052 6.72841 5.99163
#
# Compressibility (1/GPa) = 0.04436651
#
# Stress axis : x y z
#
# Youngs Moduli (GPa) = 24.70767 31.71004 128.88029
#
# Poissons Ratio (x) = 0.18779 0.80245
# Poissons Ratio (y) = 0.14632 0.71558
# Poissons Ratio (z) = 0.15384 0.17606
#
# Static dielectric constant tensor:
#      x y z
#    x 1.662640 0.000000 -0.000470 
#    y 0.000000 1.634920 0.000000 
#    z -0.000470 0.000000 1.636790 
# 
# From -- ./inp_files/244187.got.cif
#   From: 2010.05.17/outbox.ucp.g08.bks.cvg/sg12_123_cif.got.tgz:244187.got - 2010.06.11 11:47:21.
