data_PCOD9225063
_publ_section_title
;
Structure prediction by ZEFSAII (Michael W. Deem and Ramdas Pophale) SiO2 
 PCOD9225063
Probable space group: C 2/M
;
_chemical_formula_sum "Si O2"
_cell_formula_units_Z 30
_cell_length_a 18.000000
_cell_length_b 15.000000
_cell_length_c 24.000000
_cell_angle_alpha 90.000000
_cell_angle_beta 30.000000
_cell_angle_gamma 90.000000
_cell_volume 3240.000000
_symmetry_space_group_name_H-M "C 2/M"
_symmetry_group_IT_number 12
_symmetry_cell_setting 'monoclinic'
loop_
_space_group_symop_operation_xyz
x,y,z
-x,y,-z
-x,-y,-z
x,-y,z
1/2+x,1/2+y,z
1/2-x,1/2+y,-z
1/2-x,1/2-y,-z
1/2+x,1/2-y,z
loop_
_atom_site_type_symbol
_atom_site_label
_atom_site_fract_x
_atom_site_fract_y
_atom_site_fract_z
Si Si1 0.568248 0.896666 0.063763
Si Si2 0.060138 0.392426 0.549979
Si Si3 0.000000 0.236616 0.500000
Si Si4 0.417145 0.395847 0.317150
Si Si5 0.625119 0.720738 0.965189
Si Si6 0.803502 0.610804 0.322572
Si Si7 0.513042 0.799688 0.285332
Si Si8 0.621541 0.397451 0.074763
O O1 0.413059 0.882292 0.197518
O O2 0.573714 0.000000 0.041723
O O3 0.598000 0.825047 0.996375
O O4 0.709374 0.883750 0.013692
O O5 0.016546 0.500000 0.569860
O O6 0.993151 0.311090 0.554999
O O7 0.239191 0.390809 0.424828
O O8 0.023723 0.358751 0.636170
O O9 0.148512 0.170513 0.413647
O O10 0.447940 0.500000 0.317070
O O11 0.464876 0.306007 0.320238
O O12 0.509719 0.385849 0.199445
O O13 0.804025 0.701980 0.839680
O O14 0.500000 0.695263 0.000000
O O15 0.588136 0.668527 0.046275
O O16 0.779165 0.500000 0.347073
O O17 0.908253 0.655136 0.304080
O O18 0.609457 0.500000 0.063674
#
# Coordination Sequence:
#
# PCOD9225063 Si02
#       8
#     8   8   4   8   8   8   8   8
#     4  10  21  41  67  94 127 175 222 265 326 396
#     4  11  26  44  67  99 133 177 222 271 334 395
#     4  12  26  44  70  98 136 174 226 272 326 392
#     4  10  21  40  68  98 125 167 229 276 319 390
#     4  12  26  38  64  98 137 171 214 271 334 391
#     4  11  24  43  70  99 133 175 223 275 331 392
#     4  12  23  44  67  95 136 176 221 272 331 395
#     4  10  20  39  67  96 125 166 221 271 320 393
#
# _framework density 9.2592590000000001
#
# number of rings (size 3 to 8) (size 9 to 14) (size 15 to 20)
#    0.000    1.067    4.000    2.400    1.867    1.067 
#    0.000    2.000    0.000    0.000    0.000    0.000 
#    0.000    0.000    0.000    0.000    0.000    0.000 
#
# Total GULP energy -167114.207359 kJ/mol
# GULP energy per Si atom -5570.473579 kJ/mol
# Density = 0.923818 g / cm^3
# Si number density = 9.259259 Si / 1000 Ang^3
#
#
#
# Elastic Constant Matrix: (Units=GPa)
#
#
# Indices 1 2 3 4 5 6 
#
# 1 82.3982 44.3224 39.9313 -0.0003 -17.0809 0.0000
# 2 44.3224 146.4740 41.1508 -0.0011 -5.1576 0.0002
# 3 39.9313 41.1508 114.5266 -0.0020 -15.6402 0.0004
# 4 -0.0003 -0.0011 -0.0020 41.5155 0.0006 -1.9578
# 5 -17.0809 -5.1576 -15.6402 0.0006 28.3484 -0.0003
# 6 0.0000 0.0002 0.0004 -1.9578 -0.0003 28.2209
#
#
#
# Elastic Compliance Matrix: (Units=1/GPa)
#
#
# Indices 1 2 3 4 5 6 
#
# 1 0.017730 -0.004064 -0.003638 0.000000 0.007937 0.000000
# 2 -0.004064 0.008526 -0.001913 0.000000 -0.001953 0.000000
# 3 -0.003638 -0.001913 0.011183 0.000000 0.003630 0.000000
# 4 0.000000 0.000000 0.000000 0.024166 0.000000 0.001677
# 5 0.007937 -0.001953 0.003630 0.000000 0.041705 0.000000
# 6 0.000000 0.000000 0.000000 0.001677 0.000000 0.035551
#
#
# Mechanical properties :
#
#
# Convention : Reuss Voigt Hill
#
# Bulk Modulus (GPa) = 54.91643 66.02308 60.46975
# Shear Modulus (GPa) = 30.45801 34.14991 32.30396
#
# Velocity S-wave (km/s) = 4.05993 4.29895 4.18115
# Velocity P-wave (km/s) = 7.19004 7.76989 7.48558
#
# Compressibility (1/GPa) = 0.01820949
#
# Stress axis : x y z
#
# Youngs Moduli (GPa) = 56.40079 117.29513 89.42024
#
# Poissons Ratio (x) = 0.47664 0.32531
# Poissons Ratio (y) = 0.22919 0.17108
# Poissons Ratio (z) = 0.20518 0.22441
#
# Static dielectric constant tensor:
#      x y z
#    x 1.665610 0.000000 0.006220 
#    y 0.000000 1.685630 0.000000 
#    z 0.006220 0.000000 1.646870 
# 
# From -- ./inp_files/343818.got.cif
#   From: 2010.05.17/outbox.ucp.g08.bks.cvg/sg12_172_cif.got.tgz:343818.got - 2010.06.11 11:47:21.
