data_PCOD9225281
_publ_section_title
;
Structure prediction by ZEFSAII (Michael W. Deem and Ramdas Pophale) SiO2 
 PCOD9225281
Probable space group: C 2/M
;
_chemical_formula_sum "Si O2"
_cell_formula_units_Z 32
_cell_length_a 30.000000
_cell_length_b 9.000000
_cell_length_c 24.000000
_cell_angle_alpha 90.000000
_cell_angle_beta 150.000000
_cell_angle_gamma 90.000000
_cell_volume 3240.000000
_symmetry_space_group_name_H-M "C 2/M"
_symmetry_group_IT_number 12
_symmetry_cell_setting 'monoclinic'
loop_
_space_group_symop_operation_xyz
x,y,z
-x,y,-z
-x,-y,-z
x,-y,z
1/2+x,1/2+y,z
1/2-x,1/2+y,-z
1/2-x,1/2-y,-z
1/2+x,1/2-y,z
loop_
_atom_site_type_symbol
_atom_site_label
_atom_site_fract_x
_atom_site_fract_y
_atom_site_fract_z
Si Si1 0.883669 0.323214 0.993240
Si Si2 0.834607 0.677405 0.063697
Si Si3 0.860607 0.167892 0.573946
Si Si4 0.740472 0.677834 0.230805
Si Si5 0.046091 0.168680 0.717002
Si Si6 0.070931 0.322583 0.624420
Si Si7 0.742373 0.332021 0.358636
Si Si8 0.438751 0.670372 0.776478
O O1 0.880616 0.500000 0.983712
O O2 0.835447 0.281803 0.999402
O O3 0.982853 0.267943 0.113756
O O4 0.838309 0.249108 0.890685
O O5 0.834953 0.500000 0.067725
O O6 0.913463 0.741758 0.187117
O O7 0.750000 0.750000 0.000000
O O8 0.787326 0.255677 0.460408
O O9 0.897847 0.226508 0.673356
O O10 0.942247 0.161767 0.619127
O O11 0.828915 0.000000 0.551673
O O12 0.725435 0.500000 0.217994
O O13 0.831519 0.703705 0.295528
O O14 0.751927 0.733722 0.306894
O O15 0.060962 0.242773 0.673078
O O16 0.082582 0.000000 0.756355
O O17 0.059165 0.500000 0.620350
O O18 0.000000 0.275940 0.500000
O O19 0.778907 0.500000 0.395508
O O20 0.638925 0.336265 0.262307
O O21 0.470597 0.500000 0.799944
#
# Coordination Sequence:
#
# PCOD9225281 Si02
#       8
#     8   8   8   8   8   8   8   8
#     4  11  24  40  60  87 118 156 200 246 295 352
#     4  11  23  38  58  85 115 150 194 240 292 351
#     4  10  21  37  59  89 123 156 190 241 305 357
#     4  10  22  40  60  85 119 159 200 246 298 350
#     4  11  22  36  57  86 119 154 194 238 292 353
#     4  10  21  38  60  86 119 160 204 247 295 351
#     4  10  22  39  63  90 115 154 203 247 294 354
#     4  10  21  40  63  88 120 156 196 243 300 359
#
# _framework density 9.8765429999999999
#
# number of rings (size 3 to 8) (size 9 to 14) (size 15 to 20)
#    0.000    1.625    1.250    3.000    0.000    8.250 
#    0.000    2.500    0.000    0.000    0.000    0.000 
#    0.000    0.000    0.000    0.000    0.000    0.000 
#
# Total GULP energy -178585.088243 kJ/mol
# GULP energy per Si atom -5580.784008 kJ/mol
# Density = 0.985406 g / cm^3
# Si number density = 9.876543 Si / 1000 Ang^3
#
#
#
# Elastic Constant Matrix: (Units=GPa)
#
#
# Indices 1 2 3 4 5 6 
#
# 1 56.3887 8.4725 5.9124 0.0000 -5.9323 0.0000
# 2 8.4725 22.3657 21.7854 0.0000 -0.8276 0.0000
# 3 5.9124 21.7854 94.0290 0.0000 -14.4777 0.0000
# 4 0.0000 0.0000 0.0000 28.0714 0.0000 -4.3815
# 5 -5.9323 -0.8276 -14.4777 0.0000 30.4025 0.0000
# 6 0.0000 0.0000 0.0000 -4.3815 0.0000 15.7125
#
#
#
# Elastic Compliance Matrix: (Units=1/GPa)
#
#
# Indices 1 2 3 4 5 6 
#
# 1 0.019311 -0.008534 0.001411 0.000000 0.004208 0.000000
# 2 -0.008534 0.062279 -0.014987 0.000000 -0.007107 0.000000
# 3 0.001411 -0.014987 0.015106 0.000000 0.007061 0.000000
# 4 0.000000 0.000000 0.000000 0.037244 0.000000 0.010386
# 5 0.004208 -0.007107 0.007061 0.000000 0.036882 0.000000
# 6 0.000000 0.000000 0.000000 0.010386 0.000000 0.066539
#
#
# Mechanical properties :
#
#
# Convention : Reuss Voigt Hill
#
# Bulk Modulus (GPa) = 19.05633 27.23599 23.14616
# Shear Modulus (GPa) = 16.71827 23.94484 20.33155
#
# Velocity S-wave (km/s) = 2.91239 3.48545 3.21173
# Velocity P-wave (km/s) = 4.58012 5.47869 5.04943
#
# Compressibility (1/GPa) = 0.05247600
#
# Stress axis : x y z
#
# Youngs Moduli (GPa) = 51.78394 16.05668 66.19993
#
# Poissons Ratio (x) = 0.13703 -0.09339
# Poissons Ratio (y) = 0.44192 0.99214
# Poissons Ratio (z) = -0.07306 0.24064
#
# Static dielectric constant tensor:
#      x y z
#    x 1.684290 0.000000 0.042680 
#    y 0.000000 1.715850 0.000000 
#    z 0.042680 0.000000 1.750570 
# 
# From -- ./inp_files/353521.got.cif
#   From: 2010.05.17/outbox.ucp.g08.bks.cvg/sg12_177_cif.got.tgz:353521.got - 2010.06.11 11:47:21.
