data_PCOD9225427
_publ_section_title
;
Structure prediction by ZEFSAII (Michael W. Deem and Ramdas Pophale) SiO2 
 PCOD9225427
Probable space group: C 2/M
;
_chemical_formula_sum "Si O2"
_cell_formula_units_Z 32
_cell_length_a 15.000000
_cell_length_b 9.000000
_cell_length_c 30.000000
_cell_angle_alpha 90.000000
_cell_angle_beta 60.000000
_cell_angle_gamma 90.000000
_cell_volume 3507.402885
_symmetry_space_group_name_H-M "C 2/M"
_symmetry_group_IT_number 12
_symmetry_cell_setting 'monoclinic'
loop_
_space_group_symop_operation_xyz
x,y,z
-x,y,-z
-x,-y,-z
x,-y,z
1/2+x,1/2+y,z
1/2-x,1/2+y,-z
1/2-x,1/2-y,-z
1/2+x,1/2-y,z
loop_
_atom_site_type_symbol
_atom_site_label
_atom_site_fract_x
_atom_site_fract_y
_atom_site_fract_z
Si Si1 0.451489 0.679312 0.295657
Si Si2 0.382551 0.676910 0.213658
Si Si3 0.108212 0.830409 0.997389
Si Si4 0.102897 0.320591 0.503197
Si Si5 0.956004 0.675813 0.893177
Si Si6 0.337044 0.320120 0.417044
Si Si7 0.306681 0.325243 0.777244
Si Si8 0.727817 0.676117 0.108564
O O1 0.441406 0.500000 0.298339
O O2 0.409760 0.728476 0.257259
O O3 0.392079 0.728070 0.356231
O O4 0.573782 0.711336 0.262028
O O5 0.402013 0.500000 0.206210
O O6 0.447072 0.754062 0.157371
O O7 0.265559 0.719855 0.233401
O O8 0.179093 0.733728 0.946116
O O9 0.150145 0.000000 0.993710
O O10 0.081169 0.752177 0.051207
O O11 0.000000 0.844223 0.000000
O O12 0.099226 0.500000 0.509008
O O13 0.213492 0.284724 0.451430
O O14 0.111387 0.248939 0.550848
O O15 0.000000 0.277913 0.500000
O O16 0.970862 0.500000 0.896256
O O17 0.864181 0.717016 0.882960
O O18 0.345952 0.500000 0.417335
O O19 0.291896 0.500000 0.769707
O O20 0.270896 0.310603 0.838076
O O21 0.709438 0.500000 0.103801
#
# Coordination Sequence:
#
# PCOD9225427 Si02
#       8
#     8   8   8   8   8   8   8   8
#     4   9  19  38  59  81 115 155 194 236 290 347
#     4  11  22  39  61  86 115 151 192 239 293 351
#     4  11  24  40  58  83 113 144 185 237 290 353
#     4   9  18  33  54  83 120 156 192 240 292 337
#     4  12  24  39  60  84 112 147 190 236 288 351
#     4   9  18  34  57  82 112 156 200 237 283 342
#     4  10  21  39  60  83 113 151 191 238 292 349
#     4  11  22  39  61  82 111 149 188 235 294 354
#
# _framework density 9.1235599999999994
#
# number of rings (size 3 to 8) (size 9 to 14) (size 15 to 20)
#    0.000    1.750    1.250    3.375    0.000    5.250 
#    0.000    3.125    0.000    0.000    0.000    0.000 
#    0.000    0.000    0.000    0.000    0.000    0.000 
#
# Total GULP energy -178386.271855 kJ/mol
# GULP energy per Si atom -5574.570995 kJ/mol
# Density = 0.910279 g / cm^3
# Si number density = 9.123560 Si / 1000 Ang^3
#
#
#
# Elastic Constant Matrix: (Units=GPa)
#
#
# Indices 1 2 3 4 5 6 
#
# 1 89.0014 18.3157 43.2260 0.0000 -4.7668 0.0000
# 2 18.3157 67.4148 37.8283 0.0000 0.8079 0.0000
# 3 43.2260 37.8283 161.7146 0.0000 -6.1366 0.0000
# 4 0.0000 0.0000 0.0000 31.5089 0.0000 0.5802
# 5 -4.7668 0.8079 -6.1366 0.0000 19.5214 0.0000
# 6 0.0000 0.0000 0.0000 0.5802 0.0000 28.2697
#
#
#
# Elastic Compliance Matrix: (Units=1/GPa)
#
#
# Indices 1 2 3 4 5 6 
#
# 1 0.013213 -0.001942 -0.002988 0.000000 0.002368 0.000000
# 2 -0.001942 0.017436 -0.003649 0.000000 -0.002343 0.000000
# 3 -0.002988 -0.003649 0.007908 0.000000 0.001907 0.000000
# 4 0.000000 0.000000 0.000000 0.031749 0.000000 -0.000652
# 5 0.002368 -0.002343 0.001907 0.000000 0.052500 0.000000
# 6 0.000000 0.000000 0.000000 -0.000652 0.000000 0.035387
#
#
# Mechanical properties :
#
#
# Convention : Reuss Voigt Hill
#
# Bulk Modulus (GPa) = 46.72526 57.43008 52.07767
# Shear Modulus (GPa) = 27.39956 30.44406 28.92181
#
# Velocity S-wave (km/s) = 3.87923 4.08907 3.98553
# Velocity P-wave (km/s) = 6.76218 7.33729 7.05560
#
# Compressibility (1/GPa) = 0.02140170
#
# Stress axis : x y z
#
# Youngs Moduli (GPa) = 75.68133 57.35102 126.45032
#
# Poissons Ratio (x) = 0.11136 0.37781
# Poissons Ratio (y) = 0.14695 0.46137
# Poissons Ratio (z) = 0.22612 0.20925
#
# Static dielectric constant tensor:
#      x y z
#    x 1.673910 0.000000 -0.007930 
#    y 0.000000 1.630110 0.000000 
#    z -0.007930 0.000000 1.650730 
# 
# From -- ./inp_files/374990.got.cif
#   From: 2010.05.17/outbox.ucp.g08.bks.cvg/sg12_188_cif.got.tgz:374990.got - 2010.06.11 11:47:21.
