data_PCOD9225052
_publ_section_title
;
Structure prediction by ZEFSAII (Michael W. Deem and Ramdas Pophale) SiO2 
 PCOD9225052
Probable space group: C 2/M
;
_chemical_formula_sum "Si O2"
_cell_formula_units_Z 32
_cell_length_a 18.000000
_cell_length_b 9.000000
_cell_length_c 30.000000
_cell_angle_alpha 90.000000
_cell_angle_beta 40.000000
_cell_angle_gamma 90.000000
_cell_volume 3123.947783
_symmetry_space_group_name_H-M "C 2/M"
_symmetry_group_IT_number 12
_symmetry_cell_setting 'monoclinic'
loop_
_space_group_symop_operation_xyz
x,y,z
-x,y,-z
-x,-y,-z
x,-y,z
1/2+x,1/2+y,z
1/2-x,1/2+y,-z
1/2-x,1/2-y,-z
1/2+x,1/2-y,z
loop_
_atom_site_type_symbol
_atom_site_label
_atom_site_fract_x
_atom_site_fract_y
_atom_site_fract_z
Si Si1 0.306761 0.661439 0.263764
Si Si2 0.954697 0.332540 0.643967
Si Si3 0.034631 0.332111 0.265400
Si Si4 0.732655 0.837078 0.630553
Si Si5 0.341175 0.321425 0.492339
Si Si6 0.676444 0.676824 0.994383
Si Si7 0.904057 0.178592 0.131052
Si Si8 0.236686 0.176118 0.135059
O O1 0.358459 0.500000 0.249377
O O2 0.177946 0.647872 0.304870
O O3 0.283146 0.745768 0.318796
O O4 0.381051 0.736410 0.191445
O O5 0.007093 0.500000 0.622803
O O6 0.952969 0.257430 0.692612
O O7 0.031396 0.234970 0.576656
O O8 0.085396 0.500000 0.241940
O O9 0.105297 0.233872 0.199075
O O10 0.899147 0.349113 0.324014
O O11 0.806309 0.768824 0.557405
O O12 0.780677 0.000000 0.618358
O O13 0.331497 0.500000 0.495055
O O14 0.250000 0.250000 0.500000
O O15 0.697533 0.500000 0.983719
O O16 0.714868 0.755712 0.931992
O O17 0.750000 0.750000 0.000000
O O18 0.538545 0.699301 0.060124
O O19 0.815738 0.256218 0.138149
O O20 0.880067 0.000000 0.141609
O O21 0.242064 0.000000 0.133444
#
# Coordination Sequence:
#
# PCOD9225052 Si02
#       8
#     8   8   8   8   8   8   8   8
#     4  10  22  40  63  90 123 159 199 253 307 364
#     4  10  20  39  64  88 119 157 203 253 305 363
#     4  10  20  40  64  87 121 163 207 256 309 364
#     4  10  23  40  59  87 122 161 201 251 312 365
#     4  11  22  38  60  87 121 160 204 254 305 365
#     4  11  25  44  67  95 130 168 206 252 309 367
#     4  10  22  44  68  90 122 166 208 251 307 368
#     4  12  25  40  64  97 128 163 211 257 303 366
#
# _framework density 10.243449
#
# number of rings (size 3 to 8) (size 9 to 14) (size 15 to 20)
#    0.000    1.500    2.500    2.250    1.750    6.000 
#    0.000    2.500    0.000    0.000    0.000    0.000 
#    0.000    0.000    0.000    0.000    0.000    0.000 
#
# Total GULP energy -178263.073083 kJ/mol
# GULP energy per Si atom -5570.721034 kJ/mol
# Density = 1.022013 g / cm^3
# Si number density = 10.243449 Si / 1000 Ang^3
#
#
#
# Elastic Constant Matrix: (Units=GPa)
#
#
# Indices 1 2 3 4 5 6 
#
# 1 -29.5727 -20.5991 -11.9335 0.0002 19.1471 -0.0003
# 2 -20.5991 28.0743 34.9624 0.0005 12.4282 -0.0006
# 3 -11.9335 34.9624 122.9647 0.0001 23.8179 -0.0001
# 4 0.0002 0.0005 0.0001 4.0731 0.0000 11.7232
# 5 19.1471 12.4282 23.8179 0.0000 36.2695 0.0000
# 6 -0.0003 -0.0006 -0.0001 11.7232 0.0000 -2.5944
#
#
#
# Elastic Compliance Matrix: (Units=1/GPa)
#
#
# Indices 1 2 3 4 5 6 
#
# 1 -0.014059 -0.017275 0.001104 -0.000001 0.012616 0.000001
# 2 -0.017275 0.037174 -0.013228 0.000001 0.005068 -0.000002
# 3 0.001104 -0.013228 0.012873 0.000000 -0.004503 0.000001
# 4 -0.000001 0.000001 0.000000 0.017529 0.000000 0.079211
# 5 0.012616 0.005068 -0.004503 0.000000 0.022132 -0.000001
# 6 0.000001 -0.000002 0.000001 0.079211 -0.000001 -0.027521
#
#
# Mechanical properties :
#
#
# Convention : Reuss Voigt Hill
#
# Bulk Modulus (GPa) = -43.84081 14.03622 -14.90230
# Shear Modulus (GPa) = 50.34017 15.48540 32.91279
#
# Velocity S-wave (km/s) = 4.96238 2.75229 4.01250
# Velocity P-wave (km/s) = 3.37457 4.11902 3.76524
#
# Compressibility (1/GPa) = -0.02280980
#
# Stress axis : x y z
#
# Youngs Moduli (GPa) = -71.13038 26.90020 77.68264
#
# Poissons Ratio (x) = 0.46470 -0.08573
# Poissons Ratio (y) = -1.22877 1.02758
# Poissons Ratio (z) = 0.07850 0.35583
#
# Static dielectric constant tensor:
#      x y z
#    x 1.742780 0.000000 0.012310 
#    y 0.000000 2.659960 0.000000 
#    z 0.012310 0.000000 1.722020 
# 
# From -- ./inp_files/378016.got.cif
#   From: 2010.05.17/outbox.ucp.g08.bks.cvg/sg12_190_cif.got.tgz:378016.got - 2010.06.11 11:47:21.
