data_PCOD9225204
_publ_section_title
;
Structure prediction by ZEFSAII (Michael W. Deem and Ramdas Pophale) SiO2 
 PCOD9225204
Probable space group: C 2/M
;
_chemical_formula_sum "Si O2"
_cell_formula_units_Z 28
_cell_length_a 30.000000
_cell_length_b 9.000000
_cell_length_c 21.000000
_cell_angle_alpha 90.000000
_cell_angle_beta 30.000000
_cell_angle_gamma 90.000000
_cell_volume 2835.000000
_symmetry_space_group_name_H-M "C 2/M"
_symmetry_group_IT_number 12
_symmetry_cell_setting 'monoclinic'
loop_
_space_group_symop_operation_xyz
x,y,z
-x,y,-z
-x,-y,-z
x,-y,z
1/2+x,1/2+y,z
1/2-x,1/2+y,-z
1/2-x,1/2-y,-z
1/2+x,1/2-y,z
loop_
_atom_site_type_symbol
_atom_site_label
_atom_site_fract_x
_atom_site_fract_y
_atom_site_fract_z
Si Si1 0.758526 0.822768 0.694587
Si Si2 0.038149 0.822073 0.522124
Si Si3 0.288675 0.822999 0.388263
Si Si4 0.456372 0.673564 0.225249
Si Si5 0.000494 0.669022 0.297540
Si Si6 0.295506 0.166604 0.001455
Si Si7 0.839283 0.173102 0.072540
O O1 0.855982 0.793991 0.603402
O O2 0.753673 0.774613 0.626724
O O3 0.686514 0.745633 0.828786
O O4 0.743847 0.000000 0.713701
O O5 0.000000 0.776926 0.500000
O O6 0.999097 0.740382 0.632803
O O7 0.023192 0.000000 0.547212
O O8 0.250000 0.750000 0.500000
O O9 0.391183 0.771635 0.263243
O O10 0.280216 0.000000 0.403503
O O11 0.431191 0.500000 0.255035
O O12 0.451985 0.731908 0.303730
O O13 0.556612 0.687089 0.074561
O O14 0.964813 0.500000 0.343742
O O15 0.100845 0.661127 0.146472
O O16 0.260101 0.000000 0.051058
O O17 0.250000 0.250000 0.000000
O O18 0.287416 0.247943 0.078828
O O19 0.816713 0.000000 0.101614
#
# Coordination Sequence:
#
# PCOD9225204 Si02
#       7
#     8   8   8   8   8   8   8
#     4  10  23  41  59  86 122 159 198 246 301 362
#     4  10  22  39  59  84 116 158 200 242 302 363
#     4  11  23  39  63  92 123 160 203 248 300 358
#     4  10  21  39  62  88 120 156 198 246 299 358
#     4  10  21  37  58  86 116 150 195 246 297 352
#     4  10  21  36  57  85 117 154 197 245 296 354
#     4  10  22  39  60  87 119 158 200 247 301 356
#
# _framework density 9.8765429999999999
#
# number of rings (size 3 to 8) (size 9 to 14) (size 15 to 20)
#    0.000    1.857    0.000    3.000    2.000    7.143 
#    0.000    2.857    0.000    0.000    0.000    0.000 
#    0.000    0.000    0.000    0.000    0.000    0.000 
#
# Total GULP energy -156377.984288 kJ/mol
# GULP energy per Si atom -5584.928010 kJ/mol
# Density = 0.985406 g / cm^3
# Si number density = 9.876543 Si / 1000 Ang^3
#
#
#
# Elastic Constant Matrix: (Units=GPa)
#
#
# Indices 1 2 3 4 5 6 
#
# 1 150.2552 54.1858 45.7929 0.0008 21.5229 -0.0010
# 2 54.1858 72.8416 45.2129 0.0026 12.2361 -0.0018
# 3 45.7929 45.2129 53.6196 0.0016 33.6761 -0.0008
# 4 0.0008 0.0026 0.0016 31.9815 -0.0001 6.0301
# 5 21.5229 12.2361 33.6761 -0.0001 33.5824 -0.0001
# 6 -0.0010 -0.0018 -0.0008 6.0301 -0.0001 33.4819
#
#
#
# Elastic Compliance Matrix: (Units=1/GPa)
#
#
# Indices 1 2 3 4 5 6 
#
# 1 0.009600 -0.004316 -0.004546 0.000000 -0.000022 0.000000
# 2 -0.004316 0.074875 -0.119000 0.000000 0.094817 0.000001
# 3 -0.004546 -0.119000 0.253419 -0.000004 -0.207854 0.000000
# 4 0.000000 0.000000 -0.000004 0.032367 0.000003 -0.005829
# 5 -0.000022 0.094817 -0.207854 0.000003 0.203678 0.000000
# 6 0.000000 0.000001 0.000000 -0.005829 0.000000 0.030917
#
#
# Mechanical properties :
#
#
# Convention : Reuss Voigt Hill
#
# Bulk Modulus (GPa) = 12.16990 63.01105 37.59048
# Shear Modulus (GPa) = 5.63081 28.57748 17.10414
#
# Velocity S-wave (km/s) = 1.69020 3.80772 2.94581
# Velocity P-wave (km/s) = 3.15966 7.16242 5.53551
#
# Compressibility (1/GPa) = 0.08216993
#
# Stress axis : x y z
#
# Youngs Moduli (GPa) = 104.16153 13.35550 3.94603
#
# Poissons Ratio (x) = 0.05765 0.01794
# Poissons Ratio (y) = 0.44960 0.46958
# Poissons Ratio (z) = 0.47350 1.58931
#
# Static dielectric constant tensor:
#      x y z
#    x 1.686170 0.000020 -0.035300 
#    y 0.000020 1.531330 -0.000050 
#    z -0.035300 -0.000050 1.729040 
# 
# From -- ./inp_files/292419.got.cif
#   From: 2010.05.17/outbox.ucp.g08.bks.cvg/sg12_147_cif.got.tgz:292419.got - 2010.06.11 11:47:21.
