data_PCOD9225468
_publ_section_title
;
Structure prediction by ZEFSAII (Michael W. Deem and Ramdas Pophale) SiO2 
 PCOD9225468
Probable space group: C 2/M
;
_chemical_formula_sum "Si O2"
_cell_formula_units_Z 28
_cell_length_a 18.000000
_cell_length_b 9.000000
_cell_length_c 27.000000
_cell_angle_alpha 90.000000
_cell_angle_beta 140.000000
_cell_angle_gamma 90.000000
_cell_volume 2811.553005
_symmetry_space_group_name_H-M "C 2/M"
_symmetry_group_IT_number 12
_symmetry_cell_setting 'monoclinic'
loop_
_space_group_symop_operation_xyz
x,y,z
-x,y,-z
-x,-y,-z
x,-y,z
1/2+x,1/2+y,z
1/2-x,1/2+y,-z
1/2-x,1/2-y,-z
1/2+x,1/2-y,z
loop_
_atom_site_type_symbol
_atom_site_label
_atom_site_fract_x
_atom_site_fract_y
_atom_site_fract_z
Si Si1 0.648069 0.820264 0.480922
Si Si2 0.008442 0.328994 0.784412
Si Si3 0.757496 0.178830 0.908744
Si Si4 0.429301 0.170853 0.068059
Si Si5 0.318851 0.178809 0.843143
Si Si6 0.378950 0.820973 0.326386
Si Si7 0.741582 0.677539 0.357414
O O1 0.750000 0.750000 0.500000
O O2 0.515690 0.776582 0.398318
O O3 0.685745 0.780375 0.556432
O O4 0.651570 0.000000 0.478702
O O5 0.992363 0.500000 0.759986
O O6 0.128950 0.265725 0.825403
O O7 0.052931 0.329548 0.863957
O O8 0.886542 0.249231 0.712755
O O9 0.831814 0.247556 0.903054
O O10 0.752867 0.000000 0.906900
O O11 0.824482 0.233539 0.992136
O O12 0.557911 0.218049 0.118106
O O13 0.408911 0.000000 0.041716
O O14 0.208499 0.244044 0.757040
O O15 0.309281 0.000000 0.840021
O O16 0.319622 0.788955 0.349298
O O17 0.376234 0.000000 0.316853
O O18 0.724662 0.500000 0.350475
#
# Coordination Sequence:
#
# PCOD9225468 Si02
#       7
#     8   8   8   8   8   8   8
#     4  10  23  41  62  92 125 156 193 241 295 351
#     4  10  22  40  60  86 121 158 197 246 299 349
#     4  11  24  38  58  87 121 159 200 248 299 352
#     4  10  21  40  61  84 116 156 201 249 300 351
#     4  11  23  39  61  87 120 158 199 247 298 354
#     4  10  21  40  64  88 119 157 199 246 293 347
#     4  10  21  39  64  90 117 156 202 243 290 350
#
# _framework density 9.9589090000000002
#
# number of rings (size 3 to 8) (size 9 to 14) (size 15 to 20)
#    0.000    1.714    1.429    2.143    2.000    7.429 
#    0.000    0.000    0.000    2.571    0.000    0.000 
#    0.000    0.000    0.000    0.000    0.000    0.000 
#
# Total GULP energy -156056.145371 kJ/mol
# GULP energy per Si atom -5573.433763 kJ/mol
# Density = 0.993624 g / cm^3
# Si number density = 9.958909 Si / 1000 Ang^3
#
#
#
# Elastic Constant Matrix: (Units=GPa)
#
#
# Indices 1 2 3 4 5 6 
#
# 1 73.2002 20.3449 25.4340 0.0000 4.5678 0.0000
# 2 20.3449 24.6614 38.9754 0.0000 13.1688 0.0000
# 3 25.4340 38.9754 120.4731 0.0000 21.2850 0.0000
# 4 0.0000 0.0000 0.0000 43.0403 0.0000 4.8087
# 5 4.5678 13.1688 21.2850 0.0000 40.5902 0.0000
# 6 0.0000 0.0000 0.0000 4.8087 0.0000 22.2889
#
#
#
# Elastic Compliance Matrix: (Units=1/GPa)
#
#
# Indices 1 2 3 4 5 6 
#
# 1 0.018353 -0.020230 0.002067 0.000000 0.003414 0.000000
# 2 -0.020230 0.113372 -0.028997 0.000000 -0.019299 0.000000
# 3 0.002067 -0.028997 0.017220 0.000000 0.000145 0.000000
# 4 0.000000 0.000000 0.000000 0.023808 0.000000 -0.005136
# 5 0.003414 -0.019299 0.000145 0.000000 0.030437 0.000000
# 6 0.000000 0.000000 0.000000 -0.005136 0.000000 0.045974
#
#
# Mechanical properties :
#
#
# Convention : Reuss Voigt Hill
#
# Bulk Modulus (GPa) = 18.30716 43.09369 30.70043
# Shear Modulus (GPa) = 13.82390 30.08924 21.95657
#
# Velocity S-wave (km/s) = 2.63733 3.89095 3.32378
# Velocity P-wave (km/s) = 4.29946 6.47060 5.49336
#
# Compressibility (1/GPa) = 0.05462342
#
# Stress axis : x y z
#
# Youngs Moduli (GPa) = 54.48825 8.82050 58.07290
#
# Poissons Ratio (x) = 0.17844 -0.12005
# Poissons Ratio (y) = 1.10232 1.68396
# Poissons Ratio (z) = -0.11264 0.25577
#
# Static dielectric constant tensor:
#      x y z
#    x 1.920170 0.000000 -0.047410 
#    y 0.000000 1.675670 0.000000 
#    z -0.047410 0.000000 1.663070 
# 
# From -- ./inp_files/275589.got.cif
#   From: 2010.05.17/outbox.ucp.g08.bks.cvg/sg12_138_cif.got.tgz:275589.got - 2010.06.11 11:47:21.
