data_PCOD9225661
_publ_section_title
;
Structure prediction by ZEFSAII (Michael W. Deem and Ramdas Pophale) SiO2 
 PCOD9225661
Probable space group: C 2/M
;
_chemical_formula_sum "Si O2"
_cell_formula_units_Z 24
_cell_length_a 18.000000
_cell_length_b 15.000000
_cell_length_c 9.000000
_cell_angle_alpha 90.000000
_cell_angle_beta 90.000000
_cell_angle_gamma 90.000000
_cell_volume 2430.000000
_symmetry_space_group_name_H-M "C 2/M"
_symmetry_group_IT_number 12
_symmetry_cell_setting 'monoclinic'
loop_
_space_group_symop_operation_xyz
x,y,z
-x,y,-z
-x,-y,-z
x,-y,z
1/2+x,1/2+y,z
1/2-x,1/2+y,-z
1/2-x,1/2-y,-z
1/2+x,1/2-y,z
loop_
_atom_site_type_symbol
_atom_site_label
_atom_site_fract_x
_atom_site_fract_y
_atom_site_fract_z
Si Si1 0.329804 0.791950 0.034161
Si Si2 0.658407 0.309954 0.674980
Si Si3 0.931707 0.276871 0.594131
Si Si4 0.587177 0.500000 0.307245
Si Si5 0.314160 0.896075 0.754223
Si Si6 0.908560 0.000000 0.346301
Si Si7 0.057293 0.837749 0.128843
O O1 0.347015 0.772705 0.207733
O O2 0.250000 0.750000 0.000000
O O3 0.325287 0.880748 0.932747
O O4 0.390967 0.732026 0.953616
O O5 0.622421 0.279235 0.517994
O O6 0.744621 0.339964 0.687219
O O7 0.619562 0.405262 0.718305
O O8 0.884980 0.353455 0.673167
O O9 0.968855 0.213917 0.721792
O O10 0.000000 0.312779 0.500000
O O11 0.497270 0.500000 0.326129
O O12 0.614109 0.500000 0.477535
O O13 0.604718 0.416120 0.203960
O O14 0.303279 0.000000 0.723763
O O15 0.000000 0.868277 0.000000
#
# Coordination Sequence:
#
# PCOD9225661 Si02
#       7
#     8   8   8   4   8   4   8
#     4   9  21  38  58  80 111 153 197 240 289 346
#     4  11  20  39  61  87 118 159 197 237 294 352
#     4  11  22  37  62  88 118 156 201 243 288 350
#     4  11  21  32  50  90 126 156 190 235 287 355
#     4  10  22  41  61  86 117 156 197 248 298 343
#     4  11  20  32  58  86 127 156 188 238 291 350
#     4  11  21  35  55  84 120 156 196 236 290 351
#
# _framework density 9.8765429999999999
#
# number of rings (size 3 to 8) (size 9 to 14) (size 15 to 20)
#    0.000    1.500    2.500    3.750    0.000    1.000 
#    1.500    0.833    0.000   17.000    0.000    0.000 
#    0.000    0.000    0.000    0.000    0.000    0.000 
#
# Total GULP energy -133646.080426 kJ/mol
# GULP energy per Si atom -5568.586684 kJ/mol
# Density = 0.985406 g / cm^3
# Si number density = 9.876543 Si / 1000 Ang^3
#
#
#
# Elastic Constant Matrix: (Units=GPa)
#
#
# Indices 1 2 3 4 5 6 
#
# 1 48.7379 15.0497 19.5644 0.0000 2.0262 0.0000
# 2 15.0497 55.0958 22.1489 0.0000 -6.0500 0.0000
# 3 19.5644 22.1489 114.3110 0.0000 17.6057 0.0000
# 4 0.0000 0.0000 0.0000 25.3735 0.0000 9.7326
# 5 2.0262 -6.0500 17.6057 0.0000 29.2896 0.0000
# 6 0.0000 0.0000 0.0000 9.7326 0.0000 16.7309
#
#
#
# Elastic Compliance Matrix: (Units=1/GPa)
#
#
# Indices 1 2 3 4 5 6 
#
# 1 0.023340 -0.005367 -0.002794 0.000000 -0.001044 0.000000
# 2 -0.005367 0.022315 -0.004598 0.000000 0.007744 0.000000
# 3 -0.002794 -0.004598 0.011278 0.000000 -0.007535 0.000000
# 4 0.000000 0.000000 0.000000 0.050731 0.000000 -0.029511
# 5 -0.001044 0.007744 -0.007535 0.000000 0.040343 0.000000
# 6 0.000000 0.000000 0.000000 -0.029511 0.000000 0.076936
#
#
# Mechanical properties :
#
#
# Convention : Reuss Voigt Hill
#
# Bulk Modulus (GPa) = 31.83182 36.85230 34.34206
# Shear Modulus (GPa) = 19.16203 25.03759 22.09981
#
# Velocity S-wave (km/s) = 3.11799 3.56410 3.34848
# Velocity P-wave (km/s) = 5.39558 5.96943 5.68974
#
# Compressibility (1/GPa) = 0.03141511
#
# Stress axis : x y z
#
# Youngs Moduli (GPa) = 42.84466 44.81282 88.67025
#
# Poissons Ratio (x) = 0.24051 0.24775
# Poissons Ratio (y) = 0.22994 0.40770
# Poissons Ratio (z) = 0.11971 0.20605
#
# Static dielectric constant tensor:
#      x y z
#    x 1.701320 0.000000 -0.031750 
#    y 0.000000 1.707500 0.000000 
#    z -0.031750 0.000000 1.742130 
# 
# From -- ./inp_files/73668.got.cif
#   From: 2010.05.17/outbox.ucp.g08.bks.cvg/sg12_37_cif.got.tgz:73668.got - 2010.06.11 11:47:21.
