data_PCOD9225277
_publ_section_title
;
Structure prediction by ZEFSAII (Michael W. Deem and Ramdas Pophale) SiO2 
 PCOD9225277
Probable space group: C 2/M
;
_chemical_formula_sum "Si O2"
_cell_formula_units_Z 32
_cell_length_a 18.000000
_cell_length_b 9.000000
_cell_length_c 30.000000
_cell_angle_alpha 90.000000
_cell_angle_beta 140.000000
_cell_angle_gamma 90.000000
_cell_volume 3123.947783
_symmetry_space_group_name_H-M "C 2/M"
_symmetry_group_IT_number 12
_symmetry_cell_setting 'monoclinic'
loop_
_space_group_symop_operation_xyz
x,y,z
-x,y,-z
-x,-y,-z
x,-y,z
1/2+x,1/2+y,z
1/2-x,1/2+y,-z
1/2-x,1/2-y,-z
1/2+x,1/2-y,z
loop_
_atom_site_type_symbol
_atom_site_label
_atom_site_fract_x
_atom_site_fract_y
_atom_site_fract_z
Si Si1 0.503979 0.170486 0.425857
Si Si2 0.492273 0.666798 0.333134
Si Si3 0.249840 0.666323 0.577453
Si Si4 0.794321 0.829197 0.357667
Si Si5 0.178853 0.175470 0.220980
Si Si6 0.213923 0.176138 0.816637
Si Si7 0.713911 0.178959 0.053618
Si Si8 0.918106 0.176495 0.080206
O O1 0.467820 0.212207 0.359208
O O2 0.639441 0.194720 0.495928
O O3 0.426706 0.275775 0.420536
O O4 0.478004 0.000000 0.423869
O O5 0.455680 0.500000 0.331519
O O6 0.628705 0.664101 0.390862
O O7 0.423457 0.694565 0.255751
O O8 0.232578 0.500000 0.589332
O O9 0.258295 0.787183 0.619454
O O10 0.733264 0.738434 0.290694
O O11 0.785644 0.000000 0.343459
O O12 0.230027 0.250322 0.200505
O O13 0.042833 0.206618 0.157230
O O14 0.197326 0.000000 0.227389
O O15 0.261980 0.233822 0.885457
O O16 0.236840 0.000000 0.826636
O O17 0.822459 0.222317 0.072447
O O18 0.707319 0.000000 0.051395
O O19 0.604843 0.243151 0.977176
O O20 0.906162 0.000000 0.067619
#
# Coordination Sequence:
#
# PCOD9225277 Si02
#       8
#     8   8   8   8   8   8   8   8
#     4  11  22  39  62  87 118 154 197 244 294 353
#     4  10  21  38  61  87 119 157 195 241 293 349
#     4  10  23  40  61  88 117 155 197 242 297 353
#     4  12  25  40  59  86 118 155 199 247 298 351
#     4  11  23  39  61  85 116 156 195 243 294 345
#     4  10  21  37  59  86 118 156 195 235 285 347
#     4   9  19  37  61  88 118 153 189 232 285 341
#     4   9  20  38  61  88 116 152 193 234 284 340
#
# _framework density 10.243449
#
# number of rings (size 3 to 8) (size 9 to 14) (size 15 to 20)
#    0.000    1.750    1.250    2.625    1.750    5.000 
#    0.000    2.500    0.000    0.000    0.000    0.000 
#    0.000    0.000    0.000    0.000    0.000    0.000 
#
# Total GULP energy -178524.408582 kJ/mol
# GULP energy per Si atom -5578.887768 kJ/mol
# Density = 1.022013 g / cm^3
# Si number density = 10.243449 Si / 1000 Ang^3
#
#
#
# Elastic Constant Matrix: (Units=GPa)
#
#
# Indices 1 2 3 4 5 6 
#
# 1 25.6287 15.0851 20.4991 0.0000 -9.7125 0.0000
# 2 15.0851 3.3983 45.4775 0.0000 11.1767 0.0000
# 3 20.4991 45.4775 90.8618 0.0000 -24.6234 0.0000
# 4 0.0000 0.0000 0.0000 21.8688 0.0000 -3.4163
# 5 -9.7125 11.1767 -24.6234 0.0000 22.8860 0.0000
# 6 0.0000 0.0000 0.0000 -3.4163 0.0000 24.5423
#
#
#
# Elastic Compliance Matrix: (Units=1/GPa)
#
#
# Indices 1 2 3 4 5 6 
#
# 1 0.045163 0.009172 -0.015245 0.000000 -0.001715 0.000000
# 2 0.009172 -0.016854 0.013624 0.000000 0.026781 0.000000
# 3 -0.015245 0.013624 0.005745 0.000000 -0.006942 0.000000
# 4 0.000000 0.000000 0.000000 0.046744 0.000000 0.006507
# 5 -0.001715 0.026781 -0.006942 0.000000 0.022419 0.000000
# 6 0.000000 0.000000 0.000000 0.006507 0.000000 0.041652
#
#
# Mechanical properties :
#
#
# Convention : Reuss Voigt Hill
#
# Bulk Modulus (GPa) = 20.34278 31.33471 25.83875
# Shear Modulus (GPa) = 34.21095 16.44788 25.32942
#
# Velocity S-wave (km/s) = 4.09087 2.83653 3.52002
# Velocity P-wave (km/s) = 5.68021 5.10452 5.40004
#
# Compressibility (1/GPa) = 0.04915748
#
# Stress axis : x y z
#
# Youngs Moduli (GPa) = 22.14180 -59.33438 174.06785
#
# Poissons Ratio (x) = 0.54424 2.65365
# Poissons Ratio (y) = -0.20310 -2.37147
# Poissons Ratio (z) = 0.33755 0.80836
#
# Static dielectric constant tensor:
#      x y z
#    x 1.765600 0.000000 0.034580 
#    y 0.000000 1.726800 0.000000 
#    z 0.034580 0.000000 1.733650 
# 
# From -- ./inp_files/378354.got.cif
#   From: 2010.05.17/outbox.ucp.g08.bks.cvg/sg12_190_cif.got.tgz:378354.got - 2010.06.11 11:47:21.
