data_PCOD9225561
_publ_section_title
;
Structure prediction by ZEFSAII (Michael W. Deem and Ramdas Pophale) SiO2 
 PCOD9225561
Probable space group: C 2/M
;
_chemical_formula_sum "Si O2"
_cell_formula_units_Z 25
_cell_length_a 9.000000
_cell_length_b 27.000000
_cell_length_c 12.000000
_cell_angle_alpha 90.000000
_cell_angle_beta 120.000000
_cell_angle_gamma 90.000000
_cell_volume 2525.330077
_symmetry_space_group_name_H-M "C 2/M"
_symmetry_group_IT_number 12
_symmetry_cell_setting 'monoclinic'
loop_
_space_group_symop_operation_xyz
x,y,z
-x,y,-z
-x,-y,-z
x,-y,z
1/2+x,1/2+y,z
1/2-x,1/2+y,-z
1/2-x,1/2-y,-z
1/2+x,1/2-y,z
loop_
_atom_site_type_symbol
_atom_site_label
_atom_site_fract_x
_atom_site_fract_y
_atom_site_fract_z
Si Si1 0.241802 0.940375 0.700480
Si Si2 0.368511 0.314530 0.739089
Si Si3 0.183178 0.845247 0.527424
Si Si4 0.430575 0.885608 0.096775
Si Si5 0.500000 0.500000 0.000000
Si Si6 0.476523 0.209912 0.260971
Si Si7 0.568473 0.410884 0.872945
O O1 0.196572 0.900591 0.585778
O O2 0.440455 0.925420 0.799432
O O3 0.132459 0.924399 0.770143
O O4 0.222837 0.000000 0.673383
O O5 0.323055 0.341902 0.606855
O O6 0.488295 0.266189 0.764379
O O7 0.190478 0.294451 0.723399
O O8 0.468192 0.358644 0.839982
O O9 0.344153 0.811280 0.622653
O O10 0.000000 0.824319 0.500000
O O11 0.436174 0.831866 0.154107
O O12 0.500000 0.878207 0.000000
O O13 0.241381 0.905784 0.010367
O O14 0.526136 0.456666 0.106499
#
# Coordination Sequence:
#
# PCOD9225561 Si02
#       7
#     8   8   8   8   2   8   8
#     4  10  21  41  70  99 126 172 224 275 325 392
#     4  12  25  43  66 100 134 177 224 278 331 405
#     4  11  22  43  69  97 134 172 225 271 332 400
#     4   9  22  41  67  97 132 170 222 273 328 402
#     4  12  24  40  62  90 134 180 208 270 328 390
#     4  11  25  43  68  96 136 177 222 273 336 392
#     4  11  23  41  64  96 135 172 222 267 333 392
#
# _framework density 9.8996960000000005
#
# number of rings (size 3 to 8) (size 9 to 14) (size 15 to 20)
#    0.000    1.280    2.400    2.880    5.600    1.920 
#    2.880    0.000    0.000    1.920    0.000    0.000 
#    0.000    0.000    0.000    0.000    0.000    0.000 
#
# Total GULP energy -139197.356348 kJ/mol
# GULP energy per Si atom -5567.894254 kJ/mol
# Density = 0.987716 g / cm^3
# Si number density = 9.899696 Si / 1000 Ang^3
#
#
#
# Elastic Constant Matrix: (Units=GPa)
#
#
# Indices 1 2 3 4 5 6 
#
# 1 138.6779 68.1140 38.4617 0.0000 10.3308 0.0000
# 2 68.1140 165.7917 19.3748 0.0000 -14.8379 0.0000
# 3 38.4617 19.3748 24.8346 0.0000 2.5024 0.0000
# 4 0.0000 0.0000 0.0000 11.0011 0.0000 -34.9719
# 5 10.3308 -14.8379 2.5024 0.0000 12.6395 0.0000
# 6 0.0000 0.0000 0.0000 -34.9719 0.0000 -28.5520
#
#
#
# Elastic Compliance Matrix: (Units=1/GPa)
#
#
# Indices 1 2 3 4 5 6 
#
# 1 0.017070 -0.006253 -0.019808 0.000000 -0.017371 0.000000
# 2 -0.006253 0.010108 0.000089 0.000000 0.016959 0.000000
# 3 -0.019808 0.000089 0.070641 0.000000 0.002309 0.000000
# 4 0.000000 0.000000 0.000000 0.018575 0.000000 -0.022751
# 5 -0.017371 0.016959 0.002309 0.000000 0.112767 0.000000
# 6 0.000000 0.000000 0.000000 -0.022751 0.000000 -0.007157
#
#
# Mechanical properties :
#
#
# Convention : Reuss Voigt Hill
#
# Bulk Modulus (GPa) = 21.79804 64.57837 43.18820
# Shear Modulus (GPa) = 17.28684 12.57462 14.93073
#
# Velocity S-wave (km/s) = 2.95803 2.52286 2.74907
# Velocity P-wave (km/s) = 4.76445 6.41666 5.65126
#
# Compressibility (1/GPa) = 0.04587568
#
# Stress axis : x y z
#
# Youngs Moduli (GPa) = 58.58320 98.93214 14.15618
#
# Poissons Ratio (x) = 0.61860 0.28040
# Poissons Ratio (y) = 0.36631 -0.00126
# Poissons Ratio (z) = 1.16040 -0.00883
#
# Static dielectric constant tensor:
#      x y z
#    x 1.818600 0.000000 -0.036470 
#    y 0.000000 1.632040 0.000000 
#    z -0.036470 0.000000 1.769910 
# 
# From -- ./inp_files/124413.got.cif
#   From: 2010.05.17/outbox.ucp.g08.bks.cvg/sg12_63_cif.got.tgz:124413.got - 2010.06.11 11:47:21.
