data_PCOD9225487
_publ_section_title
;
Structure prediction by ZEFSAII (Michael W. Deem and Ramdas Pophale) SiO2 
 PCOD9225487
Probable space group: C 2/M
;
_chemical_formula_sum "Si O2"
_cell_formula_units_Z 20
_cell_length_a 15.000000
_cell_length_b 15.000000
_cell_length_c 27.000000
_cell_angle_alpha 90.000000
_cell_angle_beta 20.000000
_cell_angle_gamma 90.000000
_cell_volume 2077.772371
_symmetry_space_group_name_H-M "C 2/M"
_symmetry_group_IT_number 12
_symmetry_cell_setting 'monoclinic'
loop_
_space_group_symop_operation_xyz
x,y,z
-x,y,-z
-x,-y,-z
x,-y,z
1/2+x,1/2+y,z
1/2-x,1/2+y,-z
1/2-x,1/2-y,-z
1/2+x,1/2-y,z
loop_
_atom_site_type_symbol
_atom_site_label
_atom_site_fract_x
_atom_site_fract_y
_atom_site_fract_z
Si Si1 0.647528 0.600699 0.372627
Si Si2 0.079139 0.899471 0.615253
Si Si3 0.011115 0.764627 0.162243
Si Si4 0.148069 0.391912 0.289396
Si Si5 0.702152 0.251649 0.174144
O O1 0.500000 0.627401 0.500000
O O2 0.752175 0.500000 0.326207
O O3 0.458758 0.597146 0.424207
O O4 0.854403 0.672013 0.246452
O O5 0.381758 0.874358 0.459223
O O6 0.889291 0.830166 0.741026
O O7 0.034363 0.000000 0.657737
O O8 0.064687 0.774131 0.193179
O O9 0.860825 0.846023 0.214171
O O10 0.250000 0.750000 0.000000
O O11 0.174663 0.500000 0.268904
O O12 0.150857 0.337794 0.234916
O O13 0.000000 0.248729 0.000000
#
# Coordination Sequence:
#
# PCOD9225487 Si02
#       5
#     8   8   8   8   8
#     4  10  21  39  67  98 126 164 218 273 326 388
#     4  10  22  42  67  96 132 172 217 269 331 397
#     4  12  25  42  64  97 133 175 218 270 335 397
#     4  11  25  45  68  99 136 175 221 274 333 396
#     4  12  24  43  69  95 134 174 223 274 335 392
#
# _framework density 9.6256930000000001
#
# number of rings (size 3 to 8) (size 9 to 14) (size 15 to 20)
#    0.000    1.000    4.000    1.800    2.800    4.800 
#    0.000    2.000    0.000    0.000    0.000    0.000 
#    0.000    0.000    0.000    0.000    0.000    0.000 
#
# Total GULP energy -111386.668604 kJ/mol
# GULP energy per Si atom -5569.333430 kJ/mol
# Density = 0.960378 g / cm^3
# Si number density = 9.625693 Si / 1000 Ang^3
#
#
#
# Elastic Constant Matrix: (Units=GPa)
#
#
# Indices 1 2 3 4 5 6 
#
# 1 103.5417 29.3256 11.0281 0.3494 31.2578 -0.0242
# 2 29.3256 125.8145 80.8339 -0.1201 21.5655 0.0246
# 3 11.0281 80.8339 112.1852 -0.4936 26.5261 0.2435
# 4 0.3494 -0.1201 -0.4936 -36.6322 -0.0841 3.9606
# 5 31.2578 21.5655 26.5261 -0.0841 22.5211 0.0253
# 6 -0.0242 0.0246 0.2435 3.9606 0.0253 31.4514
#
#
#
# Elastic Compliance Matrix: (Units=1/GPa)
#
#
# Indices 1 2 3 4 5 6 
#
# 1 0.021002 -0.005331 0.010343 0.000156 -0.036226 -0.000050
# 2 -0.005331 0.016234 -0.012816 0.000060 0.006949 0.000069
# 3 0.010343 -0.012816 0.024427 -0.000132 -0.030854 -0.000130
# 4 0.000156 0.000060 -0.000132 -0.026928 -0.000224 0.003392
# 5 -0.036226 0.006949 -0.030854 -0.000224 0.124368 0.000134
# 6 -0.000050 0.000069 -0.000130 0.003392 0.000134 0.031369
#
#
# Mechanical properties :
#
#
# Convention : Reuss Voigt Hill
#
# Bulk Modulus (GPa) = 21.71350 64.87965 43.29657
# Shear Modulus (GPa) = 22.58049 18.15833 20.36941
#
# Velocity S-wave (km/s) = 3.42852 3.07452 3.25634
# Velocity P-wave (km/s) = 5.19388 6.81014 6.05617
#
# Compressibility (1/GPa) = 0.04605431
#
# Stress axis : x y z
#
# Youngs Moduli (GPa) = 47.61503 61.59981 40.93867
#
# Poissons Ratio (x) = 0.32838 -0.42343
# Poissons Ratio (y) = 0.25383 0.52468
# Poissons Ratio (z) = -0.49248 0.78947
#
# Static dielectric constant tensor:
#      x y z
#    x 1.758680 -0.000010 -0.108040 
#    y -0.000010 1.682690 0.000000 
#    z -0.108040 0.000000 1.656540 
# 
# From -- ./inp_files/142530.got.cif
#   From: 2010.05.17/outbox.ucp.g08.bks.cvg/sg12_72_cif.got.tgz:142530.got - 2010.06.11 11:47:21.
