data_PCOD9225581
_publ_section_title
;
Structure prediction by ZEFSAII (Michael W. Deem and Ramdas Pophale) SiO2 
 PCOD9225581
Probable space group: C 2/M
;
_chemical_formula_sum "Si O2"
_cell_formula_units_Z 28
_cell_length_a 24.000000
_cell_length_b 24.000000
_cell_length_c 15.000000
_cell_angle_alpha 90.000000
_cell_angle_beta 20.000000
_cell_angle_gamma 90.000000
_cell_volume 2955.054038
_symmetry_space_group_name_H-M "C 2/M"
_symmetry_group_IT_number 12
_symmetry_cell_setting 'monoclinic'
loop_
_space_group_symop_operation_xyz
x,y,z
-x,y,-z
-x,-y,-z
x,-y,z
1/2+x,1/2+y,z
1/2-x,1/2+y,-z
1/2-x,1/2-y,-z
1/2+x,1/2-y,z
loop_
_atom_site_type_symbol
_atom_site_label
_atom_site_fract_x
_atom_site_fract_y
_atom_site_fract_z
Si Si1 0.391863 0.437206 0.077901
Si Si2 0.615751 0.121840 0.571682
Si Si3 0.369932 0.710788 0.265786
Si Si4 0.377129 0.936059 0.265752
Si Si5 0.551198 0.370071 0.702105
Si Si6 0.572514 0.184285 0.294624
Si Si7 0.544843 0.686004 0.329552
O O1 0.443813 0.500000 0.989707
O O2 0.210796 0.428858 0.383510
O O3 0.500000 0.414923 0.000000
O O4 0.411064 0.409117 0.952826
O O5 0.752442 0.168178 0.389887
O O6 0.547031 0.098451 0.766854
O O7 0.495293 0.147760 0.683237
O O8 0.250000 0.750000 0.500000
O O9 0.462794 0.680591 0.206990
O O10 0.500000 0.735049 0.000000
O O11 0.214871 0.903549 0.480554
O O12 0.339364 0.000000 0.347718
O O13 0.500000 0.936912 0.000000
O O14 0.548269 0.349567 0.605656
O O15 0.500000 0.166751 0.500000
O O16 0.510136 0.247920 0.376119
O O17 0.767196 0.182181 0.986957
O O18 0.500000 0.670052 0.500000
#
# Coordination Sequence:
#
# PCOD9225581 Si02
#       7
#     8   8   8   8   8   8   8
#     4  11  19  34  62  89 114 146 194 240 295 357
#     4  11  20  37  60  87 114 152 196 246 299 352
#     4  11  22  36  54  87 124 156 189 247 305 363
#     4  10  22  37  58  89 121 152 189 242 308 368
#     4  11  20  38  61  84 114 155 200 241 294 358
#     4  10  22  40  61  85 118 158 201 247 289 342
#     4  10  23  41  60  85 116 163 207 238 286 352
#
# _framework density 9.4752919999999996
#
# number of rings (size 3 to 8) (size 9 to 14) (size 15 to 20)
#    0.000    1.429    4.286    2.571    2.000    2.286 
#    5.143    0.000    0.000   11.143    0.000    0.000 
#    0.000    0.000    0.000    0.000    0.000    0.000 
#
# Total GULP energy -155912.805957 kJ/mol
# GULP energy per Si atom -5568.314498 kJ/mol
# Density = 0.945373 g / cm^3
# Si number density = 9.475292 Si / 1000 Ang^3
#
#
#
# Elastic Constant Matrix: (Units=GPa)
#
#
# Indices 1 2 3 4 5 6 
#
# 1 125.4669 52.8061 29.4335 -0.0013 24.4853 0.0013
# 2 52.8061 59.4353 32.7938 0.0013 10.8250 -0.0029
# 3 29.4335 32.7938 70.7359 0.0263 32.3742 -0.0107
# 4 -0.0013 0.0013 0.0263 21.3934 -0.0089 12.2701
# 5 24.4853 10.8250 32.3742 -0.0089 31.6850 -0.0033
# 6 0.0013 -0.0029 -0.0107 12.2701 -0.0033 28.7798
#
#
#
# Elastic Compliance Matrix: (Units=1/GPa)
#
#
# Indices 1 2 3 4 5 6 
#
# 1 0.015291 -0.014830 0.006766 -0.000015 -0.013663 0.000005
# 2 -0.014830 0.037535 -0.019923 0.000039 0.018994 -0.000017
# 3 0.006766 -0.019923 0.037260 -0.000084 -0.036493 0.000043
# 4 -0.000015 0.000039 -0.000084 0.061873 0.000099 -0.026379
# 5 -0.013663 0.018994 -0.036493 0.000099 0.072916 -0.000045
# 6 0.000005 -0.000017 0.000043 -0.026379 -0.000045 0.045993
#
#
# Mechanical properties :
#
#
# Convention : Reuss Voigt Hill
#
# Bulk Modulus (GPa) = 29.31639 53.96719 41.64179
# Shear Modulus (GPa) = 14.78352 25.74529 20.26441
#
# Velocity S-wave (km/s) = 2.79607 3.68985 3.27361
# Velocity P-wave (km/s) = 5.09191 6.83323 6.02580
#
# Compressibility (1/GPa) = 0.03411061
#
# Stress axis : x y z
#
# Youngs Moduli (GPa) = 65.39761 26.64202 26.83823
#
# Poissons Ratio (x) = 0.39511 -0.18159
# Poissons Ratio (y) = 0.96986 0.53471
# Poissons Ratio (z) = -0.44248 0.53080
#
# Static dielectric constant tensor:
#      x y z
#    x 1.679350 -0.000090 0.011350 
#    y -0.000090 1.546530 0.000330 
#    z 0.011350 0.000330 1.811610 
# 
# From -- ./inp_files/242142.got.cif
#   From: 2010.05.17/outbox.ucp.g08.bks.cvg/sg12_122_cif.got.tgz:242142.got - 2010.06.11 11:47:21.
