data_PCOD9225843
_publ_section_title
;
Structure prediction by ZEFSAII (Michael W. Deem and Ramdas Pophale) SiO2 
 PCOD9225843
Probable space group: C 2/M
;
_chemical_formula_sum "Si O2"
_cell_formula_units_Z 29
_cell_length_a 21.000000
_cell_length_b 18.000000
_cell_length_c 12.000000
_cell_angle_alpha 90.000000
_cell_angle_beta 140.000000
_cell_angle_gamma 90.000000
_cell_volume 2915.684598
_symmetry_space_group_name_H-M "C 2/M"
_symmetry_group_IT_number 12
_symmetry_cell_setting 'monoclinic'
loop_
_space_group_symop_operation_xyz
x,y,z
-x,y,-z
-x,-y,-z
x,-y,z
1/2+x,1/2+y,z
1/2-x,1/2+y,-z
1/2-x,1/2-y,-z
1/2+x,1/2-y,z
loop_
_atom_site_type_symbol
_atom_site_label
_atom_site_fract_x
_atom_site_fract_y
_atom_site_fract_z
Si Si1 0.329394 0.794841 0.035900
Si Si2 0.536675 0.275965 0.280797
Si Si3 0.500000 0.000000 0.000000
Si Si4 0.771701 0.619462 0.348073
Si Si5 0.620812 0.130455 0.290538
Si Si6 0.269504 0.708752 0.331702
Si Si7 0.602813 0.086818 0.696838
Si Si8 0.423262 0.576548 0.797675
O O1 0.423086 0.740321 0.151760
O O2 0.369774 0.865486 0.158422
O O3 0.250000 0.750000 0.000000
O O4 0.276313 0.815059 0.848022
O O5 0.565271 0.208683 0.235335
O O6 0.612523 0.281182 0.487837
O O7 0.555185 0.352859 0.246173
O O8 0.435822 0.066236 0.849613
O O9 0.857948 0.607120 0.553997
O O10 0.737942 0.705508 0.303902
O O11 0.811378 0.597922 0.280598
O O12 0.680567 0.578084 0.278985
O O13 0.720873 0.155487 0.359693
O O14 0.500000 0.111713 0.500000
O O15 0.592823 0.000000 0.710804
O O16 0.431915 0.500000 0.742367
O O17 0.500000 0.577086 0.000000
#
# Coordination Sequence:
#
# PCOD9225843 Si02
#       8
#     8   8   2   8   8   8   8   8
#     4  12  26  42  66  97 130 180 232 279 332 412
#     4  11  23  44  69  92 140 178 224 285 344 415
#     4  12  28  36  60 108 150 178 216 276 346 426
#     4  11  20  42  71  95 135 174 220 283 340 410
#     4  11  23  41  63 101 137 173 217 268 351 417
#     4  11  21  43  69  96 135 182 225 275 346 420
#     4  11  25  45  67  96 135 180 232 285 345 408
#     4  11  23  37  64 104 129 166 222 282 348 400
#
# _framework density 9.9462060000000001
#
# number of rings (size 3 to 8) (size 9 to 14) (size 15 to 20)
#    0.000    0.828    4.138    4.552    2.897    0.000 
#    7.448    0.000    0.000    0.000    0.000    1.931 
#    0.000    0.000    0.000    0.000    0.000    0.000 
#
# Total GULP energy -161540.603883 kJ/mol
# GULP energy per Si atom -5570.365651 kJ/mol
# Density = 0.992357 g / cm^3
# Si number density = 9.946206 Si / 1000 Ang^3
#
#
#
# Elastic Constant Matrix: (Units=GPa)
#
#
# Indices 1 2 3 4 5 6 
#
# 1 80.6515 24.3746 39.2243 0.0000 14.1596 0.0000
# 2 24.3746 127.5982 57.2311 0.0000 7.2599 0.0000
# 3 39.2243 57.2311 100.8521 0.0000 -4.8949 0.0000
# 4 0.0000 0.0000 0.0000 34.2897 0.0000 9.0570
# 5 14.1596 7.2599 -4.8949 0.0000 28.3753 0.0000
# 6 0.0000 0.0000 0.0000 9.0570 0.0000 -14.4223
#
#
#
# Elastic Compliance Matrix: (Units=1/GPa)
#
#
# Indices 1 2 3 4 5 6 
#
# 1 0.017831 0.000704 -0.007841 0.000000 -0.010430 0.000000
# 2 0.000704 0.010952 -0.006698 0.000000 -0.004309 0.000000
# 3 -0.007841 -0.006698 0.017183 0.000000 0.008590 0.000000
# 4 0.000000 0.000000 0.000000 0.025014 0.000000 0.015709
# 5 -0.010430 -0.004309 0.008590 0.000000 0.043031 0.000000
# 6 0.000000 0.000000 0.000000 0.015709 0.000000 -0.059472
#
#
# Mechanical properties :
#
#
# Convention : Reuss Voigt Hill
#
# Bulk Modulus (GPa) = 54.65544 61.19575 57.92560
# Shear Modulus (GPa) = 56.62095 22.19998 39.41047
#
# Velocity S-wave (km/s) = 5.34092 3.34429 4.45587
# Velocity P-wave (km/s) = 8.09747 6.76332 7.46028
#
# Compressibility (1/GPa) = 0.01829644
#
# Stress axis : x y z
#
# Youngs Moduli (GPa) = 56.08297 91.30780 58.19762
#
# Poissons Ratio (x) = -0.06429 0.45631
# Poissons Ratio (y) = -0.03949 0.38980
# Poissons Ratio (z) = 0.43973 0.61157
#
# Static dielectric constant tensor:
#      x y z
#    x 1.708440 0.000000 0.015720 
#    y 0.000000 1.732210 0.000000 
#    z 0.015720 0.000000 1.754140 
# 
# From -- ./inp_files/168986.got.cif
#   From: 2010.05.17/outbox.ucp.g08.bks.cvg/sg12_85_cif.got.tgz:168986.got - 2010.06.11 11:47:21.
