data_PCOD9225564
_publ_section_title
;
Structure prediction by ZEFSAII (Michael W. Deem and Ramdas Pophale) SiO2 
 PCOD9225564
Probable space group: C 2/M
;
_chemical_formula_sum "Si O2"
_cell_formula_units_Z 25
_cell_length_a 15.000000
_cell_length_b 9.000000
_cell_length_c 21.000000
_cell_angle_alpha 90.000000
_cell_angle_beta 100.000000
_cell_angle_gamma 90.000000
_cell_volume 2791.929980
_symmetry_space_group_name_H-M "C 2/M"
_symmetry_group_IT_number 12
_symmetry_cell_setting 'monoclinic'
loop_
_space_group_symop_operation_xyz
x,y,z
-x,y,-z
-x,-y,-z
x,-y,z
1/2+x,1/2+y,z
1/2-x,1/2+y,-z
1/2-x,1/2-y,-z
1/2+x,1/2-y,z
loop_
_atom_site_type_symbol
_atom_site_label
_atom_site_fract_x
_atom_site_fract_y
_atom_site_fract_z
Si Si1 0.892325 0.321858 0.298424
Si Si2 0.500000 0.500000 0.500000
Si Si3 0.058209 0.166845 0.382905
Si Si4 0.621247 0.178681 0.161162
Si Si5 0.205583 0.322176 0.314350
Si Si6 0.256880 0.818662 0.072041
Si Si7 0.072596 0.180209 0.836225
O O1 0.886287 0.500000 0.289646
O O2 0.803104 0.254324 0.319936
O O3 0.907762 0.242110 0.232301
O O4 0.977491 0.273603 0.351169
O O5 0.544539 0.627900 0.456174
O O6 0.146928 0.241921 0.362371
O O7 0.048399 0.000000 0.351551
O O8 0.662170 0.195966 0.237977
O O9 0.682614 0.253435 0.113361
O O10 0.524653 0.260105 0.152849
O O11 0.613664 0.000000 0.148881
O O12 0.212300 0.500000 0.327219
O O13 0.351381 0.756672 0.110945
O O14 0.253183 0.000000 0.070436
O O15 0.250000 0.750000 0.000000
O O16 0.077789 0.000000 0.838099
#
# Coordination Sequence:
#
# PCOD9225564 Si02
#       7
#     8   2   8   8   8   8   8
#     4  12  23  37  64 100 130 167 216 272 326 378
#     4   8  24  44  70  92 136 174 212 256 324 400
#     4  10  21  42  67  91 130 168 209 259 321 381
#     4  11  23  40  64  97 130 167 219 276 325 387
#     4  11  22  37  65 100 130 166 216 273 324 376
#     4  12  26  45  66  91 131 177 220 271 331 396
#     4  12  24  40  64  97 130 169 218 275 327 387
#
# _framework density 8.9543789999999994
#
# number of rings (size 3 to 8) (size 9 to 14) (size 15 to 20)
#    0.480    0.320    3.200    5.760    0.000    1.920 
#    0.000    5.600    0.000    0.000    0.000    0.000 
#    0.000    0.000    0.000    0.000    0.000    0.000 
#
# Total GULP energy -139258.876928 kJ/mol
# GULP energy per Si atom -5570.355077 kJ/mol
# Density = 0.893400 g / cm^3
# Si number density = 8.954379 Si / 1000 Ang^3
#
#
#
# Elastic Constant Matrix: (Units=GPa)
#
#
# Indices 1 2 3 4 5 6 
#
# 1 132.2783 42.9038 8.0702 0.0000 -20.8547 0.0000
# 2 42.9038 167.7801 15.7460 0.0000 -17.0923 0.0000
# 3 8.0702 15.7460 43.3276 0.0000 -26.6205 0.0000
# 4 0.0000 0.0000 0.0000 34.2912 0.0000 -7.4655
# 5 -20.8547 -17.0923 -26.6205 0.0000 30.7006 0.0000
# 6 0.0000 0.0000 0.0000 -7.4655 0.0000 38.1853
#
#
#
# Elastic Compliance Matrix: (Units=1/GPa)
#
#
# Indices 1 2 3 4 5 6 
#
# 1 0.009364 -0.001879 0.004717 0.000000 0.009405 0.000000
# 2 -0.001879 0.006697 -0.001235 0.000000 0.001381 0.000000
# 3 0.004717 -0.001235 0.051785 0.000000 0.047419 0.000000
# 4 0.000000 0.000000 0.000000 0.030458 0.000000 0.005955
# 5 0.009405 0.001381 0.047419 0.000000 0.080848 0.000000
# 6 0.000000 0.000000 0.000000 0.005955 0.000000 0.027352
#
#
# Mechanical properties :
#
#
# Convention : Reuss Voigt Hill
#
# Bulk Modulus (GPa) = 14.07424 52.98065 33.52745
# Shear Modulus (GPa) = 22.02806 39.07983 30.55394
#
# Velocity S-wave (km/s) = 3.51096 4.67643 4.13496
# Velocity P-wave (km/s) = 4.93069 7.66854 6.44664
#
# Compressibility (1/GPa) = 0.07105180
#
# Stress axis : x y z
#
# Youngs Moduli (GPa) = 106.78814 149.31308 19.31073
#
# Poissons Ratio (x) = 0.28058 -0.09110
# Poissons Ratio (y) = 0.20067 0.02386
# Poissons Ratio (z) = -0.50376 0.18448
#
# Static dielectric constant tensor:
#      x y z
#    x 1.638490 0.000000 0.015730 
#    y 0.000000 1.597480 0.000000 
#    z 0.015730 0.000000 1.628540 
# 
# From -- ./inp_files/308563.got.cif
#   From: 2010.05.17/outbox.ucp.g08.bks.cvg/sg12_155_cif.got.tgz:308563.got - 2010.06.11 11:47:21.
