data_PCOD9225144
_publ_section_title
;
Structure prediction by ZEFSAII (Michael W. Deem and Ramdas Pophale) SiO2 
 PCOD9225144
Probable space group: C 2/M
;
_chemical_formula_sum "Si O2"
_cell_formula_units_Z 24
_cell_length_a 27.000000
_cell_length_b 9.000000
_cell_length_c 21.000000
_cell_angle_alpha 90.000000
_cell_angle_beta 150.000000
_cell_angle_gamma 90.000000
_cell_volume 2551.500000
_symmetry_space_group_name_H-M "C 2/M"
_symmetry_group_IT_number 12
_symmetry_cell_setting 'monoclinic'
loop_
_space_group_symop_operation_xyz
x,y,z
-x,y,-z
-x,-y,-z
x,-y,z
1/2+x,1/2+y,z
1/2-x,1/2+y,-z
1/2-x,1/2-y,-z
1/2+x,1/2-y,z
loop_
_atom_site_type_symbol
_atom_site_label
_atom_site_fract_x
_atom_site_fract_y
_atom_site_fract_z
Si Si1 0.462195 0.820801 0.171450
Si Si2 0.664766 0.322130 0.447700
Si Si3 0.214188 0.320915 0.757328
Si Si4 0.572360 0.820211 0.018856
Si Si5 0.901902 0.821443 0.488264
Si Si6 0.393655 0.820690 0.233104
O O1 0.562882 0.745380 0.307642
O O2 0.387781 0.782560 0.149762
O O3 0.468943 0.000000 0.179716
O O4 0.451715 0.781662 0.083642
O O5 0.665503 0.500000 0.441324
O O6 0.750000 0.250000 0.500000
O O7 0.668629 0.291602 0.528365
O O8 0.213747 0.500000 0.752182
O O9 0.320090 0.254726 0.854269
O O10 0.136279 0.253360 0.619422
O O11 0.188223 0.282493 0.803054
O O12 0.579914 0.000000 0.029273
O O13 0.500000 0.780773 0.000000
O O14 0.007266 0.755657 0.628329
O O15 0.908330 0.000000 0.487206
O O16 0.403873 0.000000 0.246719
#
# Coordination Sequence:
#
# PCOD9225144 Si02
#       6
#     8   8   8   8   8   8
#     4   9  19  38  60  80 110 150 188 233 283 331
#     4  10  21  35  55  83 113 147 187 231 279 333
#     4  11  23  37  57  85 116 152 190 233 284 338
#     4  10  23  41  59  81 112 150 192 238 284 335
#     4  10  21  36  56  85 118 150 187 231 281 338
#     4   9  19  37  59  85 116 148 187 233 286 340
#
# _framework density 9.4062319999999993
#
# number of rings (size 3 to 8) (size 9 to 14) (size 15 to 20)
#    0.000    2.167    0.000    2.000    2.333    7.000 
#    0.000    0.000    0.000    0.000    0.000    0.000 
#    0.000    0.000    0.000    0.000    0.000    0.000 
#
# Total GULP energy -133640.112880 kJ/mol
# GULP energy per Si atom -5568.338037 kJ/mol
# Density = 0.938482 g / cm^3
# Si number density = 9.406232 Si / 1000 Ang^3
#
#
#
# Elastic Constant Matrix: (Units=GPa)
#
#
# Indices 1 2 3 4 5 6 
#
# 1 186.5874 28.0497 40.2626 0.0000 -5.8129 0.0000
# 2 28.0497 20.3929 10.1411 0.0000 -2.8224 0.0000
# 3 40.2626 10.1411 52.1988 0.0000 -15.2290 0.0000
# 4 0.0000 0.0000 0.0000 27.5443 0.0000 0.0763
# 5 -5.8129 -2.8224 -15.2290 0.0000 42.9257 0.0000
# 6 0.0000 0.0000 0.0000 0.0763 0.0000 34.1865
#
#
#
# Elastic Compliance Matrix: (Units=1/GPa)
#
#
# Indices 1 2 3 4 5 6 
#
# 1 0.007550 -0.008281 -0.004546 0.000000 -0.001135 0.000000
# 2 -0.008281 0.063365 -0.005616 0.000000 0.001052 0.000000
# 3 -0.004546 -0.005616 0.026177 0.000000 0.008302 0.000000
# 4 0.000000 0.000000 0.000000 0.036305 0.000000 -0.000081
# 5 -0.001135 0.001052 0.008302 0.000000 0.026157 0.000000
# 6 0.000000 0.000000 0.000000 -0.000081 0.000000 0.029252
#
#
# Mechanical properties :
#
#
# Convention : Reuss Voigt Hill
#
# Bulk Modulus (GPa) = 16.60949 46.23176 31.42062
# Shear Modulus (GPa) = 20.34502 32.97967 26.66235
#
# Velocity S-wave (km/s) = 3.29213 4.19152 3.76875
# Velocity P-wave (km/s) = 4.82690 6.93206 5.97296
#
# Compressibility (1/GPa) = 0.06020655
#
# Stress axis : x y z
#
# Youngs Moduli (GPa) = 132.45305 15.78152 38.20146
#
# Poissons Ratio (x) = 0.13069 0.17365
# Poissons Ratio (y) = 1.09685 0.21454
# Poissons Ratio (z) = 0.60209 0.08863
#
# Static dielectric constant tensor:
#      x y z
#    x 1.712590 0.000000 -0.001110 
#    y 0.000000 1.617810 0.000000 
#    z -0.001110 0.000000 1.658440 
# 
# From -- ./inp_files/327318.got.cif
#   From: 2010.05.17/outbox.ucp.g08.bks.cvg/sg12_164_cif.got.tgz:327318.got - 2010.06.11 11:47:21.
