data_PCOD9225569
_publ_section_title
;
Structure prediction by ZEFSAII (Michael W. Deem and Ramdas Pophale) SiO2 
 PCOD9225569
Probable space group: C 2/M
;
_chemical_formula_sum "Si O2"
_cell_formula_units_Z 32
_cell_length_a 9.000000
_cell_length_b 30.000000
_cell_length_c 24.000000
_cell_angle_alpha 90.000000
_cell_angle_beta 150.000000
_cell_angle_gamma 90.000000
_cell_volume 3240.000000
_symmetry_space_group_name_H-M "C 2/M"
_symmetry_group_IT_number 12
_symmetry_cell_setting 'monoclinic'
loop_
_space_group_symop_operation_xyz
x,y,z
-x,y,-z
-x,-y,-z
x,-y,z
1/2+x,1/2+y,z
1/2-x,1/2+y,-z
1/2-x,1/2-y,-z
1/2+x,1/2-y,z
loop_
_atom_site_type_symbol
_atom_site_label
_atom_site_fract_x
_atom_site_fract_y
_atom_site_fract_z
Si Si1 0.832663 0.886008 0.089186
Si Si2 0.657457 0.608023 0.490775
Si Si3 0.081842 0.204387 0.210812
Si Si4 0.460598 0.221308 0.886580
Si Si5 0.868981 0.553523 0.733952
Si Si6 0.683051 0.876050 0.920422
Si Si7 0.817739 0.552326 0.285976
Si Si8 0.898655 0.297624 0.531367
O O1 0.026778 0.840689 0.157424
O O2 0.999428 0.923362 0.179305
O O3 0.500000 0.875548 0.000000
O O4 0.779594 0.900425 0.008725
O O5 0.500000 0.614432 0.500000
O O6 0.447599 0.575836 0.385472
O O7 0.707615 0.657013 0.480294
O O8 0.961525 0.581181 0.603416
O O9 0.179498 0.246393 0.205583
O O10 0.319000 0.196258 0.336182
O O11 0.769217 0.216604 0.137748
O O12 0.521101 0.171043 0.883269
O O13 0.750000 0.250000 0.000000
O O14 0.851144 0.500000 0.743700
O O15 0.017273 0.588164 0.826616
O O16 0.053736 0.554887 0.735705
O O17 0.000000 0.861046 0.000000
O O18 0.807256 0.500000 0.298081
O O19 0.750000 0.250000 0.500000
O O20 0.000000 0.295878 0.500000
#
# Coordination Sequence:
#
# PCOD9225569 Si02
#       8
#     8   8   8   8   8   8   8   8
#     4  12  23  42  64  95 135 173 215 267 327 388
#     4  10  22  43  72  98 128 170 223 273 329 388
#     4  12  25  43  66  91 133 171 214 269 319 392
#     4  12  24  42  65  95 126 172 218 263 316 386
#     4  10  23  41  68 101 130 169 222 277 327 388
#     4  12  24  39  65  97 134 174 217 267 325 389
#     4  10  21  42  70  97 128 171 221 277 329 386
#     4  12  27  45  66  99 134 172 214 267 329 389
#
# _framework density 9.8765429999999999
#
# number of rings (size 3 to 8) (size 9 to 14) (size 15 to 20)
#    0.000    0.750    5.000    2.625    3.500    2.500 
#    0.000    0.000    0.000    0.750    0.000    0.000 
#    0.000    0.000    0.000    0.000    0.000    0.000 
#
# Total GULP energy -178702.415667 kJ/mol
# GULP energy per Si atom -5584.450490 kJ/mol
# Density = 0.985406 g / cm^3
# Si number density = 9.876543 Si / 1000 Ang^3
#
#
#
# Elastic Constant Matrix: (Units=GPa)
#
#
# Indices 1 2 3 4 5 6 
#
# 1 45.1558 20.8826 11.0631 0.0007 -13.2965 0.0002
# 2 20.8826 176.6612 44.4237 0.0005 -6.5292 0.0003
# 3 11.0631 44.4237 115.7642 0.0113 -15.8723 0.0012
# 4 0.0007 0.0005 0.0113 38.2909 0.0019 -5.1292
# 5 -13.2965 -6.5292 -15.8723 0.0019 28.3135 0.0002
# 6 0.0002 0.0003 0.0012 -5.1292 0.0002 33.4975
#
#
#
# Elastic Compliance Matrix: (Units=1/GPa)
#
#
# Indices 1 2 3 4 5 6 
#
# 1 0.026957 -0.002777 0.000149 -0.000001 0.012102 0.000000
# 2 -0.002777 0.006551 -0.002405 0.000001 -0.001141 0.000000
# 3 0.000149 -0.002405 0.010270 -0.000003 0.005272 -0.000001
# 4 -0.000001 0.000001 -0.000003 0.026663 -0.000004 0.004083
# 5 0.012102 -0.001141 0.005272 -0.000004 0.043695 -0.000001
# 6 0.000000 0.000000 -0.000001 0.004083 -0.000001 0.030478
#
#
# Mechanical properties :
#
#
# Convention : Reuss Voigt Hill
#
# Bulk Modulus (GPa) = 29.66310 54.48002 42.07156
# Shear Modulus (GPa) = 30.13550 37.43451 33.78501
#
# Velocity S-wave (km/s) = 3.91014 4.35802 4.14014
# Velocity P-wave (km/s) = 5.95274 7.27760 6.64826
#
# Compressibility (1/GPa) = 0.03371192
#
# Stress axis : x y z
#
# Youngs Moduli (GPa) = 37.09637 152.63925 97.37177
#
# Poissons Ratio (x) = 0.42381 -0.01448
# Poissons Ratio (y) = 0.10300 0.23420
# Poissons Ratio (z) = -0.00552 0.36713
#
# Static dielectric constant tensor:
#      x y z
#    x 1.789420 0.000000 0.005890 
#    y 0.000000 1.665970 0.000000 
#    z 0.005890 0.000000 1.718890 
# 
# From -- ./inp_files/334368.got.cif
#   From: 2010.05.17/outbox.ucp.g08.bks.cvg/sg12_168_cif.got.tgz:334368.got - 2010.06.11 11:47:21.
