data_PCOD9225817
_publ_section_title
;
Structure prediction by ZEFSAII (Michael W. Deem and Ramdas Pophale) SiO2 
 PCOD9225817
Probable space group: C 2/M
;
_chemical_formula_sum "Si O2"
_cell_formula_units_Z 28
_cell_length_a 15.000000
_cell_length_b 18.000000
_cell_length_c 15.000000
_cell_angle_alpha 90.000000
_cell_angle_beta 50.000000
_cell_angle_gamma 90.000000
_cell_volume 3102.479995
_symmetry_space_group_name_H-M "C 2/M"
_symmetry_group_IT_number 12
_symmetry_cell_setting 'monoclinic'
loop_
_space_group_symop_operation_xyz
x,y,z
-x,y,-z
-x,-y,-z
x,-y,z
1/2+x,1/2+y,z
1/2-x,1/2+y,-z
1/2-x,1/2-y,-z
1/2+x,1/2-y,z
loop_
_atom_site_type_symbol
_atom_site_label
_atom_site_fract_x
_atom_site_fract_y
_atom_site_fract_z
Si Si1 0.597501 0.721796 0.009349
Si Si2 0.235328 0.149255 0.154864
Si Si3 0.510088 0.716838 0.388785
Si Si4 0.894443 0.079247 0.495450
Si Si5 0.730953 0.586205 0.966904
Si Si6 0.349228 0.918161 0.244594
Si Si7 0.461599 0.817114 0.789335
O O1 0.705478 0.775232 0.917491
O O2 0.634574 0.636623 0.981140
O O3 0.500000 0.738788 0.000000
O O4 0.560822 0.746234 0.132081
O O5 0.128019 0.173986 0.284948
O O6 0.324270 0.105046 0.159804
O O7 0.208368 0.099401 0.086747
O O8 0.500000 0.734998 0.500000
O O9 0.411136 0.655411 0.431757
O O10 0.509957 0.788375 0.326940
O O11 0.773537 0.080075 0.625160
O O12 0.000000 0.079652 0.500000
O O13 0.903936 0.000000 0.440209
O O14 0.731903 0.500000 0.944235
O O15 0.852461 0.627310 0.866204
O O16 0.430704 0.859284 0.237944
O O17 0.402262 0.000000 0.214553
#
# Coordination Sequence:
#
# PCOD9225817 Si02
#       7
#     8   8   8   8   8   8   8
#     4  11  21  38  61  84 118 150 190 244 289 343
#     4  11  19  37  58  89 118 147 189 241 293 347
#     4  11  20  36  61  85 110 158 198 233 288 337
#     4   9  18  31  50  80 115 146 180 228 283 334
#     4  11  23  38  60  85 116 156 193 236 294 347
#     4  11  21  34  57  88 120 148 182 238 298 342
#     4  11  22  39  57  87 120 149 195 239 285 352
#
# _framework density 9.0250380000000003
#
# number of rings (size 3 to 8) (size 9 to 14) (size 15 to 20)
#    0.000    1.286    7.143    1.714    0.000    1.429 
#    0.000    2.143    0.000    1.714    0.000    0.000 
#    0.000    0.000    0.000    0.000    0.000    0.000 
#
# Total GULP energy -156034.786827 kJ/mol
# GULP energy per Si atom -5572.670958 kJ/mol
# Density = 0.900450 g / cm^3
# Si number density = 9.025038 Si / 1000 Ang^3
#
#
#
# Elastic Constant Matrix: (Units=GPa)
#
#
# Indices 1 2 3 4 5 6 
#
# 1 30.8680 4.4003 9.4608 0.0000 -5.1319 0.0000
# 2 4.4003 91.4552 16.4383 0.0000 -2.9132 0.0000
# 3 9.4608 16.4383 70.2740 0.0000 14.0280 0.0000
# 4 0.0000 0.0000 0.0000 10.5766 0.0000 -1.5400
# 5 -5.1319 -2.9132 14.0280 0.0000 18.4635 0.0000
# 6 0.0000 0.0000 0.0000 -1.5400 0.0000 10.3469
#
#
#
# Elastic Compliance Matrix: (Units=1/GPa)
#
#
# Indices 1 2 3 4 5 6 
#
# 1 0.037816 0.000262 -0.008556 0.000000 0.017053 0.000000
# 2 0.000262 0.011744 -0.003733 0.000000 0.004762 0.000000
# 3 -0.008556 -0.003733 0.019859 0.000000 -0.018056 0.000000
# 4 0.000000 0.000000 0.000000 0.096642 0.000000 0.014384
# 5 0.017053 0.004762 -0.018056 0.000000 0.073370 0.000000
# 6 0.000000 0.000000 0.000000 0.014384 0.000000 0.098788
#
#
# Mechanical properties :
#
#
# Convention : Reuss Voigt Hill
#
# Bulk Modulus (GPa) = 22.04368 28.13290 25.08829
# Shear Modulus (GPa) = 13.24861 18.69726 15.97294
#
# Velocity S-wave (km/s) = 2.71217 3.22196 2.97799
# Velocity P-wave (km/s) = 4.69541 5.42782 5.07484
#
# Compressibility (1/GPa) = 0.04536447
#
# Stress axis : x y z
#
# Youngs Moduli (GPa) = 26.44365 85.14701 50.35387
#
# Poissons Ratio (x) = -0.02228 0.43085
# Poissons Ratio (y) = -0.00692 0.18797
# Poissons Ratio (z) = 0.22626 0.31786
#
# Static dielectric constant tensor:
#      x y z
#    x 1.619030 0.000000 -0.006760 
#    y 0.000000 1.657910 0.000000 
#    z -0.006760 0.000000 1.648660 
# 
# From -- ./inp_files/145642.got.cif
#   From: 2010.05.17/outbox.ucp.g08.bks.cvg/sg12_73_cif.got.tgz:145642.got - 2010.06.11 11:47:21.
