data_PCOD9225991
_publ_section_title
;
Structure prediction by ZEFSAII (Michael W. Deem and Ramdas Pophale) SiO2 
 PCOD9225991
Probable space group: C 2/M
;
_chemical_formula_sum "Si O2"
_cell_formula_units_Z 21
_cell_length_a 12.000000
_cell_length_b 21.000000
_cell_length_c 9.000000
_cell_angle_alpha 90.000000
_cell_angle_beta 70.000000
_cell_angle_gamma 90.000000
_cell_volume 2131.222864
_symmetry_space_group_name_H-M "C 2/M"
_symmetry_group_IT_number 12
_symmetry_cell_setting 'monoclinic'
loop_
_space_group_symop_operation_xyz
x,y,z
-x,y,-z
-x,-y,-z
x,-y,z
1/2+x,1/2+y,z
1/2-x,1/2+y,-z
1/2-x,1/2-y,-z
1/2+x,1/2-y,z
loop_
_atom_site_type_symbol
_atom_site_label
_atom_site_fract_x
_atom_site_fract_y
_atom_site_fract_z
Si Si1 0.383131 0.685078 0.324128
Si Si2 0.239243 0.922760 0.411945
Si Si3 0.218476 0.686879 0.107065
Si Si4 0.500000 0.500000 0.000000
Si Si5 0.456599 0.172027 0.352696
Si Si6 0.113367 0.893278 0.160769
O O1 0.332370 0.625535 0.444476
O O2 0.294692 0.689359 0.224294
O O3 0.393539 0.757677 0.382228
O O4 0.518397 0.663927 0.226742
O O5 0.365867 0.884358 0.343845
O O6 0.165540 0.917849 0.292583
O O7 0.248821 0.000000 0.446460
O O8 0.078360 0.678173 0.201950
O O9 0.250000 0.750000 0.000000
O O10 0.274436 0.629835 0.986339
O O11 0.543407 0.445170 0.098616
O O12 0.500000 0.157857 0.500000
#
# Coordination Sequence:
#
# PCOD9225991 Si02
#       6
#     8   8   8   2   8   8
#     4  12  25  45  75 106 141 190 244 299 357 427
#     4  12  28  47  73 105 148 192 242 296 360 439
#     4  12  25  45  74 108 145 183 239 302 364 430
#     4  12  24  44  70 102 148 184 244 294 362 428
#     4  12  26  48  73 107 143 190 241 296 362 433
#     4  12  25  46  72 107 140 188 241 301 363 423
#
# _framework density 9.8534980000000001
#
# number of rings (size 3 to 8) (size 9 to 14) (size 15 to 20)
#    0.000    0.000    6.667    3.429    1.333    3.429 
#    1.714    0.952    0.000    0.000    0.000    0.000 
#    0.000    0.000    0.000    0.000    0.000    0.000 
#
# Total GULP energy -117069.075263 kJ/mol
# GULP energy per Si atom -5574.717870 kJ/mol
# Density = 0.983107 g / cm^3
# Si number density = 9.853498 Si / 1000 Ang^3
#
#
#
# Elastic Constant Matrix: (Units=GPa)
#
#
# Indices 1 2 3 4 5 6 
#
# 1 130.9806 53.4346 59.3964 0.0000 5.6783 0.0000
# 2 53.4346 151.9185 38.5895 0.0000 17.2907 0.0000
# 3 59.3964 38.5895 99.2575 0.0000 9.8010 0.0000
# 4 0.0000 0.0000 0.0000 26.2472 0.0000 14.2514
# 5 5.6783 17.2907 9.8010 0.0000 63.5403 0.0000
# 6 0.0000 0.0000 0.0000 14.2514 0.0000 14.7447
#
#
#
# Elastic Compliance Matrix: (Units=1/GPa)
#
#
# Indices 1 2 3 4 5 6 
#
# 1 0.011293 -0.002560 -0.005820 0.000000 0.000585 0.000000
# 2 -0.002560 0.008043 -0.001423 0.000000 -0.001740 0.000000
# 3 -0.005820 -0.001423 0.014238 0.000000 -0.001289 0.000000
# 4 0.000000 0.000000 0.000000 0.080175 0.000000 -0.077493
# 5 0.000585 -0.001740 -0.001289 0.000000 0.016358 0.000000
# 6 0.000000 0.000000 0.000000 -0.077493 0.000000 0.142721
#
#
# Mechanical properties :
#
#
# Convention : Reuss Voigt Hill
#
# Bulk Modulus (GPa) = 71.59768 76.11084 73.85426
# Shear Modulus (GPa) = 16.82986 36.28883 26.55935
#
# Velocity S-wave (km/s) = 2.92551 4.29583 3.67510
# Velocity P-wave (km/s) = 6.91530 7.95680 7.45426
#
# Compressibility (1/GPa) = 0.01396693
#
# Stress axis : x y z
#
# Youngs Moduli (GPa) = 88.54857 124.33910 70.23378
#
# Poissons Ratio (x) = 0.31835 0.40878
# Poissons Ratio (y) = 0.22672 0.09993
# Poissons Ratio (z) = 0.51538 0.17691
#
# Static dielectric constant tensor:
#      x y z
#    x 1.684980 0.000000 -0.031320 
#    y 0.000000 1.699640 0.000000 
#    z -0.031320 0.000000 1.746540 
# 
# From -- ./inp_files/49146.got.cif
#   From: 2010.05.17/outbox.ucp.g08.bks.cvg/sg12_25_cif.got.tgz:49146.got - 2010.06.11 11:47:21.
