data_PCOD9225847
_publ_section_title
;
Structure prediction by ZEFSAII (Michael W. Deem and Ramdas Pophale) SiO2 
 PCOD9225847
Probable space group: C 2/M
;
_chemical_formula_sum "Si O2"
_cell_formula_units_Z 24
_cell_length_a 18.000000
_cell_length_b 9.000000
_cell_length_c 21.000000
_cell_angle_alpha 90.000000
_cell_angle_beta 130.000000
_cell_angle_gamma 90.000000
_cell_volume 2606.083195
_symmetry_space_group_name_H-M "C 2/M"
_symmetry_group_IT_number 12
_symmetry_cell_setting 'monoclinic'
loop_
_space_group_symop_operation_xyz
x,y,z
-x,y,-z
-x,-y,-z
x,-y,z
1/2+x,1/2+y,z
1/2-x,1/2+y,-z
1/2-x,1/2-y,-z
1/2+x,1/2-y,z
loop_
_atom_site_type_symbol
_atom_site_label
_atom_site_fract_x
_atom_site_fract_y
_atom_site_fract_z
Si Si1 0.971292 0.829211 0.746701
Si Si2 0.905102 0.330211 0.086689
Si Si3 0.839390 0.829825 0.242314
Si Si4 0.008566 0.824623 0.579387
Si Si5 0.717973 0.668977 0.078943
Si Si6 0.348627 0.175521 0.577334
O O1 0.887494 0.736709 0.666241
O O2 0.010642 0.764413 0.834277
O O3 0.065595 0.822573 0.751569
O O4 0.942758 0.000000 0.736594
O O5 0.935136 0.500000 0.098011
O O6 0.811797 0.324550 0.083233
O O7 0.864652 0.267465 0.998554
O O8 0.757760 0.727485 0.167609
O O9 0.884359 0.789507 0.335051
O O10 0.805821 0.000000 0.223523
O O11 0.930961 0.724739 0.572623
O O12 0.000000 0.807204 0.500000
O O13 0.990935 0.000000 0.585645
O O14 0.685866 0.500000 0.064271
O O15 0.250000 0.250000 0.500000
O O16 0.338197 0.000000 0.574181
#
# Coordination Sequence:
#
# PCOD9225847 Si02
#       6
#     8   8   8   8   8   8
#     4   9  16  27  41  58  82 112 146 183 226 273
#     4   9  15  22  33  51  76 107 142 178 218 266
#     4   8  14  24  38  56  80 111 144 179 221 269
#     4   9  18  33  51  70  94 124 157 194 237 282
#     4   9  15  21  31  49  75 108 143 178 216 261
#     4  11  21  33  49  69  94 124 159 196 235 278
#
# _framework density 9.2092229999999997
#
# number of rings (size 3 to 8) (size 9 to 14) (size 15 to 20)
#    0.000    2.833    0.000    4.000    0.000    8.333 
#    0.000    0.000    0.000    0.000    0.000    0.000 
#    0.000    1.333    0.000   14.333    0.000   17.667 
#
# Total GULP energy -133716.505675 kJ/mol
# GULP energy per Si atom -5571.521070 kJ/mol
# Density = 0.918826 g / cm^3
# Si number density = 9.209223 Si / 1000 Ang^3
#
#
#
# Elastic Constant Matrix: (Units=GPa)
#
#
# Indices 1 2 3 4 5 6 
#
# 1 -5.2092 14.3792 11.6135 0.0000 2.7012 0.0000
# 2 14.3792 124.2455 81.8011 0.0000 5.1899 0.0000
# 3 11.6135 81.8011 155.5830 0.0000 -3.9254 0.0000
# 4 0.0000 0.0000 0.0000 36.4360 0.0000 4.0385
# 5 2.7012 5.1899 -3.9254 0.0000 13.0849 0.0000
# 6 0.0000 0.0000 0.0000 4.0385 0.0000 8.3717
#
#
#
# Elastic Compliance Matrix: (Units=1/GPa)
#
#
# Indices 1 2 3 4 5 6 
#
# 1 -0.136408 0.011665 0.004678 0.000000 0.024936 0.000000
# 2 0.011665 0.011958 -0.007394 0.000000 -0.009369 0.000000
# 3 0.004678 -0.007394 0.010092 0.000000 0.004995 0.000000
# 4 0.000000 0.000000 0.000000 0.028996 0.000000 -0.013988
# 5 0.024936 -0.009369 0.004995 0.000000 0.076491 0.000000
# 6 0.000000 0.000000 0.000000 -0.013988 0.000000 0.126197
#
#
# Mechanical properties :
#
#
# Convention : Reuss Voigt Hill
#
# Bulk Modulus (GPa) = -10.36702 54.46745 22.05021
# Shear Modulus (GPa) = 74.32133 22.70024 48.51078
#
# Velocity S-wave (km/s) = 6.35918 3.51447 5.13764
# Velocity P-wave (km/s) = 6.94824 6.79007 6.86961
#
# Compressibility (1/GPa) = -0.09645970
#
# Stress axis : x y z
#
# Youngs Moduli (GPa) = -7.33096 83.62396 99.08776
#
# Poissons Ratio (x) = -0.97549 -0.46354
# Poissons Ratio (y) = 0.08552 0.73270
# Poissons Ratio (z) = 0.03429 0.61836
#
# Static dielectric constant tensor:
#      x y z
#    x 1.634620 0.000000 -0.020870 
#    y 0.000000 1.623720 0.000000 
#    z -0.020870 0.000000 1.651070 
# 
# From -- ./inp_files/280518.got.cif
#   From: 2010.05.17/outbox.ucp.g08.bks.cvg/sg12_141_cif.got.tgz:280518.got - 2010.06.11 11:47:21.
