data_PCOD9225803
_publ_section_title
;
Structure prediction by ZEFSAII (Michael W. Deem and Ramdas Pophale) SiO2 
 PCOD9225803
Probable space group: C 2/M
;
_chemical_formula_sum "Si O2"
_cell_formula_units_Z 26
_cell_length_a 18.000000
_cell_length_b 15.000000
_cell_length_c 15.000000
_cell_angle_alpha 90.000000
_cell_angle_beta 140.000000
_cell_angle_gamma 90.000000
_cell_volume 2603.289819
_symmetry_space_group_name_H-M "C 2/M"
_symmetry_group_IT_number 12
_symmetry_cell_setting 'monoclinic'
loop_
_space_group_symop_operation_xyz
x,y,z
-x,y,-z
-x,-y,-z
x,-y,z
1/2+x,1/2+y,z
1/2-x,1/2+y,-z
1/2-x,1/2-y,-z
1/2+x,1/2-y,z
loop_
_atom_site_type_symbol
_atom_site_label
_atom_site_fract_x
_atom_site_fract_y
_atom_site_fract_z
Si Si1 0.295753 0.324729 0.416117
Si Si2 0.809034 0.398164 0.240666
Si Si3 0.896254 0.191801 0.836275
Si Si4 0.156145 0.500000 0.236547
Si Si5 0.887503 0.500000 0.014095
Si Si6 0.034267 0.105438 0.279239
Si Si7 0.000000 0.724626 0.500000
Si Si8 0.266545 0.643715 0.027131
O O1 0.184116 0.261123 0.293935
O O2 0.236963 0.417086 0.334983
O O3 0.365257 0.342658 0.572951
O O4 0.401308 0.285527 0.454193
O O5 0.834315 0.500000 0.289271
O O6 0.700713 0.360907 0.197175
O O7 0.923638 0.338404 0.363988
O O8 0.765228 0.394362 0.099140
O O9 0.954221 0.130825 0.814089
O O10 0.000000 0.223660 0.000000
O O11 0.129995 0.500000 0.107650
O O12 0.026424 0.500000 0.161507
O O13 0.821635 0.588565 0.990608
O O14 0.899931 0.127765 0.179450
O O15 0.051096 0.000000 0.308398
O O16 0.250000 0.750000 0.000000
#
# Coordination Sequence:
#
# PCOD9225803 Si02
#       8
#     8   8   8   4   4   8   4   8
#     4  11  26  47  67 105 136 191 237 293 360 421
#     4  11  22  45  67 105 137 184 229 292 356 427
#     4  11  25  42  72 101 145 183 237 290 350 433
#     4  11  28  46  75  95 146 185 240 297 361 418
#     4  11  28  49  70 110 139 186 245 302 356 433
#     4  12  24  45  69 104 142 185 233 292 354 426
#     4  10  25  43  70  98 140 182 242 291 359 424
#     4  12  26  43  72 104 141 183 236 293 360 418
#
# _framework density 9.9873630000000002
#
# number of rings (size 3 to 8) (size 9 to 14) (size 15 to 20)
#    0.000    0.769    3.846    2.077   10.769    0.923 
#    5.538    0.000    0.000    0.000    0.000    0.000 
#    0.000    0.000    0.000    0.000    0.000    0.000 
#
# Total GULP energy -145045.065471 kJ/mol
# GULP energy per Si atom -5578.656364 kJ/mol
# Density = 0.996463 g / cm^3
# Si number density = 9.987363 Si / 1000 Ang^3
#
#
#
# Elastic Constant Matrix: (Units=GPa)
#
#
# Indices 1 2 3 4 5 6 
#
# 1 84.5603 55.0439 43.3044 0.0000 15.1819 0.0000
# 2 55.0439 121.9312 43.6700 0.0000 17.2785 0.0000
# 3 43.3044 43.6700 175.6590 0.0000 17.4038 0.0000
# 4 0.0000 0.0000 0.0000 44.5687 0.0000 -16.2794
# 5 15.1819 17.2785 17.4038 0.0000 42.6107 0.0000
# 6 0.0000 0.0000 0.0000 -16.2794 0.0000 144.9648
#
#
#
# Elastic Compliance Matrix: (Units=1/GPa)
#
#
# Indices 1 2 3 4 5 6 
#
# 1 0.018050 -0.006889 -0.002477 0.000000 -0.002626 0.000000
# 2 -0.006889 0.011978 -0.001085 0.000000 -0.001959 0.000000
# 3 -0.002477 -0.001085 0.006714 0.000000 -0.001420 0.000000
# 4 0.000000 0.000000 0.000000 0.023397 0.000000 0.002627
# 5 -0.002626 -0.001959 -0.001420 0.000000 0.025778 0.000000
# 6 0.000000 0.000000 0.000000 0.002627 0.000000 0.007193
#
#
# Mechanical properties :
#
#
# Convention : Reuss Voigt Hill
#
# Bulk Modulus (GPa) = 63.13548 74.02078 68.57813
# Shear Modulus (GPa) = 41.91358 62.43765 52.17562
#
# Velocity S-wave (km/s) = 4.58572 5.59698 5.11640
# Velocity P-wave (km/s) = 7.72753 8.88290 8.32528
#
# Compressibility (1/GPa) = 0.01583896
#
# Stress axis : x y z
#
# Youngs Moduli (GPa) = 55.40060 83.48847 148.94393
#
# Poissons Ratio (x) = 0.57518 0.36893
# Poissons Ratio (y) = 0.38167 0.16164
# Poissons Ratio (z) = 0.13723 0.09061
#
# Static dielectric constant tensor:
#      x y z
#    x 1.714040 0.000000 -0.021510 
#    y 0.000000 1.779570 0.000000 
#    z -0.021510 0.000000 1.676290 
# 
# From -- ./inp_files/225812.got.cif
#   From: 2010.05.17/outbox.ucp.g08.bks.cvg/sg12_113_cif.got.tgz:225812.got - 2010.06.11 11:47:21.
