data_PCOD9225464
_publ_section_title
;
Structure prediction by ZEFSAII (Michael W. Deem and Ramdas Pophale) SiO2 
 PCOD9225464
Probable space group: C 2/M
;
_chemical_formula_sum "Si O2"
_cell_formula_units_Z 24
_cell_length_a 21.000000
_cell_length_b 9.000000
_cell_length_c 27.000000
_cell_angle_alpha 90.000000
_cell_angle_beta 150.000000
_cell_angle_gamma 90.000000
_cell_volume 2551.500000
_symmetry_space_group_name_H-M "C 2/M"
_symmetry_group_IT_number 12
_symmetry_cell_setting 'monoclinic'
loop_
_space_group_symop_operation_xyz
x,y,z
-x,y,-z
-x,-y,-z
x,-y,z
1/2+x,1/2+y,z
1/2-x,1/2+y,-z
1/2-x,1/2-y,-z
1/2+x,1/2-y,z
loop_
_atom_site_type_symbol
_atom_site_label
_atom_site_fract_x
_atom_site_fract_y
_atom_site_fract_z
Si Si1 0.242946 0.321516 0.603536
Si Si2 0.481161 0.178030 0.044522
Si Si3 0.257663 0.822939 0.720810
Si Si4 0.496413 0.321391 0.386117
Si Si5 0.983015 0.321744 0.708376
Si Si6 0.253308 0.176587 0.056122
O O1 0.242110 0.500000 0.598858
O O2 0.252472 0.269783 0.666922
O O3 0.113711 0.251810 0.494400
O O4 0.362076 0.253321 0.653544
O O5 0.611182 0.208483 0.161951
O O6 0.459450 0.000000 0.031495
O O7 0.500000 0.221125 0.000000
O O8 0.361027 0.257637 0.988143
O O9 0.135646 0.793280 0.673539
O O10 0.255746 0.000000 0.707479
O O11 0.513083 0.500000 0.394109
O O12 0.496072 0.249950 0.331411
O O13 0.963079 0.500000 0.690870
O O14 0.110363 0.295627 0.826303
O O15 0.237540 0.000000 0.040781
O O16 0.250000 0.250000 0.000000
#
# Coordination Sequence:
#
# PCOD9225464 Si02
#       6
#     8   8   8   8   8   8
#     4  12  25  40  61  89 121 157 199 246 297 353
#     4  10  21  39  63  90 121 157 198 244 294 351
#     4  10  22  40  62  89 121 158 199 243 293 351
#     4  11  23  41  65  90 119 156 198 244 296 354
#     4  11  24  42  62  87 121 158 199 246 296 351
#     4  11  24  40  61  89 121 158 199 246 296 349
#
# _framework density 9.4062319999999993
#
# number of rings (size 3 to 8) (size 9 to 14) (size 15 to 20)
#    0.000    1.167    0.000    6.000    0.000   12.333 
#    0.000    0.000    0.000    0.000    0.000    0.000 
#    0.000    0.000    0.000    0.000    0.000    0.000 
#
# Total GULP energy -134299.826626 kJ/mol
# GULP energy per Si atom -5595.826109 kJ/mol
# Density = 0.938482 g / cm^3
# Si number density = 9.406232 Si / 1000 Ang^3
#
#
#
# Elastic Constant Matrix: (Units=GPa)
#
#
# Indices 1 2 3 4 5 6 
#
# 1 52.7888 12.2874 -22.0817 -0.0004 2.0182 -0.0001
# 2 12.2874 72.8588 21.9165 -0.0001 1.9053 0.0000
# 3 -22.0817 21.9165 50.6568 -0.0001 3.5453 0.0000
# 4 -0.0004 -0.0001 -0.0001 32.5698 0.0000 0.3088
# 5 2.0182 1.9053 3.5453 0.0000 46.1977 0.0000
# 6 -0.0001 0.0000 0.0000 0.3088 0.0000 42.5503
#
#
#
# Elastic Compliance Matrix: (Units=1/GPa)
#
#
# Indices 1 2 3 4 5 6 
#
# 1 0.028265 -0.009728 0.016678 0.000000 -0.002113 0.000000
# 2 -0.009728 0.019128 -0.012558 0.000000 0.000600 0.000000
# 3 0.016678 -0.012558 0.032634 0.000000 -0.002715 0.000000
# 4 0.000000 0.000000 0.000000 0.030705 0.000000 -0.000223
# 5 -0.002113 0.000600 -0.002715 0.000000 0.021922 0.000000
# 6 0.000000 0.000000 0.000000 -0.000223 0.000000 0.023503
#
#
# Mechanical properties :
#
#
# Convention : Reuss Voigt Hill
#
# Bulk Modulus (GPa) = 14.53295 22.28320 18.40807
# Shear Modulus (GPa) = 26.27275 35.20904 30.74090
#
# Velocity S-wave (km/s) = 3.74111 4.33087 4.04675
# Velocity P-wave (km/s) = 5.13840 6.07283 5.62505
#
# Compressibility (1/GPa) = 0.06880917
#
# Stress axis : x y z
#
# Youngs Moduli (GPa) = 35.37947 52.28007 30.64293
#
# Poissons Ratio (x) = 0.50860 -0.51106
# Poissons Ratio (y) = 0.34418 0.38482
# Poissons Ratio (z) = -0.59005 0.65654
#
# Static dielectric constant tensor:
#      x y z
#    x 1.622300 0.000000 -0.009350 
#    y 0.000000 1.628850 0.000000 
#    z -0.009350 0.000000 1.632250 
# 
# From -- ./inp_files/365561.got.cif
#   From: 2010.05.17/outbox.ucp.g08.bks.cvg/sg12_183_cif.got.tgz:365561.got - 2010.06.11 11:47:21.
