data_PCOD9225253
_publ_section_title
;
Structure prediction by ZEFSAII (Michael W. Deem and Ramdas Pophale) SiO2 
 PCOD9225253
Probable space group: C 2/M
;
_chemical_formula_sum "Si O2"
_cell_formula_units_Z 28
_cell_length_a 18.000000
_cell_length_b 9.000000
_cell_length_c 27.000000
_cell_angle_alpha 90.000000
_cell_angle_beta 40.000000
_cell_angle_gamma 90.000000
_cell_volume 2811.553005
_symmetry_space_group_name_H-M "C 2/M"
_symmetry_group_IT_number 12
_symmetry_cell_setting 'monoclinic'
loop_
_space_group_symop_operation_xyz
x,y,z
-x,y,-z
-x,-y,-z
x,-y,z
1/2+x,1/2+y,z
1/2-x,1/2+y,-z
1/2-x,1/2-y,-z
1/2+x,1/2-y,z
loop_
_atom_site_type_symbol
_atom_site_label
_atom_site_fract_x
_atom_site_fract_y
_atom_site_fract_z
Si Si1 0.709116 0.170449 0.167126
Si Si2 0.916871 0.179072 0.129712
Si Si3 0.558944 0.319334 0.418593
Si Si4 0.630831 0.665768 0.559379
Si Si5 0.324357 0.177137 0.275030
Si Si6 0.325616 0.331565 0.001663
Si Si7 0.971216 0.165415 0.280071
O O1 0.814657 0.230081 0.145996
O O2 0.755427 0.164564 0.087939
O O3 0.598723 0.273903 0.224055
O O4 0.680268 0.000000 0.197206
O O5 0.883975 0.236437 0.200123
O O6 0.916315 0.000000 0.125799
O O7 0.046906 0.231358 0.052687
O O8 0.500000 0.276295 0.500000
O O9 0.563354 0.500000 0.414144
O O10 0.473051 0.266105 0.419623
O O11 0.691337 0.271477 0.347128
O O12 0.652309 0.500000 0.527797
O O13 0.750000 0.750000 0.500000
O O14 0.587250 0.654737 0.637066
O O15 0.397118 0.221182 0.285715
O O16 0.327122 0.000000 0.265647
O O17 0.343130 0.500000 0.974737
O O18 0.250000 0.250000 0.000000
O O19 0.973105 0.000000 0.256137
#
# Coordination Sequence:
#
# PCOD9225253 Si02
#       7
#     8   8   8   8   8   8   8
#     4  10  21  38  60  84 111 148 192 231 274 336
#     4  10  21  38  59  83 114 148 183 231 286 333
#     4   9  18  34  56  80 107 141 181 225 273 325
#     4  10  21  37  57  82 112 146 184 228 279 334
#     4  11  22  37  59  84 111 147 191 233 277 337
#     4  10  21  37  57  82 112 148 188 230 278 331
#     4  11  23  38  56  82 117 151 186 233 284 330
#
# _framework density 9.9589090000000002
#
# number of rings (size 3 to 8) (size 9 to 14) (size 15 to 20)
#    0.000    1.857    0.000    3.857    0.000    9.143 
#    0.000    1.429    0.000    6.429    0.000    0.000 
#    0.000    0.000    0.000    0.000    0.000    0.000 
#
# Total GULP energy -156184.267050 kJ/mol
# GULP energy per Si atom -5578.009538 kJ/mol
# Density = 0.993624 g / cm^3
# Si number density = 9.958909 Si / 1000 Ang^3
#
#
#
# Elastic Constant Matrix: (Units=GPa)
#
#
# Indices 1 2 3 4 5 6 
#
# 1 109.6980 13.9817 16.5623 0.0001 -20.7474 0.0002
# 2 13.9817 -19.9434 18.5103 -0.0002 -22.5659 0.0004
# 3 16.5623 18.5103 74.3777 0.0000 -30.3729 0.0000
# 4 0.0001 -0.0002 0.0000 -183.4689 0.0000 -74.4113
# 5 -20.7474 -22.5659 -30.3729 0.0000 39.9536 0.0000
# 6 0.0002 0.0004 0.0000 -74.4113 0.0000 0.1945
#
#
#
# Elastic Compliance Matrix: (Units=1/GPa)
#
#
# Indices 1 2 3 4 5 6 
#
# 1 0.010094 0.000692 -0.000174 0.000000 0.005500 0.000000
# 2 0.000692 -0.030511 0.000796 0.000000 -0.016268 0.000000
# 3 -0.000174 0.000796 0.019479 0.000000 0.015167 0.000000
# 4 0.000000 0.000000 0.000000 -0.000035 0.000000 -0.013353
# 5 0.005500 -0.016268 0.015167 0.000000 0.030227 0.000000
# 6 0.000000 0.000000 0.000000 -0.013353 0.000000 0.032923
#
#
# Mechanical properties :
#
#
# Convention : Reuss Voigt Hill
#
# Bulk Modulus (GPa) = 591.56554 29.13785 310.35170
# Shear Modulus (GPa) = 83.17544 -20.99226 31.09159
#
# Velocity S-wave (km/s) = 6.46916 -3.24997 3.95523
# Velocity P-wave (km/s) = 18.80021 0.76007 13.30462
#
# Compressibility (1/GPa) = 0.00169043
#
# Stress axis : x y z
#
# Youngs Moduli (GPa) = 99.06560 -32.77541 51.33654
#
# Poissons Ratio (x) = 0.02267 0.00892
# Poissons Ratio (y) = -0.06853 -0.04085
# Poissons Ratio (z) = 0.01721 0.02608
#
# Static dielectric constant tensor:
#      x y z
#    x 1.693820 0.000000 0.019550 
#    y 0.000000 1.736770 0.000000 
#    z 0.019550 0.000000 1.688040 
# 
# From -- ./inp_files/275643.got.cif
#   From: 2010.05.17/outbox.ucp.g08.bks.cvg/sg12_138_cif.got.tgz:275643.got - 2010.06.11 11:47:21.
