data_PCOD9225871
_publ_section_title
;
Structure prediction by ZEFSAII (Michael W. Deem and Ramdas Pophale) SiO2 
 PCOD9225871
Probable space group: C 2/M
;
_chemical_formula_sum "Si O2"
_cell_formula_units_Z 24
_cell_length_a 15.000000
_cell_length_b 30.000000
_cell_length_c 15.000000
_cell_angle_alpha 90.000000
_cell_angle_beta 20.000000
_cell_angle_gamma 90.000000
_cell_volume 2308.635967
_symmetry_space_group_name_H-M "C 2/M"
_symmetry_group_IT_number 12
_symmetry_cell_setting 'monoclinic'
loop_
_space_group_symop_operation_xyz
x,y,z
-x,y,-z
-x,-y,-z
x,-y,z
1/2+x,1/2+y,z
1/2-x,1/2+y,-z
1/2-x,1/2-y,-z
1/2+x,1/2-y,z
loop_
_atom_site_type_symbol
_atom_site_label
_atom_site_fract_x
_atom_site_fract_y
_atom_site_fract_z
Si Si1 0.999520 0.137658 0.819300
Si Si2 0.562125 0.449041 0.652341
Si Si3 0.313983 0.178744 0.048435
Si Si4 0.046160 0.331665 0.358579
Si Si5 0.175036 0.235305 0.468012
Si Si6 0.480755 0.077723 0.916699
O O1 0.021514 0.086001 0.771392
O O2 0.301533 0.151374 0.529792
O O3 0.814579 0.165510 0.925613
O O4 0.834450 0.151967 0.060868
O O5 0.625168 0.500000 0.617795
O O6 0.777539 0.431972 0.377409
O O7 0.277521 0.445942 0.876486
O O8 0.548602 0.215088 0.826801
O O9 0.427240 0.131157 0.971526
O O10 0.049520 0.198364 0.339438
O O11 0.000000 0.350065 0.500000
O O12 0.974353 0.279290 0.426775
O O13 0.250000 0.250000 0.500000
O O14 0.500000 0.062008 0.000000
#
# Coordination Sequence:
#
# PCOD9225871 Si02
#       6
#     8   8   8   8   8   8
#     4  11  21  42  62  85 121 157 204 255 303 368
#     4  11  24  42  68  94 116 159 211 252 310 382
#     4  11  21  37  61  85 120 171 211 240 292 357
#     4  12  25  38  60  91 123 161 205 258 311 353
#     4  12  21  36  60  87 121 164 212 256 290 350
#     4  11  24  40  61  94 134 166 198 251 310 362
#
# _framework density 10.395749
#
# number of rings (size 3 to 8) (size 9 to 14) (size 15 to 20)
#    0.000    0.667    3.333    7.000    0.000    3.333 
#    0.000    0.000    0.000    3.000    0.000    0.000 
#    0.000    0.000    0.000    0.000    0.000    0.000 
#
# Total GULP energy -133673.115499 kJ/mol
# GULP energy per Si atom -5569.713146 kJ/mol
# Density = 1.037209 g / cm^3
# Si number density = 10.395749 Si / 1000 Ang^3
#
#
#
# Elastic Constant Matrix: (Units=GPa)
#
#
# Indices 1 2 3 4 5 6 
#
# 1 25.6460 13.3160 4.6777 0.7014 6.6462 -1.2321
# 2 13.3160 117.3012 27.5675 0.0502 -5.4516 -0.0420
# 3 4.6777 27.5675 130.2945 -0.0886 -18.0078 0.1275
# 4 0.7014 0.0502 -0.0886 15.6941 -0.9493 29.4706
# 5 6.6462 -5.4516 -18.0078 -0.9493 18.7776 1.7234
# 6 -1.2321 -0.0420 0.1275 29.4706 1.7234 -73.8473
#
#
#
# Elastic Compliance Matrix: (Units=1/GPa)
#
#
# Indices 1 2 3 4 5 6 
#
# 1 0.048235 -0.005659 -0.003579 -0.000576 -0.022034 -0.001552
# 2 -0.005659 0.009648 -0.001356 0.000063 0.003489 0.000193
# 3 -0.003579 -0.001356 0.009461 0.000136 0.009920 0.000363
# 4 -0.000576 0.000063 0.000136 0.036436 0.000858 0.014570
# 5 -0.022034 0.003489 0.009920 0.000858 0.071404 0.002391
# 6 -0.001552 0.000193 0.000363 0.014570 0.002391 -0.007645
#
#
# Mechanical properties :
#
#
# Convention : Reuss Voigt Hill
#
# Bulk Modulus (GPa) = 21.66518 40.48490 31.07504
# Shear Modulus (GPa) = 24.49636 7.30357 15.89997
#
# Velocity S-wave (km/s) = 3.43620 1.87627 2.76838
# Velocity P-wave (km/s) = 5.11724 4.92016 5.01967
#
# Compressibility (1/GPa) = 0.04615701
#
# Stress axis : x y z
#
# Youngs Moduli (GPa) = 20.73192 103.64439 105.69653
#
# Poissons Ratio (x) = 0.58652 0.37824
# Poissons Ratio (y) = 0.11732 0.14334
# Poissons Ratio (z) = 0.07419 0.14056
#
# Static dielectric constant tensor:
#      x y z
#    x 1.826480 -0.000260 0.053250 
#    y -0.000260 1.831190 0.000230 
#    z 0.053250 0.000230 1.792150 
# 
# From -- ./inp_files/219526.got.cif
#   From: 2010.05.17/outbox.ucp.g08.bks.cvg/sg12_110_cif.got.tgz:219526.got - 2010.06.11 11:47:21.
