data_PCOD9225126
_publ_section_title
;
Structure prediction by ZEFSAII (Michael W. Deem and Ramdas Pophale) SiO2 
 PCOD9225126
Probable space group: C 2/M
;
_chemical_formula_sum "Si O2"
_cell_formula_units_Z 28
_cell_length_a 18.000000
_cell_length_b 9.000000
_cell_length_c 24.000000
_cell_angle_alpha 90.000000
_cell_angle_beta 50.000000
_cell_angle_gamma 90.000000
_cell_volume 2978.380795
_symmetry_space_group_name_H-M "C 2/M"
_symmetry_group_IT_number 12
_symmetry_cell_setting 'monoclinic'
loop_
_space_group_symop_operation_xyz
x,y,z
-x,y,-z
-x,-y,-z
x,-y,z
1/2+x,1/2+y,z
1/2-x,1/2+y,-z
1/2-x,1/2-y,-z
1/2+x,1/2-y,z
loop_
_atom_site_type_symbol
_atom_site_label
_atom_site_fract_x
_atom_site_fract_y
_atom_site_fract_z
Si Si1 0.377941 0.672017 0.789092
Si Si2 0.518302 0.321226 0.928027
Si Si3 0.345447 0.321366 0.930810
Si Si4 0.204050 0.672998 0.786053
Si Si5 0.833409 0.677952 0.499236
Si Si6 0.753501 0.320737 0.359980
Si Si7 0.563238 0.823667 0.654155
O O1 0.408961 0.500000 0.777349
O O2 0.355521 0.723042 0.862001
O O3 0.288660 0.680735 0.790406
O O4 0.463667 0.767489 0.724317
O O5 0.519549 0.500000 0.929259
O O6 0.433442 0.273136 0.927439
O O7 0.616397 0.264685 0.853507
O O8 0.500000 0.267406 0.000000
O O9 0.339737 0.500000 0.935647
O O10 0.250000 0.250000 0.000000
O O11 0.174436 0.500000 0.794152
O O12 0.238680 0.723242 0.708139
O O13 0.820438 0.500000 0.508363
O O14 0.750000 0.750000 0.500000
O O15 0.829376 0.747848 0.562079
O O16 0.924713 0.716383 0.416598
O O17 0.745091 0.500000 0.366877
O O18 0.850971 0.270838 0.345951
O O19 0.569934 0.000000 0.653280
#
# Coordination Sequence:
#
# PCOD9225126 Si02
#       7
#     8   8   8   8   8   8   8
#     4  10  21  35  51  74 103 134 170 211 254 303
#     4  10  21  36  54  78 106 135 170 212 257 307
#     4  10  21  36  54  78 105 133 169 209 251 304
#     4  10  21  36  53  75 103 135 173 214 255 303
#     4   9  17  30  50  77 105 133 170 213 256 305
#     4   9  18  33  52  75 102 132 171 215 256 304
#     4   9  18  32  51  75 100 129 167 208 251 301
#
# _framework density 9.4010809999999996
#
# number of rings (size 3 to 8) (size 9 to 14) (size 15 to 20)
#    0.000    2.429    0.000    3.000    0.000    5.429 
#    0.000    0.714    0.000    4.286    0.000    0.000 
#    0.000    0.000    0.000    0.000    0.000    0.000 
#
# Total GULP energy -155985.182985 kJ/mol
# GULP energy per Si atom -5570.899392 kJ/mol
# Density = 0.937968 g / cm^3
# Si number density = 9.401081 Si / 1000 Ang^3
#
#
#
# Elastic Constant Matrix: (Units=GPa)
#
#
# Indices 1 2 3 4 5 6 
#
# 1 17.9837 11.7662 25.4657 0.0000 30.5892 0.0001
# 2 11.7662 -13.0816 23.7688 0.0000 15.0282 0.0002
# 3 25.4657 23.7688 141.2614 0.0000 44.1317 0.0000
# 4 0.0000 0.0000 0.0000 37.7504 0.0000 -12.5684
# 5 30.5892 15.0282 44.1317 0.0000 26.0644 0.0000
# 6 0.0001 0.0002 0.0000 -12.5684 0.0000 31.0752
#
#
#
# Elastic Compliance Matrix: (Units=1/GPa)
#
#
# Indices 1 2 3 4 5 6 
#
# 1 -0.037917 0.011371 -0.014716 0.000000 0.062861 0.000000
# 2 0.011371 -0.049305 0.003257 0.000000 0.009569 0.000000
# 3 -0.014716 0.003257 0.009288 0.000000 -0.000333 0.000000
# 4 0.000000 0.000000 0.000000 0.030612 0.000000 0.012381
# 5 0.062861 0.009569 -0.000333 0.000000 -0.040360 0.000000
# 6 0.000000 0.000000 0.000000 0.012381 0.000000 0.037188
#
#
# Mechanical properties :
#
#
# Convention : Reuss Voigt Hill
#
# Bulk Modulus (GPa) = -12.80230 29.79611 8.49691
# Shear Modulus (GPa) = -65.48342 24.65553 -20.41395
#
# Velocity S-wave (km/s) = -5.90789 3.62513 -3.29861
# Velocity P-wave (km/s) = 7.30488 5.77959 3.15893
#
# Compressibility (1/GPa) = -0.07811098
#
# Stress axis : x y z
#
# Youngs Moduli (GPa) = -26.37308 -20.28182 107.66380
#
# Poissons Ratio (x) = 0.23063 1.58441
# Poissons Ratio (y) = 0.29989 -0.35064
# Poissons Ratio (z) = -0.38811 0.06605
#
# Static dielectric constant tensor:
#      x y z
#    x 1.533990 0.000000 -0.014560 
#    y 0.000000 1.627110 0.000000 
#    z -0.014560 0.000000 1.661880 
# 
# From -- ./inp_files/275514.got.cif
#   From: 2010.05.17/outbox.ucp.g08.bks.cvg/sg12_138_cif.got.tgz:275514.got - 2010.06.11 11:47:21.
