data_PCOD9225384
_publ_section_title
;
Structure prediction by ZEFSAII (Michael W. Deem and Ramdas Pophale) SiO2 
 PCOD9225384
Probable space group: C 2/M
;
_chemical_formula_sum "Si O2"
_cell_formula_units_Z 32
_cell_length_a 18.000000
_cell_length_b 9.000000
_cell_length_c 30.000000
_cell_angle_alpha 90.000000
_cell_angle_beta 40.000000
_cell_angle_gamma 90.000000
_cell_volume 3123.947783
_symmetry_space_group_name_H-M "C 2/M"
_symmetry_group_IT_number 12
_symmetry_cell_setting 'monoclinic'
loop_
_space_group_symop_operation_xyz
x,y,z
-x,y,-z
-x,-y,-z
x,-y,z
1/2+x,1/2+y,z
1/2-x,1/2+y,-z
1/2-x,1/2-y,-z
1/2+x,1/2-y,z
loop_
_atom_site_type_symbol
_atom_site_label
_atom_site_fract_x
_atom_site_fract_y
_atom_site_fract_z
Si Si1 0.798317 0.321419 0.932994
Si Si2 0.372710 0.680972 0.569289
Si Si3 0.741348 0.327518 0.287711
Si Si4 0.293607 0.176551 0.434981
Si Si5 0.469427 0.674505 0.297470
Si Si6 0.720627 0.331983 0.200630
Si Si7 0.538329 0.323988 0.797379
Si Si8 0.626985 0.677346 0.932804
O O1 0.798696 0.500000 0.935810
O O2 0.925590 0.261895 0.864348
O O3 0.713732 0.274614 0.931786
O O4 0.750000 0.250000 0.000000
O O5 0.500000 0.735383 0.500000
O O6 0.375156 0.500000 0.568835
O O7 0.330266 0.727721 0.637398
O O8 0.288826 0.724778 0.567928
O O9 0.775824 0.500000 0.280330
O O10 0.674602 0.324668 0.272095
O O11 0.852332 0.229855 0.225547
O O12 0.250000 0.250000 0.500000
O O13 0.417781 0.230525 0.360931
O O14 0.289719 0.000000 0.441024
O O15 0.448486 0.500000 0.315811
O O16 0.604796 0.695633 0.226645
O O17 0.420477 0.716962 0.271750
O O18 0.761796 0.500000 0.174444
O O19 0.819643 0.225804 0.138366
O O20 0.518486 0.500000 0.808045
O O21 0.621840 0.500000 0.936539
O O22 0.500000 0.738276 0.000000
#
# Coordination Sequence:
#
# PCOD9225384 Si02
#       8
#     8   8   8   8   8   8   8   8
#     4  11  24  41  63  90 122 159 201 247 296 355
#     4   9  19  36  59  84 114 154 196 239 288 346
#     4  10  21  38  61  90 119 152 201 246 292 353
#     4  11  23  38  61  88 118 155 197 246 299 352
#     4  10  21  39  62  87 118 154 198 245 293 349
#     4  10  22  39  62  90 118 155 198 246 292 348
#     4  11  22  39  63  87 120 158 197 248 299 351
#     4  10  23  42  61  85 121 159 194 241 299 356
#
# _framework density 10.243449
#
# number of rings (size 3 to 8) (size 9 to 14) (size 15 to 20)
#    0.000    1.750    2.500    1.125    3.500    2.250 
#    0.000    0.000    0.000    1.875    0.000    0.000 
#    0.000    0.000    0.000    0.000    0.000    0.000 
#
# Total GULP energy -178362.883318 kJ/mol
# GULP energy per Si atom -5573.840104 kJ/mol
# Density = 1.022013 g / cm^3
# Si number density = 10.243449 Si / 1000 Ang^3
#
#
#
# Elastic Constant Matrix: (Units=GPa)
#
#
# Indices 1 2 3 4 5 6 
#
# 1 55.1326 18.3186 50.0353 0.0000 8.2683 0.0005
# 2 18.3186 21.7155 41.9703 -0.0002 3.6880 -0.0005
# 3 50.0353 41.9703 122.7971 -0.0002 25.2466 -0.0001
# 4 0.0000 -0.0002 -0.0002 31.6115 0.0002 6.9166
# 5 8.2683 3.6880 25.2466 0.0002 18.9771 0.0000
# 6 0.0005 -0.0005 -0.0001 6.9166 0.0000 9.4461
#
#
#
# Elastic Compliance Matrix: (Units=1/GPa)
#
#
# Indices 1 2 3 4 5 6 
#
# 1 0.029065 -0.002563 -0.011653 0.000000 0.003338 -0.000002
# 2 -0.002563 0.178802 -0.073165 -0.000002 0.063706 0.000011
# 3 -0.011653 -0.073165 0.046707 0.000001 -0.042841 -0.000004
# 4 0.000000 -0.000002 0.000001 0.037669 -0.000001 -0.027582
# 5 0.003338 0.063706 -0.042841 -0.000001 0.095855 0.000004
# 6 -0.000002 0.000011 -0.000004 -0.027582 0.000004 0.126059
#
#
# Mechanical properties :
#
#
# Convention : Reuss Voigt Hill
#
# Bulk Modulus (GPa) = 12.52964 46.69931 29.61448
# Shear Modulus (GPa) = 6.98790 17.96169 12.47479
#
# Velocity S-wave (km/s) = 1.84887 2.96419 2.47030
# Velocity P-wave (km/s) = 3.26909 5.87873 4.75639
#
# Compressibility (1/GPa) = 0.07981072
#
# Stress axis : x y z
#
# Youngs Moduli (GPa) = 34.40590 5.59279 21.41022
#
# Poissons Ratio (x) = 0.01433 0.24950
# Poissons Ratio (y) = 0.08817 1.56649
# Poissons Ratio (z) = 0.40094 0.40920
#
# Static dielectric constant tensor:
#      x y z
#    x 1.740760 0.000000 -0.009750 
#    y 0.000000 1.729640 0.000000 
#    z -0.009750 0.000000 1.703460 
# 
# From -- ./inp_files/378006.got.cif
#   From: 2010.05.17/outbox.ucp.g08.bks.cvg/sg12_190_cif.got.tgz:378006.got - 2010.06.11 11:47:21.
