data_PCOD9225370
_publ_section_title
;
Structure prediction by ZEFSAII (Michael W. Deem and Ramdas Pophale) SiO2 
 PCOD9225370
Probable space group: C 2/M
;
_chemical_formula_sum "Si O2"
_cell_formula_units_Z 24
_cell_length_a 21.000000
_cell_length_b 9.000000
_cell_length_c 27.000000
_cell_angle_alpha 90.000000
_cell_angle_beta 30.000000
_cell_angle_gamma 90.000000
_cell_volume 2551.500000
_symmetry_space_group_name_H-M "C 2/M"
_symmetry_group_IT_number 12
_symmetry_cell_setting 'monoclinic'
loop_
_space_group_symop_operation_xyz
x,y,z
-x,y,-z
-x,-y,-z
x,-y,z
1/2+x,1/2+y,z
1/2-x,1/2+y,-z
1/2-x,1/2-y,-z
1/2+x,1/2-y,z
loop_
_atom_site_type_symbol
_atom_site_label
_atom_site_fract_x
_atom_site_fract_y
_atom_site_fract_z
Si Si1 0.107816 0.321445 0.269820
Si Si2 0.347091 0.676069 0.865460
Si Si3 0.191058 0.178550 0.782694
Si Si4 0.342473 0.320810 0.479392
Si Si5 0.081516 0.178066 0.073514
Si Si6 0.146537 0.821503 0.414016
O O1 0.093732 0.500000 0.281231
O O2 0.114684 0.266782 0.208754
O O3 0.233484 0.280553 0.217678
O O4 0.984448 0.241789 0.375580
O O5 0.350987 0.500000 0.852676
O O6 0.430764 0.703374 0.858811
O O7 0.204320 0.729218 0.974585
O O8 0.266462 0.246319 0.685713
O O9 0.043102 0.219410 0.874178
O O10 0.195686 0.000000 0.776503
O O11 0.340271 0.500000 0.475943
O O12 0.250000 0.250000 0.500000
O O13 0.313163 0.283092 0.556757
O O14 0.105493 0.000000 0.051117
O O15 0.000000 0.780008 0.500000
O O16 0.154934 0.000000 0.403925
#
# Coordination Sequence:
#
# PCOD9225370 Si02
#       6
#     8   8   8   8   8   8
#     4  11  23  39  59  86 119 155 194 240 291 345
#     4  10  21  38  61  87 116 152 192 240 293 347
#     4  10  22  38  60  87 115 154 198 239 287 344
#     4  11  24  41  60  86 119 155 195 240 290 345
#     4   9  20  40  61  85 114 149 193 239 291 349
#     4  10  21  39  60  84 117 154 191 239 290 337
#
# _framework density 9.4062319999999993
#
# number of rings (size 3 to 8) (size 9 to 14) (size 15 to 20)
#    0.000    1.833    1.667    1.500    2.333    4.333 
#    0.000    3.333    0.000    0.000    0.000    0.000 
#    0.000    0.000    0.000    0.000    0.000    0.000 
#
# Total GULP energy -133981.426825 kJ/mol
# GULP energy per Si atom -5582.559451 kJ/mol
# Density = 0.938482 g / cm^3
# Si number density = 9.406232 Si / 1000 Ang^3
#
#
#
# Elastic Constant Matrix: (Units=GPa)
#
#
# Indices 1 2 3 4 5 6 
#
# 1 87.3546 21.2392 -11.4265 0.0001 -9.6222 0.0000
# 2 21.2392 35.2796 0.1697 -0.0001 0.7566 0.0001
# 3 -11.4265 0.1697 13.7583 0.0002 -0.5526 0.0000
# 4 0.0001 -0.0001 0.0002 34.1682 0.0000 1.3509
# 5 -9.6222 0.7566 -0.5526 0.0000 39.5316 0.0000
# 6 0.0000 0.0001 0.0000 1.3509 0.0000 33.9508
#
#
#
# Elastic Compliance Matrix: (Units=1/GPa)
#
#
# Indices 1 2 3 4 5 6 
#
# 1 0.016105 -0.009854 0.013670 0.000000 0.004300 0.000000
# 2 -0.009854 0.034387 -0.008735 0.000000 -0.003179 0.000000
# 3 0.013670 -0.008735 0.084332 0.000000 0.004673 0.000000
# 4 0.000000 0.000000 0.000000 0.029313 0.000000 -0.001166
# 5 0.004300 -0.003179 0.004673 0.000000 0.026469 0.000000
# 6 0.000000 0.000000 0.000000 -0.001166 0.000000 0.029501
#
#
# Mechanical properties :
#
#
# Convention : Reuss Voigt Hill
#
# Bulk Modulus (GPa) = 8.00091 17.37303 12.68697
# Shear Modulus (GPa) = 18.40891 29.95747 24.18319
#
# Velocity S-wave (km/s) = 3.13157 3.99485 3.58926
# Velocity P-wave (km/s) = 4.16388 5.52570 4.89240
#
# Compressibility (1/GPa) = 0.12498575
#
# Stress axis : x y z
#
# Youngs Moduli (GPa) = 62.09216 29.08047 11.85791
#
# Poissons Ratio (x) = 0.28655 -0.16210
# Poissons Ratio (y) = 0.61183 0.10358
# Poissons Ratio (z) = -0.84879 0.25403
#
# Static dielectric constant tensor:
#      x y z
#    x 1.657920 0.000000 0.001360 
#    y 0.000000 1.622750 0.000000 
#    z 0.001360 0.000000 1.657510 
# 
# From -- ./inp_files/365378.got.cif
#   From: 2010.05.17/outbox.ucp.g08.bks.cvg/sg12_183_cif.got.tgz:365378.got - 2010.06.11 11:47:21.
