data_PCOD9225295
_publ_section_title
;
Structure prediction by ZEFSAII (Michael W. Deem and Ramdas Pophale) SiO2 
 PCOD9225295
Probable space group: C 2/M
;
_chemical_formula_sum "Si O2"
_cell_formula_units_Z 32
_cell_length_a 21.000000
_cell_length_b 12.000000
_cell_length_c 27.000000
_cell_angle_alpha 90.000000
_cell_angle_beta 30.000000
_cell_angle_gamma 90.000000
_cell_volume 3402.000000
_symmetry_space_group_name_H-M "C 2/M"
_symmetry_group_IT_number 12
_symmetry_cell_setting 'monoclinic'
loop_
_space_group_symop_operation_xyz
x,y,z
-x,y,-z
-x,-y,-z
x,-y,z
1/2+x,1/2+y,z
1/2-x,1/2+y,-z
1/2-x,1/2-y,-z
1/2+x,1/2-y,z
loop_
_atom_site_type_symbol
_atom_site_label
_atom_site_fract_x
_atom_site_fract_y
_atom_site_fract_z
Si Si1 0.901750 0.374979 0.750876
Si Si2 0.838868 0.124080 0.316876
Si Si3 0.375465 0.371454 0.114571
Si Si4 0.119382 0.198742 0.148128
Si Si5 0.608872 0.124365 0.066751
Si Si6 0.644639 0.211720 0.528914
Si Si7 0.168437 0.706642 0.767727
Si Si8 0.962094 0.867699 0.582500
O O1 0.908430 0.500000 0.767642
O O2 0.763559 0.366212 0.817448
O O3 0.899355 0.278714 0.792759
O O4 0.028602 0.356756 0.632409
O O5 0.735249 0.144853 0.429803
O O6 0.819730 0.227120 0.292101
O O7 0.988020 0.128410 0.233207
O O8 0.816756 0.000000 0.310232
O O9 0.400384 0.500000 0.109889
O O10 0.364715 0.299860 0.170300
O O11 0.500000 0.332938 0.000000
O O12 0.116586 0.278529 0.102008
O O13 0.261061 0.142936 0.053567
O O14 0.462537 0.133188 0.144962
O O15 0.622402 0.000000 0.078762
O O16 0.750000 0.250000 0.500000
O O17 0.559494 0.303101 0.554474
O O18 0.308243 0.657442 0.688438
O O19 0.000000 0.840419 0.500000
O O20 0.979099 0.000000 0.578782
#
# Coordination Sequence:
#
# PCOD9225295 Si02
#       8
#     8   8   8   8   8   8   8   8
#     4  11  22  38  62  88 120 160 201 248 307 370
#     4  11  23  39  62  91 125 167 207 257 319 374
#     4  10  21  37  60  88 120 158 196 246 308 368
#     4  10  21  39  59  88 126 160 203 257 302 378
#     4  10  21  37  62  90 119 159 205 256 311 365
#     4  12  24  44  62  93 132 163 214 266 315 385
#     4  11  21  40  64  91 123 158 208 263 306 380
#     4  11  24  44  69  94 125 168 214 265 325 381
#
# _framework density 9.4062319999999993
#
# number of rings (size 3 to 8) (size 9 to 14) (size 15 to 20)
#    0.000    1.250    3.750    2.625    0.000    1.000 
#    0.000    4.375    0.000    1.500    0.000    0.000 
#    0.000    0.000    0.000    0.000    0.000    0.000 
#
# Total GULP energy -178158.445667 kJ/mol
# GULP energy per Si atom -5567.451427 kJ/mol
# Density = 0.938482 g / cm^3
# Si number density = 9.406232 Si / 1000 Ang^3
#
#
#
# Elastic Constant Matrix: (Units=GPa)
#
#
# Indices 1 2 3 4 5 6 
#
# 1 67.6385 27.8498 28.1710 0.0001 -20.5568 0.0001
# 2 27.8498 65.8306 22.4478 0.0009 -8.7567 0.0000
# 3 28.1710 22.4478 162.2857 0.0011 -22.4046 0.0000
# 4 0.0001 0.0009 0.0011 29.8761 -0.0002 -0.5734
# 5 -20.5568 -8.7567 -22.4046 -0.0002 39.1661 0.0000
# 6 0.0001 0.0000 0.0000 -0.5734 0.0000 44.0290
#
#
#
# Elastic Compliance Matrix: (Units=1/GPa)
#
#
# Indices 1 2 3 4 5 6 
#
# 1 0.020972 -0.007237 -0.001458 0.000000 0.008555 0.000000
# 2 -0.007237 0.018669 -0.001383 -0.000001 -0.000416 0.000000
# 3 -0.001458 -0.001383 0.007012 0.000000 0.002936 0.000000
# 4 0.000000 -0.000001 0.000000 0.033480 0.000000 0.000436
# 5 0.008555 -0.000416 0.002936 0.000000 0.031609 0.000000
# 6 0.000000 0.000000 0.000000 0.000436 0.000000 0.022718
#
#
# Mechanical properties :
#
#
# Convention : Reuss Voigt Hill
#
# Bulk Modulus (GPa) = 37.74340 50.29912 44.02126
# Shear Modulus (GPa) = 30.59076 37.09999 33.84537
#
# Velocity S-wave (km/s) = 4.03686 4.44565 4.24617
# Velocity P-wave (km/s) = 6.46798 7.29019 6.89136
#
# Compressibility (1/GPa) = 0.02649470
#
# Stress axis : x y z
#
# Youngs Moduli (GPa) = 47.68339 53.56614 142.61537
#
# Poissons Ratio (x) = 0.38765 0.20798
# Poissons Ratio (y) = 0.34508 0.19730
# Poissons Ratio (z) = 0.06954 0.07411
#
# Static dielectric constant tensor:
#      x y z
#    x 1.679310 0.000000 -0.005440 
#    y 0.000000 1.668030 0.000000 
#    z -0.005440 0.000000 1.676470 
# 
# From -- ./inp_files/366016.got.cif
#   From: 2010.05.17/outbox.ucp.g08.bks.cvg/sg12_184_cif.got.tgz:366016.got - 2010.06.11 11:47:21.
