data_PCOD9225266
_publ_section_title
;
Structure prediction by ZEFSAII (Michael W. Deem and Ramdas Pophale) SiO2 
 PCOD9225266
Probable space group: C 2/M
;
_chemical_formula_sum "Si O2"
_cell_formula_units_Z 32
_cell_length_a 30.000000
_cell_length_b 9.000000
_cell_length_c 18.000000
_cell_angle_alpha 90.000000
_cell_angle_beta 140.000000
_cell_angle_gamma 90.000000
_cell_volume 3123.947783
_symmetry_space_group_name_H-M "C 2/M"
_symmetry_group_IT_number 12
_symmetry_cell_setting 'monoclinic'
loop_
_space_group_symop_operation_xyz
x,y,z
-x,y,-z
-x,-y,-z
x,-y,z
1/2+x,1/2+y,z
1/2-x,1/2+y,-z
1/2-x,1/2-y,-z
1/2+x,1/2-y,z
loop_
_atom_site_type_symbol
_atom_site_label
_atom_site_fract_x
_atom_site_fract_y
_atom_site_fract_z
Si Si1 0.843361 0.831602 0.378195
Si Si2 0.860881 0.822209 0.977931
Si Si3 0.350365 0.175469 0.671580
Si Si4 0.498114 0.670724 0.412199
Si Si5 0.288493 0.176072 0.446214
Si Si6 0.297783 0.822473 0.177276
Si Si7 0.105913 0.676003 0.830138
Si Si8 0.582480 0.668453 0.109191
O O1 0.921636 0.833691 0.507372
O O2 0.802346 0.723439 0.380197
O O3 0.841907 0.769693 0.293119
O O4 0.815901 0.000000 0.344938
O O5 0.780989 0.791218 0.898361
O O6 0.884021 0.770037 0.925015
O O7 0.870901 0.000000 0.991044
O O8 0.900940 0.752448 0.098771
O O9 0.349951 0.213132 0.583379
O O10 0.276732 0.231883 0.608406
O O11 0.402282 0.248173 0.795140
O O12 0.355632 0.000000 0.684220
O O13 0.500000 0.722707 0.500000
O O14 0.470929 0.500000 0.376989
O O15 0.454700 0.771918 0.302080
O O16 0.275733 0.000000 0.435164
O O17 0.324501 0.783618 0.128705
O O18 0.308966 0.000000 0.199997
O O19 0.105892 0.500000 0.840620
O O20 0.610069 0.500000 0.151564
O O21 0.500000 0.663460 0.000000
#
# Coordination Sequence:
#
# PCOD9225266 Si02
#       8
#     8   8   8   8   8   8   8   8
#     4  11  22  35  58  88 116 154 200 239 282 343
#     4  10  22  40  60  83 114 153 194 239 293 353
#     4  10  21  38  61  87 115 151 194 241 295 349
#     4  10  21  39  58  79 113 156 195 233 282 339
#     4  10  21  37  58  87 122 154 187 237 296 349
#     4  10  21  37  58  85 118 155 194 241 298 347
#     4  11  23  37  58  87 117 152 196 246 293 343
#     4  10  22  40  62  86 115 155 199 243 297 355
#
# _framework density 10.243449
#
# number of rings (size 3 to 8) (size 9 to 14) (size 15 to 20)
#    0.000    1.750    1.250    2.625    0.000    6.500 
#    0.000    3.750    0.000    0.000    0.000    0.000 
#    0.000    0.000    0.000    0.000    0.000    0.000 
#
# Total GULP energy -178499.473136 kJ/mol
# GULP energy per Si atom -5578.108535 kJ/mol
# Density = 1.022013 g / cm^3
# Si number density = 10.243449 Si / 1000 Ang^3
#
#
#
# Elastic Constant Matrix: (Units=GPa)
#
#
# Indices 1 2 3 4 5 6 
#
# 1 15.5817 -2.5925 -7.0809 0.0000 -10.9293 0.0000
# 2 -2.5925 2.1650 21.8914 0.0000 -6.4445 0.0000
# 3 -7.0809 21.8914 69.8000 0.0000 -5.6043 0.0000
# 4 0.0000 0.0000 0.0000 20.7537 0.0000 -7.7524
# 5 -10.9293 -6.4445 -5.6043 0.0000 21.9195 0.0000
# 6 0.0000 0.0000 0.0000 -7.7524 0.0000 20.9656
#
#
#
# Elastic Compliance Matrix: (Units=1/GPa)
#
#
# Indices 1 2 3 4 5 6 
#
# 1 0.098458 -0.049568 0.028899 0.000000 0.041907 0.000000
# 2 -0.049568 -0.149749 0.037181 0.000000 -0.059236 0.000000
# 3 0.028899 0.037181 0.007792 0.000000 0.027333 0.000000
# 4 0.000000 0.000000 0.000000 0.055906 0.000000 0.020672
# 5 0.041907 -0.059236 0.027333 0.000000 0.056089 0.000000
# 6 0.000000 0.000000 0.000000 0.020672 0.000000 0.055341
#
#
# Mechanical properties :
#
#
# Convention : Reuss Voigt Hill
#
# Bulk Modulus (GPa) = -95.46173 12.44251 -41.50961
# Shear Modulus (GPa) = 57.25887 17.74966 37.50427
#
# Velocity S-wave (km/s) = 5.29242 2.94665 4.28325
# Velocity P-wave (km/s) = 3.05800 4.20280 2.03865
#
# Compressibility (1/GPa) = -0.01047540
#
# Stress axis : x y z
#
# Youngs Moduli (GPa) = 10.15664 -6.67786 128.33959
#
# Poissons Ratio (x) = -0.33101 -3.70888
# Poissons Ratio (y) = 0.50345 -4.77180
# Poissons Ratio (z) = -0.29352 0.24829
#
# Static dielectric constant tensor:
#      x y z
#    x 1.726730 0.000000 0.012230 
#    y 0.000000 1.698090 0.000000 
#    z 0.012230 0.000000 1.833910 
# 
# From -- ./inp_files/295836.got.cif
#   From: 2010.05.17/outbox.ucp.g08.bks.cvg/sg12_148_cif.got.tgz:295836.got - 2010.06.11 11:47:21.
