data_PCOD9225212
_publ_section_title
;
Structure prediction by ZEFSAII (Michael W. Deem and Ramdas Pophale) SiO2 
 PCOD9225212
Probable space group: C 2/M
;
_chemical_formula_sum "Si O2"
_cell_formula_units_Z 20
_cell_length_a 21.000000
_cell_length_b 9.000000
_cell_length_c 30.000000
_cell_angle_alpha 90.000000
_cell_angle_beta 20.000000
_cell_angle_gamma 90.000000
_cell_volume 1939.254213
_symmetry_space_group_name_H-M "C 2/M"
_symmetry_group_IT_number 12
_symmetry_cell_setting 'monoclinic'
loop_
_space_group_symop_operation_xyz
x,y,z
-x,y,-z
-x,-y,-z
x,-y,z
1/2+x,1/2+y,z
1/2-x,1/2+y,-z
1/2-x,1/2-y,-z
1/2+x,1/2-y,z
loop_
_atom_site_type_symbol
_atom_site_label
_atom_site_fract_x
_atom_site_fract_y
_atom_site_fract_z
Si Si1 0.705520 0.677757 0.877688
Si Si2 0.906908 0.671720 0.609382
Si Si3 0.172008 0.166723 0.114459
Si Si4 0.584365 0.178442 0.580508
Si Si5 0.554019 0.167730 0.806903
O O1 0.694872 0.500000 0.882630
O O2 0.770089 0.727563 0.883702
O O3 0.878719 0.723405 0.733114
O O4 0.500000 0.736612 0.000000
O O5 0.855998 0.500000 0.653733
O O6 0.717407 0.765104 0.729848
O O7 0.000000 0.676218 0.500000
O O8 0.062238 0.719065 0.543116
O O9 0.998932 0.228951 0.200097
O O10 0.130213 0.000000 0.157846
O O11 0.358221 0.160496 0.961947
O O12 0.750000 0.250000 0.500000
O O13 0.604714 0.000000 0.571143
O O14 0.603460 0.000000 0.760665
#
# Coordination Sequence:
#
# PCOD9225212 Si02
#       5
#     8   8   8   8   8
#     4  10  21  38  61  87 119 159 204 251 305 363
#     4  10  22  40  62  87 118 158 204 247 297 357
#     4  10  21  36  58  87 119 155 196 247 302 358
#     4  10  23  41  61  89 125 164 201 248 306 364
#     4  10  21  37  58  87 120 153 195 246 303 358
#
# _framework density 10.313243
#
# number of rings (size 3 to 8) (size 9 to 14) (size 15 to 20)
#    0.000    2.000    0.000    2.400    2.800    6.400 
#    0.000    0.000    0.000    0.000    0.000    0.000 
#    0.000    0.000    0.000    0.000    0.000    0.000 
#
# Total GULP energy -111590.966150 kJ/mol
# GULP energy per Si atom -5579.548308 kJ/mol
# Density = 1.028977 g / cm^3
# Si number density = 10.313243 Si / 1000 Ang^3
#
#
#
# Elastic Constant Matrix: (Units=GPa)
#
#
# Indices 1 2 3 4 5 6 
#
# 1 140.0005 7.7915 60.4560 -0.0010 -39.4892 0.0008
# 2 7.7915 16.2520 47.2639 0.0029 -22.6324 0.0016
# 3 60.4560 47.2639 68.6115 0.0244 -24.7253 -0.0003
# 4 -0.0010 0.0029 0.0244 24.9133 0.0171 -8.9621
# 5 -39.4892 -22.6324 -24.7253 0.0171 35.5752 -0.0041
# 6 0.0008 0.0016 -0.0003 -8.9621 -0.0041 27.3759
#
#
#
# Elastic Compliance Matrix: (Units=1/GPa)
#
#
# Indices 1 2 3 4 5 6 
#
# 1 0.006422 -0.013801 0.004340 -0.000003 0.001365 0.000000
# 2 -0.013801 -0.027540 0.025746 -0.000014 -0.014946 -0.000004
# 3 0.004340 0.025746 0.000872 -0.000020 0.021803 -0.000005
# 4 -0.000003 -0.000014 -0.000020 0.045497 -0.000047 0.014895
# 5 0.001365 -0.014946 0.021803 -0.000047 0.035270 -0.000009
# 6 0.000000 -0.000004 -0.000005 0.014895 -0.000009 0.041405
#
#
# Mechanical properties :
#
#
# Convention : Reuss Voigt Hill
#
# Bulk Modulus (GPa) = 81.14149 50.65409 65.89779
# Shear Modulus (GPa) = 68.06270 24.86305 46.46287
#
# Velocity S-wave (km/s) = 5.75060 3.47565 4.75129
# Velocity P-wave (km/s) = 9.13873 6.38106 7.88144
#
# Compressibility (1/GPa) = 0.01232415
#
# Stress axis : x y z
#
# Youngs Moduli (GPa) = 155.72582 -36.31020 1146.64467
#
# Poissons Ratio (x) = -0.50111 -4.97699
# Poissons Ratio (y) = 2.14915 -29.52134
# Poissons Ratio (z) = -0.67592 0.93484
#
# Static dielectric constant tensor:
#      x y z
#    x 3.647640 -0.000230 3.691680 
#    y -0.000230 1.737820 -0.000440 
#    z 3.691680 -0.000440 8.720990 
# 
# From -- ./inp_files/229644.got.cif
#   From: 2010.05.17/outbox.ucp.g08.bks.cvg/sg12_115_cif.got.tgz:229644.got - 2010.06.11 11:47:21.
