data_PCOD9225869
_publ_section_title
;
Structure prediction by ZEFSAII (Michael W. Deem and Ramdas Pophale) SiO2 
 PCOD9225869
Probable space group: C 2/M
;
_chemical_formula_sum "Si O2"
_cell_formula_units_Z 32
_cell_length_a 15.000000
_cell_length_b 18.000000
_cell_length_c 24.000000
_cell_angle_alpha 90.000000
_cell_angle_beta 30.000000
_cell_angle_gamma 90.000000
_cell_volume 3240.000000
_symmetry_space_group_name_H-M "C 2/M"
_symmetry_group_IT_number 12
_symmetry_cell_setting 'monoclinic'
loop_
_space_group_symop_operation_xyz
x,y,z
-x,y,-z
-x,-y,-z
x,-y,z
1/2+x,1/2+y,z
1/2-x,1/2+y,-z
1/2-x,1/2-y,-z
1/2+x,1/2-y,z
loop_
_atom_site_type_symbol
_atom_site_label
_atom_site_fract_x
_atom_site_fract_y
_atom_site_fract_z
Si Si1 0.033409 0.127342 0.259077
Si Si2 0.700033 0.678050 0.367399
Si Si3 0.038930 0.298863 0.258994
Si Si4 0.225138 0.811501 0.762438
Si Si5 0.705833 0.914505 0.784478
Si Si6 0.192938 0.585086 0.379468
Si Si7 0.682439 0.688208 0.992168
Si Si8 0.809049 0.411873 0.013869
O O1 0.995385 0.212730 0.289742
O O2 0.139554 0.098429 0.254733
O O3 0.174593 0.120891 0.132171
O O4 0.845583 0.091622 0.343770
O O5 0.500000 0.684752 0.500000
O O6 0.740621 0.744092 0.300190
O O7 0.726605 0.608936 0.312287
O O8 0.855210 0.671887 0.330442
O O9 0.121987 0.321925 0.273631
O O10 0.199470 0.306109 0.127143
O O11 0.226182 0.879626 0.719594
O O12 0.031044 0.803954 0.896167
O O13 0.664410 0.000000 0.805530
O O14 0.512575 0.880953 0.906942
O O15 0.159113 0.500000 0.385734
O O16 0.000000 0.619730 0.500000
O O17 0.733737 0.611105 0.994599
O O18 0.750000 0.750000 0.000000
O O19 0.804683 0.500000 0.025338
#
# Coordination Sequence:
#
# PCOD9225869 Si02
#       8
#     8   8   8   8   8   8   8   8
#     4  12  22  38  68  95 127 159 205 260 312 371
#     4  12  25  43  64  90 124 168 212 254 304 365
#     4  12  25  40  65  99 125 161 207 254 310 375
#     4  12  24  41  65  93 128 161 206 256 310 368
#     4  11  24  41  63  94 128 160 203 260 314 366
#     4  11  24  43  65  91 125 165 213 262 306 358
#     4  12  20  39  64  90 126 163 200 247 312 373
#     4  11  21  36  64  94 126 160 200 254 311 369
#
# _framework density 9.8765429999999999
#
# number of rings (size 3 to 8) (size 9 to 14) (size 15 to 20)
#    0.000    0.375    7.500    2.250    0.000    3.750 
#    0.000    1.250    0.000    1.500    0.000    0.000 
#    0.000    0.000    0.000    0.000    0.000    0.000 
#
# Total GULP energy -178511.704314 kJ/mol
# GULP energy per Si atom -5578.490760 kJ/mol
# Density = 0.985406 g / cm^3
# Si number density = 9.876543 Si / 1000 Ang^3
#
#
#
# Elastic Constant Matrix: (Units=GPa)
#
#
# Indices 1 2 3 4 5 6 
#
# 1 126.2261 7.1197 32.6398 -0.0004 -24.2834 -0.0010
# 2 7.1197 32.5599 -1.0047 -0.0026 -5.7794 -0.0006
# 3 32.6398 -1.0047 116.4591 0.0027 -38.4694 -0.0036
# 4 -0.0004 -0.0026 0.0027 19.8195 -0.0010 -0.6321
# 5 -24.2834 -5.7794 -38.4694 -0.0010 25.4300 -0.0004
# 6 -0.0010 -0.0006 -0.0036 -0.6321 -0.0004 25.6946
#
#
#
# Elastic Compliance Matrix: (Units=1/GPa)
#
#
# Indices 1 2 3 4 5 6 
#
# 1 0.009735 -0.000301 0.000634 0.000001 0.010187 0.000001
# 2 -0.000301 0.033775 0.005629 0.000005 0.015904 0.000002
# 3 0.000634 0.005629 0.018150 0.000000 0.029340 0.000003
# 4 0.000001 0.000005 0.000000 0.050495 0.000003 0.001242
# 5 0.010187 0.015904 0.029340 0.000003 0.097050 0.000006
# 6 0.000001 0.000002 0.000003 0.001242 0.000006 0.038949
#
#
# Mechanical properties :
#
#
# Convention : Reuss Voigt Hill
#
# Bulk Modulus (GPa) = 13.58990 39.19496 26.39243
# Shear Modulus (GPa) = 19.17485 29.95484 24.56485
#
# Velocity S-wave (km/s) = 3.11903 3.89840 3.53029
# Velocity P-wave (km/s) = 4.45712 6.33632 5.47790
#
# Compressibility (1/GPa) = 0.07358408
#
# Stress axis : x y z
#
# Youngs Moduli (GPa) = 102.72149 29.60753 55.09785
#
# Poissons Ratio (x) = 0.00891 -0.03492
# Poissons Ratio (y) = 0.03092 -0.31016
# Poissons Ratio (z) = -0.06511 -0.16667
#
# Static dielectric constant tensor:
#      x y z
#    x 1.682920 0.000000 -0.031700 
#    y 0.000000 1.758100 0.000000 
#    z -0.031700 0.000000 1.736860 
# 
# From -- ./inp_files/216788.got.cif
#   From: 2010.05.17/outbox.ucp.g08.bks.cvg/sg12_109_cif.got.tgz:216788.got - 2010.06.11 11:47:21.
