data_PCOD9225994
_publ_section_title
;
Structure prediction by ZEFSAII (Michael W. Deem and Ramdas Pophale) SiO2 
 PCOD9225994
Probable space group: P 2/C
;
_chemical_formula_sum "Si O2"
_cell_formula_units_Z 26
_cell_length_a 34.907865
_cell_length_b 6.714857
_cell_length_c 5.204768
_cell_angle_alpha 90.000000
_cell_angle_beta 71.904303
_cell_angle_gamma 90.000000
_cell_volume 1159.661930
_symmetry_space_group_name_H-M "P 2/C"
_symmetry_group_IT_number 13
_symmetry_cell_setting 'monoclinic'
loop_
_space_group_symop_operation_xyz
x,y,z
-x,y,1/2-z
-x,-y,-z
x,-y,1/2+z
loop_
_atom_site_type_symbol
_atom_site_label
_atom_site_fract_x
_atom_site_fract_y
_atom_site_fract_z
Si Si1 0.286579 0.269844 0.313138
Si Si2 0.457619 0.363592 0.894130
Si Si3 0.372799 0.633119 0.457178
Si Si4 0.254557 0.726664 0.379790
Si Si5 0.833502 0.372335 0.516056
Si Si6 0.000000 0.858192 0.750000
Si Si7 0.914588 0.869534 0.851401
O O1 0.331106 0.259439 0.105047
O O2 0.270795 0.498837 0.386796
O O3 0.284685 0.189111 0.604196
O O4 0.256138 0.189528 0.162748
O O5 0.500000 0.255646 0.750000
O O6 0.457644 0.543172 0.680232
O O7 0.415074 0.257643 0.927430
O O8 0.372659 0.453014 0.668970
O O9 0.209585 0.733626 0.364933
O O10 0.833802 0.546472 0.725723
O O11 0.873495 0.247090 0.478921
O O12 0.956561 0.752160 0.821329
O O13 0.000000 0.000000 0.500000
O O14 0.914978 0.952517 0.560227
#
# Coordination Sequence:
#
# PCOD9225994 Si02
#       7
#     4   4   4   4   4   2   4
#     4  10  14  23  34  51  75 102 139 165 216 261
#     4   8  14  20  24  33  49  71 106 153 208 243
#     4  10  14  18  29  40  55  84 118 161 200 251
#     4  10  16  25  37  55  83 109 135 170 217 268
#     4  12  21  33  51  77 103 131 159 197 246 291
#     4   8  16  34  58  74  94 130 168 194 228 282
#     4  10  21  38  57  78 101 132 167 200 235 285
#
# _framework density 22.420327
#
# number of rings (size 3 to 8) (size 9 to 14) (size 15 to 20)
#    0.000    2.154    6.154    0.923    0.000    0.000 
#    0.000    0.769    0.000    0.000    0.000    0.000 
#    0.000    0.000    0.000    0.000    0.000    0.000 
#
# Total GULP energy -144834.259147 kJ/mol
# GULP energy per Si atom -5570.548429 kJ/mol
# Density = 2.236930 g / cm^3
# Si number density = 22.420327 Si / 1000 Ang^3
#
#
#
# Elastic Constant Matrix: (Units=GPa)
#
#
# Indices 1 2 3 4 5 6 
#
# 1 174.8840 -2.1716 -2.8354 0.0000 -23.1236 0.0000
# 2 -2.1716 26.0921 -13.4903 0.0000 -1.5618 0.0000
# 3 -2.8354 -13.4903 104.6549 0.0000 16.3046 0.0000
# 4 0.0000 0.0000 0.0000 -24.0241 0.0000 -6.7326
# 5 -23.1236 -1.5618 16.3046 0.0000 45.6414 0.0000
# 6 0.0000 0.0000 0.0000 -6.7326 0.0000 5.9176
#
#
#
# Elastic Compliance Matrix: (Units=1/GPa)
#
#
# Indices 1 2 3 4 5 6 
#
# 1 0.006148 0.000569 -0.000263 0.000000 0.003228 0.000000
# 2 0.000569 0.041126 0.005350 0.000000 -0.000216 0.000000
# 3 -0.000263 0.005350 0.010833 0.000000 -0.003820 0.000000
# 4 0.000000 0.000000 0.000000 -0.031562 0.000000 -0.035908
# 5 0.003228 -0.000216 -0.003820 0.000000 0.024903 0.000000
# 6 0.000000 0.000000 0.000000 -0.035908 0.000000 0.128134
#
#
# Mechanical properties :
#
#
# Convention : Reuss Voigt Hill
#
# Bulk Modulus (GPa) = 14.40520 29.84850 22.12685
# Shear Modulus (GPa) = 26.12204 27.11552 26.61878
#
# Velocity S-wave (km/s) = 3.41707 3.48144 3.44940
# Velocity P-wave (km/s) = 4.69121 5.43163 5.07494
#
# Compressibility (1/GPa) = 0.06941939
#
# Stress axis : x y z
#
# Youngs Moduli (GPa) = 162.66245 24.31528 92.31139
#
# Poissons Ratio (x) = -0.01383 0.02428
# Poissons Ratio (y) = -0.09254 -0.49390
# Poissons Ratio (z) = 0.04278 -0.13009
#
# Static dielectric constant tensor:
#      x y z
#    x 1.916330 0.000000 -0.028550 
#    y 0.000000 2.084360 0.000000 
#    z -0.028550 0.000000 1.867090 
# 
# From -- ./inp_files/8000.got.cif
#   From: 2010.05.17/outbox.cif.g08.bks.cpg/sg13_4_cif.got.tgz:8000.got - 2010.06.03 16:44:36.
