data_PCOD9225038
_publ_section_title
;
Structure prediction by ZEFSAII (Michael W. Deem and Ramdas Pophale) SiO2 
 PCOD9225038
Probable space group: C 2/M
;
_chemical_formula_sum "Si O2"
_cell_formula_units_Z 28
_cell_length_a 15.000000
_cell_length_b 9.000000
_cell_length_c 24.000000
_cell_angle_alpha 90.000000
_cell_angle_beta 120.000000
_cell_angle_gamma 90.000000
_cell_volume 2805.922308
_symmetry_space_group_name_H-M "C 2/M"
_symmetry_group_IT_number 12
_symmetry_cell_setting 'monoclinic'
loop_
_space_group_symop_operation_xyz
x,y,z
-x,y,-z
-x,-y,-z
x,-y,z
1/2+x,1/2+y,z
1/2-x,1/2+y,-z
1/2-x,1/2-y,-z
1/2+x,1/2-y,z
loop_
_atom_site_type_symbol
_atom_site_label
_atom_site_fract_x
_atom_site_fract_y
_atom_site_fract_z
Si Si1 0.091371 0.176843 0.788041
Si Si2 0.497679 0.325939 0.124798
Si Si3 0.493030 0.167310 0.660892
Si Si4 0.830409 0.174955 0.983102
Si Si5 0.416194 0.179330 0.426658
Si Si6 0.745950 0.167205 0.440220
Si Si7 0.814397 0.323661 0.858275
O O1 0.203019 0.226857 0.803096
O O2 0.074707 0.219393 0.846836
O O3 0.009005 0.241110 0.721197
O O4 0.088450 0.000000 0.785246
O O5 0.522887 0.500000 0.138777
O O6 0.598424 0.228888 0.155732
O O7 0.438882 0.308582 0.048363
O O8 0.548643 0.230409 0.623341
O O9 0.373234 0.159595 0.611232
O O10 0.532481 0.000000 0.682252
O O11 0.830803 0.251310 0.923711
O O12 0.808252 0.000000 0.970850
O O13 0.750000 0.250000 0.000000
O O14 0.500000 0.220714 0.500000
O O15 0.309783 0.246074 0.413890
O O16 0.412470 0.000000 0.424609
O O17 0.750000 0.250000 0.500000
O O18 0.787338 0.000000 0.458560
O O19 0.815270 0.500000 0.865221
#
# Coordination Sequence:
#
# PCOD9225038 Si02
#       7
#     8   8   8   8   8   8   8
#     4  10  23  43  61  82 121 162 200 247 296 353
#     4  10  22  41  61  86 121 160 200 246 301 355
#     4  10  23  41  61  87 121 157 198 245 295 354
#     4  11  21  37  62  90 122 157 199 251 303 354
#     4  10  20  39  62  87 122 156 190 240 297 351
#     4  11  22  38  61  91 122 153 194 242 294 353
#     4  11  23  40  61  90 122 156 202 251 299 355
#
# _framework density 9.9788940000000004
#
# number of rings (size 3 to 8) (size 9 to 14) (size 15 to 20)
#    0.000    1.571    2.857    1.714    0.000    7.714 
#    0.000    5.714    0.000    0.000    0.000    0.000 
#    0.000    0.000    0.000    0.000    0.000    0.000 
#
# Total GULP energy -156214.743351 kJ/mol
# GULP energy per Si atom -5579.097977 kJ/mol
# Density = 0.995618 g / cm^3
# Si number density = 9.978894 Si / 1000 Ang^3
#
#
#
# Elastic Constant Matrix: (Units=GPa)
#
#
# Indices 1 2 3 4 5 6 
#
# 1 59.9672 25.1916 -0.7024 0.0000 7.8575 0.0000
# 2 25.1916 -33.3593 13.6327 0.0000 27.6110 0.0000
# 3 -0.7024 13.6327 47.8853 0.0000 7.0123 0.0000
# 4 0.0000 0.0000 0.0000 4.2589 0.0000 10.4556
# 5 7.8575 27.6110 7.0123 0.0000 7.9181 0.0000
# 6 0.0000 0.0000 0.0000 10.4556 0.0000 23.3897
#
#
#
# Elastic Compliance Matrix: (Units=1/GPa)
#
#
# Indices 1 2 3 4 5 6 
#
# 1 0.019648 -0.000623 0.003450 0.000000 -0.020383 0.000000
# 2 -0.000623 -0.007530 -0.002069 0.000000 0.028709 0.000000
# 3 0.003450 -0.002069 0.024092 0.000000 -0.017543 0.000000
# 4 0.000000 0.000000 0.000000 -2.410147 0.000000 1.077381
# 5 -0.020383 0.028709 -0.017543 0.000000 0.061945 0.000000
# 6 0.000000 0.000000 0.000000 1.077381 0.000000 -0.438855
#
#
# Mechanical properties :
#
#
# Convention : Reuss Voigt Hill
#
# Bulk Modulus (GPa) = 26.50647 16.74857 21.62752
# Shear Modulus (GPa) = -1.82496 9.53809 3.85657
#
# Velocity S-wave (km/s) = -0.95728 2.18849 1.39160
# Velocity P-wave (km/s) = 3.47681 3.84659 3.66637
#
# Compressibility (1/GPa) = 0.03772664
#
# Stress axis : x y z
#
# Youngs Moduli (GPa) = 50.89458 -132.79714 41.50746
#
# Poissons Ratio (x) = -0.08268 -0.14321
# Poissons Ratio (y) = 0.03169 0.08590
# Poissons Ratio (z) = -0.17560 -0.27482
#
# Static dielectric constant tensor:
#      x y z
#    x 1.712050 0.000000 0.029900 
#    y 0.000000 1.643050 0.000000 
#    z 0.029900 0.000000 1.680800 
# 
# From -- ./inp_files/338474.got.cif
#   From: 2010.05.17/outbox.ucp.g08.bks.cvg/sg12_170_cif.got.tgz:338474.got - 2010.06.11 11:47:21.
