data_PCOD9225935
_publ_section_title
;
Structure prediction by ZEFSAII (Michael W. Deem and Ramdas Pophale) SiO2 
 PCOD9225935
Probable space group: C 2/M
;
_chemical_formula_sum "Si O2"
_cell_formula_units_Z 20
_cell_length_a 30.000000
_cell_length_b 9.000000
_cell_length_c 21.000000
_cell_angle_alpha 90.000000
_cell_angle_beta 20.000000
_cell_angle_gamma 90.000000
_cell_volume 1939.254213
_symmetry_space_group_name_H-M "C 2/M"
_symmetry_group_IT_number 12
_symmetry_cell_setting 'monoclinic'
loop_
_space_group_symop_operation_xyz
x,y,z
-x,y,-z
-x,-y,-z
x,-y,z
1/2+x,1/2+y,z
1/2-x,1/2+y,-z
1/2-x,1/2-y,-z
1/2+x,1/2-y,z
loop_
_atom_site_type_symbol
_atom_site_label
_atom_site_fract_x
_atom_site_fract_y
_atom_site_fract_z
Si Si1 0.092181 0.177432 0.813566
Si Si2 0.639134 0.830500 0.105003
Si Si3 0.892699 0.325399 0.588253
Si Si4 0.130793 0.328057 0.967885
Si Si5 0.130717 0.823612 0.513507
O O1 0.235408 0.245891 0.639922
O O2 0.009370 0.264214 0.869246
O O3 0.106096 0.000000 0.780519
O O4 0.000000 0.191482 0.000000
O O5 0.670824 0.844132 0.988164
O O6 0.502317 0.743282 0.279851
O O7 0.620941 0.000000 0.154487
O O8 0.750000 0.750000 0.000000
O O9 0.910139 0.500000 0.549379
O O10 0.905117 0.216627 0.511612
O O11 0.000000 0.292655 0.500000
O O12 0.739266 0.295155 0.805207
O O13 0.142747 0.500000 0.925569
O O14 0.142852 0.000000 0.506312
#
# Coordination Sequence:
#
# PCOD9225935 Si02
#       5
#     8   8   8   8   8
#     4  11  23  41  67  96 129 168 213 265 322 381
#     4  11  25  45  67  95 133 172 215 264 320 382
#     4  11  23  39  62  92 126 166 213 265 319 378
#     4  11  24  41  65  95 127 167 213 264 320 380
#     4  12  25  41  66  95 128 170 215 264 320 379
#
# _framework density 10.313243
#
# number of rings (size 3 to 8) (size 9 to 14) (size 15 to 20)
#    0.000    0.800    2.000    5.400    0.000    9.600 
#    0.000    0.000    0.000    0.000    0.000    0.000 
#    0.000    0.000    0.000    0.000    0.000    0.000 
#
# Total GULP energy -111342.734818 kJ/mol
# GULP energy per Si atom -5567.136741 kJ/mol
# Density = 1.028977 g / cm^3
# Si number density = 10.313243 Si / 1000 Ang^3
#
#
#
# Elastic Constant Matrix: (Units=GPa)
#
#
# Indices 1 2 3 4 5 6 
#
# 1 106.5915 32.9210 7.1831 -0.0002 -42.5556 0.0001
# 2 32.9210 160.8576 28.6373 -0.0005 -26.3332 0.0002
# 3 7.1831 28.6373 57.9891 -0.0007 -37.1830 0.0003
# 4 -0.0002 -0.0005 -0.0007 49.0204 0.0003 -32.1656
# 5 -42.5556 -26.3332 -37.1830 0.0003 50.2276 -0.0001
# 6 0.0001 0.0002 0.0003 -32.1656 -0.0001 54.1852
#
#
#
# Elastic Compliance Matrix: (Units=1/GPa)
#
#
# Indices 1 2 3 4 5 6 
#
# 1 0.020451 -0.002538 0.017089 0.000000 0.028648 0.000000
# 2 -0.002538 0.007245 -0.004201 0.000000 -0.001462 0.000000
# 3 0.017089 -0.004201 0.047731 0.000001 0.047611 0.000000
# 4 0.000000 0.000000 0.000001 0.033416 0.000000 0.019836
# 5 0.028648 -0.001462 0.047611 0.000000 0.078661 0.000000
# 6 0.000000 0.000000 0.000000 0.019836 0.000000 0.030230
#
#
# Mechanical properties :
#
#
# Convention : Reuss Voigt Hill
#
# Bulk Modulus (GPa) = 10.40289 51.43566 30.91928
# Shear Modulus (GPa) = 21.82690 47.79978 34.81334
#
# Velocity S-wave (km/s) = 3.25652 4.81916 4.11274
# Velocity P-wave (km/s) = 4.38114 7.48041 6.12988
#
# Compressibility (1/GPa) = 0.09612710
#
# Stress axis : x y z
#
# Youngs Moduli (GPa) = 48.89708 138.03301 20.95082
#
# Poissons Ratio (x) = 0.35035 -0.35803
# Poissons Ratio (y) = 0.12411 0.08801
# Poissons Ratio (z) = -0.83561 0.57984
#
# Static dielectric constant tensor:
#      x y z
#    x 1.816790 0.000000 0.262460 
#    y 0.000000 1.779650 0.000000 
#    z 0.262460 0.000000 2.092360 
# 
# From -- ./inp_files/151626.got.cif
#   From: 2010.05.17/outbox.ucp.g08.bks.cvg/sg12_76_cif.got.tgz:151626.got - 2010.06.11 11:47:21.
