data_PCOD9225652
_publ_section_title
;
Structure prediction by ZEFSAII (Michael W. Deem and Ramdas Pophale) SiO2 
 PCOD9225652
Probable space group: C 2/M
;
_chemical_formula_sum "Si O2"
_cell_formula_units_Z 32
_cell_length_a 18.000000
_cell_length_b 15.000000
_cell_length_c 15.000000
_cell_angle_alpha 90.000000
_cell_angle_beta 130.000000
_cell_angle_gamma 90.000000
_cell_volume 3102.479995
_symmetry_space_group_name_H-M "C 2/M"
_symmetry_group_IT_number 12
_symmetry_cell_setting 'monoclinic'
loop_
_space_group_symop_operation_xyz
x,y,z
-x,y,-z
-x,-y,-z
x,-y,z
1/2+x,1/2+y,z
1/2-x,1/2+y,-z
1/2-x,1/2-y,-z
1/2+x,1/2-y,z
loop_
_atom_site_type_symbol
_atom_site_label
_atom_site_fract_x
_atom_site_fract_y
_atom_site_fract_z
Si Si1 0.723158 0.607206 0.354474
Si Si2 0.050656 0.607811 0.445652
Si Si3 0.690536 0.691655 0.024425
Si Si4 0.033236 0.395716 0.128213
Si Si5 0.492864 0.393815 0.222754
Si Si6 0.913908 0.107283 0.362111
Si Si7 0.785637 0.721110 0.772762
Si Si8 0.895514 0.394052 0.181830
O O1 0.724454 0.500000 0.333870
O O2 0.833062 0.624605 0.481706
O O3 0.611286 0.623159 0.306967
O O4 0.727723 0.682369 0.282359
O O5 0.045182 0.500000 0.441642
O O6 0.000000 0.637179 0.500000
O O7 0.974668 0.642909 0.313241
O O8 0.676499 0.752379 0.100185
O O9 0.782067 0.624794 0.114683
O O10 0.750000 0.750000 0.000000
O O11 0.588837 0.652832 0.905655
O O12 0.056851 0.500000 0.166330
O O13 0.129917 0.335826 0.210953
O O14 0.944256 0.368176 0.124352
O O15 0.000000 0.391811 0.000000
O O16 0.483104 0.500000 0.198528
O O17 0.455943 0.375795 0.295121
O O18 0.815389 0.164899 0.300960
O O19 0.000000 0.126075 0.500000
O O20 0.891894 0.000000 0.351480
O O21 0.902367 0.500000 0.190010
#
# Coordination Sequence:
#
# PCOD9225652 Si02
#       8
#     8   8   8   8   8   8   8   8
#     4  10  24  43  65  96 135 181 221 271 332 392
#     4   9  18  38  65  93 127 166 216 274 325 383
#     4  12  24  39  62  96 130 171 216 271 326 401
#     4  10  23  41  62  91 126 164 209 270 335 394
#     4  10  23  45  68  93 135 181 224 274 335 404
#     4  10  23  45  71  98 129 173 227 278 335 404
#     4  12  25  39  67  94 132 172 218 277 325 397
#     4  10  22  40  66  93 123 166 218 274 335 397
#
# _framework density 10.314329000000001
#
# number of rings (size 3 to 8) (size 9 to 14) (size 15 to 20)
#    0.000    1.625    1.250    2.250    3.500    4.500 
#    0.000    6.250    0.000    0.000    0.000    0.000 
#    0.000    0.000    0.000    0.000    0.000    0.000 
#
# Total GULP energy -178287.317001 kJ/mol
# GULP energy per Si atom -5571.478656 kJ/mol
# Density = 1.029085 g / cm^3
# Si number density = 10.314329 Si / 1000 Ang^3
#
#
#
# Elastic Constant Matrix: (Units=GPa)
#
#
# Indices 1 2 3 4 5 6 
#
# 1 118.7897 30.4806 40.5479 0.0000 29.9119 0.0000
# 2 30.4806 79.8258 31.4839 0.0000 4.6896 0.0000
# 3 40.5479 31.4839 127.1831 0.0000 21.7932 0.0000
# 4 0.0000 0.0000 0.0000 30.5173 0.0000 8.7854
# 5 29.9119 4.6896 21.7932 0.0000 46.0006 0.0000
# 6 0.0000 0.0000 0.0000 8.7854 0.0000 37.6513
#
#
#
# Elastic Compliance Matrix: (Units=1/GPa)
#
#
# Indices 1 2 3 4 5 6 
#
# 1 0.011446 -0.003310 -0.001755 0.000000 -0.006274 0.000000
# 2 -0.003310 0.014842 -0.002969 0.000000 0.002046 0.000000
# 3 -0.001755 -0.002969 0.009697 0.000000 -0.003150 0.000000
# 4 0.000000 0.000000 0.000000 0.035128 0.000000 -0.008197
# 5 -0.006274 0.002046 -0.003150 0.000000 0.027103 0.000000
# 6 0.000000 0.000000 0.000000 -0.008197 0.000000 0.028472
#
#
# Mechanical properties :
#
#
# Convention : Reuss Voigt Hill
#
# Bulk Modulus (GPa) = 50.20810 58.98038 54.59424
# Shear Modulus (GPa) = 33.46817 37.71961 35.59389
#
# Velocity S-wave (km/s) = 4.03229 4.28074 4.15837
# Velocity P-wave (km/s) = 6.78756 7.28605 7.04122
#
# Compressibility (1/GPa) = 0.01991711
#
# Stress axis : x y z
#
# Youngs Moduli (GPa) = 87.36343 67.37579 103.12439
#
# Poissons Ratio (x) = 0.22301 0.18096
# Poissons Ratio (y) = 0.28917 0.30622
# Poissons Ratio (z) = 0.15331 0.20007
#
# Static dielectric constant tensor:
#      x y z
#    x 1.749520 0.000000 -0.019300 
#    y 0.000000 1.818610 0.000000 
#    z -0.019300 0.000000 1.827940 
# 
# From -- ./inp_files/225720.got.cif
#   From: 2010.05.17/outbox.ucp.g08.bks.cvg/sg12_113_cif.got.tgz:225720.got - 2010.06.11 11:47:21.
