data_PCOD9225775
_publ_section_title
;
Structure prediction by ZEFSAII (Michael W. Deem and Ramdas Pophale) SiO2 
 PCOD9225775
Probable space group: C 2/M
;
_chemical_formula_sum "Si O2"
_cell_formula_units_Z 22
_cell_length_a 21.000000
_cell_length_b 18.000000
_cell_length_c 18.000000
_cell_angle_alpha 90.000000
_cell_angle_beta 160.000000
_cell_angle_gamma 90.000000
_cell_volume 2327.105055
_symmetry_space_group_name_H-M "C 2/M"
_symmetry_group_IT_number 12
_symmetry_cell_setting 'monoclinic'
loop_
_space_group_symop_operation_xyz
x,y,z
-x,y,-z
-x,-y,-z
x,-y,z
1/2+x,1/2+y,z
1/2-x,1/2+y,-z
1/2-x,1/2-y,-z
1/2+x,1/2-y,z
loop_
_atom_site_type_symbol
_atom_site_label
_atom_site_fract_x
_atom_site_fract_y
_atom_site_fract_z
Si Si1 0.841869 0.086187 0.105871
Si Si2 0.442272 0.088675 0.594923
Si Si3 0.694627 0.583768 0.757216
Si Si4 0.373773 0.685864 0.671628
Si Si5 0.368376 0.760075 0.924711
Si Si6 0.500000 0.162883 0.500000
O O1 0.841279 0.089747 0.194143
O O2 0.004771 0.137098 0.252073
O O3 0.872682 0.000000 0.117379
O O4 0.636827 0.107518 0.850301
O O5 0.268134 0.132611 0.439035
O O6 0.466264 0.113390 0.535929
O O7 0.414687 0.000000 0.570751
O O8 0.500000 0.591429 0.500000
O O9 0.767509 0.500000 0.822168
O O10 0.826682 0.652211 0.882040
O O11 0.250000 0.750000 0.500000
O O12 0.522683 0.728162 0.885784
O O13 0.176300 0.715887 0.706269
O O14 0.500000 0.743735 0.000000
#
# Coordination Sequence:
#
# PCOD9225775 Si02
#       6
#     8   8   8   8   8   4
#     4  10  23  44  66  92 130 173 214 266 323 382
#     4  11  24  44  67  96 133 174 217 263 321 389
#     4  10  23  43  67  92 124 170 218 267 326 383
#     4  12  26  40  66 101 129 170 217 266 324 385
#     4  12  25  42  66  98 132 169 214 270 325 383
#     4  12  23  44  67  98 132 172 220 262 319 388
#
# _framework density 9.4538060000000002
#
# number of rings (size 3 to 8) (size 9 to 14) (size 15 to 20)
#    0.000    0.909    4.545    1.909    5.091    1.818 
#    0.000    1.818    0.000    0.000    0.000    0.000 
#    0.000    0.000    0.000    0.000    0.000    0.000 
#
# Total GULP energy -122966.396100 kJ/mol
# GULP energy per Si atom -5589.381641 kJ/mol
# Density = 0.943229 g / cm^3
# Si number density = 9.453806 Si / 1000 Ang^3
#
#
#
# Elastic Constant Matrix: (Units=GPa)
#
#
# Indices 1 2 3 4 5 6 
#
# 1 38.9828 15.7756 45.0915 -0.0040 -12.2527 0.0036
# 2 15.7756 94.9265 62.2200 -0.0120 2.8820 -0.0046
# 3 45.0915 62.2200 153.0945 -0.0027 -8.3505 -0.0034
# 4 -0.0040 -0.0120 -0.0027 -10.6617 0.0025 2.3591
# 5 -12.2527 2.8820 -8.3505 0.0025 34.8113 0.0002
# 6 0.0036 -0.0046 -0.0034 2.3591 0.0002 32.2542
#
#
#
# Elastic Compliance Matrix: (Units=1/GPa)
#
#
# Indices 1 2 3 4 5 6 
#
# 1 0.043665 0.000485 -0.012384 -0.000012 0.012358 -0.000005
# 2 0.000485 0.014605 -0.006217 -0.000015 -0.002530 0.000003
# 3 -0.012384 -0.006217 0.012662 0.000008 -0.000807 0.000001
# 4 -0.000012 -0.000015 0.000008 -0.092300 0.000006 0.006751
# 5 0.012358 -0.002530 -0.000807 0.000006 0.033092 -0.000002
# 6 -0.000005 0.000003 0.000001 0.006751 -0.000002 0.030510
#
#
# Mechanical properties :
#
#
# Convention : Reuss Voigt Hill
#
# Bulk Modulus (GPa) = 28.81730 59.24200 44.02965
# Shear Modulus (GPa) = 55.53608 22.20854 38.87231
#
# Velocity S-wave (km/s) = 5.42550 3.43094 4.53913
# Velocity P-wave (km/s) = 7.38392 6.86261 7.12804
#
# Compressibility (1/GPa) = 0.03470138
#
# Stress axis : x y z
#
# Youngs Moduli (GPa) = 22.90181 68.46764 78.97650
#
# Poissons Ratio (x) = -0.03323 0.97804
# Poissons Ratio (y) = -0.01112 0.49098
# Poissons Ratio (z) = 0.28361 0.42565
#
# Static dielectric constant tensor:
#      x y z
#    x 1.654850 0.000000 -0.000380 
#    y 0.000000 1.644890 0.000000 
#    z -0.000380 0.000000 1.590490 
# 
# From -- ./inp_files/61202.got.cif
#   From: 2010.05.17/outbox.ucp.g08.bks.cvg/sg12_31_cif.got.tgz:61202.got - 2010.06.11 11:47:21.
