data_PCOD9225848
_publ_section_title
;
Structure prediction by ZEFSAII (Michael W. Deem and Ramdas Pophale) SiO2 
 PCOD9225848
Probable space group: C 2/M
;
_chemical_formula_sum "Si O2"
_cell_formula_units_Z 32
_cell_length_a 27.000000
_cell_length_b 9.000000
_cell_length_c 15.000000
_cell_angle_alpha 90.000000
_cell_angle_beta 100.000000
_cell_angle_gamma 90.000000
_cell_volume 3589.624260
_symmetry_space_group_name_H-M "C 2/M"
_symmetry_group_IT_number 12
_symmetry_cell_setting 'monoclinic'
loop_
_space_group_symop_operation_xyz
x,y,z
-x,y,-z
-x,-y,-z
x,-y,z
1/2+x,1/2+y,z
1/2-x,1/2+y,-z
1/2-x,1/2-y,-z
1/2+x,1/2-y,z
loop_
_atom_site_type_symbol
_atom_site_label
_atom_site_fract_x
_atom_site_fract_y
_atom_site_fract_z
Si Si1 0.303333 0.677573 0.043954
Si Si2 0.723185 0.175412 0.793397
Si Si3 0.340084 0.827673 0.394620
Si Si4 0.954303 0.826794 0.612816
Si Si5 0.301321 0.324578 0.548574
Si Si6 0.339665 0.322426 0.869878
Si Si7 0.627296 0.823968 0.291221
Si Si8 0.434421 0.672865 0.395217
O O1 0.298357 0.500000 0.042340
O O2 0.310605 0.736335 0.145990
O O3 0.250000 0.750000 0.000000
O O4 0.341776 0.715886 0.975880
O O5 0.705524 0.199493 0.687181
O O6 0.781693 0.212609 0.824838
O O7 0.717837 0.000000 0.810593
O O8 0.337325 0.718105 0.477386
O O9 0.390619 0.786360 0.358265
O O10 0.339521 0.000000 0.423257
O O11 0.920598 0.725931 0.665371
O O12 0.945283 0.804511 0.504278
O O13 0.013907 0.803771 0.641336
O O14 0.941995 0.000000 0.627748
O O15 0.295776 0.500000 0.558314
O O16 0.250000 0.250000 0.500000
O O17 0.325708 0.252606 0.643236
O O18 0.346783 0.500000 0.862332
O O19 0.373753 0.237074 0.809850
O O20 0.633114 0.000000 0.294217
O O21 0.419440 0.500000 0.378953
#
# Coordination Sequence:
#
# PCOD9225848 Si02
#       8
#     8   8   8   8   8   8   8   8
#     4   9  17  30  50  72  95 126 164 204 245 286
#     4   9  19  33  49  71 101 133 164 200 243 289
#     4  11  21  33  50  75 103 132 165 202 246 294
#     4   9  18  34  53  71  95 128 166 208 252 293
#     4  12  24  37  50  66  96 135 171 205 240 284
#     4   9  18  33  50  69  98 135 168 202 242 286
#     4  12  23  33  49  75 100 129 167 203 246 297
#     4   9  18  33  53  73  94 128 168 206 251 294
#
# _framework density 8.9145819999999993
#
# number of rings (size 3 to 8) (size 9 to 14) (size 15 to 20)
#    0.000    2.000    1.250    5.250    0.000    5.000 
#    0.000    1.250    0.000    0.000    0.000    0.875 
#    0.000    7.000    0.000    0.000    0.000    0.000 
#
# Total GULP energy -178428.938410 kJ/mol
# GULP energy per Si atom -5575.904325 kJ/mol
# Density = 0.889429 g / cm^3
# Si number density = 8.914582 Si / 1000 Ang^3
#
#
#
# Elastic Constant Matrix: (Units=GPa)
#
#
# Indices 1 2 3 4 5 6 
#
# 1 53.7595 24.9773 6.0549 0.0000 -15.3207 0.0000
# 2 24.9773 69.1744 26.9401 0.0000 -21.3463 0.0000
# 3 6.0549 26.9401 50.8429 0.0000 -28.4963 0.0000
# 4 0.0000 0.0000 0.0000 25.0122 0.0000 -6.0866
# 5 -15.3207 -21.3463 -28.4963 0.0000 25.3270 0.0000
# 6 0.0000 0.0000 0.0000 -6.0866 0.0000 25.2412
#
#
#
# Elastic Compliance Matrix: (Units=1/GPa)
#
#
# Indices 1 2 3 4 5 6 
#
# 1 0.029346 -0.007986 0.018717 0.000000 0.032080 0.000000
# 2 -0.007986 0.021886 -0.008161 0.000000 0.004433 0.000000
# 3 0.018717 -0.008161 0.065661 0.000000 0.078321 0.000000
# 4 0.000000 0.000000 0.000000 0.042473 0.000000 0.010242
# 5 0.032080 0.004433 0.078321 0.000000 0.150747 0.000000
# 6 0.000000 0.000000 0.000000 0.010242 0.000000 0.042087
#
#
# Mechanical properties :
#
#
# Convention : Reuss Voigt Hill
#
# Bulk Modulus (GPa) = 8.19455 32.19125 20.19290
# Shear Modulus (GPa) = 12.89529 22.83640 17.86584
#
# Velocity S-wave (km/s) = 2.69228 3.58277 3.16896
# Velocity P-wave (km/s) = 3.77765 5.93377 4.97394
#
# Compressibility (1/GPa) = 0.12203240
#
# Stress axis : x y z
#
# Youngs Moduli (GPa) = 34.07616 45.69105 15.22974
#
# Poissons Ratio (x) = 0.36489 -0.28505
# Poissons Ratio (y) = 0.27213 0.12429
# Poissons Ratio (z) = -0.63780 0.37289
#
# Static dielectric constant tensor:
#      x y z
#    x 1.700900 0.000000 -0.019010 
#    y 0.000000 1.596470 0.000000 
#    z -0.019010 0.000000 1.642000 
# 
# From -- ./inp_files/244053.got.cif
#   From: 2010.05.17/outbox.ucp.g08.bks.cvg/sg12_123_cif.got.tgz:244053.got - 2010.06.11 11:47:21.
