data_PCOD9225015
_publ_section_title
;
Structure prediction by ZEFSAII (Michael W. Deem and Ramdas Pophale) SiO2 
 PCOD9225015
Probable space group: C 2/M
;
_chemical_formula_sum "Si O2"
_cell_formula_units_Z 28
_cell_length_a 15.000000
_cell_length_b 21.000000
_cell_length_c 18.000000
_cell_angle_alpha 90.000000
_cell_angle_beta 150.000000
_cell_angle_gamma 90.000000
_cell_volume 2835.000000
_symmetry_space_group_name_H-M "C 2/M"
_symmetry_group_IT_number 12
_symmetry_cell_setting 'monoclinic'
loop_
_space_group_symop_operation_xyz
x,y,z
-x,y,-z
-x,-y,-z
x,-y,z
1/2+x,1/2+y,z
1/2-x,1/2+y,-z
1/2-x,1/2-y,-z
1/2+x,1/2-y,z
loop_
_atom_site_type_symbol
_atom_site_label
_atom_site_fract_x
_atom_site_fract_y
_atom_site_fract_z
Si Si1 0.922279 0.636171 0.362640
Si Si2 0.295210 0.073583 0.546826
Si Si3 0.687013 0.924962 0.261911
Si Si4 0.563939 0.430609 0.130816
Si Si5 0.203811 0.185331 0.061626
Si Si6 0.879035 0.073345 0.248096
Si Si7 0.370040 0.830357 0.021456
O O1 0.774684 0.584318 0.282853
O O2 0.801753 0.674508 0.212615
O O3 0.000000 0.661329 0.500000
O O4 0.081979 0.611407 0.423756
O O5 0.294732 0.087810 0.635956
O O6 0.086634 0.078723 0.377737
O O7 0.353407 0.000000 0.582632
O O8 0.843358 0.919631 0.311995
O O9 0.545692 0.872066 0.134824
O O10 0.630583 0.000000 0.216332
O O11 0.527658 0.500000 0.141844
O O12 0.500000 0.437940 0.000000
O O13 0.448916 0.367644 0.067530
O O14 0.334447 0.175868 0.084832
O O15 0.130284 0.257457 0.006880
O O16 0.821077 0.000000 0.188782
O O17 0.777374 0.127185 0.127899
#
# Coordination Sequence:
#
# PCOD9225015 Si02
#       7
#     8   8   8   8   8   8   8
#     4  11  23  41  64  93 127 165 214 258 311 377
#     4  10  21  39  62  93 135 170 201 257 318 370
#     4  10  20  38  67  99 128 163 209 259 315 378
#     4   9  20  38  62  91 124 160 208 259 309 371
#     4  10  24  44  63  92 124 170 214 260 318 372
#     4  10  22  38  63  98 127 163 209 257 317 379
#     4  11  22  41  67  90 126 165 215 263 312 380
#
# _framework density 9.8765429999999999
#
# number of rings (size 3 to 8) (size 9 to 14) (size 15 to 20)
#    0.000    1.857    1.429    1.714    2.000    9.143 
#    0.000    3.571    0.000    0.000    0.000    0.000 
#    0.000    0.000    0.000    0.000    0.000    0.000 
#
# Total GULP energy -155878.815768 kJ/mol
# GULP energy per Si atom -5567.100563 kJ/mol
# Density = 0.985406 g / cm^3
# Si number density = 9.876543 Si / 1000 Ang^3
#
#
#
# Elastic Constant Matrix: (Units=GPa)
#
#
# Indices 1 2 3 4 5 6 
#
# 1 105.4348 34.2503 29.5245 -0.0011 -1.4320 0.0201
# 2 34.2503 134.8211 38.1693 -0.0130 6.8679 0.0825
# 3 29.5245 38.1693 71.9157 -0.0266 -5.1176 0.1293
# 4 -0.0011 -0.0130 -0.0266 -7.0260 -0.0105 29.0245
# 5 -1.4320 6.8679 -5.1176 -0.0105 42.1938 0.0437
# 6 0.0201 0.0825 0.1293 29.0245 0.0437 -36.4786
#
#
#
# Elastic Compliance Matrix: (Units=1/GPa)
#
#
# Indices 1 2 3 4 5 6 
#
# 1 0.011077 -0.001816 -0.003566 0.000012 0.000239 -0.000001
# 2 -0.001816 0.009197 -0.004284 -0.000005 -0.002078 -0.000002
# 3 -0.003566 -0.004284 0.017838 -0.000072 0.002740 -0.000002
# 4 0.000012 -0.000005 -0.000072 0.062238 -0.000043 0.049520
# 5 0.000239 -0.002078 0.002740 -0.000043 0.024379 0.000000
# 6 -0.000001 -0.000002 -0.000002 0.049520 0.000000 0.011987
#
#
# Mechanical properties :
#
#
# Convention : Reuss Voigt Hill
#
# Bulk Modulus (GPa) = 53.25142 57.33999 55.29571
# Shear Modulus (GPa) = 30.80570 13.75299 22.27934
#
# Velocity S-wave (km/s) = 3.95338 2.64151 3.36205
# Velocity P-wave (km/s) = 6.91781 6.19635 6.56700
#
# Compressibility (1/GPa) = 0.01877884
#
# Stress axis : x y z
#
# Youngs Moduli (GPa) = 90.28118 108.72758 56.06077
#
# Poissons Ratio (x) = 0.19750 0.19993
# Poissons Ratio (y) = 0.16399 0.24014
# Poissons Ratio (z) = 0.32197 0.46575
#
# Static dielectric constant tensor:
#      x y z
#    x 1.717320 0.000000 -0.006280 
#    y 0.000000 1.693410 0.000000 
#    z -0.006280 0.000000 1.741420 
# 
# From -- ./inp_files/272396.got.cif
#   From: 2010.05.17/outbox.ucp.g08.bks.cvg/sg12_137_cif.got.tgz:272396.got - 2010.06.11 11:47:21.
