data_PCOD9225696
_publ_section_title
;
Structure prediction by ZEFSAII (Michael W. Deem and Ramdas Pophale) SiO2 
 PCOD9225696
Probable space group: C 2/M
;
_chemical_formula_sum "Si O2"
_cell_formula_units_Z 22
_cell_length_a 24.000000
_cell_length_b 12.000000
_cell_length_c 12.000000
_cell_angle_alpha 90.000000
_cell_angle_beta 140.000000
_cell_angle_gamma 90.000000
_cell_volume 2221.473979
_symmetry_space_group_name_H-M "C 2/M"
_symmetry_group_IT_number 12
_symmetry_cell_setting 'monoclinic'
loop_
_space_group_symop_operation_xyz
x,y,z
-x,y,-z
-x,-y,-z
x,-y,z
1/2+x,1/2+y,z
1/2-x,1/2+y,-z
1/2-x,1/2-y,-z
1/2+x,1/2-y,z
loop_
_atom_site_type_symbol
_atom_site_label
_atom_site_fract_x
_atom_site_fract_y
_atom_site_fract_z
Si Si1 0.368384 0.000000 0.378717
Si Si2 0.140428 0.626040 0.081057
Si Si3 0.586011 0.375358 0.709648
Si Si4 0.936481 0.500000 0.232871
Si Si5 0.000000 0.239719 0.000000
Si Si6 0.318676 0.247103 0.327086
Si Si7 0.043770 0.131716 0.300655
O O1 0.320625 0.114063 0.335646
O O2 0.388269 0.000000 0.276887
O O3 0.461935 0.000000 0.583536
O O4 0.165243 0.500000 0.155210
O O5 0.075634 0.682249 0.068062
O O6 0.224916 0.700331 0.198303
O O7 0.091558 0.603284 0.888331
O O8 0.500000 0.378633 0.500000
O O9 0.625637 0.500000 0.767088
O O10 0.646235 0.287025 0.740483
O O11 0.547498 0.353338 0.772629
O O12 0.966830 0.168745 0.843168
O O13 0.384333 0.298444 0.520484
O O14 0.064598 0.000000 0.341132
#
# Coordination Sequence:
#
# PCOD9225696 Si02
#       7
#     4   8   8   4   4   8   8
#     4  11  24  40  68 105 143 174 217 272 347 413
#     4  10  24  45  67  96 129 180 231 275 329 402
#     4   8  16  32  60  94 126 163 211 267 330 400
#     4   9  24  43  66 100 138 183 219 266 335 416
#     4  12  24  42  66  94 134 184 226 284 336 394
#     4  11  22  41  69 101 133 173 223 284 337 396
#     4  10  22  41  66  98 131 177 224 276 334 407
#
# _framework density 9.9033350000000002
#
# number of rings (size 3 to 8) (size 9 to 14) (size 15 to 20)
#    0.545    1.455    0.000    4.364   10.182    1.455 
#    4.909    0.000    0.000    0.000    0.000    0.000 
#    0.000    0.000    0.000    0.000    0.000    0.000 
#
# Total GULP energy -122875.721188 kJ/mol
# GULP energy per Si atom -5585.260054 kJ/mol
# Density = 0.988079 g / cm^3
# Si number density = 9.903335 Si / 1000 Ang^3
#
#
#
# Elastic Constant Matrix: (Units=GPa)
#
#
# Indices 1 2 3 4 5 6 
#
# 1 128.0435 73.9913 64.5799 0.0000 -3.0928 0.0000
# 2 73.9913 189.1980 46.0259 0.0000 6.3068 0.0000
# 3 64.5799 46.0259 60.8373 0.0000 -16.3874 0.0000
# 4 0.0000 0.0000 0.0000 22.7587 0.0000 -3.6907
# 5 -3.0928 6.3068 -16.3874 0.0000 37.7378 0.0000
# 6 0.0000 0.0000 0.0000 -3.6907 0.0000 38.6891
#
#
#
# Elastic Compliance Matrix: (Units=1/GPa)
#
#
# Indices 1 2 3 4 5 6 
#
# 1 0.019486 -0.002317 -0.020835 0.000000 -0.007063 0.000000
# 2 -0.002317 0.007226 -0.003832 0.000000 -0.003061 0.000000
# 3 -0.020835 -0.003832 0.046618 0.000000 0.019177 0.000000
# 4 0.000000 0.000000 0.000000 0.044630 0.000000 0.004257
# 5 -0.007063 -0.003061 0.019177 0.000000 0.034759 0.000000
# 6 0.000000 0.000000 0.000000 0.004257 0.000000 0.026253
#
#
# Mechanical properties :
#
#
# Convention : Reuss Voigt Hill
#
# Bulk Modulus (GPa) = 51.64418 83.03034 67.33726
# Shear Modulus (GPa) = 20.88612 32.73590 26.81101
#
# Velocity S-wave (km/s) = 3.25083 4.06984 3.68317
# Velocity P-wave (km/s) = 6.34202 8.00601 7.22210
#
# Compressibility (1/GPa) = 0.01936327
#
# Stress axis : x y z
#
# Youngs Moduli (GPa) = 51.31824 138.39418 21.45075
#
# Poissons Ratio (x) = 0.32062 0.44692
# Poissons Ratio (y) = 0.11889 0.08220
# Poissons Ratio (z) = 1.06921 0.53032
#
# Static dielectric constant tensor:
#      x y z
#    x 1.677860 0.000000 -0.009260 
#    y 0.000000 1.722590 0.000000 
#    z -0.009260 0.000000 1.688110 
# 
# From -- ./inp_files/175423.got.cif
#   From: 2010.05.17/outbox.ucp.g08.bks.cvg/sg12_88_cif.got.tgz:175423.got - 2010.06.11 11:47:21.
