data_PCOD9225620
_publ_section_title
;
Structure prediction by ZEFSAII (Michael W. Deem and Ramdas Pophale) SiO2 
 PCOD9225620
Probable space group: C 2/M
;
_chemical_formula_sum "Si O2"
_cell_formula_units_Z 28
_cell_length_a 12.000000
_cell_length_b 15.000000
_cell_length_c 30.000000
_cell_angle_alpha 90.000000
_cell_angle_beta 30.000000
_cell_angle_gamma 90.000000
_cell_volume 2700.000000
_symmetry_space_group_name_H-M "C 2/M"
_symmetry_group_IT_number 12
_symmetry_cell_setting 'monoclinic'
loop_
_space_group_symop_operation_xyz
x,y,z
-x,y,-z
-x,-y,-z
x,-y,z
1/2+x,1/2+y,z
1/2-x,1/2+y,-z
1/2-x,1/2-y,-z
1/2+x,1/2-y,z
loop_
_atom_site_type_symbol
_atom_site_label
_atom_site_fract_x
_atom_site_fract_y
_atom_site_fract_z
Si Si1 0.343480 0.676373 0.799871
Si Si2 0.963558 0.600982 0.346014
Si Si3 0.772857 0.706455 0.336210
Si Si4 0.405361 0.896777 0.982278
Si Si5 0.611440 0.163547 0.532402
Si Si6 0.962816 0.894337 0.176289
Si Si7 0.474971 0.396120 0.657929
O O1 0.471412 0.769190 0.763502
O O2 0.450160 0.619296 0.803520
O O3 0.410679 0.643188 0.727862
O O4 0.078884 0.664980 0.896271
O O5 0.968763 0.500000 0.327773
O O6 0.788177 0.653718 0.377068
O O7 0.903927 0.603173 0.418522
O O8 0.213533 0.642050 0.256954
O O9 0.630233 0.796073 0.393775
O O10 0.659222 0.652844 0.335437
O O11 0.408406 0.000000 0.964453
O O12 0.500000 0.900881 0.000000
O O13 0.153487 0.862423 0.076170
O O14 0.750000 0.250000 0.500000
O O15 0.762568 0.118481 0.442911
O O16 0.948947 0.000000 0.174199
O O17 0.422962 0.500000 0.674920
#
# Coordination Sequence:
#
# PCOD9225620 Si02
#       7
#     8   8   8   8   8   8   8
#     4  11  20  35  62  87 118 151 189 239 298 340
#     4  11  22  40  63  85 114 159 204 236 278 351
#     4  11  23  40  60  84 122 152 190 242 299 340
#     4   8  15  31  57  88 117 150 193 239 286 341
#     4  10  22  40  58  83 115 151 191 239 291 339
#     4   9  18  35  62  91 116 150 200 244 282 342
#     4  11  24  40  59  86 116 153 195 236 291 352
#
# _framework density 10.370369999999999
#
# number of rings (size 3 to 8) (size 9 to 14) (size 15 to 20)
#    0.000    1.857    1.429    4.714    0.000    5.143 
#    0.000    5.000    3.143    0.000    0.000    4.000 
#    0.000    0.000    0.000    0.000    0.000    0.000 
#
# Total GULP energy -156176.442088 kJ/mol
# GULP energy per Si atom -5577.730075 kJ/mol
# Density = 1.034677 g / cm^3
# Si number density = 10.370370 Si / 1000 Ang^3
#
#
#
# Elastic Constant Matrix: (Units=GPa)
#
#
# Indices 1 2 3 4 5 6 
#
# 1 102.3154 28.7708 40.1806 0.0027 6.2659 -0.0018
# 2 28.7708 57.1338 11.5626 -0.0019 -0.5530 0.0008
# 3 40.1806 11.5626 107.8619 0.0079 6.0509 -0.0090
# 4 0.0027 -0.0019 0.0079 28.1001 -0.0016 -7.2433
# 5 6.2659 -0.5530 6.0509 -0.0016 9.6628 0.0015
# 6 -0.0018 0.0008 -0.0090 -7.2433 0.0015 29.2648
#
#
#
# Elastic Compliance Matrix: (Units=1/GPa)
#
#
# Indices 1 2 3 4 5 6 
#
# 1 0.013436 -0.006022 -0.003992 -0.000001 -0.006558 0.000000
# 2 -0.006022 0.020639 -0.000264 0.000002 0.005251 -0.000001
# 3 -0.003992 -0.000264 0.011030 -0.000002 -0.004333 0.000003
# 4 -0.000001 0.000002 -0.000002 0.038012 0.000007 0.009408
# 5 -0.006558 0.005251 -0.004333 0.000007 0.110756 -0.000006
# 6 0.000000 -0.000001 0.000003 0.009408 -0.000006 0.036499
#
#
# Mechanical properties :
#
#
# Convention : Reuss Voigt Hill
#
# Bulk Modulus (GPa) = 40.73280 47.59324 44.16302
# Shear Modulus (GPa) = 19.29674 25.85866 22.57770
#
# Velocity S-wave (km/s) = 3.05352 3.53478 3.30292
# Velocity P-wave (km/s) = 5.66689 6.29731 5.99040
#
# Compressibility (1/GPa) = 0.02455024
#
# Stress axis : x y z
#
# Youngs Moduli (GPa) = 74.42561 48.45114 90.66552
#
# Poissons Ratio (x) = 0.29176 0.36192
# Poissons Ratio (y) = 0.44817 0.02393
# Poissons Ratio (z) = 0.29710 0.01279
#
# Static dielectric constant tensor:
#      x y z
#    x 1.773500 0.000010 -0.026590 
#    y 0.000010 1.661390 0.000000 
#    z -0.026590 0.000000 1.816090 
# 
# From -- ./inp_files/263437.got.cif
#   From: 2010.05.17/outbox.ucp.g08.bks.cvg/sg12_132_cif.got.tgz:263437.got - 2010.06.11 11:47:21.
