data_PCOD9225278
_publ_section_title
;
Structure prediction by ZEFSAII (Michael W. Deem and Ramdas Pophale) SiO2 
 PCOD9225278
Probable space group: C 2/M
;
_chemical_formula_sum "Si O2"
_cell_formula_units_Z 32
_cell_length_a 15.000000
_cell_length_b 18.000000
_cell_length_c 15.000000
_cell_angle_alpha 90.000000
_cell_angle_beta 130.000000
_cell_angle_gamma 90.000000
_cell_volume 3102.479995
_symmetry_space_group_name_H-M "C 2/M"
_symmetry_group_IT_number 12
_symmetry_cell_setting 'monoclinic'
loop_
_space_group_symop_operation_xyz
x,y,z
-x,y,-z
-x,-y,-z
x,-y,z
1/2+x,1/2+y,z
1/2-x,1/2+y,-z
1/2-x,1/2-y,-z
1/2+x,1/2-y,z
loop_
_atom_site_type_symbol
_atom_site_label
_atom_site_fract_x
_atom_site_fract_y
_atom_site_fract_z
Si Si1 0.631136 0.410209 0.104291
Si Si2 0.431213 0.152624 0.589507
Si Si3 0.245831 0.657168 0.359240
Si Si4 0.544221 0.326251 0.386988
Si Si5 0.278141 0.331986 0.663254
Si Si6 0.806695 0.914303 0.225211
Si Si7 0.418427 0.089135 0.025195
Si Si8 0.369061 0.911393 0.181673
O O1 0.629842 0.500000 0.104841
O O2 0.672545 0.378157 0.224347
O O3 0.735957 0.385781 0.106394
O O4 0.500000 0.384955 0.000000
O O5 0.345408 0.144212 0.620051
O O6 0.468458 0.238423 0.607206
O O7 0.345597 0.137899 0.452097
O O8 0.547464 0.107358 0.682406
O O9 0.375786 0.644346 0.481069
O O10 0.237177 0.744050 0.327127
O O11 0.233468 0.604611 0.267032
O O12 0.627237 0.336194 0.354882
O O13 0.421002 0.364562 0.296533
O O14 0.716049 0.901394 0.087869
O O15 0.841499 0.000000 0.247526
O O16 0.441436 0.000000 0.042874
O O17 0.500000 0.120897 0.000000
O O18 0.429524 0.120195 0.131505
O O19 0.364353 0.000000 0.169924
#
# Coordination Sequence:
#
# PCOD9225278 Si02
#       8
#     8   8   8   8   8   8   8   8
#     4  10  23  40  59  84 118 155 193 245 296 338
#     4   9  19  38  61  83 115 154 194 241 287 345
#     4   9  19  37  57  83 119 153 188 236 293 350
#     4   9  20  36  56  84 116 152 192 235 292 352
#     4   9  20  39  61  82 112 161 201 229 286 355
#     4  11  22  34  57  88 117 152 196 245 301 363
#     4   9  19  36  56  80 114 155 190 230 293 356
#     4  10  21  37  59  87 115 149 194 241 291 343
#
# _framework density 10.314329000000001
#
# number of rings (size 3 to 8) (size 9 to 14) (size 15 to 20)
#    0.000    2.500    0.000    2.625    3.500    4.000 
#    0.000    7.500    0.000    0.000    0.000    0.000 
#    0.000    0.000    0.000    0.000    0.000    0.000 
#
# Total GULP energy -178525.171229 kJ/mol
# GULP energy per Si atom -5578.911601 kJ/mol
# Density = 1.029085 g / cm^3
# Si number density = 10.314329 Si / 1000 Ang^3
#
#
#
# Elastic Constant Matrix: (Units=GPa)
#
#
# Indices 1 2 3 4 5 6 
#
# 1 80.2099 22.4625 61.5442 0.0000 20.2584 0.0000
# 2 22.4625 -2.0194 19.9369 0.0000 4.2655 0.0000
# 3 61.5442 19.9369 76.1200 0.0000 -7.4072 0.0000
# 4 0.0000 0.0000 0.0000 29.6378 0.0000 6.9995
# 5 20.2584 4.2655 -7.4072 0.0000 23.7667 0.0000
# 6 0.0000 0.0000 0.0000 6.9995 0.0000 22.5824
#
#
#
# Elastic Compliance Matrix: (Units=1/GPa)
#
#
# Indices 1 2 3 4 5 6 
#
# 1 1.622567 -0.131883 -1.453695 0.000000 -1.812440 0.000000
# 2 -0.131883 -0.101486 0.150485 0.000000 0.177529 0.000000
# 3 -1.453695 0.150485 1.306633 0.000000 1.619325 0.000000
# 4 0.000000 0.000000 0.000000 0.036406 0.000000 -0.011284
# 5 -1.812440 0.177529 1.619325 0.000000 2.059789 0.000000
# 6 0.000000 0.000000 0.000000 -0.011284 0.000000 0.047780
#
#
# Mechanical properties :
#
#
# Convention : Reuss Voigt Hill
#
# Bulk Modulus (GPa) = -23.54487 40.24419 8.34966
# Shear Modulus (GPa) = 0.63876 18.55517 9.59696
#
# Velocity S-wave (km/s) = 0.55706 3.00240 2.15925
# Velocity P-wave (km/s) = 3.32035 5.61875 3.20513
#
# Compressibility (1/GPa) = -0.04247210
#
# Stress axis : x y z
#
# Youngs Moduli (GPa) = 0.61631 -9.85354 0.76533
#
# Poissons Ratio (x) = -1.29951 1.11255
# Poissons Ratio (y) = 0.08128 -0.11517
# Poissons Ratio (z) = 0.89592 1.48281
#
# Static dielectric constant tensor:
#      x y z
#    x 1.791960 0.000000 -0.032630 
#    y 0.000000 1.683800 0.000000 
#    z -0.032630 0.000000 1.753970 
# 
# From -- ./inp_files/216805.got.cif
#   From: 2010.05.17/outbox.ucp.g08.bks.cvg/sg12_109_cif.got.tgz:216805.got - 2010.06.11 11:47:21.
