data_PCOD9225446
_publ_section_title
;
Structure prediction by ZEFSAII (Michael W. Deem and Ramdas Pophale) SiO2 
 PCOD9225446
Probable space group: C 2/M
;
_chemical_formula_sum "Si O2"
_cell_formula_units_Z 28
_cell_length_a 30.000000
_cell_length_b 9.000000
_cell_length_c 12.000000
_cell_angle_alpha 90.000000
_cell_angle_beta 120.000000
_cell_angle_gamma 90.000000
_cell_volume 2805.922308
_symmetry_space_group_name_H-M "C 2/M"
_symmetry_group_IT_number 12
_symmetry_cell_setting 'monoclinic'
loop_
_space_group_symop_operation_xyz
x,y,z
-x,y,-z
-x,-y,-z
x,-y,z
1/2+x,1/2+y,z
1/2-x,1/2+y,-z
1/2-x,1/2-y,-z
1/2+x,1/2-y,z
loop_
_atom_site_type_symbol
_atom_site_label
_atom_site_fract_x
_atom_site_fract_y
_atom_site_fract_z
Si Si1 0.397657 0.326468 0.350884
Si Si2 0.655428 0.822361 0.358763
Si Si3 0.382046 0.175692 0.092502
Si Si4 0.471647 0.670483 0.081616
Si Si5 0.206312 0.824580 0.632063
Si Si6 0.311043 0.677931 0.830176
Si Si7 0.436579 0.672040 0.631148
O O1 0.405757 0.500000 0.331729
O O2 0.395661 0.235628 0.233507
O O3 0.343569 0.311585 0.350308
O O4 0.437715 0.287143 0.501287
O O5 0.694346 0.747988 0.496793
O O6 0.660947 0.748446 0.244079
O O7 0.601184 0.778481 0.347264
O O8 0.662109 0.000000 0.360456
O O9 0.427789 0.216975 0.063796
O O10 0.373251 0.000000 0.085545
O O11 0.334586 0.260618 0.974839
O O12 0.451389 0.500000 0.044862
O O13 0.511107 0.670954 0.234481
O O14 0.500000 0.704789 0.000000
O O15 0.253135 0.736801 0.744962
O O16 0.218032 0.000000 0.633705
O O17 0.314225 0.500000 0.829834
O O18 0.416224 0.500000 0.608817
#
# Coordination Sequence:
#
# PCOD9225446 Si02
#       7
#     8   8   8   8   8   8   8
#     4   9  20  40  62  84 115 155 198 241 286 344
#     4  11  21  35  58  90 125 156 192 240 293 348
#     4  12  26  41  59  85 118 153 194 245 295 349
#     4  10  21  39  64  91 119 153 192 236 291 352
#     4  10  21  39  62  88 118 154 198 243 289 344
#     4  12  24  39  59  83 116 157 199 243 295 351
#     4   9  19  37  62  89 118 157 200 242 289 343
#
# _framework density 9.9788940000000004
#
# number of rings (size 3 to 8) (size 9 to 14) (size 15 to 20)
#    0.000    1.571    0.000    6.429    0.000    6.000 
#    0.000    2.857    0.000    0.000    0.000    0.000 
#    0.000    0.000    0.000    0.000    0.000    0.000 
#
# Total GULP energy -156450.410055 kJ/mol
# GULP energy per Si atom -5587.514645 kJ/mol
# Density = 0.995618 g / cm^3
# Si number density = 9.978894 Si / 1000 Ang^3
#
#
#
# Elastic Constant Matrix: (Units=GPa)
#
#
# Indices 1 2 3 4 5 6 
#
# 1 29.4968 19.7167 11.9211 0.0000 -6.3345 0.0000
# 2 19.7167 146.3747 46.7530 0.0000 -8.1526 0.0000
# 3 11.9211 46.7530 131.7104 0.0000 -9.4449 0.0000
# 4 0.0000 0.0000 0.0000 24.8945 0.0000 -5.0310
# 5 -6.3345 -8.1526 -9.4449 0.0000 33.6057 0.0000
# 6 0.0000 0.0000 0.0000 -5.0310 0.0000 32.0494
#
#
#
# Elastic Compliance Matrix: (Units=1/GPa)
#
#
# Indices 1 2 3 4 5 6 
#
# 1 0.038707 -0.004404 -0.001524 0.000000 0.005799 0.000000
# 2 -0.004404 0.008248 -0.002496 0.000000 0.000469 0.000000
# 3 -0.001524 -0.002496 0.008728 0.000000 0.001560 0.000000
# 4 0.000000 0.000000 0.000000 0.041486 0.000000 0.006512
# 5 0.005799 0.000469 0.001560 0.000000 0.031402 0.000000
# 6 0.000000 0.000000 0.000000 0.006512 0.000000 0.032224
#
#
# Mechanical properties :
#
#
# Convention : Reuss Voigt Hill
#
# Bulk Modulus (GPa) = 25.74938 51.59595 38.67266
# Shear Modulus (GPa) = 26.23450 33.38932 29.81191
#
# Velocity S-wave (km/s) = 3.62954 4.09467 3.86910
# Velocity P-wave (km/s) = 5.52219 6.94721 6.27528
#
# Compressibility (1/GPa) = 0.03883589
#
# Stress axis : x y z
#
# Youngs Moduli (GPa) = 25.83497 121.23765 114.57218
#
# Poissons Ratio (x) = 0.53393 0.17464
# Poissons Ratio (y) = 0.11378 0.28593
# Poissons Ratio (z) = 0.03938 0.30256
#
# Static dielectric constant tensor:
#      x y z
#    x 1.741300 0.000000 0.056760 
#    y 0.000000 1.670730 0.000000 
#    z 0.056760 0.000000 1.717690 
# 
# From -- ./inp_files/187691.got.cif
#   From: 2010.05.17/outbox.ucp.g08.bks.cvg/sg12_94_cif.got.tgz:187691.got - 2010.06.11 11:47:21.
