data_PCOD9225794
_publ_section_title
;
Structure prediction by ZEFSAII (Michael W. Deem and Ramdas Pophale) SiO2 
 PCOD9225794
Probable space group: C 2/M
;
_chemical_formula_sum "Si O2"
_cell_formula_units_Z 20
_cell_length_a 9.000000
_cell_length_b 24.000000
_cell_length_c 18.000000
_cell_angle_alpha 90.000000
_cell_angle_beta 30.000000
_cell_angle_gamma 90.000000
_cell_volume 1944.000000
_symmetry_space_group_name_H-M "C 2/M"
_symmetry_group_IT_number 12
_symmetry_cell_setting 'monoclinic'
loop_
_space_group_symop_operation_xyz
x,y,z
-x,y,-z
-x,-y,-z
x,-y,z
1/2+x,1/2+y,z
1/2-x,1/2+y,-z
1/2-x,1/2-y,-z
1/2+x,1/2-y,z
loop_
_atom_site_type_symbol
_atom_site_label
_atom_site_fract_x
_atom_site_fract_y
_atom_site_fract_z
Si Si1 0.840200 0.238281 0.143363
Si Si2 0.718163 0.566231 0.672704
Si Si3 0.248452 0.316832 0.672736
Si Si4 0.449798 0.381309 0.931926
Si Si5 0.185533 0.432639 0.785143
O O1 0.749350 0.279887 0.250513
O O2 0.550832 0.204931 0.238165
O O3 0.051085 0.186088 0.077234
O O4 0.000000 0.263481 0.000000
O O5 0.755216 0.500000 0.670495
O O6 0.678660 0.596030 0.769930
O O7 0.427062 0.573662 0.746554
O O8 0.000000 0.584972 0.500000
O O9 0.500000 0.307955 0.500000
O O10 0.250723 0.382703 0.696331
O O11 0.500000 0.391195 0.000000
O O12 0.144596 0.414157 0.046790
O O13 0.189025 0.500000 0.762432
#
# Coordination Sequence:
#
# PCOD9225794 Si02
#       5
#     8   8   8   8   8
#     4  11  25  47  70 107 140 187 238 286 357 422
#     4  10  24  43  68 101 140 190 238 290 355 418
#     4  12  27  47  73 108 143 185 234 297 360 420
#     4  11  23  44  69 103 141 183 241 289 345 418
#     4  11  25  45  70 105 146 191 237 287 353 427
#
# _framework density 10.288066000000001
#
# number of rings (size 3 to 8) (size 9 to 14) (size 15 to 20)
#    0.000    1.000    4.000    2.400    5.600    4.400 
#    0.000    0.000    0.000    0.000    0.000    0.000 
#    0.000    0.000    0.000    0.000    0.000    0.000 
#
# Total GULP energy -111621.309478 kJ/mol
# GULP energy per Si atom -5581.065474 kJ/mol
# Density = 1.026465 g / cm^3
# Si number density = 10.288066 Si / 1000 Ang^3
#
#
#
# Elastic Constant Matrix: (Units=GPa)
#
#
# Indices 1 2 3 4 5 6 
#
# 1 105.7248 52.7646 58.4912 0.0072 17.0929 0.0071
# 2 52.7646 139.1217 45.9790 -0.0023 22.3778 0.0041
# 3 58.4912 45.9790 176.4533 -0.0343 38.0142 -0.0079
# 4 0.0072 -0.0023 -0.0343 37.6034 -0.0104 6.8333
# 5 17.0929 22.3778 38.0142 -0.0104 49.1093 0.0034
# 6 0.0071 0.0041 -0.0079 6.8333 0.0034 39.3801
#
#
#
# Elastic Compliance Matrix: (Units=1/GPa)
#
#
# Indices 1 2 3 4 5 6 
#
# 1 0.013290 -0.003896 -0.003332 -0.000006 -0.000271 -0.000002
# 2 -0.003896 0.009250 -0.000604 0.000000 -0.002392 0.000000
# 3 -0.003332 -0.000604 0.007945 0.000006 -0.004715 0.000002
# 4 -0.000006 0.000000 0.000006 0.027459 0.000003 -0.004765
# 5 -0.000271 -0.002392 -0.004715 0.000003 0.025197 -0.000003
# 6 -0.000002 0.000000 0.000002 -0.004765 -0.000003 0.026220
#
#
# Mechanical properties :
#
#
# Convention : Reuss Voigt Hill
#
# Bulk Modulus (GPa) = 67.46649 81.75213 74.60931
# Shear Modulus (GPa) = 38.47235 42.82291 40.64763
#
# Velocity S-wave (km/s) = 4.32876 4.56696 4.44945
# Velocity P-wave (km/s) = 7.60553 8.22358 7.92059
#
# Compressibility (1/GPa) = 0.01482217
#
# Stress axis : x y z
#
# Youngs Moduli (GPa) = 75.24504 108.11222 125.86961
#
# Poissons Ratio (x) = 0.42117 0.41937
# Poissons Ratio (y) = 0.29313 0.07598
# Poissons Ratio (z) = 0.25070 0.06526
#
# Static dielectric constant tensor:
#      x y z
#    x 1.760840 0.000000 -0.039700 
#    y 0.000000 1.746050 0.000010 
#    z -0.039700 0.000010 1.787340 
# 
# From -- ./inp_files/259338.got.cif
#   From: 2010.05.17/outbox.ucp.g08.bks.cvg/sg12_130_cif.got.tgz:259338.got - 2010.06.11 11:47:21.
