data_PCOD9225147
_publ_section_title
;
Structure prediction by ZEFSAII (Michael W. Deem and Ramdas Pophale) SiO2 
 PCOD9225147
Probable space group: C 2/M
;
_chemical_formula_sum "Si O2"
_cell_formula_units_Z 32
_cell_length_a 30.000000
_cell_length_b 9.000000
_cell_length_c 15.000000
_cell_angle_alpha 90.000000
_cell_angle_beta 60.000000
_cell_angle_gamma 90.000000
_cell_volume 3507.402885
_symmetry_space_group_name_H-M "C 2/M"
_symmetry_group_IT_number 12
_symmetry_cell_setting 'monoclinic'
loop_
_space_group_symop_operation_xyz
x,y,z
-x,y,-z
-x,-y,-z
x,-y,z
1/2+x,1/2+y,z
1/2-x,1/2+y,-z
1/2-x,1/2-y,-z
1/2+x,1/2-y,z
loop_
_atom_site_type_symbol
_atom_site_label
_atom_site_fract_x
_atom_site_fract_y
_atom_site_fract_z
Si Si1 0.027003 0.679034 0.703299
Si Si2 0.108540 0.321211 0.763422
Si Si3 0.213442 0.825512 0.607926
Si Si4 0.252933 0.674581 0.221505
Si Si5 0.446557 0.321408 0.504952
Si Si6 0.146768 0.177814 0.270879
Si Si7 0.591031 0.178649 0.163270
Si Si8 0.141183 0.321924 0.926243
O O1 0.027795 0.500000 0.696581
O O2 0.057023 0.722090 0.763064
O O3 0.054690 0.746918 0.590002
O O4 0.967692 0.727081 0.762445
O O5 0.112771 0.500000 0.754938
O O6 0.157725 0.250396 0.666157
O O7 0.112828 0.277955 0.862776
O O8 0.250000 0.750000 0.500000
O O9 0.237688 0.806877 0.682033
O O10 0.208195 0.000000 0.595067
O O11 0.249128 0.500000 0.205722
O O12 0.201383 0.756283 0.243836
O O13 0.303662 0.743259 0.125869
O O14 0.500000 0.277283 0.500000
O O15 0.447195 0.500000 0.495052
O O16 0.397678 0.279723 0.613720
O O17 0.128226 0.242551 0.195582
O O18 0.149286 0.000000 0.265014
O O19 0.593786 0.000000 0.172887
O O20 0.608007 0.212340 0.045958
O O21 0.149292 0.500000 0.914990
#
# Coordination Sequence:
#
# PCOD9225147 Si02
#       8
#     8   8   8   8   8   8   8   8
#     4  10  21  35  56  86 116 147 185 228 277 329
#     4   9  19  36  56  82 114 147 184 226 274 329
#     4  10  21  36  55  80 110 145 185 229 276 329
#     4  10  22  39  58  82 112 144 185 234 280 330
#     4  10  21  38  56  78 111 149 187 228 277 331
#     4  11  23  38  58  83 112 149 189 230 280 336
#     4  10  21  37  58  85 113 147 189 232 278 328
#     4   9  19  38  61  82 112 149 186 230 278 330
#
# _framework density 9.1235599999999994
#
# number of rings (size 3 to 8) (size 9 to 14) (size 15 to 20)
#    0.000    2.125    1.250    1.125    1.750    4.750 
#    0.000    2.500    0.000    0.000    0.000    5.250 
#    0.000    0.000    0.000    0.000    0.000    0.000 
#
# Total GULP energy -178640.451839 kJ/mol
# GULP energy per Si atom -5582.514120 kJ/mol
# Density = 0.910279 g / cm^3
# Si number density = 9.123560 Si / 1000 Ang^3
#
#
#
# Elastic Constant Matrix: (Units=GPa)
#
#
# Indices 1 2 3 4 5 6 
#
# 1 75.8026 16.2943 -8.0351 0.0000 12.7775 0.0000
# 2 16.2943 8.8488 14.7417 0.0000 10.0957 0.0000
# 3 -8.0351 14.7417 56.7676 0.0000 14.8775 0.0000
# 4 0.0000 0.0000 0.0000 18.7002 0.0000 0.8855
# 5 12.7775 10.0957 14.8775 0.0000 -0.7955 0.0000
# 6 0.0000 0.0000 0.0000 0.8855 0.0000 17.5592
#
#
#
# Elastic Compliance Matrix: (Units=1/GPa)
#
#
# Indices 1 2 3 4 5 6 
#
# 1 0.080424 -0.230726 0.084752 0.000000 -0.051329 0.000000
# 2 -0.230726 0.737143 -0.288846 0.000000 0.247114 0.000000
# 3 0.084752 -0.288846 0.120068 0.000000 -0.058940 0.000000
# 4 0.000000 0.000000 0.000000 0.053603 0.000000 -0.002703
# 5 -0.051329 0.247114 -0.058940 0.000000 -0.047686 0.000000
# 6 0.000000 0.000000 0.000000 -0.002703 0.000000 0.057087
#
#
# Mechanical properties :
#
#
# Convention : Reuss Voigt Hill
#
# Bulk Modulus (GPa) = 14.70719 20.82453 17.76586
# Shear Modulus (GPa) = 2.64139 14.98731 8.81435
#
# Velocity S-wave (km/s) = 1.20445 2.86903 2.20023
# Velocity P-wave (km/s) = 3.16414 4.73417 4.02642
#
# Compressibility (1/GPa) = 0.06799396
#
# Stress axis : x y z
#
# Youngs Moduli (GPa) = 12.43406 1.35659 8.32863
#
# Poissons Ratio (x) = 0.31300 -0.70587
# Poissons Ratio (y) = 2.86886 2.40569
# Poissons Ratio (z) = -1.05381 0.39185
#
# Static dielectric constant tensor:
#      x y z
#    x 1.606050 0.000000 0.013540 
#    y 0.000000 1.611360 0.000000 
#    z 0.013540 0.000000 1.606390 
# 
# From -- ./inp_files/249123.got.cif
#   From: 2010.05.17/outbox.ucp.g08.bks.cvg/sg12_125_cif.got.tgz:249123.got - 2010.06.11 11:47:21.
