data_PCOD9225583
_publ_section_title
;
Structure prediction by ZEFSAII (Michael W. Deem and Ramdas Pophale) SiO2 
 PCOD9225583
Probable space group: C 2/M
;
_chemical_formula_sum "Si O2"
_cell_formula_units_Z 20
_cell_length_a 15.000000
_cell_length_b 18.000000
_cell_length_c 15.000000
_cell_angle_alpha 90.000000
_cell_angle_beta 30.000000
_cell_angle_gamma 90.000000
_cell_volume 2025.000000
_symmetry_space_group_name_H-M "C 2/M"
_symmetry_group_IT_number 12
_symmetry_cell_setting 'monoclinic'
loop_
_space_group_symop_operation_xyz
x,y,z
-x,y,-z
-x,-y,-z
x,-y,z
1/2+x,1/2+y,z
1/2-x,1/2+y,-z
1/2-x,1/2-y,-z
1/2+x,1/2-y,z
loop_
_atom_site_type_symbol
_atom_site_label
_atom_site_fract_x
_atom_site_fract_y
_atom_site_fract_z
Si Si1 0.504363 0.411620 0.284438
Si Si2 0.363329 0.789856 0.543246
Si Si3 0.900941 0.088033 0.176547
Si Si4 0.365306 0.168303 0.344346
Si Si5 0.609446 0.089757 0.993579
O O1 0.488183 0.500000 0.313067
O O2 0.515023 0.399496 0.168321
O O3 0.321450 0.374133 0.474841
O O4 0.683972 0.385336 0.178320
O O5 0.500000 0.761385 0.500000
O O6 0.278632 0.865480 0.654535
O O7 0.436739 0.804928 0.379234
O O8 0.197489 0.735599 0.664811
O O9 0.864212 0.000000 0.203473
O O10 0.000000 0.110207 0.000000
O O11 0.504605 0.119020 0.170451
O O12 0.611376 0.000000 0.993128
O O13 0.500000 0.112893 0.000000
#
# Coordination Sequence:
#
# PCOD9225583 Si02
#       5
#     8   8   8   8   8
#     4   9  19  37  60  86 116 150 191 237 287 341
#     4  10  23  39  57  87 114 151 198 230 286 354
#     4   9  19  37  59  85 115 147 186 238 293 342
#     4  10  22  41  58  83 122 154 188 241 288 335
#     4  10  22  37  60  91 114 151 201 235 284 343
#
# _framework density 9.8765429999999999
#
# number of rings (size 3 to 8) (size 9 to 14) (size 15 to 20)
#    0.000    2.400    0.000    0.600    5.600    2.000 
#    0.000    6.000    0.000    0.000    0.000    0.000 
#    0.000    0.000    0.000    0.000    0.000    0.000 
#
# Total GULP energy -111580.985284 kJ/mol
# GULP energy per Si atom -5579.049264 kJ/mol
# Density = 0.985406 g / cm^3
# Si number density = 9.876543 Si / 1000 Ang^3
#
#
#
# Elastic Constant Matrix: (Units=GPa)
#
#
# Indices 1 2 3 4 5 6 
#
# 1 99.4568 20.5367 20.4887 -0.0006 -5.7745 -0.0050
# 2 20.5367 26.5214 12.6700 0.0008 2.0981 0.0060
# 3 20.4887 12.6700 57.3752 -0.0022 -0.1538 0.0073
# 4 -0.0006 0.0008 -0.0022 13.9259 -0.0001 7.6174
# 5 -5.7745 2.0981 -0.1538 -0.0001 21.8356 -0.0051
# 6 -0.0050 0.0060 0.0073 7.6174 -0.0051 22.4811
#
#
#
# Elastic Compliance Matrix: (Units=1/GPa)
#
#
# Indices 1 2 3 4 5 6 
#
# 1 0.012664 -0.008924 -0.002540 -0.000004 0.004189 0.000008
# 2 -0.008924 0.048814 -0.007612 0.000004 -0.007104 -0.000016
# 3 -0.002540 -0.007612 0.020018 0.000008 0.000201 -0.000008
# 4 -0.000004 0.000004 0.000008 0.088146 -0.000008 -0.029867
# 5 0.004189 -0.007104 0.000201 -0.000008 0.047588 0.000016
# 6 0.000008 -0.000016 -0.000008 -0.029867 0.000016 0.054602
#
#
# Mechanical properties :
#
#
# Convention : Reuss Voigt Hill
#
# Bulk Modulus (GPa) = 23.07155 32.30490 27.68823
# Shear Modulus (GPa) = 15.41160 20.29239 17.85200
#
# Velocity S-wave (km/s) = 2.79626 3.20863 3.00952
# Velocity P-wave (km/s) = 4.70433 5.48789 5.11115
#
# Compressibility (1/GPa) = 0.04334342
#
# Stress axis : x y z
#
# Youngs Moduli (GPa) = 78.96510 20.48597 49.95571
#
# Poissons Ratio (x) = 0.18281 0.12691
# Poissons Ratio (y) = 0.70468 0.38025
# Poissons Ratio (z) = 0.20060 0.15593
#
# Static dielectric constant tensor:
#      x y z
#    x 1.702270 0.000010 -0.002090 
#    y 0.000010 1.729950 0.000000 
#    z -0.002090 0.000000 1.663230 
# 
# From -- ./inp_files/46914.got.cif
#   From: 2010.05.17/outbox.ucp.g08.bks.cvg/sg12_24_cif.got.tgz:46914.got - 2010.06.11 11:47:21.
