data_PCOD9225252
_publ_section_title
;
Structure prediction by ZEFSAII (Michael W. Deem and Ramdas Pophale) SiO2 
 PCOD9225252
Probable space group: C 2/M
;
_chemical_formula_sum "Si O2"
_cell_formula_units_Z 32
_cell_length_a 15.000000
_cell_length_b 9.000000
_cell_length_c 27.000000
_cell_angle_alpha 90.000000
_cell_angle_beta 70.000000
_cell_angle_gamma 90.000000
_cell_volume 3425.179603
_symmetry_space_group_name_H-M "C 2/M"
_symmetry_group_IT_number 12
_symmetry_cell_setting 'monoclinic'
loop_
_space_group_symop_operation_xyz
x,y,z
-x,y,-z
-x,-y,-z
x,-y,z
1/2+x,1/2+y,z
1/2-x,1/2+y,-z
1/2-x,1/2-y,-z
1/2+x,1/2-y,z
loop_
_atom_site_type_symbol
_atom_site_label
_atom_site_fract_x
_atom_site_fract_y
_atom_site_fract_z
Si Si1 0.794418 0.321571 0.919822
Si Si2 0.352769 0.323481 0.395880
Si Si3 0.179583 0.824645 0.374204
Si Si4 0.336209 0.178148 0.799172
Si Si5 0.201598 0.675761 0.748717
Si Si6 0.605420 0.179323 0.997654
Si Si7 0.488047 0.176688 0.443953
Si Si8 0.528751 0.323195 0.726383
O O1 0.782221 0.500000 0.924115
O O2 0.832720 0.283518 0.858117
O O3 0.692412 0.247103 0.949685
O O4 0.866751 0.281064 0.950715
O O5 0.336918 0.500000 0.402687
O O6 0.256955 0.242044 0.397306
O O7 0.398204 0.257463 0.436699
O O8 0.428184 0.297620 0.336697
O O9 0.224302 0.806416 0.311025
O O10 0.081726 0.738766 0.399396
O O11 0.165378 0.000000 0.385427
O O12 0.247107 0.249997 0.788047
O O13 0.429917 0.243452 0.755630
O O14 0.334561 0.000000 0.794488
O O15 0.185342 0.500000 0.758615
O O16 0.106378 0.756774 0.749208
O O17 0.608510 0.000000 0.992982
O O18 0.500000 0.226825 0.000000
O O19 0.500000 0.206944 0.500000
O O20 0.479754 0.000000 0.438435
O O21 0.518365 0.500000 0.734566
#
# Coordination Sequence:
#
# PCOD9225252 Si02
#       8
#     8   8   8   8   8   8   8   8
#     4   9  20  36  52  78 111 140 178 223 268 320
#     4  10  21  38  60  83 109 143 182 225 271 324
#     4  10  21  38  60  83 108 141 181 226 274 325
#     4  11  22  35  53  80 117 153 182 222 272 322
#     4  10  21  37  57  82 110 143 185 227 270 323
#     4   9  18  35  58  79 102 138 182 226 271 318
#     4  11  24  39  56  81 111 143 181 225 274 327
#     4  10  21  37  57  83 112 144 184 224 269 327
#
# _framework density 9.3425759999999993
#
# number of rings (size 3 to 8) (size 9 to 14) (size 15 to 20)
#    0.000    2.000    0.000    3.000    0.000    9.750 
#    0.000    1.250    0.000    0.000    0.000    0.000 
#    0.000    0.000    0.000    0.000    0.000    0.000 
#
# Total GULP energy -178784.961914 kJ/mol
# GULP energy per Si atom -5587.030060 kJ/mol
# Density = 0.932131 g / cm^3
# Si number density = 9.342576 Si / 1000 Ang^3
#
#
#
# Elastic Constant Matrix: (Units=GPa)
#
#
# Indices 1 2 3 4 5 6 
#
# 1 82.5453 13.1121 6.6997 0.0000 18.6762 0.0000
# 2 13.1121 45.6581 18.2700 0.0000 13.0763 0.0000
# 3 6.6997 18.2700 8.7652 0.0000 18.0393 0.0000
# 4 0.0000 0.0000 0.0000 28.8055 0.0000 -1.1999
# 5 18.6762 13.0763 18.0393 0.0000 23.6014 0.0000
# 6 0.0000 0.0000 0.0000 -1.1999 0.0000 36.9806
#
#
#
# Elastic Compliance Matrix: (Units=1/GPa)
#
#
# Indices 1 2 3 4 5 6 
#
# 1 0.012924 0.002413 -0.015516 0.000000 0.000296 0.000000
# 2 0.002413 0.019664 0.028758 0.000000 -0.034785 0.000000
# 3 -0.015516 0.028758 -0.128310 0.000000 0.094416 0.000000
# 4 0.000000 0.000000 0.000000 0.034763 0.000000 0.001128
# 5 0.000296 -0.034785 0.094416 0.000000 -0.010757 0.000000
# 6 0.000000 0.000000 0.000000 0.001128 0.000000 0.027078
#
#
# Mechanical properties :
#
#
# Convention : Reuss Voigt Hill
#
# Bulk Modulus (GPa) = -15.52485 23.68134 4.07825
# Shear Modulus (GPa) = -51.32437 24.46994 -13.42721
#
# Velocity S-wave (km/s) = -5.24668 3.62276 -2.68359
# Velocity P-wave (km/s) = 6.71045 5.49550 2.72302
#
# Compressibility (1/GPa) = -0.06441287
#
# Stress axis : x y z
#
# Youngs Moduli (GPa) = 77.37726 50.85522 -7.79363
#
# Poissons Ratio (x) = -0.12269 -0.12093
# Poissons Ratio (y) = -0.18667 0.22413
# Poissons Ratio (z) = 1.20060 -1.46252
#
# Static dielectric constant tensor:
#      x y z
#    x 1.636050 0.000000 0.012920 
#    y 0.000000 1.617040 0.000000 
#    z 0.012920 0.000000 1.642150 
# 
# From -- ./inp_files/359698.got.cif
#   From: 2010.05.17/outbox.ucp.g08.bks.cvg/sg12_180_cif.got.tgz:359698.got - 2010.06.11 11:47:21.
