data_PCOD9225314
_publ_section_title
;
Structure prediction by ZEFSAII (Michael W. Deem and Ramdas Pophale) SiO2 
 PCOD9225314
Probable space group: C 2/M
;
_chemical_formula_sum "Si O2"
_cell_formula_units_Z 32
_cell_length_a 27.000000
_cell_length_b 21.000000
_cell_length_c 12.000000
_cell_angle_alpha 90.000000
_cell_angle_beta 150.000000
_cell_angle_gamma 90.000000
_cell_volume 3402.000000
_symmetry_space_group_name_H-M "C 2/M"
_symmetry_group_IT_number 12
_symmetry_cell_setting 'monoclinic'
loop_
_space_group_symop_operation_xyz
x,y,z
-x,y,-z
-x,-y,-z
x,-y,z
1/2+x,1/2+y,z
1/2-x,1/2+y,-z
1/2-x,1/2-y,-z
1/2+x,1/2-y,z
loop_
_atom_site_type_symbol
_atom_site_label
_atom_site_fract_x
_atom_site_fract_y
_atom_site_fract_z
Si Si1 0.718398 0.575618 0.822153
Si Si2 0.450887 0.686450 0.528138
Si Si3 0.376606 0.691373 0.943836
Si Si4 0.659081 0.808269 0.581768
Si Si5 0.614120 0.808112 0.222955
Si Si6 0.281147 0.072525 0.691428
Si Si7 0.108964 0.576665 0.653409
Si Si8 0.385899 0.569929 0.808870
O O1 0.687722 0.500000 0.772336
O O2 0.625979 0.625934 0.635051
O O3 0.771862 0.581582 0.805648
O O4 0.800351 0.587623 0.080170
O O5 0.500000 0.694034 0.500000
O O6 0.392126 0.749881 0.452631
O O7 0.532456 0.682642 0.789959
O O8 0.277089 0.700668 0.820655
O O9 0.379099 0.746423 0.849570
O O10 0.362882 0.626074 0.848552
O O11 0.641118 0.802499 0.409568
O O12 0.625205 0.874218 0.579773
O O13 0.666801 0.868155 0.267431
O O14 0.500000 0.823951 0.000000
O O15 0.174319 0.073984 0.423431
O O16 0.321284 0.000000 0.749765
O O17 0.111735 0.500000 0.629495
O O18 0.000000 0.587610 0.500000
O O19 0.364499 0.500000 0.816390
O O20 0.500000 0.574386 0.000000
#
# Coordination Sequence:
#
# PCOD9225314 Si02
#       8
#     8   8   8   8   8   8   8   8
#     4  10  23  45  71 100 135 174 217 270 330 391
#     4  12  27  44  67  97 131 174 225 274 326 390
#     4  12  25  42  67  95 132 176 216 272 331 395
#     4  12  26  43  67  96 133 173 221 276 327 389
#     4  12  25  42  66  96 132 175 218 269 332 392
#     4  10  22  40  65  98 132 168 213 268 328 393
#     4  10  24  46  72  99 132 175 222 272 328 388
#     4  10  21  37  62  95 130 170 214 262 321 392
#
# _framework density 9.4062319999999993
#
# number of rings (size 3 to 8) (size 9 to 14) (size 15 to 20)
#    0.000    1.000    2.500    3.375    3.500    7.000 
#    0.000    0.000    0.000    0.000    0.000    0.000 
#    0.000    0.000    0.000    0.000    0.000    0.000 
#
# Total GULP energy -178340.893340 kJ/mol
# GULP energy per Si atom -5573.152917 kJ/mol
# Density = 0.938482 g / cm^3
# Si number density = 9.406232 Si / 1000 Ang^3
#
#
#
# Elastic Constant Matrix: (Units=GPa)
#
#
# Indices 1 2 3 4 5 6 
#
# 1 117.5135 66.2964 39.6006 0.0000 -13.5339 0.0000
# 2 66.2964 141.9834 51.3368 0.0000 -5.4916 0.0000
# 3 39.6006 51.3368 123.6845 0.0000 -3.9577 0.0000
# 4 0.0000 0.0000 0.0000 82.9075 0.0000 83.7243
# 5 -13.5339 -5.4916 -3.9577 0.0000 39.9073 0.0000
# 6 0.0000 0.0000 0.0000 83.7243 0.0000 187.9698
#
#
#
# Elastic Compliance Matrix: (Units=1/GPa)
#
#
# Indices 1 2 3 4 5 6 
#
# 1 0.012291 -0.004973 -0.001765 0.000000 0.003309 0.000000
# 2 -0.004973 0.010324 -0.002710 0.000000 -0.000535 0.000000
# 3 -0.001765 -0.002710 0.009775 0.000000 -0.000002 0.000000
# 4 0.000000 0.000000 0.000000 0.021922 0.000000 -0.009764
# 5 0.003309 -0.000535 -0.000002 0.000000 0.026106 0.000000
# 6 0.000000 0.000000 0.000000 -0.009764 0.000000 0.009669
#
#
# Mechanical properties :
#
#
# Convention : Reuss Voigt Hill
#
# Bulk Modulus (GPa) = 74.10805 77.51655 75.81230
# Shear Modulus (GPa) = 44.05939 77.22011 60.63975
#
# Velocity S-wave (km/s) = 4.84470 6.41377 5.68364
# Velocity P-wave (km/s) = 8.41270 9.80525 9.13555
#
# Compressibility (1/GPa) = 0.01349381
#
# Stress axis : x y z
#
# Youngs Moduli (GPa) = 81.35946 96.85918 102.30046
#
# Poissons Ratio (x) = 0.48166 0.18060
# Poissons Ratio (y) = 0.40459 0.27725
# Poissons Ratio (z) = 0.14363 0.26250
#
# Static dielectric constant tensor:
#      x y z
#    x 1.681630 0.000000 0.010000 
#    y 0.000000 1.704990 0.000000 
#    z 0.010000 0.000000 1.682020 
# 
# From -- ./inp_files/184739.got.cif
#   From: 2010.05.17/outbox.ucp.g08.bks.cvg/sg12_93_cif.got.tgz:184739.got - 2010.06.11 11:47:21.
