data_PCOD9225887
_publ_section_title
;
Structure prediction by ZEFSAII (Michael W. Deem and Ramdas Pophale) SiO2 
 PCOD9225887
Probable space group: C 2/M
;
_chemical_formula_sum "Si O2"
_cell_formula_units_Z 28
_cell_length_a 30.000000
_cell_length_b 9.000000
_cell_length_c 18.000000
_cell_angle_alpha 90.000000
_cell_angle_beta 40.000000
_cell_angle_gamma 90.000000
_cell_volume 3123.947783
_symmetry_space_group_name_H-M "C 2/M"
_symmetry_group_IT_number 12
_symmetry_cell_setting 'monoclinic'
loop_
_space_group_symop_operation_xyz
x,y,z
-x,y,-z
-x,-y,-z
x,-y,z
1/2+x,1/2+y,z
1/2-x,1/2+y,-z
1/2-x,1/2-y,-z
1/2+x,1/2-y,z
loop_
_atom_site_type_symbol
_atom_site_label
_atom_site_fract_x
_atom_site_fract_y
_atom_site_fract_z
Si Si1 0.571667 0.181416 0.866858
Si Si2 0.469342 0.819476 0.242294
Si Si3 0.845437 0.177632 0.663040
Si Si4 0.197232 0.680970 0.811246
Si Si5 0.127398 0.677525 0.218188
Si Si6 0.630414 0.819345 0.049721
Si Si7 0.038384 0.322730 0.582191
O O1 0.567720 0.230363 0.785911
O O2 0.639916 0.231280 0.824673
O O3 0.572265 0.000000 0.866423
O O4 0.500000 0.224271 0.000000
O O5 0.550481 0.777330 0.136586
O O6 0.443019 0.773645 0.357246
O O7 0.467706 0.000000 0.244294
O O8 0.777540 0.223980 0.702186
O O9 0.840599 0.239162 0.752864
O O10 0.914212 0.241128 0.537455
O O11 0.847800 0.000000 0.662524
O O12 0.194704 0.500000 0.813311
O O13 0.173963 0.729458 0.923407
O O14 0.138619 0.500000 0.210856
O O15 0.151845 0.728767 0.105044
O O16 0.043763 0.701472 0.324813
O O17 0.631789 0.000000 0.049780
O O18 0.049522 0.500000 0.561829
#
# Coordination Sequence:
#
# PCOD9225887 Si02
#       7
#     8   8   8   8   8   8   8
#     4   9  13  21  43  71  96 119 146 185 234 279
#     4   8  13  23  44  72  92 112 149 196 236 267
#     4  11  22  32  43  65  99 132 156 184 228 279
#     4   9  17  27  40  65 101 128 146 181 234 283
#     4   9  18  32  52  71  87 116 160 202 234 266
#     4   8  13  25  44  67  92 116 147 191 238 275
#     4   9  18  33  51  69  91 119 158 201 231 261
#
# _framework density 8.9630179999999999
#
# number of rings (size 3 to 8) (size 9 to 14) (size 15 to 20)
#    0.000    3.000    1.429    2.571    0.000    2.857 
#    0.000    0.714    0.000    0.857    0.000    1.000 
#    0.000    2.857    0.000    0.000    0.000    0.000 
#
# Total GULP energy -155958.806638 kJ/mol
# GULP energy per Si atom -5569.957380 kJ/mol
# Density = 0.894262 g / cm^3
# Si number density = 8.963018 Si / 1000 Ang^3
#
#
#
# Elastic Constant Matrix: (Units=GPa)
#
#
# Indices 1 2 3 4 5 6 
#
# 1 109.9773 15.8506 8.2406 -0.0031 11.9712 0.0004
# 2 15.8506 4.9175 3.6374 -0.0097 -1.8086 0.0051
# 3 8.2406 3.6374 13.6771 -0.0068 7.8173 0.0017
# 4 -0.0031 -0.0097 -0.0068 2.0412 0.0015 -1.2213
# 5 11.9712 -1.8086 7.8173 0.0015 22.4159 -0.0011
# 6 0.0004 0.0051 0.0017 -1.2213 -0.0011 15.3260
#
#
#
# Elastic Compliance Matrix: (Units=1/GPa)
#
#
# Indices 1 2 3 4 5 6 
#
# 1 0.036462 -0.178693 0.056108 -0.000565 -0.053457 0.000004
# 2 -0.178693 1.197485 -0.400373 0.003823 0.331675 -0.000023
# 3 0.056108 -0.400373 0.226530 -0.000943 -0.141268 0.000022
# 4 -0.000565 0.003823 -0.000943 0.514451 0.000907 0.040996
# 5 -0.053457 0.331675 -0.141268 0.000907 0.149187 -0.000011
# 6 0.000004 -0.000023 0.000022 0.040996 -0.000011 0.068516
#
#
# Mechanical properties :
#
#
# Convention : Reuss Voigt Hill
#
# Bulk Modulus (GPa) = 2.41219 20.44769 11.42994
# Shear Modulus (GPa) = 1.48072 14.67952 8.08012
#
# Velocity S-wave (km/s) = 0.90984 2.86474 2.12539
# Velocity P-wave (km/s) = 1.56598 4.73009 3.52321
#
# Compressibility (1/GPa) = 0.41456131
#
# Stress axis : x y z
#
# Youngs Moduli (GPa) = 27.42594 0.83508 4.41443
#
# Poissons Ratio (x) = 0.14922 -0.24768
# Poissons Ratio (y) = 4.90081 1.76742
# Poissons Ratio (z) = -1.53880 0.33434
#
# Static dielectric constant tensor:
#      x y z
#    x 1.632170 0.000000 0.012030 
#    y 0.000000 1.588840 0.000000 
#    z 0.012030 0.000000 1.622550 
# 
# From -- ./inp_files/295050.got.cif
#   From: 2010.05.17/outbox.ucp.g08.bks.cvg/sg12_148_cif.got.tgz:295050.got - 2010.06.11 11:47:21.
