data_PCOD9225348
_publ_section_title
;
Structure prediction by ZEFSAII (Michael W. Deem and Ramdas Pophale) SiO2 
 PCOD9225348
Probable space group: C 2/M
;
_chemical_formula_sum "Si O2"
_cell_formula_units_Z 28
_cell_length_a 30.000000
_cell_length_b 9.000000
_cell_length_c 21.000000
_cell_angle_alpha 90.000000
_cell_angle_beta 30.000000
_cell_angle_gamma 90.000000
_cell_volume 2835.000000
_symmetry_space_group_name_H-M "C 2/M"
_symmetry_group_IT_number 12
_symmetry_cell_setting 'monoclinic'
loop_
_space_group_symop_operation_xyz
x,y,z
-x,y,-z
-x,-y,-z
x,-y,z
1/2+x,1/2+y,z
1/2-x,1/2+y,-z
1/2-x,1/2-y,-z
1/2+x,1/2-y,z
loop_
_atom_site_type_symbol
_atom_site_label
_atom_site_fract_x
_atom_site_fract_y
_atom_site_fract_z
Si Si1 0.758339 0.674427 0.688072
Si Si2 0.042039 0.675354 0.516556
Si Si3 0.280145 0.825481 0.396434
Si Si4 0.446932 0.671359 0.229071
Si Si5 0.011795 0.175622 0.284822
Si Si6 0.190997 0.325060 0.019068
Si Si7 0.845479 0.175243 0.063085
O O1 0.745281 0.500000 0.689173
O O2 0.850913 0.687461 0.612392
O O3 0.759471 0.760400 0.620023
O O4 0.682764 0.724478 0.831508
O O5 0.019187 0.500000 0.554819
O O6 0.000000 0.718593 0.500000
O O7 0.012182 0.770714 0.614867
O O8 0.250000 0.750000 0.500000
O O9 0.384800 0.783571 0.268306
O O10 0.264189 0.000000 0.419147
O O11 0.420788 0.500000 0.248090
O O12 0.442253 0.691815 0.311957
O O13 0.549412 0.689129 0.080933
O O14 0.092108 0.278225 0.162064
O O15 0.035948 0.000000 0.255200
O O16 0.203687 0.500000 0.003087
O O17 0.250000 0.250000 0.000000
O O18 0.204968 0.259951 0.931166
O O19 0.823323 0.000000 0.085575
#
# Coordination Sequence:
#
# PCOD9225348 Si02
#       7
#     8   8   8   8   8   8   8
#     4  10  22  41  63  88 123 161 200 245 301 363
#     4  10  22  38  58  87 119 158 200 245 302 362
#     4  12  25  40  62  90 120 156 204 252 303 359
#     4   9  19  38  62  88 121 156 197 245 299 359
#     4  10  21  38  59  86 116 153 199 247 299 357
#     4  11  22  36  58  86 118 157 200 250 300 354
#     4   9  20  39  62  89 121 160 201 244 296 363
#
# _framework density 9.8765429999999999
#
# number of rings (size 3 to 8) (size 9 to 14) (size 15 to 20)
#    0.000    1.857    0.000    4.714    2.000    7.143 
#    0.000    2.857    0.000    0.000    0.000    0.000 
#    0.000    0.000    0.000    0.000    0.000    0.000 
#
# Total GULP energy -156271.107213 kJ/mol
# GULP energy per Si atom -5581.110972 kJ/mol
# Density = 0.985406 g / cm^3
# Si number density = 9.876543 Si / 1000 Ang^3
#
#
#
# Elastic Constant Matrix: (Units=GPa)
#
#
# Indices 1 2 3 4 5 6 
#
# 1 132.2025 58.0918 43.7003 0.0023 15.4252 -0.0027
# 2 58.0918 92.1100 35.3224 0.0142 7.6197 -0.0058
# 3 43.7003 35.3224 67.9128 0.0097 29.7453 -0.0050
# 4 0.0023 0.0142 0.0097 23.4943 -0.0034 5.4222
# 5 15.4252 7.6197 29.7453 -0.0034 31.8919 0.0007
# 6 -0.0027 -0.0058 -0.0050 5.4222 0.0007 39.0008
#
#
#
# Elastic Compliance Matrix: (Units=1/GPa)
#
#
# Indices 1 2 3 4 5 6 
#
# 1 0.011478 -0.005508 -0.004507 0.000004 -0.000032 -0.000001
# 2 -0.005508 0.016833 -0.007805 -0.000006 0.005921 0.000002
# 3 -0.004507 -0.007805 0.033665 -0.000014 -0.027355 0.000005
# 4 0.000004 -0.000006 -0.000014 0.043974 0.000017 -0.006114
# 5 -0.000032 0.005921 -0.027355 0.000017 0.055470 -0.000006
# 6 -0.000001 0.000002 0.000005 -0.006114 -0.000006 0.026490
#
#
# Mechanical properties :
#
#
# Convention : Reuss Voigt Hill
#
# Bulk Modulus (GPa) = 37.96860 62.93937 50.45398
# Shear Modulus (GPa) = 21.52108 29.21814 25.36961
#
# Velocity S-wave (km/s) = 3.30435 3.85017 3.58765
# Velocity P-wave (km/s) = 5.81563 7.19008 6.53907
#
# Compressibility (1/GPa) = 0.02633756
#
# Stress axis : x y z
#
# Youngs Moduli (GPa) = 87.12336 59.40580 29.70403
#
# Poissons Ratio (x) = 0.32720 0.13388
# Poissons Ratio (y) = 0.47987 0.23183
# Poissons Ratio (z) = 0.39267 0.46364
#
# Static dielectric constant tensor:
#      x y z
#    x 1.722260 0.000000 -0.081280 
#    y 0.000000 1.643010 0.000000 
#    z -0.081280 0.000000 1.836850 
# 
# From -- ./inp_files/329476.got.cif
#   From: 2010.05.17/outbox.ucp.g08.bks.cvg/sg12_165_cif.got.tgz:329476.got - 2010.06.11 11:47:21.
