data_PCOD9225778
_publ_section_title
;
Structure prediction by ZEFSAII (Michael W. Deem and Ramdas Pophale) SiO2 
 PCOD9225778
Probable space group: C 2/M
;
_chemical_formula_sum "Si O2"
_cell_formula_units_Z 32
_cell_length_a 21.000000
_cell_length_b 24.000000
_cell_length_c 18.000000
_cell_angle_alpha 90.000000
_cell_angle_beta 160.000000
_cell_angle_gamma 90.000000
_cell_volume 3102.806740
_symmetry_space_group_name_H-M "C 2/M"
_symmetry_group_IT_number 12
_symmetry_cell_setting 'monoclinic'
loop_
_space_group_symop_operation_xyz
x,y,z
-x,y,-z
-x,-y,-z
x,-y,z
1/2+x,1/2+y,z
1/2-x,1/2+y,-z
1/2-x,1/2-y,-z
1/2+x,1/2-y,z
loop_
_atom_site_type_symbol
_atom_site_label
_atom_site_fract_x
_atom_site_fract_y
_atom_site_fract_z
Si Si1 0.393246 0.245023 0.303528
Si Si2 0.411657 0.361097 0.267564
Si Si3 0.564153 0.937426 0.898158
Si Si4 0.523920 0.937748 0.371676
Si Si5 0.315480 0.643739 0.987738
Si Si6 0.244130 0.740005 0.582463
Si Si7 0.603194 0.377724 0.191915
Si Si8 0.147508 0.353899 0.229344
O O1 0.500000 0.235633 0.500000
O O2 0.332418 0.309276 0.229099
O O3 0.230339 0.201545 0.105630
O O4 0.538951 0.240300 0.394568
O O5 0.628085 0.367121 0.530430
O O6 0.274148 0.413042 0.128673
O O7 0.387282 0.348583 0.151475
O O8 0.485409 0.938600 0.728105
O O9 0.432924 0.896615 0.799409
O O10 0.562577 0.000000 0.926412
O O11 0.376133 0.890061 0.227527
O O12 0.723593 0.919266 0.620793
O O13 0.474506 0.000000 0.343558
O O14 0.459646 0.606839 0.099297
O O15 0.250000 0.750000 0.500000
O O16 0.323580 0.681439 0.696842
O O17 0.350679 0.791120 0.737541
O O18 0.500000 0.372618 0.000000
O O19 0.000000 0.357174 0.000000
#
# Coordination Sequence:
#
# PCOD9225778 Si02
#       8
#     8   8   8   8   8   8   8   8
#     4  11  23  39  66  98 137 169 210 271 342 387
#     4  10  24  41  64  96 126 170 219 261 319 397
#     4  10  23  43  69  91 123 172 219 270 322 385
#     4  10  23  45  66  91 128 171 223 274 321 391
#     4  11  23  41  67  94 128 173 219 267 324 397
#     4  11  23  41  66  97 134 177 221 266 328 405
#     4  12  24  39  65  96 134 170 216 271 336 394
#     4  11  25  41  64  96 135 169 212 271 333 387
#
# _framework density 10.313243
#
# number of rings (size 3 to 8) (size 9 to 14) (size 15 to 20)
#    0.000    1.250    1.250    4.500    7.000    1.500 
#    0.000    3.750    0.000    0.000    0.000    0.000 
#    0.000    0.000    0.000    0.000    0.000    0.000 
#
# Total GULP energy -178717.944289 kJ/mol
# GULP energy per Si atom -5584.935759 kJ/mol
# Density = 1.028977 g / cm^3
# Si number density = 10.313243 Si / 1000 Ang^3
#
#
#
# Elastic Constant Matrix: (Units=GPa)
#
#
# Indices 1 2 3 4 5 6 
#
# 1 19.4986 -1.4194 4.9546 0.0000 9.2816 0.0001
# 2 -1.4194 71.4554 13.6632 0.0000 1.0986 0.0001
# 3 4.9546 13.6632 107.4854 0.0002 -6.3059 0.0002
# 4 0.0000 0.0000 0.0002 19.1444 0.0001 -2.9287
# 5 9.2816 1.0986 -6.3059 0.0001 27.6336 0.0000
# 6 0.0001 0.0001 0.0002 -2.9287 0.0000 5.9355
#
#
#
# Elastic Compliance Matrix: (Units=1/GPa)
#
#
# Indices 1 2 3 4 5 6 
#
# 1 0.063278 0.002470 -0.004544 0.000000 -0.022389 -0.000001
# 2 0.002470 0.014467 -0.002063 0.000000 -0.001876 0.000000
# 3 -0.004544 -0.002063 0.010004 0.000000 0.003891 0.000000
# 4 0.000000 0.000000 0.000000 0.056499 0.000000 0.027877
# 5 -0.022389 -0.001876 0.003891 0.000000 0.044671 0.000000
# 6 -0.000001 0.000000 0.000000 0.027877 0.000000 0.182231
#
#
# Mechanical properties :
#
#
# Convention : Reuss Voigt Hill
#
# Bulk Modulus (GPa) = 12.58267 25.87069 19.22668
# Shear Modulus (GPa) = 12.31783 22.62543 17.47163
#
# Velocity S-wave (km/s) = 2.44639 3.31556 2.91357
# Velocity P-wave (km/s) = 3.75410 5.21794 4.54534
#
# Compressibility (1/GPa) = 0.07947439
#
# Stress axis : x y z
#
# Youngs Moduli (GPa) = 15.80329 69.12230 99.96417
#
# Poissons Ratio (x) = -0.17074 0.45428
# Poissons Ratio (y) = -0.03904 0.20622
# Poissons Ratio (z) = 0.07182 0.14259
#
# Static dielectric constant tensor:
#      x y z
#    x 1.769100 0.000000 0.057860 
#    y 0.000000 1.742780 0.000000 
#    z 0.057860 0.000000 1.758710 
# 
# From -- ./inp_files/286463.got.cif
#   From: 2010.05.17/outbox.ucp.g08.bks.cvg/sg12_144_cif.got.tgz:286463.got - 2010.06.11 11:47:21.
