data_PCOD9225294
_publ_section_title
;
Structure prediction by ZEFSAII (Michael W. Deem and Ramdas Pophale) SiO2 
 PCOD9225294
Probable space group: C 2/M
;
_chemical_formula_sum "Si O2"
_cell_formula_units_Z 24
_cell_length_a 24.000000
_cell_length_b 12.000000
_cell_length_c 9.000000
_cell_angle_alpha 90.000000
_cell_angle_beta 90.000000
_cell_angle_gamma 90.000000
_cell_volume 2592.000000
_symmetry_space_group_name_H-M "C 2/M"
_symmetry_group_IT_number 12
_symmetry_cell_setting 'monoclinic'
loop_
_space_group_symop_operation_xyz
x,y,z
-x,y,-z
-x,-y,-z
x,-y,z
1/2+x,1/2+y,z
1/2-x,1/2+y,-z
1/2-x,1/2-y,-z
1/2+x,1/2-y,z
loop_
_atom_site_type_symbol
_atom_site_label
_atom_site_fract_x
_atom_site_fract_y
_atom_site_fract_z
Si Si1 0.306788 0.631316 0.863156
Si Si2 0.746694 0.870993 0.407661
Si Si3 0.589715 0.134636 0.648128
Si Si4 0.688089 0.752604 0.828519
Si Si5 0.871399 0.710173 0.670494
Si Si6 0.980252 0.633844 0.836837
O O1 0.310881 0.500000 0.884992
O O2 0.242553 0.667636 0.836199
O O3 0.345172 0.673413 0.726831
O O4 0.323649 0.700882 0.010206
O O5 0.750000 0.750000 0.500000
O O6 0.792652 0.847305 0.281410
O O7 0.684459 0.866099 0.337542
O O8 0.753285 0.000000 0.469831
O O9 0.636947 0.178603 0.761029
O O10 0.601927 0.196447 0.492733
O O11 0.529126 0.158888 0.717818
O O12 0.594216 0.000000 0.626987
O O13 0.920409 0.677151 0.783447
O O14 0.975897 0.500000 0.843701
O O15 0.000000 0.673206 0.000000
#
# Coordination Sequence:
#
# PCOD9225294 Si02
#       6
#     8   8   8   8   8   8
#     4  10  22  39  59  84 121 162 206 252 302 363
#     4  11  22  36  59  90 125 162 199 248 304 368
#     4  11  21  36  60  90 123 156 197 252 311 367
#     4  10  21  38  59  88 118 160 202 251 303 363
#     4  11  22  37  59  88 122 158 198 250 307 363
#     4  10  21  37  60  88 119 157 200 251 309 366
#
# _framework density 9.2592590000000001
#
# number of rings (size 3 to 8) (size 9 to 14) (size 15 to 20)
#    0.000    1.500    1.667    4.000    0.000    4.000 
#    0.000    6.667    0.000    7.500    0.000    0.000 
#    0.000    0.000    0.000    0.000    0.000    0.000 
#
# Total GULP energy -133868.532742 kJ/mol
# GULP energy per Si atom -5577.855531 kJ/mol
# Density = 0.923818 g / cm^3
# Si number density = 9.259259 Si / 1000 Ang^3
#
#
#
# Elastic Constant Matrix: (Units=GPa)
#
#
# Indices 1 2 3 4 5 6 
#
# 1 110.4813 37.8638 29.3185 0.0000 9.3506 0.0000
# 2 37.8638 104.1307 42.4314 0.0000 -3.6937 0.0000
# 3 29.3185 42.4314 81.6039 0.0000 2.1726 0.0000
# 4 0.0000 0.0000 0.0000 28.6062 0.0000 -2.1223
# 5 9.3506 -3.6937 2.1726 0.0000 38.7726 0.0000
# 6 0.0000 0.0000 0.0000 -2.1223 0.0000 20.7439
#
#
#
# Elastic Compliance Matrix: (Units=1/GPa)
#
#
# Indices 1 2 3 4 5 6 
#
# 1 0.010969 -0.003189 -0.002207 0.000000 -0.002826 0.000000
# 2 -0.003189 0.013202 -0.005781 0.000000 0.002351 0.000000
# 3 -0.002207 -0.005781 0.016078 0.000000 -0.000919 0.000000
# 4 0.000000 0.000000 0.000000 0.035225 0.000000 0.003604
# 5 -0.002826 0.002351 -0.000919 0.000000 0.026748 0.000000
# 6 0.000000 0.000000 0.000000 0.003604 0.000000 0.048576
#
#
# Mechanical properties :
#
#
# Convention : Reuss Voigt Hill
#
# Bulk Modulus (GPa) = 55.88756 57.27147 56.57952
# Shear Modulus (GPa) = 27.91436 30.06469 28.98952
#
# Velocity S-wave (km/s) = 3.88671 4.03363 3.96085
# Velocity P-wave (km/s) = 7.09836 7.25860 7.17893
#
# Compressibility (1/GPa) = 0.01789307
#
# Stress axis : x y z
#
# Youngs Moduli (GPa) = 91.16370 75.74465 62.19663
#
# Poissons Ratio (x) = 0.24158 0.13729
# Poissons Ratio (y) = 0.29075 0.35959
# Poissons Ratio (z) = 0.20124 0.43791
#
# Static dielectric constant tensor:
#      x y z
#    x 1.629430 0.000000 0.011000 
#    y 0.000000 1.621390 0.000000 
#    z 0.011000 0.000000 1.716730 
# 
# From -- ./inp_files/94406.got.cif
#   From: 2010.05.17/outbox.ucp.g08.bks.cvg/sg12_48_cif.got.tgz:94406.got - 2010.06.11 11:47:21.
