data_PCOD9225783
_publ_section_title
;
Structure prediction by ZEFSAII (Michael W. Deem and Ramdas Pophale) SiO2 
 PCOD9225783
Probable space group: C 2/M
;
_chemical_formula_sum "Si O2"
_cell_formula_units_Z 28
_cell_length_a 27.000000
_cell_length_b 9.000000
_cell_length_c 18.000000
_cell_angle_alpha 90.000000
_cell_angle_beta 40.000000
_cell_angle_gamma 90.000000
_cell_volume 2811.553005
_symmetry_space_group_name_H-M "C 2/M"
_symmetry_group_IT_number 12
_symmetry_cell_setting 'monoclinic'
loop_
_space_group_symop_operation_xyz
x,y,z
-x,y,-z
-x,-y,-z
x,-y,z
1/2+x,1/2+y,z
1/2-x,1/2+y,-z
1/2-x,1/2-y,-z
1/2+x,1/2-y,z
loop_
_atom_site_type_symbol
_atom_site_label
_atom_site_fract_x
_atom_site_fract_y
_atom_site_fract_z
Si Si1 0.002013 0.826903 0.586946
Si Si2 0.633256 0.177903 0.170252
Si Si3 0.959166 0.678698 0.126027
Si Si4 0.255165 0.179300 0.834576
Si Si5 0.715474 0.819303 0.616622
Si Si6 0.406827 0.322136 0.939336
Si Si7 0.836497 0.319976 0.590335
O O1 0.082884 0.757949 0.519283
O O2 0.000000 0.823043 0.500000
O O3 0.936114 0.722166 0.695288
O O4 0.992988 0.000000 0.620513
O O5 0.709079 0.228221 0.128297
O O6 0.616803 0.267091 0.114706
O O7 0.635769 0.000000 0.154402
O O8 0.960896 0.500000 0.123075
O O9 0.016517 0.743781 0.121576
O O10 0.871761 0.719015 0.253315
O O11 0.000000 0.727298 0.000000
O O12 0.310060 0.221240 0.704135
O O13 0.255048 0.000000 0.836989
O O14 0.166810 0.224795 0.925811
O O15 0.750000 0.750000 0.500000
O O16 0.772072 0.749210 0.612150
O O17 0.719556 0.000000 0.607512
O O18 0.415290 0.500000 0.931797
O O19 0.841102 0.500000 0.578739
#
# Coordination Sequence:
#
# PCOD9225783 Si02
#       7
#     8   8   8   8   8   8   8
#     4  11  23  39  60  91 126 162 207 256 306 366
#     4  11  22  39  61  87 125 168 209 251 304 369
#     4  10  23  45  69  93 123 164 216 267 320 383
#     4   9  20  38  61  91 125 164 206 250 306 371
#     4  11  25  44  66  94 128 165 212 268 326 383
#     4  11  23  39  62  93 127 161 204 258 313 368
#     4  11  22  40  66  92 123 164 208 254 312 378
#
# _framework density 9.9589090000000002
#
# number of rings (size 3 to 8) (size 9 to 14) (size 15 to 20)
#    0.000    1.429    1.429    3.429    2.000    2.000 
#    0.000    4.286    0.000    0.000    0.000    0.000 
#    0.000    0.000    0.000    0.000    0.000    0.000 
#
# Total GULP energy -156253.614052 kJ/mol
# GULP energy per Si atom -5580.486216 kJ/mol
# Density = 0.993624 g / cm^3
# Si number density = 9.958909 Si / 1000 Ang^3
#
#
#
# Elastic Constant Matrix: (Units=GPa)
#
#
# Indices 1 2 3 4 5 6 
#
# 1 116.0339 9.0275 38.2429 -0.0036 -21.3537 0.0037
# 2 9.0275 24.5175 4.4323 -0.0082 -8.4494 0.0070
# 3 38.2429 4.4323 88.1940 -0.0068 -15.3570 0.0057
# 4 -0.0036 -0.0082 -0.0068 28.0981 0.0047 0.0982
# 5 -21.3537 -8.4494 -15.3570 0.0047 43.0066 -0.0031
# 6 0.0037 0.0070 0.0057 0.0982 -0.0031 23.8392
#
#
#
# Elastic Compliance Matrix: (Units=1/GPa)
#
#
# Indices 1 2 3 4 5 6 
#
# 1 0.010720 -0.002023 -0.003934 -0.000001 0.003521 0.000000
# 2 -0.002023 0.044178 -0.000007 0.000011 0.007673 -0.000012
# 3 -0.003934 -0.000007 0.013547 0.000002 0.002883 -0.000002
# 4 -0.000001 0.000011 0.000002 0.035590 -0.000001 -0.000147
# 5 0.003521 0.007673 0.002883 -0.000001 0.027537 0.000000
# 6 0.000000 -0.000012 -0.000002 -0.000147 0.000000 0.041948
#
#
# Mechanical properties :
#
#
# Convention : Reuss Voigt Hill
#
# Bulk Modulus (GPa) = 17.69374 36.90565 27.29970
# Shear Modulus (GPa) = 24.47552 30.79163 27.63358
#
# Velocity S-wave (km/s) = 3.50926 3.93610 3.72880
# Velocity P-wave (km/s) = 5.03215 6.26310 5.68106
#
# Compressibility (1/GPa) = 0.05651715
#
# Stress axis : x y z
#
# Youngs Moduli (GPa) = 93.28430 22.63593 73.81871
#
# Poissons Ratio (x) = 0.04579 0.29038
# Poissons Ratio (y) = 0.18869 0.00052
# Poissons Ratio (z) = 0.36695 0.00016
#
# Static dielectric constant tensor:
#      x y z
#    x 1.721190 0.000000 0.006830 
#    y 0.000000 1.653530 0.000000 
#    z 0.006830 0.000000 1.765090 
# 
# From -- ./inp_files/292376.got.cif
#   From: 2010.05.17/outbox.ucp.g08.bks.cvg/sg12_147_cif.got.tgz:292376.got - 2010.06.11 11:47:21.
