data_PCOD9225247
_publ_section_title
;
Structure prediction by ZEFSAII (Michael W. Deem and Ramdas Pophale) SiO2 
 PCOD9225247
Probable space group: C 2/M
;
_chemical_formula_sum "Si O2"
_cell_formula_units_Z 32
_cell_length_a 21.000000
_cell_length_b 15.000000
_cell_length_c 30.000000
_cell_angle_alpha 90.000000
_cell_angle_beta 20.000000
_cell_angle_gamma 90.000000
_cell_volume 3232.090354
_symmetry_space_group_name_H-M "C 2/M"
_symmetry_group_IT_number 12
_symmetry_cell_setting 'monoclinic'
loop_
_space_group_symop_operation_xyz
x,y,z
-x,y,-z
-x,-y,-z
x,-y,z
1/2+x,1/2+y,z
1/2-x,1/2+y,-z
1/2-x,1/2-y,-z
1/2+x,1/2-y,z
loop_
_atom_site_type_symbol
_atom_site_label
_atom_site_fract_x
_atom_site_fract_y
_atom_site_fract_z
Si Si1 0.513985 0.103940 0.839219
Si Si2 0.210674 0.398260 0.373175
Si Si3 0.138806 0.851077 0.449479
Si Si4 0.238669 0.683912 0.444153
Si Si5 0.790106 0.103171 0.737150
Si Si6 0.163901 0.896204 0.929286
Si Si7 0.567873 0.748664 0.287893
Si Si8 0.894843 0.107681 0.927186
O O1 0.672558 0.108599 0.695997
O O2 0.628550 0.134785 0.808303
O O3 0.481273 0.000000 0.869378
O O4 0.307092 0.139876 0.960876
O O5 0.208052 0.500000 0.358331
O O6 0.231072 0.394726 0.413330
O O7 0.405933 0.357981 0.224501
O O8 0.000000 0.363434 0.500000
O O9 0.212669 0.767993 0.428577
O O10 0.000000 0.830116 0.500000
O O11 0.992170 0.899813 0.578931
O O12 0.427803 0.694716 0.347541
O O13 0.066163 0.693081 0.591435
O O14 0.817247 0.176628 0.758178
O O15 0.750664 0.000000 0.776933
O O16 0.308765 0.819787 0.819875
O O17 0.234091 0.000000 0.882321
O O18 0.104304 0.878226 0.019833
O O19 0.000000 0.892135 0.000000
O O20 0.895467 0.000000 0.919921
#
# Coordination Sequence:
#
# PCOD9225247 Si02
#       8
#     8   8   8   8   8   8   8   8
#     4   9  16  30  55  83 116 151 194 249 302 354
#     4  10  22  39  62  87 115 157 207 260 318 372
#     4   9  16  29  51  82 114 150 198 244 301 354
#     4  10  21  37  56  82 123 158 196 256 300 358
#     4   9  18  33  56  85 122 165 202 242 294 358
#     4  10  22  41  65  89 120 160 203 255 311 369
#     4  10  22  39  57  88 126 161 209 247 294 368
#     4   9  19  37  59  88 117 147 198 257 311 371
#
# _framework density 9.9007129999999997
#
# number of rings (size 3 to 8) (size 9 to 14) (size 15 to 20)
#    0.000    2.500    0.000    1.500    1.750    2.500 
#    2.250    7.500    0.000    0.375    0.000    0.000 
#    0.000    0.000    0.000    0.000    0.000    0.000 
#
# Total GULP energy -178195.987255 kJ/mol
# GULP energy per Si atom -5568.624602 kJ/mol
# Density = 0.987818 g / cm^3
# Si number density = 9.900713 Si / 1000 Ang^3
#
#
#
# Elastic Constant Matrix: (Units=GPa)
#
#
# Indices 1 2 3 4 5 6 
#
# 1 114.6958 16.3895 57.5821 -0.0130 -13.5472 0.0003
# 2 16.3895 54.3571 25.7592 -0.0279 2.5475 0.0008
# 3 57.5821 25.7592 138.6694 0.0002 -15.7327 0.0000
# 4 -0.0130 -0.0279 0.0002 22.6651 0.0158 4.8838
# 5 -13.5472 2.5475 -15.7327 0.0158 33.8748 -0.0027
# 6 0.0003 0.0008 0.0000 4.8838 -0.0027 25.7414
#
#
#
# Elastic Compliance Matrix: (Units=1/GPa)
#
#
# Indices 1 2 3 4 5 6 
#
# 1 0.011328 -0.001604 -0.004094 0.000003 0.002750 0.000000
# 2 -0.001604 0.020787 -0.003637 0.000029 -0.003894 -0.000006
# 3 -0.004094 -0.003637 0.009957 -0.000010 0.003261 0.000002
# 4 0.000003 0.000029 -0.000010 0.046001 -0.000028 -0.008728
# 5 0.002750 -0.003894 0.003261 -0.000028 0.032427 0.000009
# 6 0.000000 -0.000006 0.000002 -0.008728 0.000009 0.040504
#
#
# Mechanical properties :
#
#
# Convention : Reuss Voigt Hill
#
# Bulk Modulus (GPa) = 42.73298 56.35378 49.54338
# Shear Modulus (GPa) = 26.67024 30.32235 28.49630
#
# Velocity S-wave (km/s) = 3.67397 3.91746 3.79767
# Velocity P-wave (km/s) = 6.29484 6.99880 6.65613
#
# Compressibility (1/GPa) = 0.02340113
#
# Stress axis : x y z
#
# Youngs Moduli (GPa) = 88.27610 48.10797 100.43252
#
# Poissons Ratio (x) = 0.07718 0.41117
# Poissons Ratio (y) = 0.14163 0.36526
# Poissons Ratio (z) = 0.36140 0.17496
#
# Static dielectric constant tensor:
#      x y z
#    x 1.697580 -0.000010 0.000550 
#    y -0.000010 1.766330 0.000030 
#    z 0.000550 0.000030 1.712770 
# 
# From -- ./inp_files/381464.got.cif
#   From: 2010.05.17/outbox.ucp.g08.bks.cvg/sg12_191_cif.got.tgz:381464.got - 2010.06.11 11:47:21.
