data_PCOD9225924
_publ_section_title
;
Structure prediction by ZEFSAII (Michael W. Deem and Ramdas Pophale) SiO2 
 PCOD9225924
Probable space group: C 2/M
;
_chemical_formula_sum "Si O2"
_cell_formula_units_Z 22
_cell_length_a 18.000000
_cell_length_b 24.000000
_cell_length_c 15.000000
_cell_angle_alpha 90.000000
_cell_angle_beta 20.000000
_cell_angle_gamma 90.000000
_cell_volume 2216.290529
_symmetry_space_group_name_H-M "C 2/M"
_symmetry_group_IT_number 12
_symmetry_cell_setting 'monoclinic'
loop_
_space_group_symop_operation_xyz
x,y,z
-x,y,-z
-x,-y,-z
x,-y,z
1/2+x,1/2+y,z
1/2-x,1/2+y,-z
1/2-x,1/2-y,-z
1/2+x,1/2-y,z
loop_
_atom_site_type_symbol
_atom_site_label
_atom_site_fract_x
_atom_site_fract_y
_atom_site_fract_z
Si Si1 0.537942 0.406876 0.673506
Si Si2 0.560356 0.789361 0.668939
Si Si3 0.806268 0.500000 0.965800
Si Si4 0.147062 0.116496 0.752667
Si Si5 0.117053 0.500000 0.773359
Si Si6 0.105092 0.198399 0.279475
Si Si7 0.642446 0.000000 0.428801
O O1 0.533865 0.396880 0.784959
O O2 0.739693 0.445220 0.412958
O O3 0.509936 0.351612 0.646219
O O4 0.334534 0.445409 0.884231
O O5 0.750000 0.750000 0.500000
O O6 0.667298 0.842237 0.496663
O O7 0.457541 0.753971 0.703979
O O8 0.369417 0.805006 0.957561
O O9 0.916753 0.500000 0.934570
O O10 0.983738 0.500000 0.690586
O O11 0.228136 0.057972 0.704122
O O12 0.000000 0.141620 0.000000
O O13 0.000000 0.500000 0.000000
O O14 0.000000 0.198680 0.500000
O O15 0.500000 0.000000 0.500000
#
# Coordination Sequence:
#
# PCOD9225924 Si02
#       7
#     8   8   4   8   4   8   4
#     4  11  24  44  65 105 139 181 243 297 348 448
#     4  11  26  49  70 103 146 184 246 295 362 440
#     4  11  22  41  67  92 150 177 227 292 356 416
#     4  12  25  44  73 102 146 188 236 300 366 430
#     4  11  26  42  67 100 142 191 236 295 368 422
#     4  11  27  44  74 103 139 185 240 300 363 425
#     4  12  23  42  69 108 139 188 235 288 364 439
#
# _framework density 9.9264960000000002
#
# number of rings (size 3 to 8) (size 9 to 14) (size 15 to 20)
#    0.000    0.727    3.636    3.000    5.091    1.455 
#    0.000    0.000    0.000    0.000    0.000    0.000 
#    0.000    0.000    0.000    0.000    0.000    0.000 
#
# Total GULP energy -122619.146585 kJ/mol
# GULP energy per Si atom -5573.597572 kJ/mol
# Density = 0.990390 g / cm^3
# Si number density = 9.926496 Si / 1000 Ang^3
#
#
#
# Elastic Constant Matrix: (Units=GPa)
#
#
# Indices 1 2 3 4 5 6 
#
# 1 165.2167 32.8603 64.9576 -0.1254 29.1938 0.0734
# 2 32.8603 102.8422 34.6886 0.3513 -2.9177 -0.2242
# 3 64.9576 34.6886 130.4593 -0.0444 29.8442 -0.0128
# 4 -0.1254 0.3513 -0.0444 -78.1724 0.1208 67.4302
# 5 29.1938 -2.9177 29.8442 0.1208 46.7339 -0.0636
# 6 0.0734 -0.2242 -0.0128 67.4302 -0.0636 -3.1781
#
#
#
# Elastic Compliance Matrix: (Units=1/GPa)
#
#
# Indices 1 2 3 4 5 6 
#
# 1 0.008095 -0.001740 -0.002795 -0.000018 -0.003381 0.000008
# 2 -0.001740 0.011403 -0.003018 0.000042 0.003726 -0.000023
# 3 -0.002795 -0.003018 0.011129 -0.000009 -0.005549 0.000017
# 4 -0.000018 0.000042 -0.000009 0.000740 0.000039 0.015687
# 5 -0.003381 0.003726 -0.005549 0.000039 0.027286 -0.000033
# 6 0.000008 -0.000023 0.000017 0.015687 -0.000033 0.018186
#
#
# Mechanical properties :
#
#
# Convention : Reuss Voigt Hill
#
# Bulk Modulus (GPa) = 64.42599 73.72568 69.07583
# Shear Modulus (GPa) = 51.48430 10.81080 31.14755
#
# Velocity S-wave (km/s) = 5.09795 2.33608 3.96524
# Velocity P-wave (km/s) = 8.19598 6.67029 7.47218
#
# Compressibility (1/GPa) = 0.01552169
#
# Stress axis : x y z
#
# Youngs Moduli (GPa) = 123.53725 87.69605 89.85775
#
# Poissons Ratio (x) = 0.15256 0.25111
# Poissons Ratio (y) = 0.21491 0.27120
# Poissons Ratio (z) = 0.34523 0.26468
#
# Static dielectric constant tensor:
#      x y z
#    x 1.672700 0.000030 -0.042420 
#    y 0.000030 1.771470 0.000100 
#    z -0.042420 0.000100 1.758500 
# 
# From -- ./inp_files/228087.got.cif
#   From: 2010.05.17/outbox.ucp.g08.bks.cvg/sg12_115_cif.got.tgz:228087.got - 2010.06.11 11:47:21.
