data_PCOD9225391
_publ_section_title
;
Structure prediction by ZEFSAII (Michael W. Deem and Ramdas Pophale) SiO2 
 PCOD9225391
Probable space group: C 2/M
;
_chemical_formula_sum "Si O2"
_cell_formula_units_Z 24
_cell_length_a 27.000000
_cell_length_b 9.000000
_cell_length_c 21.000000
_cell_angle_alpha 90.000000
_cell_angle_beta 30.000000
_cell_angle_gamma 90.000000
_cell_volume 2551.500000
_symmetry_space_group_name_H-M "C 2/M"
_symmetry_group_IT_number 12
_symmetry_cell_setting 'monoclinic'
loop_
_space_group_symop_operation_xyz
x,y,z
-x,y,-z
-x,-y,-z
x,-y,z
1/2+x,1/2+y,z
1/2-x,1/2+y,-z
1/2-x,1/2-y,-z
1/2+x,1/2-y,z
loop_
_atom_site_type_symbol
_atom_site_label
_atom_site_fract_x
_atom_site_fract_y
_atom_site_fract_z
Si Si1 0.714969 0.821322 0.855347
Si Si2 0.997764 0.179804 0.080606
Si Si3 0.905213 0.178813 0.561040
Si Si4 0.961420 0.672289 0.367223
Si Si5 0.302821 0.174696 0.881827
Si Si6 0.644560 0.818442 0.646837
O O1 0.796650 0.779016 0.710051
O O2 0.769530 0.767537 0.858022
O O3 0.702128 0.000000 0.867750
O O4 0.606747 0.744804 0.976474
O O5 0.911678 0.251489 0.225352
O O6 0.992230 0.000000 0.094811
O O7 0.000000 0.208349 0.000000
O O8 0.917238 0.236469 0.475650
O O9 0.000000 0.229200 0.500000
O O10 0.909034 0.000000 0.556977
O O11 0.932669 0.500000 0.408943
O O12 0.927371 0.711626 0.333643
O O13 0.079478 0.684309 0.240510
O O14 0.223418 0.500000 0.095350
O O15 0.250000 0.250000 0.000000
O O16 0.750000 0.750000 0.500000
O O17 0.655029 0.000000 0.643632
#
# Coordination Sequence:
#
# PCOD9225391 Si02
#       6
#     8   8   8   8   8   8
#     4  11  23  40  63  93 130 168 213 266 325 394
#     4  11  26  47  70  98 131 171 223 278 334 396
#     4  10  21  38  61  94 130 168 212 257 314 386
#     4  10  23  40  61  90 126 165 210 263 319 383
#     4  11  22  37  60  90 123 165 210 262 325 388
#     4  11  25  46  70  99 133 172 221 274 332 397
#
# _framework density 9.4062319999999993
#
# number of rings (size 3 to 8) (size 9 to 14) (size 15 to 20)
#    0.000    1.333    1.667    3.000    2.333    6.333 
#    0.000    0.000    0.000    0.000    0.000    0.000 
#    0.000    0.000    0.000    0.000    0.000    0.000 
#
# Total GULP energy -133766.157356 kJ/mol
# GULP energy per Si atom -5573.589890 kJ/mol
# Density = 0.938482 g / cm^3
# Si number density = 9.406232 Si / 1000 Ang^3
#
#
#
# Elastic Constant Matrix: (Units=GPa)
#
#
# Indices 1 2 3 4 5 6 
#
# 1 95.3775 24.0104 36.8059 0.0002 12.1130 -0.0002
# 2 24.0104 70.7292 53.5908 -0.0006 6.9971 -0.0002
# 3 36.8059 53.5908 158.8417 -0.0014 24.0265 0.0003
# 4 0.0002 -0.0006 -0.0014 42.7514 0.0004 7.4491
# 5 12.1130 6.9971 24.0265 0.0004 45.1985 0.0001
# 6 -0.0002 -0.0002 0.0003 7.4491 0.0001 32.9848
#
#
#
# Elastic Compliance Matrix: (Units=1/GPa)
#
#
# Indices 1 2 3 4 5 6 
#
# 1 0.012021 -0.002688 -0.001581 0.000000 -0.001965 0.000000
# 2 -0.002688 0.019606 -0.006135 0.000000 0.000947 0.000000
# 3 -0.001581 -0.006135 0.009269 0.000000 -0.003554 0.000000
# 4 0.000000 0.000000 0.000000 0.024349 0.000000 -0.005499
# 5 -0.001965 0.000947 -0.003554 0.000000 0.024394 0.000000
# 6 0.000000 0.000000 0.000000 -0.005499 0.000000 0.031559
#
#
# Mechanical properties :
#
#
# Convention : Reuss Voigt Hill
#
# Bulk Modulus (GPa) = 49.78281 61.52916 55.65598
# Shear Modulus (GPa) = 33.62407 38.22302 35.92354
#
# Velocity S-wave (km/s) = 4.23227 4.51243 4.37459
# Velocity P-wave (km/s) = 7.09950 7.74125 7.42731
#
# Compressibility (1/GPa) = 0.02008726
#
# Stress axis : x y z
#
# Youngs Moduli (GPa) = 83.18659 51.00535 107.88217
#
# Poissons Ratio (x) = 0.13712 0.17059
# Poissons Ratio (y) = 0.22363 0.66185
# Poissons Ratio (z) = 0.13154 0.31291
#
# Static dielectric constant tensor:
#      x y z
#    x 1.730530 0.000000 0.037970 
#    y 0.000000 1.651720 0.000000 
#    z 0.037970 0.000000 1.695270 
# 
# From -- ./inp_files/327190.got.cif
#   From: 2010.05.17/outbox.ucp.g08.bks.cvg/sg12_164_cif.got.tgz:327190.got - 2010.06.11 11:47:21.
