data_PCOD9225072
_publ_section_title
;
Structure prediction by ZEFSAII (Michael W. Deem and Ramdas Pophale) SiO2 
 PCOD9225072
Probable space group: C 2/M
;
_chemical_formula_sum "Si O2"
_cell_formula_units_Z 22
_cell_length_a 27.000000
_cell_length_b 12.000000
_cell_length_c 9.000000
_cell_angle_alpha 90.000000
_cell_angle_beta 130.000000
_cell_angle_gamma 90.000000
_cell_volume 2233.785596
_symmetry_space_group_name_H-M "C 2/M"
_symmetry_group_IT_number 12
_symmetry_cell_setting 'monoclinic'
loop_
_space_group_symop_operation_xyz
x,y,z
-x,y,-z
-x,-y,-z
x,-y,z
1/2+x,1/2+y,z
1/2-x,1/2+y,-z
1/2-x,1/2-y,-z
1/2+x,1/2-y,z
loop_
_atom_site_type_symbol
_atom_site_label
_atom_site_fract_x
_atom_site_fract_y
_atom_site_fract_z
Si Si1 0.935597 0.500000 0.281208
Si Si2 0.843086 0.500000 0.379611
Si Si3 0.705504 0.247355 0.632059
Si Si4 0.951637 0.757936 0.211917
Si Si5 0.083949 0.864604 0.540103
Si Si6 0.846466 0.280525 0.794015
Si Si7 0.578615 0.000000 0.176617
O O1 0.873768 0.500000 0.273343
O O2 0.941364 0.623063 0.214534
O O3 0.000000 0.500000 0.500000
O O4 0.804471 0.616228 0.338985
O O5 0.903164 0.500000 0.613104
O O6 0.655020 0.321044 0.629978
O O7 0.781447 0.283341 0.772278
O O8 0.679649 0.263263 0.413630
O O9 0.928588 0.821376 0.316409
O O10 0.026355 0.798489 0.338432
O O11 0.902786 0.788076 0.984962
O O12 0.078002 0.000000 0.517124
O O13 0.883015 0.395107 0.819089
O O14 0.500000 0.000000 0.000000
#
# Coordination Sequence:
#
# PCOD9225072 Si02
#       7
#     4   4   8   8   8   8   4
#     4  12  19  34  63  96 123 154 204 258 308 360
#     4  10  20  40  62  90 120 164 202 255 314 352
#     4  10  22  45  63  87 128 164 206 255 308 371
#     4  11  22  39  63  95 123 157 211 257 305 368
#     4  11  24  42  63  86 127 167 204 254 312 366
#     4  10  24  40  63  95 122 163 204 253 313 363
#     4  10  23  34  65  94 128 155 200 262 309 361
#
# _framework density 9.8487519999999993
#
# number of rings (size 3 to 8) (size 9 to 14) (size 15 to 20)
#    0.000    1.455    3.636    1.636    8.909    0.727 
#    4.909    0.909    0.000    0.000    0.000    0.000 
#    0.000    0.000    0.000    0.000    0.000    0.000 
#
# Total GULP energy -122676.604677 kJ/mol
# GULP energy per Si atom -5576.209303 kJ/mol
# Density = 0.982634 g / cm^3
# Si number density = 9.848752 Si / 1000 Ang^3
#
#
#
# Elastic Constant Matrix: (Units=GPa)
#
#
# Indices 1 2 3 4 5 6 
#
# 1 96.4288 32.9173 -13.7723 0.0000 26.1950 0.0000
# 2 32.9173 123.6646 10.7668 0.0000 7.8414 0.0000
# 3 -13.7723 10.7668 56.2777 0.0000 12.7879 0.0000
# 4 0.0000 0.0000 0.0000 15.0789 0.0000 8.0014
# 5 26.1950 7.8414 12.7879 0.0000 31.3776 0.0000
# 6 0.0000 0.0000 0.0000 8.0014 0.0000 29.6940
#
#
#
# Elastic Compliance Matrix: (Units=1/GPa)
#
#
# Indices 1 2 3 4 5 6 
#
# 1 0.018052 -0.004491 0.009308 0.000000 -0.017742 0.000000
# 2 -0.004491 0.009410 -0.003545 0.000000 0.002842 0.000000
# 3 0.009308 -0.003545 0.024565 0.000000 -0.016896 0.000000
# 4 0.000000 0.000000 0.000000 0.077383 0.000000 -0.020852
# 5 -0.017742 0.002842 -0.016896 0.000000 0.052857 0.000000
# 6 0.000000 0.000000 0.000000 -0.020852 0.000000 0.039296
#
#
# Mechanical properties :
#
#
# Convention : Reuss Voigt Hill
#
# Bulk Modulus (GPa) = 18.32422 37.35498 27.83960
# Shear Modulus (GPa) = 21.07852 31.66070 26.36961
#
# Velocity S-wave (km/s) = 3.27480 4.01352 3.66283
# Velocity P-wave (km/s) = 4.86026 6.36265 5.66151
#
# Compressibility (1/GPa) = 0.05457258
#
# Stress axis : x y z
#
# Youngs Moduli (GPa) = 55.39416 106.26806 40.70904
#
# Poissons Ratio (x) = 0.47722 -0.37894
# Poissons Ratio (y) = 0.24876 0.14432
# Poissons Ratio (z) = -0.51563 0.37673
#
# Static dielectric constant tensor:
#      x y z
#    x 1.727090 0.000000 -0.028750 
#    y 0.000000 1.733760 0.000000 
#    z -0.028750 0.000000 1.758780 
# 
# From -- ./inp_files/103392.got.cif
#   From: 2010.05.17/outbox.ucp.g08.bks.cvg/sg12_52_cif.got.tgz:103392.got - 2010.06.11 11:47:21.
