data_PCOD9225538
_publ_section_title
;
Structure prediction by ZEFSAII (Michael W. Deem and Ramdas Pophale) SiO2 
 PCOD9225538
Probable space group: C 2/M
;
_chemical_formula_sum "Si O2"
_cell_formula_units_Z 29
_cell_length_a 9.000000
_cell_length_b 24.000000
_cell_length_c 21.000000
_cell_angle_alpha 90.000000
_cell_angle_beta 40.000000
_cell_angle_gamma 90.000000
_cell_volume 2915.684598
_symmetry_space_group_name_H-M "C 2/M"
_symmetry_group_IT_number 12
_symmetry_cell_setting 'monoclinic'
loop_
_space_group_symop_operation_xyz
x,y,z
-x,y,-z
-x,-y,-z
x,-y,z
1/2+x,1/2+y,z
1/2-x,1/2+y,-z
1/2-x,1/2-y,-z
1/2+x,1/2-y,z
loop_
_atom_site_type_symbol
_atom_site_label
_atom_site_fract_x
_atom_site_fract_y
_atom_site_fract_z
Si Si1 0.262614 0.846324 0.918134
Si Si2 0.881978 0.191960 0.470212
Si Si3 0.732749 0.778409 0.754231
Si Si4 0.500000 0.000000 0.500000
Si Si5 0.537141 0.895780 0.391856
Si Si6 0.747087 0.937519 0.190583
Si Si7 0.538379 0.674505 0.759511
Si Si8 0.248277 0.405375 0.942883
O O1 0.479528 0.805601 0.839490
O O2 0.271935 0.894723 0.861649
O O3 0.292712 0.873759 0.977460
O O4 0.000000 0.821830 0.000000
O O5 0.750000 0.250000 0.500000
O O6 0.688841 0.143476 0.529797
O O7 0.000000 0.192655 0.500000
O O8 0.102517 0.191107 0.350960
O O9 0.692150 0.713564 0.754062
O O10 0.886381 0.785621 0.766058
O O11 0.504383 0.950895 0.443521
O O12 0.605547 0.913322 0.297129
O O13 0.768637 0.862751 0.339269
O O14 0.019691 0.940885 0.120059
O O15 0.668191 0.000000 0.200219
O O16 0.352004 0.637310 0.857136
O O17 0.000000 0.428299 0.000000
#
# Coordination Sequence:
#
# PCOD9225538 Si02
#       8
#     8   8   8   2   8   8   8   8
#     4  10  23  40  66  93 134 175 225 271 342 410
#     4  12  25  42  71 104 144 183 232 288 349 427
#     4  12  24  40  65 100 131 186 216 279 339 412
#     4  12  24  44  78  96 136 196 234 294 360 422
#     4  11  24  45  69 102 139 182 232 286 350 418
#     4  10  22  43  69  93 127 177 226 282 342 406
#     4  11  25  39  68  96 143 172 230 273 343 417
#     4  10  21  41  60  95 136 170 219 285 328 405
#
# _framework density 9.9462060000000001
#
# number of rings (size 3 to 8) (size 9 to 14) (size 15 to 20)
#    0.000    1.103    3.448    2.483    6.759    3.862 
#    0.000    0.345    9.103    0.000    0.000    0.000 
#    0.000    0.000    0.000    0.000    0.000    0.000 
#
# Total GULP energy -161613.672334 kJ/mol
# GULP energy per Si atom -5572.885253 kJ/mol
# Density = 0.992357 g / cm^3
# Si number density = 9.946206 Si / 1000 Ang^3
#
#
#
# Elastic Constant Matrix: (Units=GPa)
#
#
# Indices 1 2 3 4 5 6 
#
# 1 67.5126 16.5914 4.1485 0.0000 -15.6336 -0.0001
# 2 16.5914 110.4009 23.5647 0.0000 -19.4236 0.0000
# 3 4.1485 23.5647 102.2457 0.0002 -19.9861 -0.0006
# 4 0.0000 0.0000 0.0002 -2.3376 0.0000 -2.8439
# 5 -15.6336 -19.4236 -19.9861 0.0000 22.1644 0.0001
# 6 -0.0001 0.0000 -0.0006 -2.8439 0.0001 -1.9872
#
#
#
# Elastic Compliance Matrix: (Units=1/GPa)
#
#
# Indices 1 2 3 4 5 6 
#
# 1 0.018126 -0.000703 0.002192 -0.000002 0.014145 0.000002
# 2 -0.000703 0.010786 -0.000858 0.000001 0.008183 -0.000001
# 3 0.002192 -0.000858 0.012194 -0.000006 0.011789 0.000006
# 4 -0.000002 0.000001 -0.000006 0.577245 -0.000001 -0.826104
# 5 0.014145 0.008183 0.011789 -0.000001 0.072896 0.000003
# 6 0.000002 -0.000001 0.000006 -0.826104 0.000003 0.679029
#
#
# Mechanical properties :
#
#
# Convention : Reuss Voigt Hill
#
# Bulk Modulus (GPa) = 23.60349 40.97425 32.28887
# Shear Modulus (GPa) = 3.61497 19.29156 11.45327
#
# Velocity S-wave (km/s) = 1.34952 3.11753 2.40210
# Velocity P-wave (km/s) = 3.78413 5.79666 4.89494
#
# Compressibility (1/GPa) = 0.04236662
#
# Stress axis : x y z
#
# Youngs Moduli (GPa) = 55.17047 92.70955 82.01015
#
# Poissons Ratio (x) = 0.06519 -0.17973
# Poissons Ratio (y) = 0.03879 0.07035
# Poissons Ratio (z) = -0.12091 0.07953
#
# Static dielectric constant tensor:
#      x y z
#    x 1.698140 0.000000 0.031750 
#    y 0.000000 1.702170 0.000000 
#    z 0.031750 0.000000 1.703210 
# 
# From -- ./inp_files/302426.got.cif
#   From: 2010.05.17/outbox.ucp.g08.bks.cvg/sg12_152_cif.got.tgz:302426.got - 2010.06.11 11:47:21.
