data_PCOD9225378
_publ_section_title
;
Structure prediction by ZEFSAII (Michael W. Deem and Ramdas Pophale) SiO2 
 PCOD9225378
Probable space group: C 2/M
;
_chemical_formula_sum "Si O2"
_cell_formula_units_Z 20
_cell_length_a 18.000000
_cell_length_b 15.000000
_cell_length_c 21.000000
_cell_angle_alpha 90.000000
_cell_angle_beta 160.000000
_cell_angle_gamma 90.000000
_cell_volume 1939.254213
_symmetry_space_group_name_H-M "C 2/M"
_symmetry_group_IT_number 12
_symmetry_cell_setting 'monoclinic'
loop_
_space_group_symop_operation_xyz
x,y,z
-x,y,-z
-x,-y,-z
x,-y,z
1/2+x,1/2+y,z
1/2-x,1/2+y,-z
1/2-x,1/2-y,-z
1/2+x,1/2-y,z
loop_
_atom_site_type_symbol
_atom_site_label
_atom_site_fract_x
_atom_site_fract_y
_atom_site_fract_z
Si Si1 0.891208 0.604499 0.120149
Si Si2 0.131924 0.104685 0.544187
Si Si3 0.266677 0.602010 0.142760
Si Si4 0.827771 0.804348 0.937535
Si Si5 0.214743 0.392451 0.714941
O O1 0.914647 0.500000 0.160614
O O2 0.809404 0.668483 0.110414
O O3 0.124974 0.635619 0.279005
O O4 0.721011 0.602661 0.924193
O O5 0.000000 0.142000 0.500000
O O6 0.978100 0.109507 0.357997
O O7 0.166675 0.000000 0.587594
O O8 0.176313 0.500000 0.084065
O O9 0.150805 0.698250 0.059466
O O10 0.710239 0.850124 0.782034
O O11 0.065247 0.848999 0.135935
O O12 0.239384 0.500000 0.738894
O O13 0.000000 0.373925 0.500000
#
# Coordination Sequence:
#
# PCOD9225378 Si02
#       5
#     8   8   8   8   8
#     4  10  21  38  61  88 120 161 212 266 313 366
#     4   9  20  38  58  84 121 163 205 252 309 368
#     4  10  23  40  59  88 126 169 211 255 311 370
#     4  11  22  39  64  93 125 162 212 261 307 371
#     4  10  23  43  66  93 126 162 202 257 321 376
#
# _framework density 10.313243
#
# number of rings (size 3 to 8) (size 9 to 14) (size 15 to 20)
#    0.000    2.000    0.000    3.000    0.000    8.800 
#    0.000   14.000    0.000    0.600    0.000    0.000 
#    0.000    0.800    0.000    0.000    0.000    0.000 
#
# Total GULP energy -111535.990446 kJ/mol
# GULP energy per Si atom -5576.799522 kJ/mol
# Density = 1.028977 g / cm^3
# Si number density = 10.313243 Si / 1000 Ang^3
#
#
#
# Elastic Constant Matrix: (Units=GPa)
#
#
# Indices 1 2 3 4 5 6 
#
# 1 151.9283 29.7617 72.5771 0.0151 8.7898 -0.0123
# 2 29.7617 152.1333 41.3445 0.0535 -2.4881 0.0029
# 3 72.5771 41.3445 137.3776 0.0776 -17.1422 0.0226
# 4 0.0151 0.0535 0.0776 17.2962 0.0191 -7.2165
# 5 8.7898 -2.4881 -17.1422 0.0191 28.5636 -0.0071
# 6 -0.0123 0.0029 0.0226 -7.2165 -0.0071 18.2819
#
#
#
# Elastic Compliance Matrix: (Units=1/GPa)
#
#
# Indices 1 2 3 4 5 6 
#
# 1 0.009875 -0.000433 -0.005913 0.000038 -0.006626 0.000026
# 2 -0.000433 0.007192 -0.001990 -0.000014 -0.000434 -0.000005
# 3 -0.005913 -0.001990 0.012115 -0.000071 0.008917 -0.000043
# 4 0.000038 -0.000014 -0.000071 0.069216 -0.000095 0.027322
# 5 -0.006626 -0.000434 0.008917 -0.000095 0.042362 -0.000036
# 6 0.000026 -0.000005 -0.000043 0.027322 -0.000036 0.065484
#
#
# Mechanical properties :
#
#
# Convention : Reuss Voigt Hill
#
# Bulk Modulus (GPa) = 79.94308 80.97842 80.46075
# Shear Modulus (GPa) = 22.01812 32.67874 27.34843
#
# Velocity S-wave (km/s) = 3.27076 3.98466 3.64523
# Velocity P-wave (km/s) = 7.28735 7.77912 7.53724
#
# Compressibility (1/GPa) = 0.01250890
#
# Stress axis : x y z
#
# Youngs Moduli (GPa) = 101.26457 139.05207 82.54335
#
# Poissons Ratio (x) = 0.06023 0.48812
# Poissons Ratio (y) = 0.04386 0.16423
# Poissons Ratio (z) = 0.59882 0.27667
#
# Static dielectric constant tensor:
#      x y z
#    x 1.744440 -0.000020 0.008180 
#    y -0.000020 1.770660 -0.000030 
#    z 0.008180 -0.000030 1.728590 
# 
# From -- ./inp_files/316836.got.cif
#   From: 2010.05.17/outbox.ucp.g08.bks.cvg/sg12_159_cif.got.tgz:316836.got - 2010.06.11 11:47:21.
