data_PCOD9225402
_publ_section_title
;
Structure prediction by ZEFSAII (Michael W. Deem and Ramdas Pophale) SiO2 
 PCOD9225402
Probable space group: C 2/M
;
_chemical_formula_sum "Si O2"
_cell_formula_units_Z 28
_cell_length_a 15.000000
_cell_length_b 9.000000
_cell_length_c 24.000000
_cell_angle_alpha 90.000000
_cell_angle_beta 120.000000
_cell_angle_gamma 90.000000
_cell_volume 2805.922308
_symmetry_space_group_name_H-M "C 2/M"
_symmetry_group_IT_number 12
_symmetry_cell_setting 'monoclinic'
loop_
_space_group_symop_operation_xyz
x,y,z
-x,y,-z
-x,-y,-z
x,-y,z
1/2+x,1/2+y,z
1/2-x,1/2+y,-z
1/2-x,1/2-y,-z
1/2+x,1/2-y,z
loop_
_atom_site_type_symbol
_atom_site_label
_atom_site_fract_x
_atom_site_fract_y
_atom_site_fract_z
Si Si1 0.422559 0.179255 0.312169
Si Si2 0.894753 0.177140 0.000646
Si Si3 0.227660 0.823193 0.577363
Si Si4 0.215812 0.321245 0.277730
Si Si5 0.995746 0.822525 0.771648
Si Si6 0.161827 0.324313 0.900149
Si Si7 0.586741 0.822692 0.450073
O O1 0.310225 0.251605 0.273241
O O2 0.491619 0.244530 0.284276
O O3 0.479520 0.221226 0.387887
O O4 0.418271 0.000000 0.307224
O O5 0.785529 0.198326 0.934523
O O6 0.900514 0.000000 0.016287
O O7 0.877798 0.272283 0.051314
O O8 0.000000 0.213830 0.000000
O O9 0.255790 0.783668 0.649105
O O10 0.324753 0.785353 0.568024
O O11 0.126897 0.748824 0.519374
O O12 0.214412 0.000000 0.570852
O O13 0.210354 0.500000 0.270053
O O14 0.106353 0.245471 0.231765
O O15 0.096439 0.772422 0.836876
O O16 0.988161 0.000000 0.764786
O O17 0.141917 0.500000 0.885893
O O18 0.585175 0.000000 0.456664
#
# Coordination Sequence:
#
# PCOD9225402 Si02
#       7
#     8   8   8   8   8   8   8
#     4  11  23  41  61  86 119 156 201 251 306 366
#     4   9  19  38  64  94 127 161 200 242 287 345
#     4   9  18  34  56  81 111 148 190 245 305 364
#     4  11  23  41  61  86 118 154 201 253 308 367
#     4  12  25  42  63  87 120 164 208 252 301 356
#     4  10  21  38  62  91 125 163 199 246 298 345
#     4   9  18  34  56  81 111 149 191 243 303 365
#
# _framework density 9.9788940000000004
#
# number of rings (size 3 to 8) (size 9 to 14) (size 15 to 20)
#    0.000    1.857    1.429    2.571    0.000    4.857 
#    0.000    7.143    0.000    0.000    0.000    0.000 
#    0.000    0.000    0.000    0.000    0.000    0.000 
#
# Total GULP energy -156401.089856 kJ/mol
# GULP energy per Si atom -5585.753209 kJ/mol
# Density = 0.995618 g / cm^3
# Si number density = 9.978894 Si / 1000 Ang^3
#
#
#
# Elastic Constant Matrix: (Units=GPa)
#
#
# Indices 1 2 3 4 5 6 
#
# 1 109.1093 27.4529 10.7426 0.0000 24.6447 0.0000
# 2 27.4529 64.2179 20.0257 0.0000 14.1470 0.0000
# 3 10.7426 20.0257 58.9326 0.0000 18.3062 0.0000
# 4 0.0000 0.0000 0.0000 33.9829 0.0000 3.2208
# 5 24.6447 14.1470 18.3062 0.0000 24.0305 0.0000
# 6 0.0000 0.0000 0.0000 3.2208 0.0000 27.9275
#
#
#
# Elastic Compliance Matrix: (Units=1/GPa)
#
#
# Indices 1 2 3 4 5 6 
#
# 1 0.012746 -0.003446 0.002984 0.000000 -0.013317 0.000000
# 2 -0.003446 0.019454 -0.004615 0.000000 -0.004403 0.000000
# 3 0.002984 -0.004615 0.023710 0.000000 -0.018406 0.000000
# 4 0.000000 0.000000 0.000000 0.029752 0.000000 -0.003431
# 5 -0.013317 -0.004403 -0.018406 0.000000 0.071884 0.000000
# 6 0.000000 0.000000 0.000000 -0.003431 0.000000 0.036203
#
#
# Mechanical properties :
#
#
# Convention : Reuss Voigt Hill
#
# Bulk Modulus (GPa) = 21.85448 38.74469 30.29958
# Shear Modulus (GPa) = 22.81493 28.79075 25.80284
#
# Velocity S-wave (km/s) = 3.38473 3.80225 3.59955
# Velocity P-wave (km/s) = 5.12341 6.22348 5.70004
#
# Compressibility (1/GPa) = 0.04575721
#
# Stress axis : x y z
#
# Youngs Moduli (GPa) = 78.45484 51.40281 42.17627
#
# Poissons Ratio (x) = 0.17713 -0.12585
# Poissons Ratio (y) = 0.27035 0.19463
# Poissons Ratio (z) = -0.23411 0.23721
#
# Static dielectric constant tensor:
#      x y z
#    x 1.724390 0.000000 -0.005230 
#    y 0.000000 1.657210 0.000000 
#    z -0.005230 0.000000 1.737590 
# 
# From -- ./inp_files/339061.got.cif
#   From: 2010.05.17/outbox.ucp.g08.bks.cvg/sg12_170_cif.got.tgz:339061.got - 2010.06.11 11:47:21.
