data_PCOD9225882
_publ_section_title
;
Structure prediction by ZEFSAII (Michael W. Deem and Ramdas Pophale) SiO2 
 PCOD9225882
Probable space group: C 2/M
;
_chemical_formula_sum "Si O2"
_cell_formula_units_Z 24
_cell_length_a 21.000000
_cell_length_b 18.000000
_cell_length_c 18.000000
_cell_angle_alpha 90.000000
_cell_angle_beta 160.000000
_cell_angle_gamma 90.000000
_cell_volume 2327.105055
_symmetry_space_group_name_H-M "C 2/M"
_symmetry_group_IT_number 12
_symmetry_cell_setting 'monoclinic'
loop_
_space_group_symop_operation_xyz
x,y,z
-x,y,-z
-x,-y,-z
x,-y,z
1/2+x,1/2+y,z
1/2-x,1/2+y,-z
1/2-x,1/2-y,-z
1/2+x,1/2-y,z
loop_
_atom_site_type_symbol
_atom_site_label
_atom_site_fract_x
_atom_site_fract_y
_atom_site_fract_z
Si Si1 0.007602 0.316285 0.337351
Si Si2 0.664186 0.585318 0.731561
Si Si3 0.928728 0.184737 0.844192
Si Si4 0.667026 0.587273 0.017896
Si Si5 0.971972 0.336096 0.814167
Si Si6 0.041488 0.139867 0.355530
O O1 0.209172 0.329414 0.595555
O O2 0.983281 0.226454 0.305641
O O3 0.005113 0.345201 0.249341
O O4 0.847322 0.360576 0.204427
O O5 0.500000 0.619126 0.500000
O O6 0.695970 0.500000 0.743209
O O7 0.567749 0.590188 0.705729
O O8 0.861027 0.626423 0.956854
O O9 0.054303 0.112947 0.966661
O O10 0.971672 0.248351 0.830598
O O11 0.000000 0.216861 0.000000
O O12 0.710547 0.500000 0.063650
O O13 0.525149 0.609971 0.796520
O O14 0.764827 0.363748 0.608012
#
# Coordination Sequence:
#
# PCOD9225882 Si02
#       6
#     8   8   8   8   8   8
#     4  11  22  43  68  96 125 161 217 272 310 376
#     4  11  26  41  58  96 140 169 202 257 323 384
#     4  11  25  44  66  96 127 166 216 272 322 371
#     4  12  24  40  66  98 128 169 214 262 326 386
#     4  11  22  42  69  94 124 167 219 261 311 376
#     4  11  21  41  67  93 126 167 219 264 311 374
#
# _framework density 10.313243
#
# number of rings (size 3 to 8) (size 9 to 14) (size 15 to 20)
#    0.000    0.833    5.000    3.000    4.667    3.000 
#    0.000    2.500    0.000    0.000    0.000    0.000 
#    0.000    0.000    0.000    0.000    0.000    0.000 
#
# Total GULP energy -134097.707675 kJ/mol
# GULP energy per Si atom -5587.404486 kJ/mol
# Density = 1.028977 g / cm^3
# Si number density = 10.313243 Si / 1000 Ang^3
#
#
#
# Elastic Constant Matrix: (Units=GPa)
#
#
# Indices 1 2 3 4 5 6 
#
# 1 29.0745 -8.5437 6.9772 -0.0007 2.7332 -0.0005
# 2 -8.5437 59.3843 33.4512 0.0015 17.8692 0.0009
# 3 6.9772 33.4512 158.1575 0.0012 10.6595 0.0018
# 4 -0.0007 0.0015 0.0012 3.7128 0.0032 -14.6097
# 5 2.7332 17.8692 10.6595 0.0032 29.0224 0.0015
# 6 -0.0005 0.0009 0.0018 -14.6097 0.0015 8.6683
#
#
#
# Elastic Compliance Matrix: (Units=1/GPa)
#
#
# Indices 1 2 3 4 5 6 
#
# 1 0.038941 0.010042 -0.003259 -0.000004 -0.008653 -0.000004
# 2 0.010042 0.025476 -0.004830 -0.000002 -0.014857 -0.000002
# 3 -0.003259 -0.004830 0.007451 0.000001 0.000544 0.000001
# 4 -0.000004 -0.000002 0.000001 -0.047823 0.000011 -0.080601
# 5 -0.008653 -0.014857 0.000544 0.000011 0.044219 0.000011
# 6 -0.000004 -0.000002 0.000001 -0.080601 0.000011 -0.020483
#
#
# Mechanical properties :
#
#
# Convention : Reuss Voigt Hill
#
# Bulk Modulus (GPa) = 13.19706 34.48728 23.84217
# Shear Modulus (GPa) = 72.32530 22.59613 47.46072
#
# Velocity S-wave (km/s) = 5.92793 3.31341 4.80204
# Velocity P-wave (km/s) = 7.29835 5.60308 6.50616
#
# Compressibility (1/GPa) = 0.07577444
#
# Stress axis : x y z
#
# Youngs Moduli (GPa) = 25.68008 39.25337 134.20193
#
# Poissons Ratio (x) = -0.39418 0.43731
# Poissons Ratio (y) = -0.25788 0.64818
# Poissons Ratio (z) = 0.08368 0.18959
#
# Static dielectric constant tensor:
#      x y z
#    x 1.831920 0.000000 -0.042100 
#    y 0.000000 1.728800 0.000000 
#    z -0.042100 0.000000 1.745170 
# 
# From -- ./inp_files/285344.got.cif
#   From: 2010.05.17/outbox.ucp.g08.bks.cvg/sg12_143_cif.got.tgz:285344.got - 2010.06.11 11:47:21.
