data_PCOD9225662
_publ_section_title
;
Structure prediction by ZEFSAII (Michael W. Deem and Ramdas Pophale) SiO2 
 PCOD9225662
Probable space group: C 2/M
;
_chemical_formula_sum "Si O2"
_cell_formula_units_Z 32
_cell_length_a 15.000000
_cell_length_b 9.000000
_cell_length_c 30.000000
_cell_angle_alpha 90.000000
_cell_angle_beta 130.000000
_cell_angle_gamma 90.000000
_cell_volume 3102.479995
_symmetry_space_group_name_H-M "C 2/M"
_symmetry_group_IT_number 12
_symmetry_cell_setting 'monoclinic'
loop_
_space_group_symop_operation_xyz
x,y,z
-x,y,-z
-x,-y,-z
x,-y,z
1/2+x,1/2+y,z
1/2-x,1/2+y,-z
1/2-x,1/2-y,-z
1/2+x,1/2-y,z
loop_
_atom_site_type_symbol
_atom_site_label
_atom_site_fract_x
_atom_site_fract_y
_atom_site_fract_z
Si Si1 0.744065 0.177567 0.367280
Si Si2 0.008802 0.674927 0.698419
Si Si3 0.672422 0.178200 0.513883
Si Si4 0.445317 0.173746 0.388282
Si Si5 0.755316 0.823064 0.194659
Si Si6 0.496653 0.178777 0.866221
Si Si7 0.413058 0.674725 0.014177
Si Si8 0.211208 0.822871 0.896304
O O1 0.610911 0.227131 0.317784
O O2 0.792193 0.252082 0.427851
O O3 0.831570 0.227349 0.357019
O O4 0.743876 0.000000 0.372491
O O5 0.021407 0.500000 0.711454
O O6 0.996240 0.694140 0.641068
O O7 0.126009 0.752689 0.750835
O O8 0.750000 0.250000 0.500000
O O9 0.539506 0.208296 0.456605
O O10 0.687647 0.000000 0.519640
O O11 0.413476 0.000000 0.382184
O O12 0.637964 0.776015 0.181938
O O13 0.740900 0.789892 0.137527
O O14 0.764371 0.000000 0.201810
O O15 0.538506 0.235484 0.928198
O O16 0.582473 0.256669 0.859254
O O17 0.505585 0.000000 0.866629
O O18 0.401145 0.500000 0.021527
O O19 0.500000 0.687744 0.000000
O O20 0.291842 0.743097 0.958516
O O21 0.211689 0.000000 0.903201
#
# Coordination Sequence:
#
# PCOD9225662 Si02
#       8
#     8   8   8   8   8   8   8   8
#     4  11  23  40  61  92 124 157 202 247 299 360
#     4  10  23  43  63  84 120 160 200 252 302 353
#     4  11  21  37  62  90 125 161 198 244 301 362
#     4  10  22  41  61  88 123 160 198 243 302 359
#     4  10  24  43  63  87 118 157 205 252 298 354
#     4  11  23  41  63  90 124 159 198 247 301 355
#     4  11  22  37  62  94 124 158 200 242 296 362
#     4  11  23  41  63  90 124 160 199 246 301 358
#
# _framework density 10.314329000000001
#
# number of rings (size 3 to 8) (size 9 to 14) (size 15 to 20)
#    0.000    1.375    2.500    2.625    0.000    7.500 
#    0.000    5.000    0.000    0.000    0.000    0.000 
#    0.000    0.000    0.000    0.000    0.000    0.000 
#
# Total GULP energy -178921.572536 kJ/mol
# GULP energy per Si atom -5591.299142 kJ/mol
# Density = 1.029085 g / cm^3
# Si number density = 10.314329 Si / 1000 Ang^3
#
#
#
# Elastic Constant Matrix: (Units=GPa)
#
#
# Indices 1 2 3 4 5 6 
#
# 1 97.2860 28.9882 -0.3794 0.0000 36.9817 0.0000
# 2 28.9882 18.5711 12.3553 0.0000 11.4072 0.0000
# 3 -0.3794 12.3553 49.9363 0.0000 33.8422 0.0000
# 4 0.0000 0.0000 0.0000 33.4838 0.0000 0.6643
# 5 36.9817 11.4072 33.8422 0.0000 32.0866 0.0000
# 6 0.0000 0.0000 0.0000 0.6643 0.0000 33.8630
#
#
#
# Elastic Compliance Matrix: (Units=1/GPa)
#
#
# Indices 1 2 3 4 5 6 
#
# 1 -0.013595 0.015683 -0.037952 0.000000 0.050122 0.000000
# 2 0.015683 0.050834 0.042213 0.000000 -0.080671 0.000000
# 3 -0.037952 0.042213 -0.035696 0.000000 0.066384 0.000000
# 4 0.000000 0.000000 0.000000 0.029877 0.000000 -0.000586
# 5 0.050122 -0.080671 0.066384 0.000000 -0.067940 0.000000
# 6 0.000000 0.000000 0.000000 -0.000586 0.000000 0.029542
#
#
# Mechanical properties :
#
#
# Convention : Reuss Voigt Hill
#
# Bulk Modulus (GPa) = 24.13631 27.52460 25.83046
# Shear Modulus (GPa) = -151.26080 28.20864 -61.52608
#
# Velocity S-wave (km/s) = -8.57232 3.70191 -5.46720
# Velocity P-wave (km/s) = 9.28730 5.62531 5.22541
#
# Compressibility (1/GPa) = 0.04143135
#
# Stress axis : x y z
#
# Youngs Moduli (GPa) = -73.55430 19.67179 -28.01448
#
# Poissons Ratio (x) = -0.30852 -1.06320
# Poissons Ratio (y) = 1.15357 1.18257
# Poissons Ratio (z) = -2.79153 -0.83040
#
# Static dielectric constant tensor:
#      x y z
#    x 1.783770 0.000000 -0.002280 
#    y 0.000000 1.684940 0.000000 
#    z -0.002280 0.000000 1.722690 
# 
# From -- ./inp_files/375539.got.cif
#   From: 2010.05.17/outbox.ucp.g08.bks.cvg/sg12_188_cif.got.tgz:375539.got - 2010.06.11 11:47:21.
