data_PCOD9225720
_publ_section_title
;
Structure prediction by ZEFSAII (Michael W. Deem and Ramdas Pophale) SiO2 
 PCOD9225720
Probable space group: C 2/M
;
_chemical_formula_sum "Si O2"
_cell_formula_units_Z 32
_cell_length_a 24.000000
_cell_length_b 9.000000
_cell_length_c 15.000000
_cell_angle_alpha 90.000000
_cell_angle_beta 90.000000
_cell_angle_gamma 90.000000
_cell_volume 3240.000000
_symmetry_space_group_name_H-M "C 2/M"
_symmetry_group_IT_number 12
_symmetry_cell_setting 'monoclinic'
loop_
_space_group_symop_operation_xyz
x,y,z
-x,y,-z
-x,-y,-z
x,-y,z
1/2+x,1/2+y,z
1/2-x,1/2+y,-z
1/2-x,1/2-y,-z
1/2+x,1/2-y,z
loop_
_atom_site_type_symbol
_atom_site_label
_atom_site_fract_x
_atom_site_fract_y
_atom_site_fract_z
Si Si1 0.883851 0.675882 0.667095
Si Si2 0.604542 0.677617 0.030857
Si Si3 0.530405 0.823146 0.170399
Si Si4 0.354180 0.822605 0.343755
Si Si5 0.087893 0.176851 0.821457
Si Si6 0.745062 0.822553 0.286075
Si Si7 0.780683 0.320722 0.915514
Si Si8 0.565732 0.322272 0.506474
O O1 0.888451 0.500000 0.644662
O O2 0.922434 0.700075 0.753972
O O3 0.818896 0.706723 0.686068
O O4 0.906540 0.773158 0.586282
O O5 0.604157 0.500000 0.045497
O O6 0.552420 0.754356 0.078345
O O7 0.657766 0.753043 0.076927
O O8 0.604151 0.702903 0.924638
O O9 0.474419 0.736173 0.194174
O O10 0.520471 0.000000 0.163035
O O11 0.374441 0.766381 0.247174
O O12 0.290729 0.761481 0.345666
O O13 0.397457 0.753999 0.415598
O O14 0.355003 0.000000 0.351155
O O15 0.091897 0.000000 0.804770
O O16 0.746963 0.784412 0.180118
O O17 0.755027 0.000000 0.293333
O O18 0.782441 0.500000 0.922012
O O19 0.750000 0.250000 0.000000
O O20 0.500000 0.278683 0.500000
O O21 0.567801 0.500000 0.519105
#
# Coordination Sequence:
#
# PCOD9225720 Si02
#       8
#     8   8   8   8   8   8   8   8
#     4  10  22  42  67  95 127 166 210 261 321 378
#     4  11  23  38  58  87 125 169 215 261 317 381
#     4  11  22  39  63  93 127 166 212 266 320 376
#     4  12  26  43  66  96 126 164 211 261 315 378
#     4  11  24  41  60  88 127 171 213 263 322 379
#     4  10  22  43  65  89 128 170 208 261 321 376
#     4  11  22  38  60  88 124 168 217 268 321 375
#     4  11  25  45  70  99 129 165 207 255 316 383
#
# _framework density 9.8765429999999999
#
# number of rings (size 3 to 8) (size 9 to 14) (size 15 to 20)
#    0.000    1.125    1.250    4.875    0.000   12.500 
#    0.000    0.000    0.000    0.000    0.000    0.000 
#    0.000    0.000    0.000    0.000    0.000    0.000 
#
# Total GULP energy -178952.315637 kJ/mol
# GULP energy per Si atom -5592.259864 kJ/mol
# Density = 0.985406 g / cm^3
# Si number density = 9.876543 Si / 1000 Ang^3
#
#
#
# Elastic Constant Matrix: (Units=GPa)
#
#
# Indices 1 2 3 4 5 6 
#
# 1 108.3547 44.8601 36.0865 0.0000 22.8079 0.0000
# 2 44.8601 97.7146 53.9880 0.0000 18.4750 0.0000
# 3 36.0865 53.9880 90.6792 0.0000 12.8914 0.0000
# 4 0.0000 0.0000 0.0000 37.0986 0.0000 0.9875
# 5 22.8079 18.4750 12.8914 0.0000 38.2713 0.0000
# 6 0.0000 0.0000 0.0000 0.9875 0.0000 35.0256
#
#
#
# Elastic Compliance Matrix: (Units=1/GPa)
#
#
# Indices 1 2 3 4 5 6 
#
# 1 0.012477 -0.003628 -0.002098 0.000000 -0.004978 0.000000
# 2 -0.003628 0.017088 -0.008260 0.000000 -0.003305 0.000000
# 3 -0.002098 -0.008260 0.016843 0.000000 -0.000436 0.000000
# 4 0.000000 0.000000 0.000000 0.026975 0.000000 -0.000761
# 5 -0.004978 -0.003305 -0.000436 0.000000 0.030838 0.000000
# 6 0.000000 0.000000 0.000000 -0.000761 0.000000 0.028572
#
#
# Mechanical properties :
#
#
# Convention : Reuss Voigt Hill
#
# Bulk Modulus (GPa) = 54.24158 62.95751 58.59954
# Shear Modulus (GPa) = 29.95610 32.86669 31.41139
#
# Velocity S-wave (km/s) = 3.89849 4.08349 3.99206
# Velocity P-wave (km/s) = 6.91257 7.36034 7.13997
#
# Compressibility (1/GPa) = 0.01843604
#
# Stress axis : x y z
#
# Youngs Moduli (GPa) = 80.14434 58.52010 59.37344
#
# Poissons Ratio (x) = 0.21232 0.12455
# Poissons Ratio (y) = 0.29077 0.49044
# Poissons Ratio (z) = 0.16812 0.48339
#
# Static dielectric constant tensor:
#      x y z
#    x 1.633850 0.000000 0.005150 
#    y 0.000000 1.652420 0.000000 
#    z 0.005150 0.000000 1.674210 
# 
# From -- ./inp_files/238741.got.cif
#   From: 2010.05.17/outbox.ucp.g08.bks.cvg/sg12_120_cif.got.tgz:238741.got - 2010.06.11 11:47:21.
