data_PCOD9225338
_publ_section_title
;
Structure prediction by ZEFSAII (Michael W. Deem and Ramdas Pophale) SiO2 
 PCOD9225338
Probable space group: C 2/M
;
_chemical_formula_sum "Si O2"
_cell_formula_units_Z 24
_cell_length_a 30.000000
_cell_length_b 9.000000
_cell_length_c 15.000000
_cell_angle_alpha 90.000000
_cell_angle_beta 140.000000
_cell_angle_gamma 90.000000
_cell_volume 2603.289819
_symmetry_space_group_name_H-M "C 2/M"
_symmetry_group_IT_number 12
_symmetry_cell_setting 'monoclinic'
loop_
_space_group_symop_operation_xyz
x,y,z
-x,y,-z
-x,-y,-z
x,-y,z
1/2+x,1/2+y,z
1/2-x,1/2+y,-z
1/2-x,1/2-y,-z
1/2+x,1/2-y,z
loop_
_atom_site_type_symbol
_atom_site_label
_atom_site_fract_x
_atom_site_fract_y
_atom_site_fract_z
Si Si1 0.528824 0.318246 0.947755
Si Si2 0.282996 0.173150 0.466155
Si Si3 0.817756 0.825124 0.855815
Si Si4 0.574310 0.322448 0.368798
Si Si5 0.929211 0.675084 0.446347
Si Si6 0.280650 0.819417 0.136469
O O1 0.530156 0.500000 0.953310
O O2 0.480365 0.275710 0.790797
O O3 0.500000 0.269498 0.000000
O O4 0.606336 0.262447 0.046804
O O5 0.250000 0.250000 0.500000
O O6 0.228454 0.183992 0.302653
O O7 0.352047 0.257968 0.546159
O O8 0.297676 0.000000 0.504615
O O9 0.771443 0.766582 0.865463
O O10 0.828244 0.000000 0.892095
O O11 0.575602 0.500000 0.372181
O O12 0.560929 0.261701 0.446725
O O13 0.919002 0.500000 0.451708
O O14 0.859646 0.721819 0.285728
O O15 0.000000 0.690946 0.500000
O O16 0.279503 0.000000 0.128744
O O17 0.250000 0.750000 0.000000
#
# Coordination Sequence:
#
# PCOD9225338 Si02
#       6
#     8   8   8   8   8   8
#     4   9  18  33  54  82 114 148 188 232 283 342
#     4  11  21  37  61  86 116 153 193 237 288 345
#     4   9  18  35  57  79 111 150 188 232 285 342
#     4  11  22  36  59  89 117 149 193 241 289 342
#     4  10  22  41  61  82 115 157 193 234 297 356
#     4  10  21  38  59  84 111 148 192 235 289 346
#
# _framework density 9.2191039999999997
#
# number of rings (size 3 to 8) (size 9 to 14) (size 15 to 20)
#    0.000    2.000    1.667    2.000    2.333    3.667 
#    0.000    0.000    0.000   11.000    0.000    0.000 
#    0.000    0.000    0.000    0.000    0.000    0.000 
#
# Total GULP energy -133873.283716 kJ/mol
# GULP energy per Si atom -5578.053488 kJ/mol
# Density = 0.919812 g / cm^3
# Si number density = 9.219104 Si / 1000 Ang^3
#
#
#
# Elastic Constant Matrix: (Units=GPa)
#
#
# Indices 1 2 3 4 5 6 
#
# 1 102.4771 52.4924 60.5113 0.0000 0.7728 0.0000
# 2 52.4924 35.2809 49.5015 0.0000 -6.4970 0.0000
# 3 60.5113 49.5015 115.7996 0.0000 11.7690 0.0000
# 4 0.0000 0.0000 0.0000 23.0069 0.0000 -9.8109
# 5 0.7728 -6.4970 11.7690 0.0000 38.3408 0.0000
# 6 0.0000 0.0000 0.0000 -9.8109 0.0000 16.7779
#
#
#
# Elastic Compliance Matrix: (Units=1/GPa)
#
#
# Indices 1 2 3 4 5 6 
#
# 1 0.090906 -0.215197 0.049939 0.000000 -0.053627 0.000000
# 2 -0.215197 0.604279 -0.161757 0.000000 0.156387 0.000000
# 3 0.049939 -0.161757 0.056333 0.000000 -0.045709 0.000000
# 4 0.000000 0.000000 0.000000 0.057904 0.000000 0.033859
# 5 -0.053627 0.156387 -0.045709 0.000000 0.067694 0.000000
# 6 0.000000 0.000000 0.000000 0.033859 0.000000 0.079401
#
#
# Mechanical properties :
#
#
# Convention : Reuss Voigt Hill
#
# Bulk Modulus (GPa) = 10.25780 64.28534 37.27157
# Shear Modulus (GPa) = 3.04313 21.69528 12.36921
#
# Velocity S-wave (km/s) = 1.28609 3.43395 2.59288
# Velocity P-wave (km/s) = 2.78941 7.11784 5.40576
#
# Compressibility (1/GPa) = 0.09748682
#
# Stress axis : x y z
#
# Youngs Moduli (GPa) = 11.00036 1.65487 17.75164
#
# Poissons Ratio (x) = 0.35612 -0.88649
# Poissons Ratio (y) = 2.36724 2.87145
# Poissons Ratio (z) = -0.54934 0.26769
#
# Static dielectric constant tensor:
#      x y z
#    x 1.629050 0.000000 0.030160 
#    y 0.000000 1.620730 0.000000 
#    z 0.030160 0.000000 1.584410 
# 
# From -- ./inp_files/248798.got.cif
#   From: 2010.05.17/outbox.ucp.g08.bks.cvg/sg12_125_cif.got.tgz:248798.got - 2010.06.11 11:47:21.
