data_PCOD9225013
_publ_section_title
;
Structure prediction by ZEFSAII (Michael W. Deem and Ramdas Pophale) SiO2 
 PCOD9225013
Probable space group: C 2/M
;
_chemical_formula_sum "Si O2"
_cell_formula_units_Z 28
_cell_length_a 9.000000
_cell_length_b 27.000000
_cell_length_c 18.000000
_cell_angle_alpha 90.000000
_cell_angle_beta 140.000000
_cell_angle_gamma 90.000000
_cell_volume 2811.553005
_symmetry_space_group_name_H-M "C 2/M"
_symmetry_group_IT_number 12
_symmetry_cell_setting 'monoclinic'
loop_
_space_group_symop_operation_xyz
x,y,z
-x,y,-z
-x,-y,-z
x,-y,z
1/2+x,1/2+y,z
1/2-x,1/2+y,-z
1/2-x,1/2-y,-z
1/2+x,1/2-y,z
loop_
_atom_site_type_symbol
_atom_site_label
_atom_site_fract_x
_atom_site_fract_y
_atom_site_fract_z
Si Si1 0.779017 0.794846 0.361841
Si Si2 0.489095 0.701789 0.813774
Si Si3 0.555704 0.441910 0.152605
Si Si4 0.768182 0.943522 0.609524
Si Si5 0.161294 0.648196 0.797604
Si Si6 0.115724 0.863719 0.733562
Si Si7 0.157437 0.360238 0.970710
O O1 0.611598 0.750687 0.265624
O O2 0.598221 0.835695 0.325160
O O3 0.874057 0.822080 0.325354
O O4 0.000000 0.782035 0.500000
O O5 0.324187 0.687167 0.818180
O O6 0.468199 0.659598 0.743496
O O7 0.745488 0.687876 0.945824
O O8 0.530636 0.500000 0.117907
O O9 0.643176 0.444764 0.271072
O O10 0.749325 0.407258 0.187072
O O11 0.320443 0.408194 0.052896
O O12 0.500000 0.925667 0.500000
O O13 0.968086 0.910275 0.648684
O O14 0.767985 0.000000 0.580924
O O15 0.190822 0.652698 0.897051
O O16 0.380091 0.872044 0.865573
#
# Coordination Sequence:
#
# PCOD9225013 Si02
#       7
#     8   8   8   8   8   8   8
#     4  11  27  43  60  91 123 164 214 261 312 366
#     4  11  21  40  64  88 122 165 209 254 305 370
#     4  10  20  38  67  94 124 166 205 251 307 372
#     4  10  22  39  63  97 126 161 211 253 304 370
#     4  10  22  40  61  91 130 162 202 258 307 367
#     4  11  23  40  67  92 126 167 201 263 310 358
#     4  10  22  40  61  98 134 156 208 255 314 367
#
# _framework density 9.9589090000000002
#
# number of rings (size 3 to 8) (size 9 to 14) (size 15 to 20)
#    0.000    1.571    2.857    3.000    2.000    6.857 
#    0.000   12.143    0.000    0.857    0.000    0.000 
#    0.000    0.000    0.000    0.000    0.000    0.000 
#
# Total GULP energy -155875.289613 kJ/mol
# GULP energy per Si atom -5566.974629 kJ/mol
# Density = 0.993624 g / cm^3
# Si number density = 9.958909 Si / 1000 Ang^3
#
#
#
# Elastic Constant Matrix: (Units=GPa)
#
#
# Indices 1 2 3 4 5 6 
#
# 1 70.0123 28.6278 20.0772 0.0001 13.5551 0.0000
# 2 28.6278 136.6113 57.5712 0.0000 17.5907 0.0000
# 3 20.0772 57.5712 136.9039 0.0006 26.9730 -0.0002
# 4 0.0001 0.0000 0.0006 39.8487 0.0001 4.0637
# 5 13.5551 17.5907 26.9730 0.0001 30.0081 0.0000
# 6 0.0000 0.0000 -0.0002 4.0637 0.0000 22.4409
#
#
#
# Elastic Compliance Matrix: (Units=1/GPa)
#
#
# Indices 1 2 3 4 5 6 
#
# 1 0.016531 -0.002649 -0.000176 0.000000 -0.005756 0.000000
# 2 -0.002649 0.009448 -0.003317 0.000000 -0.001361 0.000000
# 3 -0.000176 -0.003317 0.010118 0.000000 -0.007071 0.000000
# 4 0.000000 0.000000 0.000000 0.025567 0.000000 -0.004630
# 5 -0.005756 -0.001361 -0.007071 0.000000 0.043078 0.000000
# 6 0.000000 0.000000 0.000000 -0.004630 0.000000 0.045400
#
#
# Mechanical properties :
#
#
# Convention : Reuss Voigt Hill
#
# Bulk Modulus (GPa) = 41.99208 61.78668 51.88938
# Shear Modulus (GPa) = 29.34901 34.27630 31.81266
#
# Velocity S-wave (km/s) = 3.84279 4.15286 4.00083
# Velocity P-wave (km/s) = 6.38888 7.35412 6.88843
#
# Compressibility (1/GPa) = 0.02381401
#
# Stress axis : x y z
#
# Youngs Moduli (GPa) = 60.49132 105.84260 98.83328
#
# Poissons Ratio (x) = 0.28035 0.01744
# Poissons Ratio (y) = 0.16022 0.32779
# Poissons Ratio (z) = 0.01067 0.35103
#
# Static dielectric constant tensor:
#      x y z
#    x 1.781040 0.000000 0.006200 
#    y 0.000000 1.751520 0.000000 
#    z 0.006200 0.000000 1.703420 
# 
# From -- ./inp_files/125568.got.cif
#   From: 2010.05.17/outbox.ucp.g08.bks.cvg/sg12_63_cif.got.tgz:125568.got - 2010.06.11 11:47:21.
