data_PCOD9225346
_publ_section_title
;
Structure prediction by ZEFSAII (Michael W. Deem and Ramdas Pophale) SiO2 
 PCOD9225346
Probable space group: C 2/M
;
_chemical_formula_sum "Si O2"
_cell_formula_units_Z 24
_cell_length_a 18.000000
_cell_length_b 9.000000
_cell_length_c 30.000000
_cell_angle_alpha 90.000000
_cell_angle_beta 30.000000
_cell_angle_gamma 90.000000
_cell_volume 2430.000000
_symmetry_space_group_name_H-M "C 2/M"
_symmetry_group_IT_number 12
_symmetry_cell_setting 'monoclinic'
loop_
_space_group_symop_operation_xyz
x,y,z
-x,y,-z
-x,-y,-z
x,-y,z
1/2+x,1/2+y,z
1/2-x,1/2+y,-z
1/2-x,1/2-y,-z
1/2+x,1/2-y,z
loop_
_atom_site_type_symbol
_atom_site_label
_atom_site_fract_x
_atom_site_fract_y
_atom_site_fract_z
Si Si1 0.164045 0.322744 0.112575
Si Si2 0.241757 0.335238 0.550262
Si Si3 0.777826 0.820703 0.746060
Si Si4 0.531404 0.676913 0.092726
Si Si5 0.019838 0.177326 0.273828
Si Si6 0.936026 0.167810 0.577342
O O1 0.139503 0.500000 0.126742
O O2 0.078484 0.253100 0.114786
O O3 0.108485 0.248712 0.186831
O O4 0.337456 0.295242 0.011068
O O5 0.176710 0.500000 0.578956
O O6 0.250000 0.250000 0.500000
O O7 0.411958 0.349818 0.475009
O O8 0.143709 0.246954 0.636915
O O9 0.624520 0.746604 0.839889
O O10 0.899821 0.789021 0.720619
O O11 0.823138 0.768292 0.672509
O O12 0.764153 0.000000 0.750607
O O13 0.520210 0.500000 0.104704
O O14 0.013262 0.000000 0.272163
O O15 0.000000 0.246654 0.500000
O O16 0.880999 0.000000 0.592792
#
# Coordination Sequence:
#
# PCOD9225346 Si02
#       6
#     8   8   8   8   8   8
#     4  10  22  41  63  87 116 156 197 237 299 363
#     4  11  21  37  60  85 117 158 199 243 296 351
#     4  10  21  38  59  85 120 160 198 239 295 355
#     4  10  22  40  62  89 120 150 192 249 297 350
#     4  11  23  39  59  88 122 156 200 248 295 350
#     4   9  19  36  57  83 115 153 197 238 284 348
#
# _framework density 9.8765429999999999
#
# number of rings (size 3 to 8) (size 9 to 14) (size 15 to 20)
#    0.000    1.833    1.667    2.000    2.333    4.000 
#    0.000    3.333    0.000    2.500    0.000    0.000 
#    0.000    0.000    0.000    0.000    0.000    0.000 
#
# Total GULP energy -133857.597197 kJ/mol
# GULP energy per Si atom -5577.399883 kJ/mol
# Density = 0.985406 g / cm^3
# Si number density = 9.876543 Si / 1000 Ang^3
#
#
#
# Elastic Constant Matrix: (Units=GPa)
#
#
# Indices 1 2 3 4 5 6 
#
# 1 11.2640 8.8769 7.1401 0.0000 15.0681 -0.0001
# 2 8.8769 54.5113 34.0899 0.0001 9.2116 -0.0002
# 3 7.1401 34.0899 104.5361 -0.0002 17.9302 0.0000
# 4 0.0000 0.0001 -0.0002 20.5813 0.0000 4.6380
# 5 15.0681 9.2116 17.9302 0.0000 42.8902 0.0000
# 6 -0.0001 -0.0002 0.0000 4.6380 0.0000 25.9679
#
#
#
# Elastic Compliance Matrix: (Units=1/GPa)
#
#
# Indices 1 2 3 4 5 6 
#
# 1 0.188965 -0.023576 0.005709 0.000000 -0.063710 0.000000
# 2 -0.023576 0.026138 -0.007941 0.000000 0.005989 0.000000
# 3 0.005709 -0.007941 0.012730 0.000000 -0.005622 0.000000
# 4 0.000000 0.000000 0.000000 0.050626 0.000000 -0.009042
# 5 -0.063710 0.005989 -0.005622 0.000000 0.046762 0.000000
# 6 0.000000 0.000000 0.000000 -0.009042 0.000000 0.040124
#
#
# Mechanical properties :
#
#
# Convention : Reuss Voigt Hill
#
# Bulk Modulus (GPa) = 5.67481 30.05835 17.86658
# Shear Modulus (GPa) = 10.51085 25.90151 18.20618
#
# Velocity S-wave (km/s) = 2.30926 3.62507 3.03922
# Velocity P-wave (km/s) = 3.16059 5.72464 4.62390
#
# Compressibility (1/GPa) = 0.17621722
#
# Stress axis : x y z
#
# Youngs Moduli (GPa) = 5.29199 38.25852 78.55511
#
# Poissons Ratio (x) = 0.90200 -0.44850
# Poissons Ratio (y) = 0.12477 0.62378
# Poissons Ratio (z) = -0.03021 0.30380
#
# Static dielectric constant tensor:
#      x y z
#    x 1.728270 0.000000 0.011330 
#    y 0.000000 1.693900 0.000000 
#    z 0.011330 0.000000 1.704650 
# 
# From -- ./inp_files/244706.got.cif
#   From: 2010.05.17/outbox.ucp.g08.bks.cvg/sg12_123_cif.got.tgz:244706.got - 2010.06.11 11:47:21.
