data_PCOD9225588
_publ_section_title
;
Structure prediction by ZEFSAII (Michael W. Deem and Ramdas Pophale) SiO2 
 PCOD9225588
Probable space group: C 2/M
;
_chemical_formula_sum "Si O2"
_cell_formula_units_Z 22
_cell_length_a 9.000000
_cell_length_b 27.000000
_cell_length_c 12.000000
_cell_angle_alpha 90.000000
_cell_angle_beta 50.000000
_cell_angle_gamma 90.000000
_cell_volume 2233.785596
_symmetry_space_group_name_H-M "C 2/M"
_symmetry_group_IT_number 12
_symmetry_cell_setting 'monoclinic'
loop_
_space_group_symop_operation_xyz
x,y,z
-x,y,-z
-x,-y,-z
x,-y,z
1/2+x,1/2+y,z
1/2-x,1/2+y,-z
1/2-x,1/2-y,-z
1/2+x,1/2-y,z
loop_
_atom_site_type_symbol
_atom_site_label
_atom_site_fract_x
_atom_site_fract_y
_atom_site_fract_z
Si Si1 0.728394 0.443312 0.414622
Si Si2 0.624907 0.688744 0.167709
Si Si3 0.000000 0.758458 0.000000
Si Si4 0.074059 0.055112 0.838024
Si Si5 0.288019 0.081492 0.134375
Si Si6 0.226168 0.634205 0.404869
O O1 0.500000 0.446457 0.500000
O O2 0.796470 0.500000 0.405229
O O3 0.797746 0.422894 0.262651
O O4 0.767874 0.404018 0.493466
O O5 0.798609 0.727163 0.123205
O O6 0.743203 0.637407 0.116120
O O7 0.410480 0.673389 0.326263
O O8 0.559241 0.708655 0.078348
O O9 0.891802 0.054455 0.839647
O O10 0.213351 0.099044 0.728972
O O11 0.164376 0.000000 0.791078
O O12 0.000000 0.063704 0.000000
O O13 0.500000 0.063564 0.000000
O O14 0.000000 0.652195 0.500000
#
# Coordination Sequence:
#
# PCOD9225588 Si02
#       6
#     8   8   4   8   8   8
#     4  11  22  40  63  89 134 182 220 261 311 380
#     4  10  22  42  69  99 123 166 210 271 334 407
#     4  10  22  44  74  98 126 160 214 274 348 398
#     4  10  22  38  57  89 131 173 223 272 312 371
#     4  11  23  38  64  95 126 167 219 272 318 377
#     4  11  25  42  64  95 136 179 217 267 331 396
#
# _framework density 9.8487519999999993
#
# number of rings (size 3 to 8) (size 9 to 14) (size 15 to 20)
#    0.000    1.455    4.545    1.091    7.636    2.909 
#    0.000    0.909    0.000    0.000    0.000    0.000 
#    0.000    0.000    0.000    0.000    0.000    0.000 
#
# Total GULP energy -122495.858942 kJ/mol
# GULP energy per Si atom -5567.993588 kJ/mol
# Density = 0.982634 g / cm^3
# Si number density = 9.848752 Si / 1000 Ang^3
#
#
#
# Elastic Constant Matrix: (Units=GPa)
#
#
# Indices 1 2 3 4 5 6 
#
# 1 89.7705 16.4227 33.7264 0.0000 -7.1544 0.0000
# 2 16.4227 78.8676 31.8553 0.0000 7.7220 0.0000
# 3 33.7264 31.8553 94.1865 0.0000 0.3604 0.0000
# 4 0.0000 0.0000 0.0000 -27.1141 0.0000 39.8609
# 5 -7.1544 7.7220 0.3604 0.0000 52.3859 0.0000
# 6 0.0000 0.0000 0.0000 39.8609 0.0000 2.5030
#
#
#
# Elastic Compliance Matrix: (Units=1/GPa)
#
#
# Indices 1 2 3 4 5 6 
#
# 1 0.013135 -0.001191 -0.004308 0.000000 0.001999 0.000000
# 2 -0.001191 0.015035 -0.004650 0.000000 -0.002347 0.000000
# 3 -0.004308 -0.004650 0.013733 0.000000 0.000003 0.000000
# 4 0.000000 0.000000 0.000000 -0.001511 0.000000 0.024060
# 5 0.001999 -0.002347 0.000003 0.000000 0.019708 0.000000
# 6 0.000000 0.000000 0.000000 0.024060 0.000000 0.016366
#
#
# Mechanical properties :
#
#
# Convention : Reuss Voigt Hill
#
# Bulk Modulus (GPa) = 46.28485 47.42593 46.85539
# Shear Modulus (GPa) = 48.09265 17.60966 32.85116
#
# Velocity S-wave (km/s) = 4.94658 2.99323 4.08828
# Velocity P-wave (km/s) = 7.49491 6.00627 6.79150
#
# Compressibility (1/GPa) = 0.02160534
#
# Stress axis : x y z
#
# Youngs Moduli (GPa) = 76.13058 66.51004 72.81921
#
# Poissons Ratio (x) = 0.07919 0.31374
# Poissons Ratio (y) = 0.09065 0.33860
# Poissons Ratio (z) = 0.32800 0.30926
#
# Static dielectric constant tensor:
#      x y z
#    x 1.677090 0.000000 0.022170 
#    y 0.000000 1.729330 0.000000 
#    z 0.022170 0.000000 2.120980 
# 
# From -- ./inp_files/124085.got.cif
#   From: 2010.05.17/outbox.ucp.g08.bks.cvg/sg12_63_cif.got.tgz:124085.got - 2010.06.11 11:47:21.
