data_PCOD9225580
_publ_section_title
;
Structure prediction by ZEFSAII (Michael W. Deem and Ramdas Pophale) SiO2 
 PCOD9225580
Probable space group: C 2/M
;
_chemical_formula_sum "Si O2"
_cell_formula_units_Z 32
_cell_length_a 18.000000
_cell_length_b 15.000000
_cell_length_c 12.000000
_cell_angle_alpha 90.000000
_cell_angle_beta 90.000000
_cell_angle_gamma 90.000000
_cell_volume 3240.000000
_symmetry_space_group_name_H-M "C 2/M"
_symmetry_group_IT_number 12
_symmetry_cell_setting 'monoclinic'
loop_
_space_group_symop_operation_xyz
x,y,z
-x,y,-z
-x,-y,-z
x,-y,z
1/2+x,1/2+y,z
1/2-x,1/2+y,-z
1/2-x,1/2-y,-z
1/2+x,1/2-y,z
loop_
_atom_site_type_symbol
_atom_site_label
_atom_site_fract_x
_atom_site_fract_y
_atom_site_fract_z
Si Si1 0.628133 0.101569 0.059132
Si Si2 0.932065 0.773939 0.067280
Si Si3 0.919924 0.678504 0.273086
Si Si4 0.279873 0.604072 0.526539
Si Si5 0.199176 0.104266 0.997938
Si Si6 0.735367 0.898094 0.783067
Si Si7 0.566277 0.902961 0.304459
Si Si8 0.365483 0.781259 0.517816
O O1 0.716406 0.113749 0.043986
O O2 0.609909 0.107157 0.189543
O O3 0.608258 0.000000 0.023172
O O4 0.585584 0.179427 0.993837
O O5 0.953121 0.754528 0.194514
O O6 0.859580 0.834639 0.062722
O O7 0.000000 0.816088 0.000000
O O8 0.841294 0.654288 0.217627
O O9 0.902241 0.701084 0.399220
O O10 0.979557 0.600419 0.274425
O O11 0.288495 0.500000 0.489048
O O12 0.264065 0.601066 0.658244
O O13 0.345338 0.676728 0.517141
O O14 0.209069 0.656432 0.473919
O O15 0.178503 0.000000 0.990424
O O16 0.205376 0.134566 0.127210
O O17 0.718811 0.000000 0.816003
O O18 0.583708 0.820918 0.385221
O O19 0.584364 0.000000 0.355842
#
# Coordination Sequence:
#
# PCOD9225580 Si02
#       8
#     8   8   8   8   8   8   8   8
#     4  10  22  38  60  90 117 152 193 243 302 358
#     4  12  24  39  60  86 123 161 194 244 301 360
#     4  11  22  36  56  87 118 158 197 239 303 364
#     4   9  19  36  58  86 116 155 202 251 300 347
#     4  10  22  39  61  89 118 156 206 251 293 353
#     4   9  18  33  57  85 114 149 198 250 295 351
#     4  11  23  38  59  86 123 157 190 244 312 371
#     4  10  22  37  58  85 120 156 199 249 295 360
#
# _framework density 9.8765429999999999
#
# number of rings (size 3 to 8) (size 9 to 14) (size 15 to 20)
#    0.000    1.750    2.500    1.500    1.750    5.000 
#    0.000    1.875    0.000    2.250    0.000    0.000 
#    0.000    0.000    0.000    0.000    0.000    0.000 
#
# Total GULP energy -178442.230619 kJ/mol
# GULP energy per Si atom -5576.319707 kJ/mol
# Density = 0.985406 g / cm^3
# Si number density = 9.876543 Si / 1000 Ang^3
#
#
#
# Elastic Constant Matrix: (Units=GPa)
#
#
# Indices 1 2 3 4 5 6 
#
# 1 48.9650 26.8368 8.6584 0.0000 0.3105 0.0000
# 2 26.8368 88.1598 10.9283 0.0000 6.6023 0.0000
# 3 8.6584 10.9283 49.2601 0.0000 4.6658 0.0000
# 4 0.0000 0.0000 0.0000 334.1351 0.0000 -351.0445
# 5 0.3105 6.6023 4.6658 0.0000 17.7988 0.0000
# 6 0.0000 0.0000 0.0000 -351.0445 0.0000 417.9793
#
#
#
# Elastic Compliance Matrix: (Units=1/GPa)
#
#
# Indices 1 2 3 4 5 6 
#
# 1 0.025040 -0.007481 -0.003039 0.000000 0.003135 0.000000
# 2 -0.007481 0.014147 -0.001373 0.000000 -0.004757 0.000000
# 3 -0.003039 -0.001373 0.021623 0.000000 -0.005106 0.000000
# 4 0.000000 0.000000 0.000000 0.025441 0.000000 0.021367
# 5 0.003135 -0.004757 -0.005106 0.000000 0.059232 0.000000
# 6 0.000000 0.000000 0.000000 0.021367 0.000000 0.020338
#
#
# Mechanical properties :
#
#
# Convention : Reuss Voigt Hill
#
# Bulk Modulus (GPa) = 27.00867 31.02577 29.01722
# Shear Modulus (GPa) = 24.75906 163.31341 94.03623
#
# Velocity S-wave (km/s) = 3.54422 9.10258 6.90718
# Velocity P-wave (km/s) = 5.51828 11.23462 8.85066
#
# Compressibility (1/GPa) = 0.03702515
#
# Stress axis : x y z
#
# Youngs Moduli (GPa) = 39.93586 70.68802 46.24770
#
# Poissons Ratio (x) = 0.52879 0.14053
# Poissons Ratio (y) = 0.29874 0.06350
# Poissons Ratio (z) = 0.12135 0.09705
#
# Static dielectric constant tensor:
#      x y z
#    x 1.718490 0.000000 -0.017050 
#    y 0.000000 1.683590 0.000000 
#    z -0.017050 0.000000 1.722480 
# 
# From -- ./inp_files/156608.got.cif
#   From: 2010.05.17/outbox.ucp.g08.bks.cvg/sg12_79_cif.got.tgz:156608.got - 2010.06.11 11:47:21.
