data_PCOD9225707
_publ_section_title
;
Structure prediction by ZEFSAII (Michael W. Deem and Ramdas Pophale) SiO2 
 PCOD9225707
Probable space group: C 2/M
;
_chemical_formula_sum "Si O2"
_cell_formula_units_Z 28
_cell_length_a 18.000000
_cell_length_b 9.000000
_cell_length_c 18.000000
_cell_angle_alpha 90.000000
_cell_angle_beta 70.000000
_cell_angle_gamma 90.000000
_cell_volume 2740.143682
_symmetry_space_group_name_H-M "C 2/M"
_symmetry_group_IT_number 12
_symmetry_cell_setting 'monoclinic'
loop_
_space_group_symop_operation_xyz
x,y,z
-x,y,-z
-x,-y,-z
x,-y,z
1/2+x,1/2+y,z
1/2-x,1/2+y,-z
1/2-x,1/2-y,-z
1/2+x,1/2-y,z
loop_
_atom_site_type_symbol
_atom_site_label
_atom_site_fract_x
_atom_site_fract_y
_atom_site_fract_z
Si Si1 0.922652 0.320816 0.477652
Si Si2 0.199600 0.175040 0.370202
Si Si3 0.677231 0.825951 0.921792
Si Si4 0.061175 0.827414 0.851159
Si Si5 0.611629 0.823645 0.679578
Si Si6 0.316057 0.827730 0.783258
Si Si7 0.093690 0.671157 0.100000
O O1 0.916805 0.500000 0.480096
O O2 0.849336 0.253371 0.547826
O O3 0.921854 0.277357 0.390347
O O4 0.000000 0.279826 0.500000
O O5 0.293211 0.193775 0.352511
O O6 0.178076 0.241203 0.296299
O O7 0.182288 0.000000 0.376024
O O8 0.602135 0.771270 0.900501
O O9 0.745708 0.734850 0.858105
O O10 0.691808 0.000000 0.904004
O O11 0.662154 0.806364 0.014924
O O12 0.082201 0.765640 0.761768
O O13 0.969144 0.797912 0.893660
O O14 0.083010 0.000000 0.850106
O O15 0.593959 0.000000 0.695781
O O16 0.386179 0.819787 0.819455
O O17 0.302745 0.000000 0.769250
O O18 0.065517 0.500000 0.096541
#
# Coordination Sequence:
#
# PCOD9225707 Si02
#       7
#     8   8   8   8   8   8   8
#     4  10  23  42  66  95 125 161 203 254 310 368
#     4  11  23  40  64  92 125 167 207 252 305 367
#     4  11  22  41  65  90 123 165 211 260 316 372
#     4  12  25  39  62  94 126 165 212 260 308 368
#     4  10  22  42  65  89 124 168 208 250 309 371
#     4  11  23  40  64  93 125 165 211 259 310 370
#     4  10  24  42  62  88 125 169 209 259 320 372
#
# _framework density 10.218442
#
# number of rings (size 3 to 8) (size 9 to 14) (size 15 to 20)
#    0.000    1.286    1.429    3.857    2.000    5.429 
#    0.000    0.000    0.000    0.000    0.000    0.000 
#    0.000    0.000    0.000    0.000    0.000    0.000 
#
# Total GULP energy -156386.168173 kJ/mol
# GULP energy per Si atom -5585.220292 kJ/mol
# Density = 1.019518 g / cm^3
# Si number density = 10.218442 Si / 1000 Ang^3
#
#
#
# Elastic Constant Matrix: (Units=GPa)
#
#
# Indices 1 2 3 4 5 6 
#
# 1 34.3246 10.0443 -4.1990 0.0000 9.8436 0.0000
# 2 10.0443 -7.4748 -7.1826 0.0000 0.1030 0.0000
# 3 -4.1990 -7.1826 80.4917 0.0000 21.7599 0.0000
# 4 0.0000 0.0000 0.0000 40.6583 0.0000 -4.0687
# 5 9.8436 0.1030 21.7599 0.0000 37.1519 0.0000
# 6 0.0000 0.0000 0.0000 -4.0687 0.0000 20.9950
#
#
#
# Elastic Compliance Matrix: (Units=1/GPa)
#
#
# Indices 1 2 3 4 5 6 
#
# 1 0.025022 0.027152 0.006583 0.000000 -0.010561 0.000000
# 2 0.027152 -0.091757 -0.005816 0.000000 -0.003533 0.000000
# 3 0.006583 -0.005816 0.015107 0.000000 -0.010576 0.000000
# 4 0.000000 0.000000 0.000000 0.025082 0.000000 0.004861
# 5 -0.010561 -0.003533 -0.010576 0.000000 0.035919 0.000000
# 6 0.000000 0.000000 0.000000 0.004861 0.000000 0.048572
#
#
# Mechanical properties :
#
#
# Convention : Reuss Voigt Hill
#
# Bulk Modulus (GPa) = 237.50032 11.62965 124.56499
# Shear Modulus (GPa) = 1424.43293 27.00630 725.71961
#
# Velocity S-wave (km/s) = 26.42923 3.63912 18.86462
# Velocity P-wave (km/s) = 32.36979 4.83326 23.14264
#
# Compressibility (1/GPa) = 0.00421052
#
# Stress axis : x y z
#
# Youngs Moduli (GPa) = 39.96472 -10.89831 66.19322
#
# Poissons Ratio (x) = 0.29591 -0.43576
# Poissons Ratio (y) = -1.08513 0.38500
# Poissons Ratio (z) = -0.26310 -0.06339
#
# Static dielectric constant tensor:
#      x y z
#    x 1.829810 0.000000 0.000150 
#    y 0.000000 1.682640 0.000000 
#    z 0.000150 0.000000 1.684440 
# 
# From -- ./inp_files/275096.got.cif
#   From: 2010.05.17/outbox.ucp.g08.bks.cvg/sg12_138_cif.got.tgz:275096.got - 2010.06.11 11:47:21.
