data_PCOD9225839
_publ_section_title
;
Structure prediction by ZEFSAII (Michael W. Deem and Ramdas Pophale) SiO2 
 PCOD9225839
Probable space group: C 2/M
;
_chemical_formula_sum "Si O2"
_cell_formula_units_Z 28
_cell_length_a 18.000000
_cell_length_b 21.000000
_cell_length_c 21.000000
_cell_angle_alpha 90.000000
_cell_angle_beta 160.000000
_cell_angle_gamma 90.000000
_cell_volume 2714.955898
_symmetry_space_group_name_H-M "C 2/M"
_symmetry_group_IT_number 12
_symmetry_cell_setting 'monoclinic'
loop_
_space_group_symop_operation_xyz
x,y,z
-x,y,-z
-x,-y,-z
x,-y,z
1/2+x,1/2+y,z
1/2-x,1/2+y,-z
1/2-x,1/2-y,-z
1/2+x,1/2-y,z
loop_
_atom_site_type_symbol
_atom_site_label
_atom_site_fract_x
_atom_site_fract_y
_atom_site_fract_z
Si Si1 0.956471 0.923713 0.693263
Si Si2 0.315884 0.149904 0.904646
Si Si3 0.469170 0.625732 0.104080
Si Si4 0.524042 0.071637 0.714490
Si Si5 0.517748 0.236519 0.850898
Si Si6 0.486366 0.256757 0.564114
Si Si7 0.651285 0.110074 0.680272
O O1 0.720911 0.904459 0.475546
O O2 0.152139 0.901069 0.805430
O O3 0.960360 0.895974 0.768455
O O4 0.957882 0.000000 0.699953
O O5 0.152555 0.201117 0.739730
O O6 0.500000 0.131387 0.000000
O O7 0.438222 0.179967 0.064417
O O8 0.508337 0.700081 0.128624
O O9 0.609239 0.599512 0.157440
O O10 0.213760 0.612662 0.897481
O O11 0.589942 0.071777 0.693403
O O12 0.537510 0.000000 0.751061
O O13 0.270477 0.234189 0.621681
O O14 0.750000 0.250000 0.000000
O O15 0.500000 0.275546 0.500000
O O16 0.576767 0.183391 0.637580
O O17 0.500000 0.090986 0.500000
#
# Coordination Sequence:
#
# PCOD9225839 Si02
#       7
#     8   8   8   8   8   8   8
#     4  11  26  45  63  89 127 168 216 270 314 364
#     4  12  25  42  69  96 125 168 212 263 321 377
#     4  12  22  41  65  93 131 165 206 256 314 382
#     4  11  25  41  61  91 125 172 220 258 304 366
#     4  12  24  39  66 102 129 159 205 257 323 385
#     4  11  22  42  64  97 133 160 200 258 316 385
#     4  11  20  39  64  91 132 170 200 251 314 377
#
# _framework density 10.313243
#
# number of rings (size 3 to 8) (size 9 to 14) (size 15 to 20)
#    0.000    0.571    7.143    1.714    2.000    2.857 
#    0.000    0.000    0.000    0.429    0.000    0.000 
#    0.000    0.000    0.000    0.000    0.000    0.000 
#
# Total GULP energy -156215.267178 kJ/mol
# GULP energy per Si atom -5579.116685 kJ/mol
# Density = 1.028977 g / cm^3
# Si number density = 10.313243 Si / 1000 Ang^3
#
#
#
# Elastic Constant Matrix: (Units=GPa)
#
#
# Indices 1 2 3 4 5 6 
#
# 1 81.1209 -2.2576 12.7774 -0.0290 39.5242 -0.0591
# 2 -2.2576 42.5927 24.8486 -0.1103 5.4819 0.0097
# 3 12.7774 24.8486 132.2523 -0.1088 31.4090 0.0299
# 4 -0.0290 -0.1103 -0.1088 22.8139 -0.0315 -0.2378
# 5 39.5242 5.4819 31.4090 -0.0315 49.3940 0.0323
# 6 -0.0591 0.0097 0.0299 -0.2378 0.0323 69.2442
#
#
#
# Elastic Compliance Matrix: (Units=1/GPa)
#
#
# Indices 1 2 3 4 5 6 
#
# 1 0.020987 0.002376 0.001857 0.000022 -0.018238 0.000025
# 2 0.002376 0.026641 -0.004807 0.000106 -0.001801 0.000002
# 3 0.001857 -0.004807 0.010025 0.000017 -0.007328 0.000001
# 4 0.000022 0.000106 0.000017 0.043835 -0.000012 0.000151
# 5 -0.018238 -0.001801 -0.007328 -0.000012 0.039699 -0.000031
# 6 0.000025 0.000002 0.000001 0.000151 -0.000031 0.014442
#
#
# Mechanical properties :
#
#
# Convention : Reuss Voigt Hill
#
# Bulk Modulus (GPa) = 17.69726 36.30031 26.99879
# Shear Modulus (GPa) = 28.47189 42.99692 35.73440
#
# Velocity S-wave (km/s) = 3.71934 4.57064 4.16679
# Velocity P-wave (km/s) = 5.20031 6.74473 6.02223
#
# Compressibility (1/GPa) = 0.05650592
#
# Stress axis : x y z
#
# Youngs Moduli (GPa) = 47.64849 37.53644 99.74704
#
# Poissons Ratio (x) = -0.08919 -0.18527
# Poissons Ratio (y) = -0.11322 0.47950
# Poissons Ratio (z) = -0.08850 0.18045
#
# Static dielectric constant tensor:
#      x y z
#    x 1.736580 0.000000 0.006170 
#    y 0.000000 1.760340 -0.000040 
#    z 0.006170 -0.000040 1.833410 
# 
# From -- ./inp_files/318067.got.cif
#   From: 2010.05.17/outbox.ucp.g08.bks.cvg/sg12_160_cif.got.tgz:318067.got - 2010.06.11 11:47:21.
