data_PCOD9225268
_publ_section_title
;
Structure prediction by ZEFSAII (Michael W. Deem and Ramdas Pophale) SiO2 
 PCOD9225268
Probable space group: C 2/M
;
_chemical_formula_sum "Si O2"
_cell_formula_units_Z 32
_cell_length_a 30.000000
_cell_length_b 12.000000
_cell_length_c 18.000000
_cell_angle_alpha 90.000000
_cell_angle_beta 30.000000
_cell_angle_gamma 90.000000
_cell_volume 3240.000000
_symmetry_space_group_name_H-M "C 2/M"
_symmetry_group_IT_number 12
_symmetry_cell_setting 'monoclinic'
loop_
_space_group_symop_operation_xyz
x,y,z
-x,y,-z
-x,-y,-z
x,-y,z
1/2+x,1/2+y,z
1/2-x,1/2+y,-z
1/2-x,1/2-y,-z
1/2+x,1/2-y,z
loop_
_atom_site_type_symbol
_atom_site_label
_atom_site_fract_x
_atom_site_fract_y
_atom_site_fract_z
Si Si1 0.498770 0.829001 0.696376
Si Si2 0.371818 0.876789 0.367661
Si Si3 0.938188 0.790933 0.155412
Si Si4 0.960808 0.872689 0.843001
Si Si5 0.085024 0.629243 0.418434
Si Si6 0.726752 0.267630 0.854884
Si Si7 0.723039 0.370766 0.701813
Si Si8 0.708262 0.132488 0.020442
O O1 0.535061 0.881040 0.720865
O O2 0.499868 0.700535 0.719634
O O3 0.564732 0.859609 0.534968
O O4 0.399324 0.861906 0.814926
O O5 0.382750 0.800731 0.280617
O O6 0.299689 0.838449 0.532501
O O7 0.344823 0.000000 0.383948
O O8 0.868833 0.868283 0.211673
O O9 0.995779 0.845858 0.138891
O O10 0.000000 0.744578 0.000000
O O11 0.973660 0.000000 0.808901
O O12 0.857115 0.840207 0.996945
O O13 0.090420 0.500000 0.390533
O O14 0.177476 0.682965 0.264149
O O15 0.000000 0.680560 0.500000
O O16 0.720452 0.284402 0.774429
O O17 0.721027 0.155940 0.913043
O O18 0.738677 0.500000 0.705432
O O19 0.734987 0.000000 0.000020
O O20 0.750000 0.250000 0.000000
#
# Coordination Sequence:
#
# PCOD9225268 Si02
#       8
#     8   8   8   8   8   8   8   8
#     4  10  21  38  61  89 118 154 206 257 304 360
#     4  10  21  38  59  82 117 161 204 251 305 361
#     4  11  22  35  55  89 122 155 202 253 301 364
#     4  10  21  37  58  85 121 163 203 249 305 369
#     4  11  21  35  59  89 117 149 198 257 307 361
#     4  11  22  37  61  90 118 154 203 251 306 363
#     4  11  21  36  60  86 119 161 205 256 300 360
#     4  11  25  44  66  93 127 164 205 257 316 376
#
# _framework density 9.8765429999999999
#
# number of rings (size 3 to 8) (size 9 to 14) (size 15 to 20)
#    0.000    1.375    2.500    3.750    0.000    4.750 
#    0.000    1.250    0.000    1.500    0.000    0.000 
#    0.000    0.000    0.000    0.000    0.000    0.000 
#
# Total GULP energy -178248.368356 kJ/mol
# GULP energy per Si atom -5570.261511 kJ/mol
# Density = 0.985406 g / cm^3
# Si number density = 9.876543 Si / 1000 Ang^3
#
#
#
# Elastic Constant Matrix: (Units=GPa)
#
#
# Indices 1 2 3 4 5 6 
#
# 1 75.5595 17.9362 5.5202 0.0000 -10.6693 0.0000
# 2 17.9362 92.9018 20.7620 0.0000 15.5086 0.0000
# 3 5.5202 20.7620 69.1824 0.0000 -5.2867 0.0000
# 4 0.0000 0.0000 0.0000 3.2953 0.0000 -15.8220
# 5 -10.6693 15.5086 -5.2867 0.0000 35.0980 0.0000
# 6 0.0000 0.0000 0.0000 -15.8220 0.0000 -4.9514
#
#
#
# Elastic Compliance Matrix: (Units=1/GPa)
#
#
# Indices 1 2 3 4 5 6 
#
# 1 0.015088 -0.004113 0.000526 0.000000 0.006483 0.000000
# 2 -0.004113 0.013901 -0.004460 0.000000 -0.008064 0.000000
# 3 0.000526 -0.004460 0.016099 0.000000 0.004555 0.000000
# 4 0.000000 0.000000 0.000000 0.018569 0.000000 -0.059336
# 5 0.006483 -0.008064 0.004555 0.000000 0.034712 0.000000
# 6 0.000000 0.000000 0.000000 -0.059336 0.000000 -0.012358
#
#
# Mechanical properties :
#
#
# Convention : Reuss Voigt Hill
#
# Bulk Modulus (GPa) = 34.48939 36.23117 35.36028
# Shear Modulus (GPa) = 44.73489 19.58337 32.15913
#
# Velocity S-wave (km/s) = 4.76405 3.15208 4.03929
# Velocity P-wave (km/s) = 6.91084 5.62399 6.30036
#
# Compressibility (1/GPa) = 0.02899442
#
# Stress axis : x y z
#
# Youngs Moduli (GPa) = 66.27832 71.93713 62.11509
#
# Poissons Ratio (x) = 0.29586 -0.03266
# Poissons Ratio (y) = 0.27258 0.27703
# Poissons Ratio (z) = -0.03485 0.32083
#
# Static dielectric constant tensor:
#      x y z
#    x 1.748640 0.000000 -0.027500 
#    y 0.000000 1.735140 0.000000 
#    z -0.027500 0.000000 1.715970 
# 
# From -- ./inp_files/296451.got.cif
#   From: 2010.05.17/outbox.ucp.g08.bks.cvg/sg12_149_cif.got.tgz:296451.got - 2010.06.11 11:47:21.
