data_PCOD9225224
_publ_section_title
;
Structure prediction by ZEFSAII (Michael W. Deem and Ramdas Pophale) SiO2 
 PCOD9225224
Probable space group: C 2/M
;
_chemical_formula_sum "Si O2"
_cell_formula_units_Z 32
_cell_length_a 15.000000
_cell_length_b 27.000000
_cell_length_c 12.000000
_cell_angle_alpha 90.000000
_cell_angle_beta 140.000000
_cell_angle_gamma 90.000000
_cell_volume 3123.947783
_symmetry_space_group_name_H-M "C 2/M"
_symmetry_group_IT_number 12
_symmetry_cell_setting 'monoclinic'
loop_
_space_group_symop_operation_xyz
x,y,z
-x,y,-z
-x,-y,-z
x,-y,z
1/2+x,1/2+y,z
1/2-x,1/2+y,-z
1/2-x,1/2-y,-z
1/2+x,1/2-y,z
loop_
_atom_site_type_symbol
_atom_site_label
_atom_site_fract_x
_atom_site_fract_y
_atom_site_fract_z
Si Si1 0.238811 0.824062 0.306060
Si Si2 0.900067 0.877323 0.616934
Si Si3 0.149922 0.719972 0.181305
Si Si4 0.876700 0.800623 0.208981
Si Si5 0.830692 0.058404 0.115217
Si Si6 0.312782 0.863755 0.140913
Si Si7 0.832817 0.057131 0.362397
Si Si8 0.548076 0.795675 0.320600
O O1 0.170213 0.855903 0.339335
O O2 0.143631 0.779642 0.172185
O O3 0.290519 0.854037 0.249498
O O4 0.365328 0.794595 0.483694
O O5 0.804607 0.905360 0.435586
O O6 0.986791 0.833758 0.639046
O O7 0.019049 0.917348 0.761924
O O8 0.273802 0.705021 0.216034
O O9 0.150677 0.707383 0.313705
O O10 0.000000 0.699698 0.000000
O O11 0.936014 0.748746 0.218696
O O12 0.794288 0.829665 0.032994
O O13 0.777962 0.073068 0.188960
O O14 0.843395 0.000000 0.126415
O O15 0.725107 0.080729 0.926466
O O16 0.462169 0.846212 0.242970
O O17 0.000000 0.057383 0.500000
O O18 0.794630 0.000000 0.350295
#
# Coordination Sequence:
#
# PCOD9225224 Si02
#       8
#     8   8   8   8   8   8   8   8
#     4  12  26  38  58  86 130 172 206 247 305 357
#     4  10  21  36  60  95 127 158 206 250 309 372
#     4  12  24  40  62  84 123 168 212 259 296 347
#     4  11  23  40  61  88 121 170 213 249 301 356
#     4   9  20  39  66  94 117 152 205 264 319 367
#     4  11  23  42  62  85 121 168 210 257 307 367
#     4   8  15  34  60  89 122 149 185 257 323 356
#     4  12  24  43  57  88 127 170 212 249 298 364
#
# _framework density 10.243449
#
# number of rings (size 3 to 8) (size 9 to 14) (size 15 to 20)
#    0.000    1.375    3.750    3.000    1.750    4.000 
#    2.250    1.875    0.000    3.000    0.000   11.375 
#    0.000    0.000    0.000    0.000    0.000    0.000 
#
# Total GULP energy -178717.561970 kJ/mol
# GULP energy per Si atom -5584.923812 kJ/mol
# Density = 1.022013 g / cm^3
# Si number density = 10.243449 Si / 1000 Ang^3
#
#
#
# Elastic Constant Matrix: (Units=GPa)
#
#
# Indices 1 2 3 4 5 6 
#
# 1 147.9348 35.8887 6.6969 0.0000 -25.1667 0.0000
# 2 35.8887 65.2719 -4.8803 0.0000 -8.3090 0.0000
# 3 6.6969 -4.8803 37.9453 0.0000 -9.1350 0.0000
# 4 0.0000 0.0000 0.0000 23.1886 0.0000 -13.0265
# 5 -25.1667 -8.3090 -9.1350 0.0000 29.4771 0.0000
# 6 0.0000 0.0000 0.0000 -13.0265 0.0000 21.4782
#
#
#
# Elastic Compliance Matrix: (Units=1/GPa)
#
#
# Indices 1 2 3 4 5 6 
#
# 1 0.008840 -0.004116 -0.000596 0.000000 0.006203 0.000000
# 2 -0.004116 0.018217 0.003738 0.000000 0.002780 0.000000
# 3 -0.000596 0.003738 0.029253 0.000000 0.009610 0.000000
# 4 0.000000 0.000000 0.000000 0.065411 0.000000 0.039671
# 5 0.006203 0.002780 0.009610 0.000000 0.042982 0.000000
# 6 0.000000 0.000000 0.000000 0.039671 0.000000 0.070619
#
#
# Mechanical properties :
#
#
# Convention : Reuss Voigt Hill
#
# Bulk Modulus (GPa) = 18.39466 36.28474 27.33970
# Shear Modulus (GPa) = 19.57780 29.05855 24.31817
#
# Velocity S-wave (km/s) = 3.09467 3.77025 3.44904
# Velocity P-wave (km/s) = 4.66557 6.05827 5.40695
#
# Compressibility (1/GPa) = 0.05436359
#
# Stress axis : x y z
#
# Youngs Moduli (GPa) = 113.11686 54.89416 34.18400
#
# Poissons Ratio (x) = 0.22593 0.02038
# Poissons Ratio (y) = 0.46556 -0.12780
# Poissons Ratio (z) = 0.06745 -0.20522
#
# Static dielectric constant tensor:
#      x y z
#    x 1.707520 0.000000 0.010170 
#    y 0.000000 1.768340 0.000000 
#    z 0.010170 0.000000 1.849490 
# 
# From -- ./inp_files/149823.got.cif
#   From: 2010.05.17/outbox.ucp.g08.bks.cvg/sg12_75_cif.got.tgz:149823.got - 2010.06.11 11:47:21.
