data_PCOD9225438
_publ_section_title
;
Structure prediction by ZEFSAII (Michael W. Deem and Ramdas Pophale) SiO2 
 PCOD9225438
Probable space group: C 2/M
;
_chemical_formula_sum "Si O2"
_cell_formula_units_Z 18
_cell_length_a 30.000000
_cell_length_b 12.000000
_cell_length_c 30.000000
_cell_angle_alpha 90.000000
_cell_angle_beta 170.000000
_cell_angle_gamma 90.000000
_cell_volume 1875.400319
_symmetry_space_group_name_H-M "C 2/M"
_symmetry_group_IT_number 12
_symmetry_cell_setting 'monoclinic'
loop_
_space_group_symop_operation_xyz
x,y,z
-x,y,-z
-x,-y,-z
x,-y,z
1/2+x,1/2+y,z
1/2-x,1/2+y,-z
1/2-x,1/2-y,-z
1/2+x,1/2-y,z
loop_
_atom_site_type_symbol
_atom_site_label
_atom_site_fract_x
_atom_site_fract_y
_atom_site_fract_z
Si Si1 0.236460 0.500000 0.767175
Si Si2 0.718599 0.128158 0.492361
Si Si3 0.335969 0.632406 0.384193
Si Si4 0.805614 0.241152 0.882525
Si Si5 0.813663 0.876859 0.979072
O O1 0.239537 0.620235 0.795459
O O2 0.000000 0.500000 0.500000
O O3 0.500000 0.500000 0.000000
O O4 0.750000 0.250000 0.500000
O O5 0.456320 0.135808 0.262076
O O6 0.711124 0.000000 0.463270
O O7 0.961356 0.124283 0.763794
O O8 0.500000 0.645289 0.500000
O O9 0.288105 0.500000 0.343691
O O10 0.547605 0.684294 0.625905
O O11 0.063186 0.698580 0.116532
O O12 0.860824 0.214442 0.988221
O O13 0.814762 0.000000 0.958577
#
# Coordination Sequence:
#
# PCOD9225438 Si02
#       5
#     4   8   8   8   8
#     4  12  24  36  58  92 124 152 198 260 312 346
#     4  10  21  39  64  90 122 158 202 243 307 375
#     4  11  24  41  60  81 117 168 214 254 303 360
#     4  12  22  40  62  88 121 156 207 254 308 368
#     4  10  21  39  61  89 121 160 191 243 311 379
#
# _framework density 9.5979510000000001
#
# number of rings (size 3 to 8) (size 9 to 14) (size 15 to 20)
#    0.000    1.111    1.111    6.667    0.000    1.778 
#    0.000    6.667    0.000    0.000    0.000    0.000 
#    0.000    0.000    0.000    0.000    0.000    0.000 
#
# Total GULP energy -100291.616192 kJ/mol
# GULP energy per Si atom -5571.756455 kJ/mol
# Density = 0.957611 g / cm^3
# Si number density = 9.597951 Si / 1000 Ang^3
#
#
#
# Elastic Constant Matrix: (Units=GPa)
#
#
# Indices 1 2 3 4 5 6 
#
# 1 44.3081 50.8123 32.2065 -0.0092 -3.3655 -0.1169
# 2 50.8123 171.5632 52.8312 0.0342 -3.4062 0.0640
# 3 32.2065 52.8312 170.3648 0.3549 5.9494 -0.0189
# 4 -0.0092 0.0342 0.3549 41.3272 0.1790 1.2266
# 5 -3.3655 -3.4062 5.9494 0.1790 19.4440 -0.1209
# 6 -0.1169 0.0640 -0.0189 1.2266 -0.1209 31.3855
#
#
#
# Elastic Compliance Matrix: (Units=1/GPa)
#
#
# Indices 1 2 3 4 5 6 
#
# 1 0.037076 -0.009549 -0.004259 0.000021 0.006049 0.000177
# 2 -0.009549 0.008964 -0.000982 0.000000 0.000218 -0.000054
# 3 -0.004259 -0.000982 0.007087 -0.000047 -0.003077 -0.000020
# 4 0.000021 0.000000 -0.000047 0.024227 -0.000211 -0.000948
# 5 0.006049 0.000218 -0.003077 -0.000211 0.053460 0.000234
# 6 0.000177 -0.000054 -0.000020 -0.000948 0.000234 0.031901
#
#
# Mechanical properties :
#
#
# Convention : Reuss Voigt Hill
#
# Bulk Modulus (GPa) = 42.46999 73.10399 57.78699
# Shear Modulus (GPa) = 24.98211 35.12374 30.05293
#
# Velocity S-wave (km/s) = 3.61145 4.28220 3.96105
# Velocity P-wave (km/s) = 6.28988 7.91299 7.14766
#
# Compressibility (1/GPa) = 0.02354604
#
# Stress axis : x y z
#
# Youngs Moduli (GPa) = 26.97159 111.56010 141.10349
#
# Poissons Ratio (x) = 1.06533 0.60095
# Poissons Ratio (y) = 0.25756 0.13857
# Poissons Ratio (z) = 0.11487 0.10956
#
# Static dielectric constant tensor:
#      x y z
#    x 1.699370 -0.000060 -0.033010 
#    y -0.000060 1.724110 -0.000240 
#    z -0.033010 -0.000240 1.630020 
# 
# From -- ./inp_files/385111.got.cif
#   From: 2010.05.17/outbox.ucp.g08.bks.cvg/sg12_193_cif.got.tgz:385111.got - 2010.06.11 11:47:21.
