data_PCOD9225531
_publ_section_title
;
Structure prediction by ZEFSAII (Michael W. Deem and Ramdas Pophale) SiO2 
 PCOD9225531
Probable space group: C 2/M
;
_chemical_formula_sum "Si O2"
_cell_formula_units_Z 32
_cell_length_a 15.000000
_cell_length_b 18.000000
_cell_length_c 15.000000
_cell_angle_alpha 90.000000
_cell_angle_beta 60.000000
_cell_angle_gamma 90.000000
_cell_volume 3507.402885
_symmetry_space_group_name_H-M "C 2/M"
_symmetry_group_IT_number 12
_symmetry_cell_setting 'monoclinic'
loop_
_space_group_symop_operation_xyz
x,y,z
-x,y,-z
-x,-y,-z
x,-y,z
1/2+x,1/2+y,z
1/2-x,1/2+y,-z
1/2-x,1/2-y,-z
1/2+x,1/2-y,z
loop_
_atom_site_type_symbol
_atom_site_label
_atom_site_fract_x
_atom_site_fract_y
_atom_site_fract_z
Si Si1 0.114645 0.910276 0.475399
Si Si2 0.396209 0.376239 0.833454
Si Si3 0.231408 0.361967 0.755712
Si Si4 0.001748 0.414779 0.105995
Si Si5 0.881166 0.078129 0.038814
Si Si6 0.867581 0.087071 0.326844
Si Si7 0.151102 0.714301 0.108219
Si Si8 0.777397 0.187064 0.215076
O O1 0.200013 0.880649 0.364703
O O2 0.139171 0.889829 0.565655
O O3 0.000000 0.886070 0.500000
O O4 0.114950 0.000000 0.471282
O O5 0.306654 0.383611 0.802709
O O6 0.509039 0.408164 0.754656
O O7 0.413738 0.288860 0.843069
O O8 0.360212 0.411095 0.945007
O O9 0.118273 0.398978 0.808386
O O10 0.210980 0.273710 0.771062
O O11 0.029473 0.500000 0.119347
O O12 0.084160 0.351611 0.096652
O O13 0.000000 0.411816 0.000000
O O14 0.856271 0.150923 0.106535
O O15 0.829821 0.000000 0.094479
O O16 0.000000 0.069766 0.000000
O O17 0.799588 0.137961 0.293146
O O18 0.838175 0.000000 0.332088
O O19 0.180740 0.685618 0.193509
O O20 0.250000 0.750000 0.000000
#
# Coordination Sequence:
#
# PCOD9225531 Si02
#       8
#     8   8   8   8   8   8   8   8
#     4  10  21  40  67  97 127 162 209 271 327 377
#     4  11  21  35  60  91 123 166 208 254 317 384
#     4  11  24  41  65  91 128 170 210 257 324 388
#     4  11  25  40  59  90 126 166 213 259 310 386
#     4  11  22  33  54  92 130 165 206 254 315 383
#     4  11  22  38  63  96 127 157 210 270 323 377
#     4  11  23  42  59  83 121 173 217 256 311 376
#     4  11  23  37  58  89 125 170 208 258 316 377
#
# _framework density 9.1235599999999994
#
# number of rings (size 3 to 8) (size 9 to 14) (size 15 to 20)
#    0.000    1.125    3.750    3.375    0.000    3.000 
#    0.000    0.000    0.000    0.000    0.000    2.625 
#    0.000    0.000    0.000    0.000    0.000    0.000 
#
# Total GULP energy -178255.770150 kJ/mol
# GULP energy per Si atom -5570.492817 kJ/mol
# Density = 0.910279 g / cm^3
# Si number density = 9.123560 Si / 1000 Ang^3
#
#
#
# Elastic Constant Matrix: (Units=GPa)
#
#
# Indices 1 2 3 4 5 6 
#
# 1 92.6648 55.6165 39.7735 0.0000 19.3673 0.0000
# 2 55.6165 87.8409 28.8970 0.0000 9.9127 0.0000
# 3 39.7735 28.8970 119.1385 0.0000 13.4106 0.0000
# 4 0.0000 0.0000 0.0000 31.8856 0.0000 7.6535
# 5 19.3673 9.9127 13.4106 0.0000 40.3892 0.0000
# 6 0.0000 0.0000 0.0000 7.6535 0.0000 42.2816
#
#
#
# Elastic Compliance Matrix: (Units=1/GPa)
#
#
# Indices 1 2 3 4 5 6 
#
# 1 0.019989 -0.010891 -0.003380 0.000000 -0.005790 0.000000
# 2 -0.010891 0.018482 -0.000960 0.000000 0.001005 0.000000
# 3 -0.003380 -0.000960 0.009917 0.000000 -0.001436 0.000000
# 4 0.000000 0.000000 0.000000 0.032787 0.000000 -0.005935
# 5 -0.005790 0.001005 -0.001436 0.000000 0.027766 0.000000
# 6 0.000000 0.000000 0.000000 -0.005935 0.000000 0.024725
#
#
# Mechanical properties :
#
#
# Convention : Reuss Voigt Hill
#
# Bulk Modulus (GPa) = 55.78497 60.91314 58.34906
# Shear Modulus (GPa) = 29.39415 34.60176 31.99796
#
# Velocity S-wave (km/s) = 4.01795 4.35936 4.19213
# Velocity P-wave (km/s) = 7.22243 7.66769 7.44839
#
# Compressibility (1/GPa) = 0.01792597
#
# Stress axis : x y z
#
# Youngs Moduli (GPa) = 50.02779 54.10630 100.84203
#
# Poissons Ratio (x) = 0.58926 0.34083
# Poissons Ratio (y) = 0.54484 0.09683
# Poissons Ratio (z) = 0.16909 0.05195
#
# Static dielectric constant tensor:
#      x y z
#    x -2.878580 0.000000 0.214380 
#    y 0.000000 1.793250 0.000000 
#    z 0.214380 0.000000 1.638940 
# 
# From -- ./inp_files/216359.got.cif
#   From: 2010.05.17/outbox.ucp.g08.bks.cvg/sg12_109_cif.got.tgz:216359.got - 2010.06.11 11:47:21.
