data_PCOD9225205
_publ_section_title
;
Structure prediction by ZEFSAII (Michael W. Deem and Ramdas Pophale) SiO2 
 PCOD9225205
Probable space group: C 2/M
;
_chemical_formula_sum "Si O2"
_cell_formula_units_Z 28
_cell_length_a 27.000000
_cell_length_b 9.000000
_cell_length_c 12.000000
_cell_angle_alpha 90.000000
_cell_angle_beta 70.000000
_cell_angle_gamma 90.000000
_cell_volume 2740.143682
_symmetry_space_group_name_H-M "C 2/M"
_symmetry_group_IT_number 12
_symmetry_cell_setting 'monoclinic'
loop_
_space_group_symop_operation_xyz
x,y,z
-x,y,-z
-x,-y,-z
x,-y,z
1/2+x,1/2+y,z
1/2-x,1/2+y,-z
1/2-x,1/2-y,-z
1/2+x,1/2-y,z
loop_
_atom_site_type_symbol
_atom_site_label
_atom_site_fract_x
_atom_site_fract_y
_atom_site_fract_z
Si Si1 0.908448 0.676067 0.275523
Si Si2 0.408216 0.332527 0.815622
Si Si3 0.115053 0.322090 0.944711
Si Si4 0.017684 0.831610 0.603977
Si Si5 0.726374 0.673772 0.907663
Si Si6 0.805690 0.676500 0.478626
Si Si7 0.167074 0.673758 0.301861
O O1 0.918762 0.500000 0.273510
O O2 0.915769 0.727458 0.142808
O O3 0.941259 0.751162 0.348003
O O4 0.846751 0.700809 0.348296
O O5 0.392251 0.500000 0.858939
O O6 0.464255 0.338872 0.714509
O O7 0.367235 0.265310 0.758805
O O8 0.411698 0.231256 0.921557
O O9 0.119345 0.500000 0.937749
O O10 0.173421 0.253038 0.908888
O O11 0.000000 0.760673 0.500000
O O12 0.036808 0.000000 0.564746
O O13 0.717033 0.500000 0.936935
O O14 0.772175 0.683473 0.781100
O O15 0.750000 0.750000 0.000000
O O16 0.797773 0.500000 0.498334
O O17 0.750000 0.750000 0.500000
O O18 0.834073 0.728411 0.570593
O O19 0.150767 0.500000 0.308851
#
# Coordination Sequence:
#
# PCOD9225205 Si02
#       7
#     8   8   8   8   8   8   8
#     4  10  23  41  62  88 119 158 199 241 292 350
#     4  11  23  38  60  88 115 150 196 243 295 354
#     4  11  23  39  58  85 122 159 199 245 293 350
#     4  10  23  43  65  90 118 149 192 245 301 358
#     4  11  21  34  55  85 120 160 200 240 291 348
#     4  10  21  38  59  87 119 153 195 239 288 348
#     4  10  21  36  57  85 118 153 193 243 294 347
#
# _framework density 10.218442
#
# number of rings (size 3 to 8) (size 9 to 14) (size 15 to 20)
#    0.000    1.571    1.429    3.000    0.000    4.857 
#    0.000    2.857    0.000    0.000    0.000    0.000 
#    0.000    0.000    0.000    0.000    0.000    0.000 
#
# Total GULP energy -156348.508395 kJ/mol
# GULP energy per Si atom -5583.875300 kJ/mol
# Density = 1.019518 g / cm^3
# Si number density = 10.218442 Si / 1000 Ang^3
#
#
#
# Elastic Constant Matrix: (Units=GPa)
#
#
# Indices 1 2 3 4 5 6 
#
# 1 87.6565 32.0888 41.1625 0.0000 21.2425 0.0000
# 2 32.0888 62.1038 32.6974 0.0000 13.0638 0.0000
# 3 41.1625 32.6974 96.8815 0.0000 30.8290 0.0000
# 4 0.0000 0.0000 0.0000 20.7096 0.0000 6.2000
# 5 21.2425 13.0638 30.8290 0.0000 38.8722 0.0000
# 6 0.0000 0.0000 0.0000 6.2000 0.0000 20.6625
#
#
#
# Elastic Compliance Matrix: (Units=1/GPa)
#
#
# Indices 1 2 3 4 5 6 
#
# 1 0.016157 -0.005548 -0.003713 0.000000 -0.004020 0.000000
# 2 -0.005548 0.021580 -0.004793 0.000000 -0.000420 0.000000
# 3 -0.003713 -0.004793 0.016531 0.000000 -0.009470 0.000000
# 4 0.000000 0.000000 0.000000 0.053053 0.000000 -0.015919
# 5 -0.004020 -0.000420 -0.009470 0.000000 0.035574 0.000000
# 6 0.000000 0.000000 0.000000 -0.015919 0.000000 0.053173
#
#
# Mechanical properties :
#
#
# Convention : Reuss Voigt Hill
#
# Bulk Modulus (GPa) = 38.22494 50.94882 44.58688
# Shear Modulus (GPa) = 21.46893 25.42840 23.44866
#
# Velocity S-wave (km/s) = 3.24466 3.53121 3.39096
# Velocity P-wave (km/s) = 5.72552 6.45057 6.09883
#
# Compressibility (1/GPa) = 0.02616093
#
# Stress axis : x y z
#
# Youngs Moduli (GPa) = 61.89327 46.33895 60.49383
#
# Poissons Ratio (x) = 0.25707 0.22462
# Poissons Ratio (y) = 0.34336 0.28992
# Poissons Ratio (z) = 0.22981 0.22209
#
# Static dielectric constant tensor:
#      x y z
#    x 1.693800 0.000000 -0.027840 
#    y 0.000000 1.727270 0.000000 
#    z -0.027840 0.000000 1.842250 
# 
# From -- ./inp_files/180832.got.cif
#   From: 2010.05.17/outbox.ucp.g08.bks.cvg/sg12_91_cif.got.tgz:180832.got - 2010.06.11 11:47:21.
