data_PCOD9225467
_publ_section_title
;
Structure prediction by ZEFSAII (Michael W. Deem and Ramdas Pophale) SiO2 
 PCOD9225467
Probable space group: C 2/M
;
_chemical_formula_sum "Si O2"
_cell_formula_units_Z 24
_cell_length_a 21.000000
_cell_length_b 9.000000
_cell_length_c 21.000000
_cell_angle_alpha 90.000000
_cell_angle_beta 140.000000
_cell_angle_gamma 90.000000
_cell_volume 2551.224023
_symmetry_space_group_name_H-M "C 2/M"
_symmetry_group_IT_number 12
_symmetry_cell_setting 'monoclinic'
loop_
_space_group_symop_operation_xyz
x,y,z
-x,y,-z
-x,-y,-z
x,-y,z
1/2+x,1/2+y,z
1/2-x,1/2+y,-z
1/2-x,1/2-y,-z
1/2+x,1/2-y,z
loop_
_atom_site_type_symbol
_atom_site_label
_atom_site_fract_x
_atom_site_fract_y
_atom_site_fract_z
Si Si1 0.959748 0.176985 0.783476
Si Si2 0.664921 0.174032 0.976947
Si Si3 0.491378 0.827276 0.307576
Si Si4 0.222956 0.676493 0.285078
Si Si5 0.289448 0.326169 0.195233
Si Si6 0.589170 0.172634 0.519863
O O1 0.956740 0.236058 0.708702
O O2 0.870840 0.241155 0.757359
O O3 0.959622 0.000000 0.784332
O O4 0.063052 0.241583 0.888325
O O5 0.701274 0.183362 0.077233
O O6 0.655891 0.000000 0.953179
O O7 0.750000 0.250000 0.000000
O O8 0.382185 0.764559 0.239115
O O9 0.550015 0.817064 0.418448
O O10 0.485252 0.000000 0.284191
O O11 0.205389 0.500000 0.271737
O O12 0.251796 0.723375 0.235330
O O13 0.318934 0.720725 0.399060
O O14 0.319877 0.500000 0.223352
O O15 0.500000 0.209910 0.500000
O O16 0.617369 0.000000 0.554407
#
# Coordination Sequence:
#
# PCOD9225467 Si02
#       6
#     8   8   8   8   8   8
#     4  12  26  43  62  89 128 166 206 260 314 365
#     4  11  22  39  64  94 125 162 207 255 307 365
#     4  11  22  38  65  93 123 162 207 254 305 370
#     4  11  24  42  64  92 126 165 207 255 311 368
#     4  10  22  39  63  93 125 160 204 255 305 365
#     4  10  21  39  63  94 126 161 204 254 308 366
#
# _framework density 9.4072490000000002
#
# number of rings (size 3 to 8) (size 9 to 14) (size 15 to 20)
#    0.000    1.167    3.333    3.000    0.000    4.333 
#    0.000    3.333    0.000    0.000    0.000    0.000 
#    0.000    0.000    0.000    0.000    0.000    0.000 
#
# Total GULP energy -134140.850634 kJ/mol
# GULP energy per Si atom -5589.202110 kJ/mol
# Density = 0.938584 g / cm^3
# Si number density = 9.407249 Si / 1000 Ang^3
#
#
#
# Elastic Constant Matrix: (Units=GPa)
#
#
# Indices 1 2 3 4 5 6 
#
# 1 40.7251 13.3880 1.0261 0.0000 6.6290 0.0000
# 2 13.3880 82.4119 11.0373 0.0000 4.9209 0.0000
# 3 1.0261 11.0373 56.1575 0.0000 -6.4321 0.0000
# 4 0.0000 0.0000 0.0000 19.7016 0.0000 11.1250
# 5 6.6290 4.9209 -6.4321 0.0000 26.0287 0.0000
# 6 0.0000 0.0000 0.0000 11.1250 0.0000 32.2107
#
#
#
# Elastic Compliance Matrix: (Units=1/GPa)
#
#
# Indices 1 2 3 4 5 6 
#
# 1 0.026870 -0.003937 -0.000428 0.000000 -0.006205 0.000000
# 2 -0.003937 0.013279 -0.002789 0.000000 -0.002197 0.000000
# 3 -0.000428 -0.002789 0.018973 0.000000 0.005325 0.000000
# 4 0.000000 0.000000 0.000000 0.063055 0.000000 -0.021778
# 5 -0.006205 -0.002197 0.005325 0.000000 0.041731 0.000000
# 6 0.000000 0.000000 0.000000 -0.021778 0.000000 0.038567
#
#
# Mechanical properties :
#
#
# Convention : Reuss Voigt Hill
#
# Bulk Modulus (GPa) = 22.31528 25.57751 23.94640
# Shear Modulus (GPa) = 21.57771 25.84442 23.71106
#
# Velocity S-wave (km/s) = 3.39022 3.71029 3.55386
# Velocity P-wave (km/s) = 5.21643 5.65501 5.44014
#
# Compressibility (1/GPa) = 0.04481233
#
# Stress axis : x y z
#
# Youngs Moduli (GPa) = 37.21630 75.30930 52.70644
#
# Poissons Ratio (x) = 0.29652 0.02255
# Poissons Ratio (y) = 0.14653 0.14702
# Poissons Ratio (z) = 0.01592 0.21007
#
# Static dielectric constant tensor:
#      x y z
#    x 1.561480 0.000000 -0.016670 
#    y 0.000000 1.642440 0.000000 
#    z -0.016670 0.000000 1.657920 
# 
# From -- ./inp_files/319557.got.cif
#   From: 2010.05.17/outbox.ucp.g08.bks.cvg/sg12_160_cif.got.tgz:319557.got - 2010.06.11 11:47:21.
