data_PCOD9225087
_publ_section_title
;
Structure prediction by ZEFSAII (Michael W. Deem and Ramdas Pophale) SiO2 
 PCOD9225087
Probable space group: C 2/M
;
_chemical_formula_sum "Si O2"
_cell_formula_units_Z 32
_cell_length_a 18.000000
_cell_length_b 21.000000
_cell_length_c 24.000000
_cell_angle_alpha 90.000000
_cell_angle_beta 160.000000
_cell_angle_gamma 90.000000
_cell_volume 3102.806740
_symmetry_space_group_name_H-M "C 2/M"
_symmetry_group_IT_number 12
_symmetry_cell_setting 'monoclinic'
loop_
_space_group_symop_operation_xyz
x,y,z
-x,y,-z
-x,-y,-z
x,-y,z
1/2+x,1/2+y,z
1/2-x,1/2+y,-z
1/2-x,1/2-y,-z
1/2+x,1/2-y,z
loop_
_atom_site_type_symbol
_atom_site_label
_atom_site_fract_x
_atom_site_fract_y
_atom_site_fract_z
Si Si1 0.592450 0.846403 0.330688
Si Si2 0.581971 0.152132 0.120573
Si Si3 0.491414 0.365971 0.176295
Si Si4 0.846204 0.655337 0.338797
Si Si5 0.652127 0.075624 0.487454
Si Si6 0.032383 0.427149 0.857148
Si Si7 0.796563 0.237014 0.116536
Si Si8 0.527544 0.720136 0.638333
O O1 0.633051 0.887203 0.415056
O O2 0.604280 0.888305 0.284169
O O3 0.361068 0.810537 0.164319
O O4 0.773566 0.791248 0.454385
O O5 0.521146 0.096192 0.118773
O O6 0.835251 0.167602 0.298035
O O7 0.500000 0.140936 0.000000
O O8 0.450445 0.213922 0.051012
O O9 0.617510 0.355647 0.207428
O O10 0.654947 0.395470 0.338057
O O11 0.400144 0.299677 0.137244
O O12 0.285742 0.411816 0.025986
O O13 0.886142 0.712570 0.323545
O O14 0.000000 0.670690 0.500000
O O15 0.936999 0.593089 0.371509
O O16 0.677600 0.000000 0.497763
O O17 0.987489 0.500000 0.818165
O O18 0.907692 0.211871 0.251790
#
# Coordination Sequence:
#
# PCOD9225087 Si02
#       8
#     8   8   8   8   8   8   8   8
#     4  12  23  38  65  95 131 167 207 264 324 381
#     4   9  23  41  65  94 122 162 211 262 316 376
#     4  10  22  41  66  93 118 169 219 264 313 375
#     4  10  22  35  61  96 123 155 210 272 319 364
#     4  11  22  40  62  88 125 176 219 254 308 383
#     4  11  26  44  62  92 133 171 214 258 309 383
#     4  10  20  40  66  92 123 161 212 259 321 382
#     4  11  21  39  63  95 127 158 207 267 326 377
#
# _framework density 10.313243
#
# number of rings (size 3 to 8) (size 9 to 14) (size 15 to 20)
#    0.000    1.500    2.500    2.625    5.250    4.000 
#    0.000    2.500    0.000    1.500    0.000    0.000 
#    0.000    0.000    0.000    0.000    0.000    0.000 
#
# Total GULP energy -178703.121385 kJ/mol
# GULP energy per Si atom -5584.472543 kJ/mol
# Density = 1.028977 g / cm^3
# Si number density = 10.313243 Si / 1000 Ang^3
#
#
#
# Elastic Constant Matrix: (Units=GPa)
#
#
# Indices 1 2 3 4 5 6 
#
# 1 95.3759 20.1004 11.8858 -0.0014 12.5377 -0.0167
# 2 20.1004 70.8761 -2.6606 -0.0258 -2.9256 0.0072
# 3 11.8858 -2.6606 39.7592 -0.0264 10.8146 0.0056
# 4 -0.0014 -0.0258 -0.0264 11.6617 -0.0209 -6.2249
# 5 12.5377 -2.9256 10.8146 -0.0209 23.1122 -0.0034
# 6 -0.0167 0.0072 0.0056 -6.2249 -0.0034 11.7379
#
#
#
# Elastic Compliance Matrix: (Units=1/GPa)
#
#
# Indices 1 2 3 4 5 6 
#
# 1 0.012389 -0.003853 -0.002293 -0.000018 -0.006136 0.000010
# 2 -0.003853 0.015391 0.001241 0.000049 0.003458 0.000011
# 3 -0.002293 0.001241 0.029263 0.000049 -0.012292 0.000004
# 4 -0.000018 0.000049 0.000049 0.119610 0.000111 0.063432
# 5 -0.006136 0.003458 -0.012292 0.000111 0.052785 0.000069
# 6 0.000010 0.000011 0.000004 0.063432 0.000069 0.118833
#
#
# Mechanical properties :
#
#
# Convention : Reuss Voigt Hill
#
# Bulk Modulus (GPa) = 21.17062 29.40695 25.28878
# Shear Modulus (GPa) = 13.37524 21.08140 17.22832
#
# Velocity S-wave (km/s) = 2.54923 3.20043 2.89321
# Velocity P-wave (km/s) = 4.35326 5.28629 4.84230
#
# Compressibility (1/GPa) = 0.04723526
#
# Stress axis : x y z
#
# Youngs Moduli (GPa) = 80.71611 64.97251 34.17249
#
# Poissons Ratio (x) = 0.25033 0.07834
# Poissons Ratio (y) = 0.31099 -0.04242
# Poissons Ratio (z) = 0.18505 -0.08065
#
# Static dielectric constant tensor:
#      x y z
#    x 1.732910 0.000000 0.019370 
#    y 0.000000 1.723010 -0.000040 
#    z 0.019370 -0.000040 1.747190 
# 
# From -- ./inp_files/344913.got.cif
#   From: 2010.05.17/outbox.ucp.g08.bks.cvg/sg12_173_cif.got.tgz:344913.got - 2010.06.11 11:47:21.
