data_PCOD9225701
_publ_section_title
;
Structure prediction by ZEFSAII (Michael W. Deem and Ramdas Pophale) SiO2 
 PCOD9225701
Probable space group: C 2/M
;
_chemical_formula_sum "Si O2"
_cell_formula_units_Z 14
_cell_length_a 15.000000
_cell_length_b 9.000000
_cell_length_c 15.000000
_cell_angle_alpha 90.000000
_cell_angle_beta 40.000000
_cell_angle_gamma 90.000000
_cell_volume 1301.644910
_symmetry_space_group_name_H-M "C 2/M"
_symmetry_group_IT_number 12
_symmetry_cell_setting 'monoclinic'
loop_
_space_group_symop_operation_xyz
x,y,z
-x,y,-z
-x,-y,-z
x,-y,z
1/2+x,1/2+y,z
1/2-x,1/2+y,-z
1/2-x,1/2-y,-z
1/2+x,1/2-y,z
loop_
_atom_site_type_symbol
_atom_site_label
_atom_site_fract_x
_atom_site_fract_y
_atom_site_fract_z
Si Si1 0.040502 0.323529 0.618787
Si Si2 0.675463 0.673183 0.687767
Si Si3 0.500000 0.755832 0.000000
Si Si4 0.274379 0.666767 0.887696
O O1 0.017448 0.500000 0.633855
O O2 0.158560 0.288929 0.452664
O O3 0.103679 0.273649 0.666521
O O4 0.890314 0.244615 0.736633
O O5 0.667019 0.500000 0.667219
O O6 0.590896 0.684214 0.846784
O O7 0.625279 0.835893 0.954407
O O8 0.322369 0.500000 0.870047
O O9 0.250000 0.750000 0.000000
#
# Coordination Sequence:
#
# PCOD9225701 Si02
#       4
#     8   8   4   8
#     4  10  22  42  68  98 137 180 224 277 338 400
#     4  10  22  41  68 101 136 179 227 276 333 401
#     4  12  26  42  70 104 140 174 230 284 334 400
#     4  12  26  45  69 100 137 179 226 280 341 403
#
# _framework density 10.755622000000001
#
# number of rings (size 3 to 8) (size 9 to 14) (size 15 to 20)
#    0.000    1.143    2.857    2.571    0.000    6.857 
#    0.000    4.286    0.000    0.000    0.000    0.000 
#    0.000    0.000    0.000    0.000    0.000    0.000 
#
# Total GULP energy -78060.753192 kJ/mol
# GULP energy per Si atom -5575.768085 kJ/mol
# Density = 1.073114 g / cm^3
# Si number density = 10.755622 Si / 1000 Ang^3
#
#
#
# Elastic Constant Matrix: (Units=GPa)
#
#
# Indices 1 2 3 4 5 6 
#
# 1 78.7539 21.9915 37.1430 0.0000 -18.4889 0.0000
# 2 21.9915 110.9266 63.6491 0.0000 -8.5374 0.0000
# 3 37.1430 63.6491 225.8249 0.0000 -14.4364 0.0000
# 4 0.0000 0.0000 0.0000 29.3626 0.0000 -4.4931
# 5 -18.4889 -8.5374 -14.4364 0.0000 54.3537 0.0000
# 6 0.0000 0.0000 0.0000 -4.4931 0.0000 7.8864
#
#
#
# Elastic Compliance Matrix: (Units=1/GPa)
#
#
# Indices 1 2 3 4 5 6 
#
# 1 0.015000 -0.001648 -0.001722 0.000000 0.004386 0.000000
# 2 -0.001648 0.010979 -0.002796 0.000000 0.000421 0.000000
# 3 -0.001722 -0.002796 0.005528 0.000000 0.000443 0.000000
# 4 0.000000 0.000000 0.000000 0.037309 0.000000 0.021256
# 5 0.004386 0.000421 0.000443 0.000000 0.020074 0.000000
# 6 0.000000 0.000000 0.000000 0.021256 0.000000 0.138910
#
#
# Mechanical properties :
#
#
# Convention : Reuss Voigt Hill
#
# Bulk Modulus (GPa) = 52.15574 73.45251 62.80413
# Shear Modulus (GPa) = 20.28198 37.83535 29.05866
#
# Velocity S-wave (km/s) = 3.07393 4.19843 3.67939
# Velocity P-wave (km/s) = 6.07430 7.59754 6.87822
#
# Compressibility (1/GPa) = 0.01917334
#
# Stress axis : x y z
#
# Youngs Moduli (GPa) = 66.66679 91.08597 180.89802
#
# Poissons Ratio (x) = 0.15011 0.31156
# Poissons Ratio (y) = 0.10987 0.50586
# Poissons Ratio (z) = 0.11482 0.25471
#
# Static dielectric constant tensor:
#      x y z
#    x 1.819650 0.000000 -0.028750 
#    y 0.000000 1.766680 0.000000 
#    z -0.028750 0.000000 1.792790 
# 
# From -- ./inp_files/211124.got.cif
#   From: 2010.05.17/outbox.ucp.g08.bks.cvg/sg12_106_cif.got.tgz:211124.got - 2010.06.11 11:47:21.
