data_PCOD9225626
_publ_section_title
;
Structure prediction by ZEFSAII (Michael W. Deem and Ramdas Pophale) SiO2 
 PCOD9225626
Probable space group: C 2/M
;
_chemical_formula_sum "Si O2"
_cell_formula_units_Z 32
_cell_length_a 30.000000
_cell_length_b 9.000000
_cell_length_c 15.000000
_cell_angle_alpha 90.000000
_cell_angle_beta 130.000000
_cell_angle_gamma 90.000000
_cell_volume 3102.479995
_symmetry_space_group_name_H-M "C 2/M"
_symmetry_group_IT_number 12
_symmetry_cell_setting 'monoclinic'
loop_
_space_group_symop_operation_xyz
x,y,z
-x,y,-z
-x,-y,-z
x,-y,z
1/2+x,1/2+y,z
1/2-x,1/2+y,-z
1/2-x,1/2-y,-z
1/2+x,1/2-y,z
loop_
_atom_site_type_symbol
_atom_site_label
_atom_site_fract_x
_atom_site_fract_y
_atom_site_fract_z
Si Si1 0.721475 0.823435 0.091818
Si Si2 0.896440 0.173412 0.525933
Si Si3 0.674274 0.321998 0.194815
Si Si4 0.272344 0.321791 0.439029
Si Si5 0.947119 0.829472 0.861594
Si Si6 0.619039 0.174917 0.853338
Si Si7 0.496322 0.823523 0.753535
Si Si8 0.156395 0.672688 0.709732
O O1 0.675034 0.780685 0.108990
O O2 0.779402 0.731243 0.184053
O O3 0.734696 0.000000 0.107527
O O4 0.683577 0.768751 0.959433
O O5 0.841497 0.201503 0.520630
O O6 0.870086 0.223884 0.399070
O O7 0.953364 0.264163 0.622896
O O8 0.909651 0.000000 0.545211
O O9 0.676519 0.500000 0.179864
O O10 0.733514 0.266825 0.317931
O O11 0.615559 0.294225 0.175798
O O12 0.262205 0.500000 0.418718
O O13 0.250000 0.250000 0.500000
O O14 0.966158 0.725813 0.805835
O O15 0.943097 0.000000 0.823377
O O16 0.000000 0.823445 0.000000
O O17 0.561768 0.239092 0.825972
O O18 0.615135 0.183066 0.742584
O O19 0.622168 0.000000 0.881957
O O20 0.499873 0.000000 0.752981
O O21 0.159914 0.500000 0.686443
#
# Coordination Sequence:
#
# PCOD9225626 Si02
#       8
#     8   8   8   8   8   8   8   8
#     4  11  21  38  62  91 127 159 197 253 310 365
#     4  11  24  42  61  87 124 162 200 253 310 360
#     4  11  22  36  58  87 119 157 201 243 296 361
#     4  11  23  38  58  83 117 154 195 246 300 358
#     4  10  22  40  60  87 125 164 203 251 303 357
#     4   9  22  41  62  90 123 160 203 253 308 364
#     4  11  23  41  64  90 121 162 210 255 301 361
#     4  11  22  40  65  91 121 160 205 252 305 367
#
# _framework density 10.314329000000001
#
# number of rings (size 3 to 8) (size 9 to 14) (size 15 to 20)
#    0.000    1.375    1.250    4.125    0.000    6.250 
#    0.000    8.750    0.000    0.000    0.000    0.000 
#    0.000    0.000    0.000    0.000    0.000    0.000 
#
# Total GULP energy -178559.269636 kJ/mol
# GULP energy per Si atom -5579.977176 kJ/mol
# Density = 1.029085 g / cm^3
# Si number density = 10.314329 Si / 1000 Ang^3
#
#
#
# Elastic Constant Matrix: (Units=GPa)
#
#
# Indices 1 2 3 4 5 6 
#
# 1 32.1306 1.6254 9.4425 0.0000 5.0529 0.0000
# 2 1.6254 12.6797 -9.4268 0.0000 5.7726 0.0000
# 3 9.4425 -9.4268 60.5189 0.0000 9.1493 0.0000
# 4 0.0000 0.0000 0.0000 17.3938 0.0000 8.1775
# 5 5.0529 5.7726 9.1493 0.0000 28.0619 0.0000
# 6 0.0000 0.0000 0.0000 8.1775 0.0000 21.4768
#
#
#
# Elastic Compliance Matrix: (Units=1/GPa)
#
#
# Indices 1 2 3 4 5 6 
#
# 1 0.033692 -0.007699 -0.006078 0.000000 -0.002501 0.000000
# 2 -0.007699 0.109641 0.022593 0.000000 -0.028534 0.000000
# 3 -0.006078 0.022593 0.022645 0.000000 -0.010936 0.000000
# 4 0.000000 0.000000 0.000000 0.070027 0.000000 -0.026663
# 5 -0.002501 -0.028534 -0.010936 0.000000 0.045521 0.000000
# 6 0.000000 0.000000 0.000000 -0.026663 0.000000 0.056714
#
#
# Mechanical properties :
#
#
# Convention : Reuss Voigt Hill
#
# Bulk Modulus (GPa) = 5.44630 12.06793 8.75712
# Shear Modulus (GPa) = 13.09551 20.29905 16.69728
#
# Velocity S-wave (km/s) = 2.52230 3.14032 2.84812
# Velocity P-wave (km/s) = 3.33595 4.36022 3.88202
#
# Compressibility (1/GPa) = 0.18361090
#
# Stress axis : x y z
#
# Youngs Moduli (GPa) = 29.68068 9.12070 44.16045
#
# Poissons Ratio (x) = 0.07022 0.26840
# Poissons Ratio (y) = 0.22850 -0.99773
# Poissons Ratio (z) = 0.18039 -0.20607
#
# Static dielectric constant tensor:
#      x y z
#    x 1.741130 0.000000 -0.075410 
#    y 0.000000 1.685040 0.000000 
#    z -0.075410 0.000000 1.889740 
# 
# From -- ./inp_files/250007.got.cif
#   From: 2010.05.17/outbox.ucp.g08.bks.cvg/sg12_126_cif.got.tgz:250007.got - 2010.06.11 11:47:21.
