data_PCOD9225428
_publ_section_title
;
Structure prediction by ZEFSAII (Michael W. Deem and Ramdas Pophale) SiO2 
 PCOD9225428
Probable space group: C 2/M
;
_chemical_formula_sum "Si O2"
_cell_formula_units_Z 32
_cell_length_a 15.000000
_cell_length_b 9.000000
_cell_length_c 24.000000
_cell_angle_alpha 90.000000
_cell_angle_beta 90.000000
_cell_angle_gamma 90.000000
_cell_volume 3240.000000
_symmetry_space_group_name_H-M "C 2/M"
_symmetry_group_IT_number 12
_symmetry_cell_setting 'monoclinic'
loop_
_space_group_symop_operation_xyz
x,y,z
-x,y,-z
-x,-y,-z
x,-y,z
1/2+x,1/2+y,z
1/2-x,1/2+y,-z
1/2-x,1/2-y,-z
1/2+x,1/2-y,z
loop_
_atom_site_type_symbol
_atom_site_label
_atom_site_fract_x
_atom_site_fract_y
_atom_site_fract_z
Si Si1 0.245172 0.320202 0.308964
Si Si2 0.093987 0.674115 0.874538
Si Si3 0.602299 0.174800 0.098484
Si Si4 0.412954 0.322577 0.374527
Si Si5 0.590587 0.822198 0.390467
Si Si6 0.747773 0.679346 0.813909
Si Si7 0.345659 0.821835 0.488390
Si Si8 0.346357 0.322787 0.010639
O O1 0.242687 0.500000 0.308092
O O2 0.343902 0.276001 0.326925
O O3 0.179894 0.275774 0.358608
O O4 0.220689 0.270924 0.247088
O O5 0.116689 0.500000 0.878942
O O6 0.152684 0.751075 0.827620
O O7 0.116973 0.754424 0.932542
O O8 0.988395 0.686928 0.866923
O O9 0.684793 0.221711 0.136802
O O10 0.613293 0.000000 0.082967
O O11 0.597285 0.271396 0.042834
O O12 0.410001 0.500000 0.380366
O O13 0.510443 0.264034 0.362686
O O14 0.384025 0.248848 0.432688
O O15 0.597049 0.790173 0.456147
O O16 0.579190 0.000000 0.384931
O O17 0.742270 0.500000 0.814648
O O18 0.250000 0.750000 0.500000
O O19 0.339060 0.000000 0.482985
O O20 0.340468 0.500000 0.014525
O O21 0.250000 0.250000 0.000000
#
# Coordination Sequence:
#
# PCOD9225428 Si02
#       8
#     8   8   8   8   8   8   8   8
#     4   9  20  40  61  82 115 157 200 243 293 346
#     4  11  23  39  60  90 124 154 192 244 292 344
#     4  10  22  39  60  88 120 155 195 239 291 346
#     4  11  22  38  59  88 121 155 195 243 294 349
#     4  10  21  39  60  85 118 156 196 240 293 354
#     4  10  21  40  64  84 111 159 205 242 290 347
#     4  11  21  36  60  88 119 155 193 238 297 357
#     4  12  23  37  61  90 121 156 193 237 294 353
#
# _framework density 9.8765429999999999
#
# number of rings (size 3 to 8) (size 9 to 14) (size 15 to 20)
#    0.000    1.500    2.500    3.000    0.000    6.000 
#    0.000    3.125    0.000    0.000    0.000    0.000 
#    0.000    0.000    0.000    0.000    0.000    0.000 
#
# Total GULP energy -178695.933387 kJ/mol
# GULP energy per Si atom -5584.247918 kJ/mol
# Density = 0.985406 g / cm^3
# Si number density = 9.876543 Si / 1000 Ang^3
#
#
#
# Elastic Constant Matrix: (Units=GPa)
#
#
# Indices 1 2 3 4 5 6 
#
# 1 57.4910 5.8929 -4.4732 0.0000 6.8107 0.0000
# 2 5.8929 30.5580 6.0734 0.0000 7.0350 0.0000
# 3 -4.4732 6.0734 65.5614 0.0000 0.5613 0.0000
# 4 0.0000 0.0000 0.0000 19.9722 0.0000 -4.5320
# 5 6.8107 7.0350 0.5613 0.0000 9.8102 0.0000
# 6 0.0000 0.0000 0.0000 -4.5320 0.0000 30.1120
#
#
#
# Elastic Compliance Matrix: (Units=1/GPa)
#
#
# Indices 1 2 3 4 5 6 
#
# 1 0.019113 -0.001092 0.001513 0.000000 -0.012573 0.000000
# 2 -0.001092 0.040027 -0.003545 0.000000 -0.027743 0.000000
# 3 0.001513 -0.003545 0.015679 0.000000 0.000595 0.000000
# 4 0.000000 0.000000 0.000000 0.051840 0.000000 0.007802
# 5 -0.012573 -0.027743 0.000595 0.000000 0.130524 0.000000
# 6 0.000000 0.000000 0.000000 0.007802 0.000000 0.034384
#
#
# Mechanical properties :
#
#
# Convention : Reuss Voigt Hill
#
# Bulk Modulus (GPa) = 14.58338 18.73293 16.65815
# Shear Modulus (GPa) = 15.59225 21.72004 18.65615
#
# Velocity S-wave (km/s) = 2.81260 3.31958 3.07655
# Velocity P-wave (km/s) = 4.23633 4.91904 4.59040
#
# Compressibility (1/GPa) = 0.06857122
#
# Stress axis : x y z
#
# Youngs Moduli (GPa) = 52.32009 24.98327 63.77796
#
# Poissons Ratio (x) = 0.02728 -0.09649
# Poissons Ratio (y) = 0.05713 0.22609
# Poissons Ratio (z) = -0.07915 0.08856
#
# Static dielectric constant tensor:
#      x y z
#    x 1.735950 0.000000 -0.016750 
#    y 0.000000 1.659530 0.000000 
#    z -0.016750 0.000000 1.687320 
# 
# From -- ./inp_files/338732.got.cif
#   From: 2010.05.17/outbox.ucp.g08.bks.cvg/sg12_170_cif.got.tgz:338732.got - 2010.06.11 11:47:21.
