data_PCOD9225442
_publ_section_title
;
Structure prediction by ZEFSAII (Michael W. Deem and Ramdas Pophale) SiO2 
 PCOD9225442
Probable space group: C 2/M
;
_chemical_formula_sum "Si O2"
_cell_formula_units_Z 32
_cell_length_a 9.000000
_cell_length_b 30.000000
_cell_length_c 18.000000
_cell_angle_alpha 90.000000
_cell_angle_beta 40.000000
_cell_angle_gamma 90.000000
_cell_volume 3123.947783
_symmetry_space_group_name_H-M "C 2/M"
_symmetry_group_IT_number 12
_symmetry_cell_setting 'monoclinic'
loop_
_space_group_symop_operation_xyz
x,y,z
-x,y,-z
-x,-y,-z
x,-y,z
1/2+x,1/2+y,z
1/2-x,1/2+y,-z
1/2-x,1/2-y,-z
1/2+x,1/2-y,z
loop_
_atom_site_type_symbol
_atom_site_label
_atom_site_fract_x
_atom_site_fract_y
_atom_site_fract_z
Si Si1 0.068858 0.051251 0.187911
Si Si2 0.329605 0.678458 0.000210
Si Si3 0.588833 0.633470 0.388142
Si Si4 0.325394 0.208881 0.209661
Si Si5 0.244379 0.618840 0.384069
Si Si6 0.283756 0.426346 0.032861
Si Si7 0.580339 0.298587 0.755011
Si Si8 0.705654 0.048648 0.738505
O O1 0.223728 0.058676 0.202491
O O2 0.866590 0.086248 0.279155
O O3 0.992591 0.000000 0.218527
O O4 0.191184 0.060028 0.062814
O O5 0.472870 0.680143 0.870014
O O6 0.500000 0.695360 0.000000
O O7 0.264521 0.627323 0.042045
O O8 0.091591 0.705399 0.082765
O O9 0.500000 0.650964 0.500000
O O10 0.770366 0.666521 0.281459
O O11 0.391061 0.625558 0.402825
O O12 0.703481 0.585387 0.352163
O O13 0.303339 0.252835 0.266778
O O14 0.136634 0.208638 0.216919
O O15 0.239646 0.667353 0.349235
O O16 0.000000 0.600474 0.500000
O O17 0.066678 0.448821 0.153758
O O18 0.500000 0.438986 0.000000
O O19 0.795776 0.000000 0.685878
#
# Coordination Sequence:
#
# PCOD9225442 Si02
#       8
#     8   8   8   8   8   8   8   8
#     4  10  21  39  62  87 118 157 197 236 287 352
#     4  11  22  37  60  90 121 156 192 236 293 349
#     4  10  23  41  61  85 115 154 198 244 291 340
#     4  11  23  40  62  88 119 155 194 239 290 349
#     4  10  23  41  61  85 115 154 198 244 291 340
#     4  11  22  35  58  91 124 154 190 240 293 345
#     4  11  23  40  62  88 119 155 194 239 290 349
#     4  10  21  39  62  87 118 157 197 236 287 352
#
# _framework density 10.243449
#
# number of rings (size 3 to 8) (size 9 to 14) (size 15 to 20)
#    0.000    1.500    2.500    2.250    0.000    7.000 
#    0.000    2.500    0.000    0.000    0.000    0.000 
#    0.000    0.000    0.000    0.000    0.000    0.000 
#
# Total GULP energy -178609.418273 kJ/mol
# GULP energy per Si atom -5581.544321 kJ/mol
# Density = 1.022013 g / cm^3
# Si number density = 10.243449 Si / 1000 Ang^3
#
#
#
# Elastic Constant Matrix: (Units=GPa)
#
#
# Indices 1 2 3 4 5 6 
#
# 1 22.1212 10.0992 3.8564 0.0000 10.3322 0.0000
# 2 10.0992 31.3079 2.4951 0.0000 -9.6710 0.0000
# 3 3.8564 2.4951 51.2681 0.0000 1.6055 0.0000
# 4 0.0000 0.0000 0.0000 21.0406 0.0000 14.4616
# 5 10.3322 -9.6710 1.6055 0.0000 20.4112 0.0000
# 6 0.0000 0.0000 0.0000 14.4616 0.0000 40.1038
#
#
#
# Elastic Compliance Matrix: (Units=1/GPa)
#
#
# Indices 1 2 3 4 5 6 
#
# 1 0.118357 -0.066059 -0.002838 0.000000 -0.090988 0.000000
# 2 -0.066059 0.074580 -0.000816 0.000000 0.068840 0.000000
# 3 -0.002838 -0.000816 0.019774 0.000000 -0.000505 0.000000
# 4 0.000000 0.000000 0.000000 0.063188 0.000000 -0.022786
# 5 -0.090988 0.068840 -0.000505 0.000000 0.127708 0.000000
# 6 0.000000 0.000000 0.000000 -0.022786 0.000000 0.033152
#
#
# Mechanical properties :
#
#
# Convention : Reuss Voigt Hill
#
# Bulk Modulus (GPa) = 13.64580 15.28872 14.46726
# Shear Modulus (GPa) = 8.32480 22.19423 15.25952
#
# Velocity S-wave (km/s) = 2.01799 3.29498 2.73214
# Velocity P-wave (km/s) = 3.47922 4.68559 4.12672
#
# Compressibility (1/GPa) = 0.07328260
#
# Stress axis : x y z
#
# Youngs Moduli (GPa) = 8.44904 13.40845 50.57048
#
# Poissons Ratio (x) = 0.88575 0.14354
# Poissons Ratio (y) = 0.55814 0.04129
# Poissons Ratio (z) = 0.02398 0.01095
#
# Static dielectric constant tensor:
#      x y z
#    x 1.722200 0.000000 -0.032940 
#    y 0.000000 1.767560 0.000000 
#    z -0.032940 0.000000 1.680240 
# 
# From -- ./inp_files/260323.got.cif
#   From: 2010.05.17/outbox.ucp.g08.bks.cvg/sg12_131_cif.got.tgz:260323.got - 2010.06.11 11:47:21.
