data_PCOD9225902
_publ_section_title
;
Structure prediction by ZEFSAII (Michael W. Deem and Ramdas Pophale) SiO2 
 PCOD9225902
Probable space group: C 2/M
;
_chemical_formula_sum "Si O2"
_cell_formula_units_Z 28
_cell_length_a 9.000000
_cell_length_b 18.000000
_cell_length_c 27.000000
_cell_angle_alpha 90.000000
_cell_angle_beta 40.000000
_cell_angle_gamma 90.000000
_cell_volume 2811.553005
_symmetry_space_group_name_H-M "C 2/M"
_symmetry_group_IT_number 12
_symmetry_cell_setting 'monoclinic'
loop_
_space_group_symop_operation_xyz
x,y,z
-x,y,-z
-x,-y,-z
x,-y,z
1/2+x,1/2+y,z
1/2-x,1/2+y,-z
1/2-x,1/2-y,-z
1/2+x,1/2-y,z
loop_
_atom_site_type_symbol
_atom_site_label
_atom_site_fract_x
_atom_site_fract_y
_atom_site_fract_z
Si Si1 0.525103 0.337495 0.095850
Si Si2 0.674099 0.413603 0.148017
Si Si3 0.014162 0.090152 0.358016
Si Si4 0.244972 0.409839 0.327458
Si Si5 0.049368 0.410638 0.200273
Si Si6 0.605709 0.833420 0.082471
Si Si7 0.285349 0.409378 0.519770
O O1 0.643631 0.401362 0.097833
O O2 0.255908 0.359874 0.168672
O O3 0.571909 0.253961 0.103935
O O4 0.655288 0.339021 0.009471
O O5 0.719722 0.500000 0.149435
O O6 0.430754 0.391209 0.236913
O O7 0.883454 0.359241 0.107978
O O8 0.287997 0.109640 0.284693
O O9 0.874400 0.113761 0.344881
O O10 0.869869 0.113724 0.443291
O O11 0.014218 0.000000 0.358182
O O12 0.232762 0.500000 0.330025
O O13 0.974467 0.384716 0.397435
O O14 0.080953 0.500000 0.200645
O O15 0.082590 0.389256 0.134353
O O16 0.500000 0.387392 0.500000
O O17 0.277139 0.500000 0.522322
#
# Coordination Sequence:
#
# PCOD9225902 Si02
#       7
#     8   8   8   8   8   8   8
#     4  11  25  39  59  84 117 154 196 247 295 345
#     4  11  22  37  60  89 118 150 195 247 294 342
#     4   9  17  31  50  77 114 152 188 230 284 345
#     4   9  17  31  50  77 114 152 188 230 284 345
#     4  11  22  37  60  89 118 150 195 247 294 342
#     4  11  23  43  59  80 115 160 200 235 291 363
#     4   9  17  27  47  79 116 151 182 228 289 342
#
# _framework density 9.9589090000000002
#
# number of rings (size 3 to 8) (size 9 to 14) (size 15 to 20)
#    0.000    1.857    1.429    3.000    2.000    7.429 
#    0.000    0.000    0.000    0.000    0.000    6.000 
#    0.000    0.000    0.000    0.000    0.000    0.000 
#
# Total GULP energy -156028.415740 kJ/mol
# GULP energy per Si atom -5572.443419 kJ/mol
# Density = 0.993624 g / cm^3
# Si number density = 9.958909 Si / 1000 Ang^3
#
#
#
# Elastic Constant Matrix: (Units=GPa)
#
#
# Indices 1 2 3 4 5 6 
#
# 1 59.7502 2.6523 10.3708 -0.0060 -10.2019 0.0014
# 2 2.6523 40.3285 20.8319 -0.0053 -7.0861 -0.0017
# 3 10.3708 20.8319 93.5918 -0.0045 -19.9143 -0.0053
# 4 -0.0060 -0.0053 -0.0045 18.3405 -0.0065 -8.0905
# 5 -10.2019 -7.0861 -19.9143 -0.0065 38.0473 -0.0005
# 6 0.0014 -0.0017 -0.0053 -8.0905 -0.0005 19.1688
#
#
#
# Elastic Compliance Matrix: (Units=1/GPa)
#
#
# Indices 1 2 3 4 5 6 
#
# 1 0.017634 0.000141 -0.001096 0.000008 0.004181 0.000002
# 2 0.000141 0.028183 -0.005811 0.000010 0.002245 0.000005
# 3 -0.001096 -0.005811 0.013286 0.000006 0.005578 0.000006
# 4 0.000008 0.000010 0.000006 0.066998 0.000019 0.028278
# 5 0.004181 0.002245 0.005578 0.000019 0.030742 0.000010
# 6 0.000002 0.000005 0.000006 0.028278 0.000010 0.064103
#
#
# Mechanical properties :
#
#
# Convention : Reuss Voigt Hill
#
# Bulk Modulus (GPa) = 21.94316 29.04228 25.49272
# Shear Modulus (GPa) = 20.02647 25.76569 22.89608
#
# Velocity S-wave (km/s) = 3.17433 3.60057 3.39415
# Velocity P-wave (km/s) = 4.94732 5.64784 5.30915
#
# Compressibility (1/GPa) = 0.04557229
#
# Stress axis : x y z
#
# Youngs Moduli (GPa) = 56.70812 35.48199 75.26463
#
# Poissons Ratio (x) = -0.00500 0.08247
# Poissons Ratio (y) = -0.00799 0.43736
# Poissons Ratio (z) = 0.06214 0.20619
#
# Static dielectric constant tensor:
#      x y z
#    x 1.846110 0.000000 0.021030 
#    y 0.000000 1.641540 0.000000 
#    z 0.021030 0.000000 1.695550 
# 
# From -- ./inp_files/301623.got.cif
#   From: 2010.05.17/outbox.ucp.g08.bks.cvg/sg12_151_cif.got.tgz:301623.got - 2010.06.11 11:47:21.
