data_PCOD9225798
_publ_section_title
;
Structure prediction by ZEFSAII (Michael W. Deem and Ramdas Pophale) SiO2 
 PCOD9225798
Probable space group: C 2/M
;
_chemical_formula_sum "Si O2"
_cell_formula_units_Z 28
_cell_length_a 9.000000
_cell_length_b 30.000000
_cell_length_c 21.000000
_cell_angle_alpha 90.000000
_cell_angle_beta 30.000000
_cell_angle_gamma 90.000000
_cell_volume 2835.000000
_symmetry_space_group_name_H-M "C 2/M"
_symmetry_group_IT_number 12
_symmetry_cell_setting 'monoclinic'
loop_
_space_group_symop_operation_xyz
x,y,z
-x,y,-z
-x,-y,-z
x,-y,z
1/2+x,1/2+y,z
1/2-x,1/2+y,-z
1/2-x,1/2-y,-z
1/2+x,1/2-y,z
loop_
_atom_site_type_symbol
_atom_site_label
_atom_site_fract_x
_atom_site_fract_y
_atom_site_fract_z
Si Si1 0.671890 0.703332 0.653674
Si Si2 0.292406 0.083853 0.517359
Si Si3 0.933244 0.000000 0.600360
Si Si4 0.826683 0.500000 0.909705
Si Si5 0.255360 0.639105 0.264474
Si Si6 0.676436 0.805250 0.651174
Si Si7 0.811923 0.901935 0.003018
Si Si8 0.748297 0.350847 0.254183
O O1 0.593181 0.663710 0.731990
O O2 0.660673 0.754281 0.679286
O O3 0.401109 0.696660 0.705601
O O4 0.000000 0.695817 0.500000
O O5 0.500000 0.072330 0.500000
O O6 0.505790 0.105530 0.384738
O O7 0.038411 0.117822 0.634052
O O8 0.107160 0.042620 0.561288
O O9 0.597701 0.000000 0.756538
O O10 0.000000 0.000000 0.500000
O O11 0.500000 0.500000 0.000000
O O12 0.817487 0.452885 0.951370
O O13 0.473407 0.614209 0.134232
O O14 0.078402 0.681981 0.303374
O O15 0.628902 0.843157 0.720996
O O16 0.000000 0.811055 0.500000
O O17 0.521563 0.870282 0.113339
O O18 0.000000 0.898647 0.000000
#
# Coordination Sequence:
#
# PCOD9225798 Si02
#       8
#     8   8   4   4   8   8   8   8
#     4  11  22  42  63 100 136 173 220 282 340 392
#     4  12  25  46  68 101 143 170 220 285 334 394
#     4  12  29  43  77 108 128 180 232 278 335 387
#     4  10  24  45  63 100 141 165 211 286 333 396
#     4  12  23  41  67  99 131 179 226 270 336 407
#     4  11  22  36  68  99 131 172 228 284 328 392
#     4  11  25  42  67  93 136 174 220 282 342 397
#     4  12  21  42  66  94 133 178 218 274 334 398
#
# _framework density 9.8765429999999999
#
# number of rings (size 3 to 8) (size 9 to 14) (size 15 to 20)
#    0.000    0.571    7.143    1.071    6.000    2.857 
#    0.000    4.286    0.000    1.714    0.000    0.000 
#    0.000    0.000    0.000    0.000    0.000    0.000 
#
# Total GULP energy -156017.811403 kJ/mol
# GULP energy per Si atom -5572.064693 kJ/mol
# Density = 0.985406 g / cm^3
# Si number density = 9.876543 Si / 1000 Ang^3
#
#
#
# Elastic Constant Matrix: (Units=GPa)
#
#
# Indices 1 2 3 4 5 6 
#
# 1 47.6577 45.3990 37.7838 0.0004 2.9206 -0.0003
# 2 45.3990 108.4269 73.6980 -0.0005 5.6829 0.0005
# 3 37.7838 73.6980 185.1590 -0.0023 6.7460 0.0056
# 4 0.0004 -0.0005 -0.0023 4.0908 0.0009 -5.2802
# 5 2.9206 5.6829 6.7460 0.0009 29.4076 0.0001
# 6 -0.0003 0.0005 0.0056 -5.2802 0.0001 35.8310
#
#
#
# Elastic Compliance Matrix: (Units=1/GPa)
#
#
# Indices 1 2 3 4 5 6 
#
# 1 0.035350 -0.013551 -0.001803 -0.000006 -0.000479 0.000000
# 2 -0.013551 0.017887 -0.004314 0.000002 -0.001121 0.000001
# 3 -0.001803 -0.004314 0.007511 0.000003 -0.000710 -0.000001
# 4 -0.000006 0.000002 0.000003 0.301869 -0.000010 0.044484
# 5 -0.000479 -0.001121 -0.000710 -0.000010 0.034432 -0.000001
# 6 0.000000 0.000001 -0.000001 0.044484 -0.000001 0.034464
#
#
# Mechanical properties :
#
#
# Convention : Reuss Voigt Hill
#
# Bulk Modulus (GPa) = 46.69684 72.77836 59.73760
# Shear Modulus (GPa) = 10.46054 26.15673 18.30864
#
# Velocity S-wave (km/s) = 2.30372 3.64288 3.04776
# Velocity P-wave (km/s) = 5.54687 7.39041 6.53399
#
# Compressibility (1/GPa) = 0.02141473
#
# Stress axis : x y z
#
# Youngs Moduli (GPa) = 28.28841 55.90527 133.13158
#
# Poissons Ratio (x) = 0.75758 0.23997
# Poissons Ratio (y) = 0.38334 0.57427
# Poissons Ratio (z) = 0.05099 0.24115
#
# Static dielectric constant tensor:
#      x y z
#    x 1.770690 0.000010 0.006200 
#    y 0.000010 1.929880 -0.000010 
#    z 0.006200 -0.000010 1.644070 
# 
# From -- ./inp_files/303029.got.cif
#   From: 2010.05.17/outbox.ucp.g08.bks.cvg/sg12_152_cif.got.tgz:303029.got - 2010.06.11 11:47:21.
