data_PCOD9225358
_publ_section_title
;
Structure prediction by ZEFSAII (Michael W. Deem and Ramdas Pophale) SiO2 
 PCOD9225358
Probable space group: C 2/M
;
_chemical_formula_sum "Si O2"
_cell_formula_units_Z 20
_cell_length_a 30.000000
_cell_length_b 9.000000
_cell_length_c 24.000000
_cell_angle_alpha 90.000000
_cell_angle_beta 20.000000
_cell_angle_gamma 90.000000
_cell_volume 2216.290529
_symmetry_space_group_name_H-M "C 2/M"
_symmetry_group_IT_number 12
_symmetry_cell_setting 'monoclinic'
loop_
_space_group_symop_operation_xyz
x,y,z
-x,y,-z
-x,-y,-z
x,-y,z
1/2+x,1/2+y,z
1/2-x,1/2+y,-z
1/2-x,1/2-y,-z
1/2+x,1/2-y,z
loop_
_atom_site_type_symbol
_atom_site_label
_atom_site_fract_x
_atom_site_fract_y
_atom_site_fract_z
Si Si1 0.113098 0.319626 0.685216
Si Si2 0.832650 0.678515 0.955853
Si Si3 0.847767 0.678551 0.740255
Si Si4 0.609268 0.820713 0.823757
Si Si5 0.152614 0.677790 0.390425
O O1 0.124353 0.500000 0.670544
O O2 0.250000 0.250000 0.500000
O O3 0.092563 0.278717 0.776511
O O4 0.984437 0.281662 0.796996
O O5 0.832139 0.500000 0.948397
O O6 0.750000 0.750000 0.000000
O O7 0.748044 0.729661 0.108355
O O8 0.830064 0.500000 0.768335
O O9 0.823587 0.711615 0.703202
O O10 0.998679 0.711958 0.578917
O O11 0.746118 0.758563 0.687650
O O12 0.610928 0.000000 0.822219
O O13 0.500000 0.775629 0.000000
O O14 0.167713 0.500000 0.379730
#
# Coordination Sequence:
#
# PCOD9225358 Si02
#       5
#     8   8   8   8   8
#     4  10  24  43  62  88 123 162 202 249 305 363
#     4  11  24  41  62  87 118 159 204 250 300 358
#     4   9  19  37  58  85 121 155 194 246 298 353
#     4  10  21  38  60  86 119 155 199 252 303 359
#     4   9  19  35  58  87 119 154 193 243 299 355
#
# _framework density 9.0240880000000008
#
# number of rings (size 3 to 8) (size 9 to 14) (size 15 to 20)
#    0.000    2.200    0.000    3.000    2.800    6.000 
#    0.000    2.000    0.000    0.000    0.000    0.000 
#    0.000    0.000    0.000    0.000    0.000    0.000 
#
# Total GULP energy -111393.377313 kJ/mol
# GULP energy per Si atom -5569.668866 kJ/mol
# Density = 0.900355 g / cm^3
# Si number density = 9.024088 Si / 1000 Ang^3
#
#
#
# Elastic Constant Matrix: (Units=GPa)
#
#
# Indices 1 2 3 4 5 6 
#
# 1 145.8929 33.4841 64.8523 0.0000 -23.4030 0.0000
# 2 33.4841 37.6100 32.0622 -0.0026 -5.7220 0.0004
# 3 64.8523 32.0622 128.9305 -0.0009 -8.1428 0.0001
# 4 0.0000 -0.0026 -0.0009 37.9340 0.0001 -2.2702
# 5 -23.4030 -5.7220 -8.1428 0.0001 38.7271 0.0000
# 6 0.0000 0.0004 0.0001 -2.2702 0.0000 41.9002
#
#
#
# Elastic Compliance Matrix: (Units=1/GPa)
#
#
# Indices 1 2 3 4 5 6 
#
# 1 0.010491 -0.005550 -0.003596 0.000000 0.004763 0.000000
# 2 -0.005550 0.037090 -0.006382 0.000002 0.000784 0.000000
# 3 -0.003596 -0.006382 0.011103 0.000000 -0.000782 0.000000
# 4 0.000000 0.000002 0.000000 0.026447 0.000000 0.001433
# 5 0.004763 0.000784 -0.000782 0.000000 0.028652 0.000000
# 6 0.000000 0.000000 0.000000 0.001433 0.000000 0.023944
#
#
# Mechanical properties :
#
#
# Convention : Reuss Voigt Hill
#
# Bulk Modulus (GPa) = 36.19610 63.69229 49.94419
# Shear Modulus (GPa) = 28.09129 35.84790 31.96960
#
# Velocity S-wave (km/s) = 3.94948 4.46155 4.21330
# Velocity P-wave (km/s) = 6.39505 7.86812 7.16952
#
# Compressibility (1/GPa) = 0.02762729
#
# Stress axis : x y z
#
# Youngs Moduli (GPa) = 95.32339 26.96158 90.06846
#
# Poissons Ratio (x) = 0.14963 0.32388
# Poissons Ratio (y) = 0.52901 0.57485
# Poissons Ratio (z) = 0.34277 0.17208
#
# Static dielectric constant tensor:
#      x y z
#    x 1.642070 0.000000 0.006730 
#    y 0.000000 1.609280 0.000000 
#    z 0.006730 0.000000 1.641520 
# 
# From -- ./inp_files/352961.got.cif
#   From: 2010.05.17/outbox.ucp.g08.bks.cvg/sg12_177_cif.got.tgz:352961.got - 2010.06.11 11:47:21.
