data_PCOD9225138
_publ_section_title
;
Structure prediction by ZEFSAII (Michael W. Deem and Ramdas Pophale) SiO2 
 PCOD9225138
Probable space group: C 2/M
;
_chemical_formula_sum "Si O2"
_cell_formula_units_Z 24
_cell_length_a 24.000000
_cell_length_b 9.000000
_cell_length_c 12.000000
_cell_angle_alpha 90.000000
_cell_angle_beta 70.000000
_cell_angle_gamma 90.000000
_cell_volume 2435.683273
_symmetry_space_group_name_H-M "C 2/M"
_symmetry_group_IT_number 12
_symmetry_cell_setting 'monoclinic'
loop_
_space_group_symop_operation_xyz
x,y,z
-x,y,-z
-x,-y,-z
x,-y,z
1/2+x,1/2+y,z
1/2-x,1/2+y,-z
1/2-x,1/2-y,-z
1/2+x,1/2-y,z
loop_
_atom_site_type_symbol
_atom_site_label
_atom_site_fract_x
_atom_site_fract_y
_atom_site_fract_z
Si Si1 0.313908 0.820841 0.963762
Si Si2 0.908927 0.678244 0.728741
Si Si3 0.522318 0.177456 0.768048
Si Si4 0.080711 0.170156 0.516535
Si Si5 0.628268 0.819791 0.841637
Si Si6 0.694352 0.329702 0.590093
O O1 0.346526 0.783231 0.825790
O O2 0.310757 0.000000 0.971361
O O3 0.250000 0.750000 0.000000
O O4 0.348932 0.772722 0.052329
O O5 0.912856 0.500000 0.706582
O O6 0.921549 0.760467 0.604530
O O7 0.953969 0.716370 0.799283
O O8 0.547325 0.234434 0.632885
O O9 0.562491 0.229836 0.844009
O O10 0.525956 0.000000 0.768517
O O11 0.146251 0.169127 0.523724
O O12 0.059210 0.000000 0.530269
O O13 0.669645 0.756840 0.714624
O O14 0.629474 0.000000 0.839479
O O15 0.706498 0.500000 0.613664
O O16 0.750000 0.250000 0.500000
#
# Coordination Sequence:
#
# PCOD9225138 Si02
#       6
#     8   8   8   8   8   8
#     4  10  23  40  57  80 111 147 188 231 275 327
#     4  10  21  36  56  83 112 147 187 225 273 329
#     4   9  18  35  59  84 111 143 181 228 279 329
#     4  10  21  35  53  82 116 146 179 224 277 331
#     4   9  19  37  58  80 109 143 182 230 277 324
#     4  10  21  35  54  80 109 144 185 228 275 326
#
# _framework density 9.8534980000000001
#
# number of rings (size 3 to 8) (size 9 to 14) (size 15 to 20)
#    0.000    2.333    0.000    1.500    2.333    6.667 
#    0.000    3.333    0.000    0.000    0.000    7.000 
#    0.000    0.000    0.000    0.000    0.000    0.000 
#
# Total GULP energy -133741.890391 kJ/mol
# GULP energy per Si atom -5572.578766 kJ/mol
# Density = 0.983107 g / cm^3
# Si number density = 9.853498 Si / 1000 Ang^3
#
#
#
# Elastic Constant Matrix: (Units=GPa)
#
#
# Indices 1 2 3 4 5 6 
#
# 1 52.7905 -7.7981 22.7322 0.0000 3.6259 0.0000
# 2 -7.7981 -32.3344 -18.4573 0.0000 3.3629 0.0000
# 3 22.7322 -18.4573 28.4012 0.0000 26.6072 0.0000
# 4 0.0000 0.0000 0.0000 20.7739 0.0000 4.7979
# 5 3.6259 3.3629 26.6072 0.0000 35.5109 0.0000
# 6 0.0000 0.0000 0.0000 4.7979 0.0000 22.8705
#
#
#
# Elastic Compliance Matrix: (Units=1/GPa)
#
#
# Indices 1 2 3 4 5 6 
#
# 1 0.039366 0.019283 -0.045294 0.000000 0.028092 0.000000
# 2 0.019283 -0.002370 -0.051466 0.000000 0.036817 0.000000
# 3 -0.045294 -0.051466 0.097691 0.000000 -0.063698 0.000000
# 4 0.000000 0.000000 0.000000 0.050588 0.000000 -0.010613
# 5 0.028092 0.036817 -0.063698 0.000000 0.069533 0.000000
# 6 0.000000 0.000000 0.000000 -0.010613 0.000000 0.045951
#
#
# Mechanical properties :
#
#
# Convention : Reuss Voigt Hill
#
# Bulk Modulus (GPa) = -49.34031 4.64567 -22.34732
# Shear Modulus (GPa) = 11.13690 19.32309 15.23000
#
# Velocity S-wave (km/s) = 2.37981 3.13472 2.78298
# Velocity P-wave (km/s) = 4.18807 3.93249 1.01870
#
# Compressibility (1/GPa) = -0.02026740
#
# Stress axis : x y z
#
# Youngs Moduli (GPa) = 25.40265 -421.93328 10.23632
#
# Poissons Ratio (x) = 8.13612 0.46365
# Poissons Ratio (y) = -0.48984 0.52682
# Poissons Ratio (z) = 1.15060 -21.71522
#
# Static dielectric constant tensor:
#      x y z
#    x 1.738030 0.000000 -0.054450 
#    y 0.000000 1.679220 0.000000 
#    z -0.054450 0.000000 1.636760 
# 
# From -- ./inp_files/172059.got.cif
#   From: 2010.05.17/outbox.ucp.g08.bks.cvg/sg12_87_cif.got.tgz:172059.got - 2010.06.11 11:47:21.
