data_PCOD9225947
_publ_section_title
;
Structure prediction by ZEFSAII (Michael W. Deem and Ramdas Pophale) SiO2 
 PCOD9225947
Probable space group: C 2/M
;
_chemical_formula_sum "Si O2"
_cell_formula_units_Z 24
_cell_length_a 15.000000
_cell_length_b 21.000000
_cell_length_c 12.000000
_cell_angle_alpha 90.000000
_cell_angle_beta 140.000000
_cell_angle_gamma 90.000000
_cell_volume 2429.737165
_symmetry_space_group_name_H-M "C 2/M"
_symmetry_group_IT_number 12
_symmetry_cell_setting 'monoclinic'
loop_
_space_group_symop_operation_xyz
x,y,z
-x,y,-z
-x,-y,-z
x,-y,z
1/2+x,1/2+y,z
1/2-x,1/2+y,-z
1/2-x,1/2-y,-z
1/2+x,1/2-y,z
loop_
_atom_site_type_symbol
_atom_site_label
_atom_site_fract_x
_atom_site_fract_y
_atom_site_fract_z
Si Si1 0.681860 0.070922 0.831467
Si Si2 0.470693 0.168274 0.705317
Si Si3 0.761822 0.121878 0.666696
Si Si4 0.142009 0.786941 0.807338
Si Si5 0.848045 0.266267 0.801861
Si Si6 0.022458 0.926243 0.775350
O O1 0.605614 0.122441 0.837969
O O2 0.701243 0.094813 0.723908
O O3 0.618961 0.000000 0.776711
O O4 0.839452 0.066586 0.021482
O O5 0.367800 0.124597 0.538041
O O6 0.520221 0.233324 0.691052
O O7 0.384192 0.189200 0.731236
O O8 0.804336 0.195485 0.725164
O O9 0.890592 0.087190 0.729322
O O10 0.234753 0.790439 0.783546
O O11 0.065932 0.856483 0.757011
O O12 0.250000 0.750000 0.000000
O O13 0.000000 0.259199 0.000000
O O14 0.003135 0.000000 0.705129
#
# Coordination Sequence:
#
# PCOD9225947 Si02
#       6
#     8   8   8   8   8   8
#     4  11  23  41  65  94 130 171 213 259 326 397
#     4  12  25  40  61  99 128 167 210 270 327 379
#     4  12  23  38  62  97 131 160 211 269 337 374
#     4  12  21  41  68  94 129 171 222 269 313 382
#     4  12  22  38  66  92 125 165 217 270 315 378
#     4  11  23  41  66  95 130 172 217 262 320 392
#
# _framework density 9.8776119999999992
#
# number of rings (size 3 to 8) (size 9 to 14) (size 15 to 20)
#    0.000    0.333    6.667    3.000    0.000    3.333 
#    0.000    0.833    0.000    4.000    0.000    0.000 
#    0.000    0.000    0.000    0.000    0.000    0.000 
#
# Total GULP energy -133613.808858 kJ/mol
# GULP energy per Si atom -5567.242036 kJ/mol
# Density = 0.985513 g / cm^3
# Si number density = 9.877612 Si / 1000 Ang^3
#
#
#
# Elastic Constant Matrix: (Units=GPa)
#
#
# Indices 1 2 3 4 5 6 
#
# 1 150.3210 49.4712 -5.3856 0.0000 -9.5553 0.0000
# 2 49.4712 168.7331 -21.8042 0.0000 -30.2646 0.0000
# 3 -5.3856 -21.8042 35.7025 0.0000 29.8407 0.0000
# 4 0.0000 0.0000 0.0000 -8.2208 0.0000 -6.0223
# 5 -9.5553 -30.2646 29.8407 0.0000 33.6470 0.0000
# 6 0.0000 0.0000 0.0000 -6.0223 0.0000 28.6771
#
#
#
# Elastic Compliance Matrix: (Units=1/GPa)
#
#
# Indices 1 2 3 4 5 6 
#
# 1 0.007380 -0.002084 -0.001331 0.000000 0.001402 0.000000
# 2 -0.002084 0.007795 -0.003553 0.000000 0.009571 0.000000
# 3 -0.001331 -0.003553 0.110637 0.000000 -0.101695 0.000000
# 4 0.000000 0.000000 0.000000 -0.105424 0.000000 -0.022139
# 5 0.001402 0.009571 -0.101695 0.000000 0.128918 0.000000
# 6 0.000000 0.000000 0.000000 -0.022139 0.000000 0.030222
#
#
# Mechanical properties :
#
#
# Convention : Reuss Voigt Hill
#
# Bulk Modulus (GPa) = 8.93864 44.36883 26.65374
# Shear Modulus (GPa) = 21.66792 32.98568 27.32680
#
# Velocity S-wave (km/s) = 3.31542 4.09065 3.72327
# Velocity P-wave (km/s) = 4.38070 6.69472 5.65729
#
# Compressibility (1/GPa) = 0.11187382
#
# Stress axis : x y z
#
# Youngs Moduli (GPa) = 135.50530 128.28500 9.03860
#
# Poissons Ratio (x) = 0.26739 0.01203
# Poissons Ratio (y) = 0.28244 0.03212
# Poissons Ratio (z) = 0.18038 0.45584
#
# Static dielectric constant tensor:
#      x y z
#    x 1.728650 0.000000 -0.038180 
#    y 0.000000 1.735820 0.000000 
#    z -0.038180 0.000000 1.786120 
# 
# From -- ./inp_files/63322.got.cif
#   From: 2010.05.17/outbox.ucp.g08.bks.cvg/sg12_32_cif.got.tgz:63322.got - 2010.06.11 11:47:21.
