data_PCOD9225856
_publ_section_title
;
Structure prediction by ZEFSAII (Michael W. Deem and Ramdas Pophale) SiO2 
 PCOD9225856
Probable space group: C 2/M
;
_chemical_formula_sum "Si O2"
_cell_formula_units_Z 28
_cell_length_a 30.000000
_cell_length_b 9.000000
_cell_length_c 12.000000
_cell_angle_alpha 90.000000
_cell_angle_beta 60.000000
_cell_angle_gamma 90.000000
_cell_volume 2805.922308
_symmetry_space_group_name_H-M "C 2/M"
_symmetry_group_IT_number 12
_symmetry_cell_setting 'monoclinic'
loop_
_space_group_symop_operation_xyz
x,y,z
-x,y,-z
-x,-y,-z
x,-y,z
1/2+x,1/2+y,z
1/2-x,1/2+y,-z
1/2-x,1/2-y,-z
1/2+x,1/2-y,z
loop_
_atom_site_type_symbol
_atom_site_label
_atom_site_fract_x
_atom_site_fract_y
_atom_site_fract_z
Si Si1 0.714713 0.178255 0.451244
Si Si2 0.874157 0.677386 0.742314
Si Si3 0.147299 0.822243 0.017208
Si Si4 0.241020 0.321497 0.172254
Si Si5 0.427885 0.177588 0.042953
Si Si6 0.023976 0.822364 0.805433
Si Si7 0.403348 0.822153 0.456566
O O1 0.750000 0.250000 0.500000
O O2 0.742330 0.215989 0.300478
O O3 0.654025 0.220674 0.516899
O O4 0.714520 0.000000 0.463201
O O5 0.875986 0.500000 0.764355
O O6 0.886738 0.771683 0.834953
O O7 0.815362 0.726841 0.793087
O O8 0.903175 0.701184 0.590099
O O9 0.125335 0.732924 0.940472
O O10 0.144679 0.000000 0.005543
O O11 0.207050 0.773451 0.952497
O O12 0.239717 0.500000 0.164256
O O13 0.471972 0.235233 0.902765
O O14 0.430946 0.000000 0.053676
O O15 0.438432 0.265621 0.143241
O O16 0.051646 0.767922 0.659161
O O17 0.016333 0.000000 0.818856
O O18 0.409283 0.000000 0.429405
#
# Coordination Sequence:
#
# PCOD9225856 Si02
#       7
#     8   8   8   8   8   8   8
#     4   9  18  32  49  75 109 145 186 227 269 321
#     4   9  18  36  57  79 111 153 193 227 269 329
#     4  11  21  34  55  84 116 146 186 236 281 321
#     4   8  17  33  52  75 110 151 186 225 274 322
#     4  11  23  40  60  83 112 145 184 225 275 338
#     4  11  22  39  62  86 112 140 179 230 286 334
#     4   9  19  36  57  79 110 150 188 224 275 335
#
# _framework density 9.9788940000000004
#
# number of rings (size 3 to 8) (size 9 to 14) (size 15 to 20)
#    0.000    2.286    0.000    6.000    2.000    1.143 
#    0.000    4.286    0.000    4.286    0.000    0.000 
#    0.000    0.000    0.000    0.000    0.000    0.000 
#
# Total GULP energy -156065.352478 kJ/mol
# GULP energy per Si atom -5573.762588 kJ/mol
# Density = 0.995618 g / cm^3
# Si number density = 9.978894 Si / 1000 Ang^3
#
#
#
# Elastic Constant Matrix: (Units=GPa)
#
#
# Indices 1 2 3 4 5 6 
#
# 1 5.9937 -6.4176 -10.0136 0.0000 14.7490 0.0000
# 2 -6.4176 45.4309 5.1729 0.0000 -3.4629 0.0000
# 3 -10.0136 5.1729 63.5324 0.0000 -6.4225 0.0000
# 4 0.0000 0.0000 0.0000 31.5289 0.0000 2.0612
# 5 14.7490 -3.4629 -6.4225 0.0000 18.1630 0.0000
# 6 0.0000 0.0000 0.0000 2.0612 0.0000 23.4805
#
#
#
# Elastic Compliance Matrix: (Units=1/GPa)
#
#
# Indices 1 2 3 4 5 6 
#
# 1 -0.151448 -0.011214 -0.011139 0.000000 0.116904 0.000000
# 2 -0.011214 0.021633 -0.002273 0.000000 0.012427 0.000000
# 3 -0.011139 -0.002273 0.015597 0.000000 0.014128 0.000000
# 4 0.000000 0.000000 0.000000 0.031900 0.000000 -0.002800
# 5 0.116904 0.012427 0.014128 0.000000 -0.032508 0.000000
# 6 0.000000 0.000000 0.000000 -0.002800 0.000000 0.042834
#
#
# Mechanical properties :
#
#
# Convention : Reuss Voigt Hill
#
# Bulk Modulus (GPa) = -6.11731 10.27116 2.07693
# Shear Modulus (GPa) = -64.74312 23.04883 -20.84715
#
# Velocity S-wave (km/s) = -5.70179 3.40204 -3.23547
# Velocity P-wave (km/s) = 6.81315 4.53756 3.59372
#
# Compressibility (1/GPa) = -0.16347060
#
# Stress axis : x y z
#
# Youngs Moduli (GPa) = -6.60292 46.22502 64.11292
#
# Poissons Ratio (x) = 0.51839 0.71418
# Poissons Ratio (y) = -0.07405 0.14571
# Poissons Ratio (z) = -0.07355 0.10506
#
# Static dielectric constant tensor:
#      x y z
#    x 1.774070 0.000000 0.020070 
#    y 0.000000 1.660350 0.000000 
#    z 0.020070 0.000000 1.735150 
# 
# From -- ./inp_files/187244.got.cif
#   From: 2010.05.17/outbox.ucp.g08.bks.cvg/sg12_94_cif.got.tgz:187244.got - 2010.06.11 11:47:21.
