data_PCOD9225880
_publ_section_title
;
Structure prediction by ZEFSAII (Michael W. Deem and Ramdas Pophale) SiO2 
 PCOD9225880
Probable space group: C 2/M
;
_chemical_formula_sum "Si O2"
_cell_formula_units_Z 32
_cell_length_a 15.000000
_cell_length_b 27.000000
_cell_length_c 12.000000
_cell_angle_alpha 90.000000
_cell_angle_beta 140.000000
_cell_angle_gamma 90.000000
_cell_volume 3123.947783
_symmetry_space_group_name_H-M "C 2/M"
_symmetry_group_IT_number 12
_symmetry_cell_setting 'monoclinic'
loop_
_space_group_symop_operation_xyz
x,y,z
-x,y,-z
-x,-y,-z
x,-y,z
1/2+x,1/2+y,z
1/2-x,1/2+y,-z
1/2-x,1/2-y,-z
1/2+x,1/2-y,z
loop_
_atom_site_type_symbol
_atom_site_label
_atom_site_fract_x
_atom_site_fract_y
_atom_site_fract_z
Si Si1 0.491798 0.117911 0.264133
Si Si2 0.760704 0.348610 0.336658
Si Si3 0.016089 0.879618 0.809862
Si Si4 0.835185 0.765811 0.361750
Si Si5 0.241390 0.305671 0.039331
Si Si6 0.864673 0.441957 0.792517
Si Si7 0.749032 0.439943 0.148689
Si Si8 0.132704 0.131201 0.549559
O O1 0.603015 0.141345 0.456409
O O2 0.586171 0.087273 0.269564
O O3 0.381784 0.076600 0.202037
O O4 0.396831 0.162862 0.123582
O O5 0.603861 0.354392 0.231693
O O6 0.776191 0.290260 0.316320
O O7 0.764454 0.396828 0.258060
O O8 0.927540 0.895535 0.617353
O O9 0.131205 0.838903 0.884429
O O10 0.104232 0.923997 0.950152
O O11 0.763399 0.794476 0.190201
O O12 0.820657 0.811810 0.437018
O O13 0.000000 0.758066 0.500000
O O14 0.250000 0.250000 0.000000
O O15 0.825099 0.500000 0.739847
O O16 0.741007 0.405552 0.713272
O O17 0.000000 0.441322 0.000000
O O18 0.751593 0.500000 0.175833
O O19 0.000000 0.138300 0.500000
#
# Coordination Sequence:
#
# PCOD9225880 Si02
#       8
#     8   8   8   8   8   8   8   8
#     4  11  24  44  69  99 136 179 228 276 345 409
#     4  12  25  44  68 104 137 173 233 282 336 405
#     4  11  24  44  66  98 134 175 226 279 337 407
#     4  11  21  40  67  97 137 177 218 277 337 406
#     4  11  22  40  66  96 134 181 222 271 337 407
#     4  11  25  44  67 100 136 173 228 287 337 404
#     4  11  26  46  70  96 136 185 227 281 341 405
#     4  11  23  44  70  98 137 176 222 280 344 407
#
# _framework density 10.243449
#
# number of rings (size 3 to 8) (size 9 to 14) (size 15 to 20)
#    0.000    0.875    3.750    4.875    1.750    4.750 
#    0.000    2.500    0.000    0.000    0.000    0.000 
#    0.000    0.000    0.000    0.000    0.000    0.000 
#
# Total GULP energy -178312.120279 kJ/mol
# GULP energy per Si atom -5572.253759 kJ/mol
# Density = 1.022013 g / cm^3
# Si number density = 10.243449 Si / 1000 Ang^3
#
#
#
# Elastic Constant Matrix: (Units=GPa)
#
#
# Indices 1 2 3 4 5 6 
#
# 1 50.7483 31.4055 11.4445 0.0000 15.2714 0.0000
# 2 31.4055 200.1163 49.7927 0.0000 4.7897 0.0000
# 3 11.4445 49.7927 111.7922 0.0000 4.8854 0.0000
# 4 0.0000 0.0000 0.0000 37.8425 0.0000 0.4601
# 5 15.2714 4.7897 4.8854 0.0000 29.2571 0.0000
# 6 0.0000 0.0000 0.0000 0.4601 0.0000 26.0026
#
#
#
# Elastic Compliance Matrix: (Units=1/GPa)
#
#
# Indices 1 2 3 4 5 6 
#
# 1 0.025938 -0.003646 -0.000469 0.000000 -0.012864 0.000000
# 2 -0.003646 0.006140 -0.002418 0.000000 0.001302 0.000000
# 3 -0.000469 -0.002418 0.010116 0.000000 -0.001048 0.000000
# 4 0.000000 0.000000 0.000000 0.026431 0.000000 -0.000468
# 5 -0.012864 0.001302 -0.001048 0.000000 0.040856 0.000000
# 6 0.000000 0.000000 0.000000 -0.000468 0.000000 0.038466
#
#
# Mechanical properties :
#
#
# Convention : Reuss Voigt Hill
#
# Bulk Modulus (GPa) = 34.33241 60.88247 47.60744
# Shear Modulus (GPa) = 29.28710 36.62139 32.95425
#
# Velocity S-wave (km/s) = 3.78504 4.23253 4.01503
# Velocity P-wave (km/s) = 5.99138 7.32585 6.69196
#
# Compressibility (1/GPa) = 0.02912700
#
# Stress axis : x y z
#
# Youngs Moduli (GPa) = 38.55312 162.87033 98.85166
#
# Poissons Ratio (x) = 0.59382 0.04639
# Poissons Ratio (y) = 0.14056 0.23906
# Poissons Ratio (z) = 0.01809 0.39388
#
# Static dielectric constant tensor:
#      x y z
#    x 1.885820 0.000000 -0.071820 
#    y 0.000000 1.707240 0.000000 
#    z -0.071820 0.000000 1.805230 
# 
# From -- ./inp_files/149807.got.cif
#   From: 2010.05.17/outbox.ucp.g08.bks.cvg/sg12_75_cif.got.tgz:149807.got - 2010.06.11 11:47:21.
