data_PCOD9225129
_publ_section_title
;
Structure prediction by ZEFSAII (Michael W. Deem and Ramdas Pophale) SiO2 
 PCOD9225129
Probable space group: C 2/M
;
_chemical_formula_sum "Si O2"
_cell_formula_units_Z 32
_cell_length_a 30.000000
_cell_length_b 9.000000
_cell_length_c 24.000000
_cell_angle_alpha 90.000000
_cell_angle_beta 30.000000
_cell_angle_gamma 90.000000
_cell_volume 3240.000000
_symmetry_space_group_name_H-M "C 2/M"
_symmetry_group_IT_number 12
_symmetry_cell_setting 'monoclinic'
loop_
_space_group_symop_operation_xyz
x,y,z
-x,y,-z
-x,-y,-z
x,-y,z
1/2+x,1/2+y,z
1/2-x,1/2+y,-z
1/2-x,1/2-y,-z
1/2+x,1/2-y,z
loop_
_atom_site_type_symbol
_atom_site_label
_atom_site_fract_x
_atom_site_fract_y
_atom_site_fract_z
Si Si1 0.553171 0.678655 0.156902
Si Si2 0.993734 0.819523 0.340567
Si Si3 0.904801 0.675388 0.130293
Si Si4 0.781793 0.821039 0.702658
Si Si5 0.878785 0.176704 0.277122
Si Si6 0.297739 0.321332 0.555024
Si Si7 0.879259 0.820373 0.705947
Si Si8 0.768790 0.323464 0.039651
O O1 0.563269 0.500000 0.141085
O O2 0.552439 0.716718 0.223397
O O3 0.460086 0.720655 0.229027
O O4 0.636887 0.762456 0.040984
O O5 0.031425 0.766388 0.359189
O O6 0.894966 0.771851 0.431554
O O7 0.991650 0.000000 0.346303
O O8 0.892941 0.500000 0.157888
O O9 0.823328 0.713576 0.176883
O O10 0.900359 0.770238 0.191103
O O11 0.000000 0.694126 0.000000
O O12 0.797193 0.779649 0.621556
O O13 0.845867 0.762457 0.682192
O O14 0.791452 0.000000 0.694102
O O15 0.783066 0.250288 0.390878
O O16 0.870380 0.000000 0.289187
O O17 0.290388 0.500000 0.559424
O O18 0.888338 0.000000 0.690412
O O19 0.804059 0.791968 0.833982
O O20 0.770641 0.500000 0.029827
O O21 0.750000 0.250000 0.000000
#
# Coordination Sequence:
#
# PCOD9225129 Si02
#       8
#     8   8   8   8   8   8   8   8
#     4  10  21  37  53  76 109 142 177 216 263 315
#     4   9  17  32  53  76 103 137 173 219 270 310
#     4   9  18  32  52  76 105 135 173 224 262 304
#     4   8  15  28  46  76 106 128 163 212 261 303
#     4  10  21  35  52  74 107 143 174 216 266 318
#     4   9  18  34  56  77 102 134 175 225 267 309
#     4   9  17  29  50  78 106 134 167 207 261 318
#     4  11  21  34  55  78 107 144 176 215 261 313
#
# _framework density 9.8765429999999999
#
# number of rings (size 3 to 8) (size 9 to 14) (size 15 to 20)
#    0.000    2.625    1.250    1.500    1.750    2.250 
#    0.000    3.125    0.000    0.750    0.000    3.500 
#    0.000    0.000    0.000    0.000    0.000    0.000 
#
# Total GULP energy -178250.555094 kJ/mol
# GULP energy per Si atom -5570.329847 kJ/mol
# Density = 0.985406 g / cm^3
# Si number density = 9.876543 Si / 1000 Ang^3
#
#
#
# Elastic Constant Matrix: (Units=GPa)
#
#
# Indices 1 2 3 4 5 6 
#
# 1 91.0115 13.2661 4.8514 -0.0018 -19.5865 -0.0015
# 2 13.2661 10.2786 16.5407 0.0014 -4.6862 0.0004
# 3 4.8514 16.5407 51.7837 -0.0014 -27.3283 -0.0001
# 4 -0.0018 0.0014 -0.0014 11.9219 0.0011 -4.6652
# 5 -19.5865 -4.6862 -27.3283 0.0011 25.9643 0.0010
# 6 -0.0015 0.0004 -0.0001 -4.6652 0.0010 25.0845
#
#
#
# Elastic Compliance Matrix: (Units=1/GPa)
#
#
# Indices 1 2 3 4 5 6 
#
# 1 -0.045657 0.225549 -0.145005 -0.000040 -0.146356 -0.000009
# 2 0.225549 -0.834825 0.575439 0.000155 0.625140 0.000033
# 3 -0.145005 0.575439 -0.346040 -0.000106 -0.369746 -0.000024
# 4 -0.000040 0.000155 -0.000106 0.090462 -0.000118 0.016824
# 5 -0.146356 0.625140 -0.369746 -0.000118 -0.348231 -0.000028
# 6 -0.000009 0.000033 -0.000024 0.016824 -0.000028 0.042994
#
#
# Mechanical properties :
#
#
# Convention : Reuss Voigt Hill
#
# Bulk Modulus (GPa) = 11.70339 24.71002 18.20671
# Shear Modulus (GPa) = -1.83501 20.48853 9.32676
#
# Velocity S-wave (km/s) = -0.96488 3.22410 2.17530
# Velocity P-wave (km/s) = 2.16711 5.13774 3.94289
#
# Compressibility (1/GPa) = 0.08544533
#
# Stress axis : x y z
#
# Youngs Moduli (GPa) = -21.90259 -1.19786 -2.88984
#
# Poissons Ratio (x) = 0.27017 -0.41904
# Poissons Ratio (y) = 4.94010 1.66293
# Poissons Ratio (z) = -3.17598 0.68929
#
# Static dielectric constant tensor:
#      x y z
#    x 1.698420 0.000000 -0.028120 
#    y 0.000000 1.663730 0.000000 
#    z -0.028120 0.000000 1.776100 
# 
# From -- ./inp_files/353399.got.cif
#   From: 2010.05.17/outbox.ucp.g08.bks.cvg/sg12_177_cif.got.tgz:353399.got - 2010.06.11 11:47:21.
