data_PCOD9225862
_publ_section_title
;
Structure prediction by ZEFSAII (Michael W. Deem and Ramdas Pophale) SiO2 
 PCOD9225862
Probable space group: C 2/M
;
_chemical_formula_sum "Si O2"
_cell_formula_units_Z 32
_cell_length_a 27.000000
_cell_length_b 21.000000
_cell_length_c 18.000000
_cell_angle_alpha 90.000000
_cell_angle_beta 20.000000
_cell_angle_gamma 90.000000
_cell_volume 3490.657583
_symmetry_space_group_name_H-M "C 2/M"
_symmetry_group_IT_number 12
_symmetry_cell_setting 'monoclinic'
loop_
_space_group_symop_operation_xyz
x,y,z
-x,y,-z
-x,-y,-z
x,-y,z
1/2+x,1/2+y,z
1/2-x,1/2+y,-z
1/2-x,1/2-y,-z
1/2+x,1/2-y,z
loop_
_atom_site_type_symbol
_atom_site_label
_atom_site_fract_x
_atom_site_fract_y
_atom_site_fract_z
Si Si1 0.456057 0.779728 0.647010
Si Si2 0.984888 0.783344 0.205488
Si Si3 0.339185 0.662884 0.900735
Si Si4 0.723858 0.723177 0.738971
Si Si5 0.224749 0.336723 0.478036
Si Si6 0.797803 0.368525 0.246512
Si Si7 0.918988 0.426254 0.219693
Si Si8 0.521946 0.424978 0.556031
O O1 0.500000 0.778531 0.500000
O O2 0.379306 0.714481 0.780754
O O3 0.609705 0.785566 0.471235
O O4 0.330172 0.831094 0.841056
O O5 0.906074 0.715656 0.333207
O O6 0.850781 0.821891 0.359682
O O7 0.061340 0.815438 0.169288
O O8 0.111612 0.778919 0.965097
O O9 0.388100 0.596692 0.795993
O O10 0.702036 0.671978 0.705038
O O11 0.704872 0.793831 0.731212
O O12 0.153849 0.402665 0.602204
O O13 0.814582 0.409931 0.297282
O O14 0.657300 0.386378 0.397948
O O15 0.938257 0.385423 0.999783
O O16 0.955949 0.500000 0.167558
O O17 0.500000 0.410148 0.500000
O O18 0.549561 0.500000 0.523425
#
# Coordination Sequence:
#
# PCOD9225862 Si02
#       8
#     8   8   8   8   8   8   8   8
#     4  11  22  36  56  85 117 150 188 234 289 348
#     4  11  21  36  56  86 118 148 190 243 299 342
#     4  11  22  36  59  84 114 156 192 234 293 352
#     4  12  22  36  60  89 119 151 185 251 301 342
#     4  11  22  35  55  86 118 153 190 236 296 350
#     4  11  21  37  59  87 120 153 193 238 294 355
#     4  11  23  38  59  84 119 163 196 232 283 354
#     4  11  23  38  58  85 120 155 194 240 287 346
#
# _framework density 9.1673270000000002
#
# number of rings (size 3 to 8) (size 9 to 14) (size 15 to 20)
#    0.000    0.875    5.000    4.500    1.750    1.000 
#    0.000    0.000    0.000    2.625    0.000    0.000 
#    0.000    0.000    0.000    0.000    0.000    0.000 
#
# Total GULP energy -178648.513487 kJ/mol
# GULP energy per Si atom -5582.766046 kJ/mol
# Density = 0.914646 g / cm^3
# Si number density = 9.167327 Si / 1000 Ang^3
#
#
#
# Elastic Constant Matrix: (Units=GPa)
#
#
# Indices 1 2 3 4 5 6 
#
# 1 33.2330 29.0009 45.9022 -0.0014 11.8268 0.0007
# 2 29.0009 35.2636 11.2655 -0.0012 5.7604 0.0012
# 3 45.9022 11.2655 100.4506 -0.0003 7.2996 0.0023
# 4 -0.0014 -0.0012 -0.0003 17.9522 0.0021 5.4901
# 5 11.8268 5.7604 7.2996 0.0021 34.4659 -0.0016
# 6 0.0007 0.0012 0.0023 5.4901 -0.0016 13.1636
#
#
#
# Elastic Compliance Matrix: (Units=1/GPa)
#
#
# Indices 1 2 3 4 5 6 
#
# 1 -0.190961 0.129771 0.070609 -0.000006 0.028884 -0.000008
# 2 0.129771 -0.058141 -0.051036 0.000008 -0.024004 0.000001
# 3 0.070609 -0.051036 -0.015688 0.000003 -0.012377 0.000001
# 4 -0.000006 0.000008 0.000003 0.063847 -0.000005 -0.026628
# 5 0.028884 -0.024004 -0.012377 -0.000005 0.025736 0.000008
# 6 -0.000008 0.000001 0.000001 -0.026628 0.000008 0.087073
#
#
# Mechanical properties :
#
#
# Convention : Reuss Voigt Hill
#
# Bulk Modulus (GPa) = 29.49858 37.92047 33.70953
# Shear Modulus (GPa) = -13.31476 18.63492 2.66008
#
# Velocity S-wave (km/s) = -2.69775 3.19153 1.20582
# Velocity P-wave (km/s) = 2.53380 5.85734 4.51268
#
# Compressibility (1/GPa) = 0.03389993
#
# Stress axis : x y z
#
# Youngs Moduli (GPa) = -5.23667 -17.19956 -63.74470
#
# Poissons Ratio (x) = 2.23201 4.50097
# Poissons Ratio (y) = 0.67957 -3.25326
# Poissons Ratio (z) = 0.36976 -0.87779
#
# Static dielectric constant tensor:
#      x y z
#    x 1.681500 0.000000 0.004310 
#    y 0.000000 1.610650 0.000000 
#    z 0.004310 0.000000 1.652120 
# 
# From -- ./inp_files/294128.got.cif
#   From: 2010.05.17/outbox.ucp.g08.bks.cvg/sg12_148_cif.got.tgz:294128.got - 2010.06.11 11:47:21.
