data_PCOD9225028
_publ_section_title
;
Structure prediction by ZEFSAII (Michael W. Deem and Ramdas Pophale) SiO2 
 PCOD9225028
Probable space group: C 2/M
;
_chemical_formula_sum "Si O2"
_cell_formula_units_Z 24
_cell_length_a 9.000000
_cell_length_b 18.000000
_cell_length_c 15.000000
_cell_angle_alpha 90.000000
_cell_angle_beta 90.000000
_cell_angle_gamma 90.000000
_cell_volume 2430.000000
_symmetry_space_group_name_H-M "C 2/M"
_symmetry_group_IT_number 12
_symmetry_cell_setting 'monoclinic'
loop_
_space_group_symop_operation_xyz
x,y,z
-x,y,-z
-x,-y,-z
x,-y,z
1/2+x,1/2+y,z
1/2-x,1/2+y,-z
1/2-x,1/2-y,-z
1/2+x,1/2-y,z
loop_
_atom_site_type_symbol
_atom_site_label
_atom_site_fract_x
_atom_site_fract_y
_atom_site_fract_z
Si Si1 0.165636 0.834792 0.099042
Si Si2 0.887318 0.828521 0.573299
Si Si3 0.874095 0.588756 0.739853
Si Si4 0.621457 0.161758 0.439217
Si Si5 0.774973 0.412807 0.268387
Si Si6 0.189650 0.827290 0.892998
O O1 0.221987 0.894980 0.168786
O O2 0.245669 0.755872 0.115787
O O3 0.989078 0.826165 0.116468
O O4 0.205464 0.853289 0.996247
O O5 0.742543 0.824024 0.513305
O O6 0.936839 0.743195 0.593070
O O7 0.833548 0.869933 0.662533
O O8 0.000000 0.862829 0.500000
O O9 0.865170 0.500000 0.746544
O O10 0.815216 0.618448 0.645051
O O11 0.781488 0.624562 0.821151
O O12 0.050089 0.609693 0.731883
O O13 0.500000 0.119910 0.500000
O O14 0.768062 0.500000 0.289008
#
# Coordination Sequence:
#
# PCOD9225028 Si02
#       6
#     8   8   8   8   8   8
#     4  10  22  41  66  92 120 153 196 251 301 355
#     4  10  22  37  60  89 116 155 203 254 305 349
#     4  11  24  39  60  88 122 166 205 242 297 359
#     4  10  20  39  61  84 117 156 201 253 299 352
#     4  11  24  40  58  87 127 165 200 245 299 357
#     4  10  22  41  66  93 118 153 199 248 302 357
#
# _framework density 9.8765429999999999
#
# number of rings (size 3 to 8) (size 9 to 14) (size 15 to 20)
#    0.000    1.667    1.667    2.000    2.333    4.667 
#    0.000    3.333    0.000    0.000    0.000    0.000 
#    0.000    0.000    0.000    0.000    0.000    0.000 
#
# Total GULP energy -133736.763452 kJ/mol
# GULP energy per Si atom -5572.365144 kJ/mol
# Density = 0.985406 g / cm^3
# Si number density = 9.876543 Si / 1000 Ang^3
#
#
#
# Elastic Constant Matrix: (Units=GPa)
#
#
# Indices 1 2 3 4 5 6 
#
# 1 38.1386 7.1911 15.6535 0.0000 -26.9978 0.0000
# 2 7.1911 42.0400 31.1140 0.0000 -17.6868 0.0000
# 3 15.6535 31.1140 95.9698 0.0000 -34.4332 0.0000
# 4 0.0000 0.0000 0.0000 14.8453 0.0000 8.5732
# 5 -26.9978 -17.6868 -34.4332 0.0000 46.5772 0.0000
# 6 0.0000 0.0000 0.0000 8.5732 0.0000 27.6604
#
#
#
# Elastic Compliance Matrix: (Units=1/GPa)
#
#
# Indices 1 2 3 4 5 6 
#
# 1 0.045245 0.002887 0.002024 0.000000 0.028818 0.000000
# 2 0.002887 0.032748 -0.008201 0.000000 0.008046 0.000000
# 3 0.002024 -0.008201 0.016403 0.000000 0.010185 0.000000
# 4 0.000000 0.000000 0.000000 0.082048 0.000000 -0.025430
# 5 0.028818 0.008046 0.010185 0.000000 0.048759 0.000000
# 6 0.000000 0.000000 0.000000 -0.025430 0.000000 0.044035
#
#
# Mechanical properties :
#
#
# Convention : Reuss Voigt Hill
#
# Bulk Modulus (GPa) = 11.38750 31.56283 21.47516
# Shear Modulus (GPa) = 16.38864 25.96256 21.17560
#
# Velocity S-wave (km/s) = 2.88353 3.62934 3.27772
# Velocity P-wave (km/s) = 4.10655 5.79449 5.02195
#
# Compressibility (1/GPa) = 0.08781562
#
# Stress axis : x y z
#
# Youngs Moduli (GPa) = 22.10178 30.53649 60.96426
#
# Poissons Ratio (x) = -0.08816 -0.12338
# Poissons Ratio (y) = -0.06381 0.49997
# Poissons Ratio (z) = -0.04473 0.25043
#
# Static dielectric constant tensor:
#      x y z
#    x 1.841400 0.000000 -0.001330 
#    y 0.000000 1.695650 0.000000 
#    z -0.001330 0.000000 1.701790 
# 
# From -- ./inp_files/195991.got.cif
#   From: 2010.05.17/outbox.ucp.g08.bks.cvg/sg12_98_cif.got.tgz:195991.got - 2010.06.11 11:47:21.
