data_PCOD9225043
_publ_section_title
;
Structure prediction by ZEFSAII (Michael W. Deem and Ramdas Pophale) SiO2 
 PCOD9225043
Probable space group: C 2/M
;
_chemical_formula_sum "Si O2"
_cell_formula_units_Z 28
_cell_length_a 21.000000
_cell_length_b 9.000000
_cell_length_c 15.000000
_cell_angle_alpha 90.000000
_cell_angle_beta 90.000000
_cell_angle_gamma 90.000000
_cell_volume 2835.000000
_symmetry_space_group_name_H-M "C 2/M"
_symmetry_group_IT_number 12
_symmetry_cell_setting 'monoclinic'
loop_
_space_group_symop_operation_xyz
x,y,z
-x,y,-z
-x,-y,-z
x,-y,z
1/2+x,1/2+y,z
1/2-x,1/2+y,-z
1/2-x,1/2-y,-z
1/2+x,1/2-y,z
loop_
_atom_site_type_symbol
_atom_site_label
_atom_site_fract_x
_atom_site_fract_y
_atom_site_fract_z
Si Si1 0.536336 0.173281 0.737846
Si Si2 0.905803 0.678112 0.642369
Si Si3 0.443500 0.827110 0.058721
Si Si4 0.697096 0.177255 0.202738
Si Si5 0.319261 0.677653 0.981807
Si Si6 0.331900 0.323653 0.292905
Si Si7 0.681691 0.177577 0.518035
O O1 0.475009 0.226863 0.680443
O O2 0.525281 0.167703 0.843436
O O3 0.597688 0.280019 0.737979
O O4 0.551193 0.000000 0.710658
O O5 0.912979 0.500000 0.634986
O O6 0.849733 0.704698 0.714027
O O7 0.875222 0.730088 0.548412
O O8 0.431446 0.000000 0.032599
O O9 0.500000 0.760295 0.000000
O O10 0.376688 0.742754 0.042375
O O11 0.670994 0.272064 0.120500
O O12 0.770600 0.212449 0.230347
O O13 0.694826 0.000000 0.181892
O O14 0.316227 0.500000 0.992195
O O15 0.250000 0.750000 0.000000
O O16 0.326767 0.500000 0.310954
O O17 0.329344 0.226550 0.381742
O O18 0.750000 0.250000 0.500000
O O19 0.686336 0.000000 0.507877
#
# Coordination Sequence:
#
# PCOD9225043 Si02
#       7
#     8   8   8   8   8   8   8
#     4  10  21  38  61  88 118 155 201 244 291 354
#     4   9  19  38  63  88 115 153 197 240 290 352
#     4  10  21  40  66  91 119 158 202 249 303 365
#     4  10  20  39  63  85 113 154 202 248 297 356
#     4  12  25  39  58  87 121 157 200 250 303 358
#     4  11  23  39  60  87 122 160 197 245 303 351
#     4  11  21  38  63  91 121 154 198 244 295 354
#
# _framework density 9.8765429999999999
#
# number of rings (size 3 to 8) (size 9 to 14) (size 15 to 20)
#    0.000    1.571    1.429    3.857    0.000    7.143 
#    0.000    6.429    0.000    0.000    0.000    0.000 
#    0.000    0.000    0.000    0.000    0.000    0.000 
#
# Total GULP energy -156114.653674 kJ/mol
# GULP energy per Si atom -5575.523345 kJ/mol
# Density = 0.985406 g / cm^3
# Si number density = 9.876543 Si / 1000 Ang^3
#
#
#
# Elastic Constant Matrix: (Units=GPa)
#
#
# Indices 1 2 3 4 5 6 
#
# 1 102.6054 18.3283 8.8104 0.0000 30.5263 0.0000
# 2 18.3283 64.3611 9.2960 0.0000 12.2491 0.0000
# 3 8.8104 9.2960 53.7456 0.0000 24.2238 0.0000
# 4 0.0000 0.0000 0.0000 27.8200 0.0000 5.9716
# 5 30.5263 12.2491 24.2238 0.0000 41.3571 0.0000
# 6 0.0000 0.0000 0.0000 5.9716 0.0000 33.4555
#
#
#
# Elastic Compliance Matrix: (Units=1/GPa)
#
#
# Indices 1 2 3 4 5 6 
#
# 1 0.013086 -0.002110 0.003113 0.000000 -0.010858 0.000000
# 2 -0.002110 0.016837 -0.001387 0.000000 -0.002617 0.000000
# 3 0.003113 -0.001387 0.026068 0.000000 -0.017156 0.000000
# 4 0.000000 0.000000 0.000000 0.037377 0.000000 -0.006672
# 5 -0.010858 -0.002617 -0.017156 0.000000 0.043018 0.000000
# 6 0.000000 0.000000 0.000000 -0.006672 0.000000 0.031081
#
#
# Mechanical properties :
#
#
# Convention : Reuss Voigt Hill
#
# Bulk Modulus (GPa) = 18.10791 32.62017 25.36404
# Shear Modulus (GPa) = 26.78939 32.81167 29.80053
#
# Velocity S-wave (km/s) = 3.68667 4.08007 3.88835
# Velocity P-wave (km/s) = 5.22581 6.22461 5.74695
#
# Compressibility (1/GPa) = 0.05522448
#
# Stress axis : x y z
#
# Youngs Moduli (GPa) = 76.41826 59.39466 38.36108
#
# Poissons Ratio (x) = 0.12531 -0.11943
# Poissons Ratio (y) = 0.16123 0.05319
# Poissons Ratio (z) = -0.23792 0.08236
#
# Static dielectric constant tensor:
#      x y z
#    x 21.276420 0.000000 -20.727130 
#    y 0.000000 1.645670 0.000000 
#    z -20.727130 0.000000 23.591650 
# 
# From -- ./inp_files/231017.got.cif
#   From: 2010.05.17/outbox.ucp.g08.bks.cvg/sg12_116_cif.got.tgz:231017.got - 2010.06.11 11:47:21.
