data_PCOD9225385
_publ_section_title
;
Structure prediction by ZEFSAII (Michael W. Deem and Ramdas Pophale) SiO2 
 PCOD9225385
Probable space group: C 2/M
;
_chemical_formula_sum "Si O2"
_cell_formula_units_Z 28
_cell_length_a 21.000000
_cell_length_b 18.000000
_cell_length_c 9.000000
_cell_angle_alpha 90.000000
_cell_angle_beta 60.000000
_cell_angle_gamma 90.000000
_cell_volume 2946.218424
_symmetry_space_group_name_H-M "C 2/M"
_symmetry_group_IT_number 12
_symmetry_cell_setting 'monoclinic'
loop_
_space_group_symop_operation_xyz
x,y,z
-x,y,-z
-x,-y,-z
x,-y,z
1/2+x,1/2+y,z
1/2-x,1/2+y,-z
1/2-x,1/2-y,-z
1/2+x,1/2-y,z
loop_
_atom_site_type_symbol
_atom_site_label
_atom_site_fract_x
_atom_site_fract_y
_atom_site_fract_z
Si Si1 0.190115 0.792083 0.962198
Si Si2 0.084975 0.587254 0.693119
Si Si3 0.652772 0.129888 0.926310
Si Si4 0.916870 0.191655 0.648177
Si Si5 0.047843 0.360086 0.310619
Si Si6 0.758722 0.588181 0.647161
Si Si7 0.193717 0.086736 0.389989
O O1 0.157198 0.720160 0.914638
O O2 0.227755 0.853372 0.807562
O O3 0.250000 0.750000 0.000000
O O4 0.125168 0.825375 0.144379
O O5 0.063725 0.500000 0.701123
O O6 0.108183 0.599668 0.836731
O O7 0.155611 0.600564 0.501788
O O8 0.018386 0.642424 0.731880
O O9 0.734660 0.099039 0.798968
O O10 0.615329 0.109612 0.129716
O O11 0.923745 0.281897 0.654260
O O12 0.864203 0.149682 0.592234
O O13 0.000000 0.169087 0.500000
O O14 0.000000 0.398773 0.500000
O O15 0.751869 0.500000 0.698794
O O16 0.716906 0.596928 0.536285
O O17 0.169662 0.000000 0.401041
#
# Coordination Sequence:
#
# PCOD9225385 Si02
#       7
#     8   8   8   8   8   8   8
#     4  11  22  38  62  95 123 156 206 249 306 366
#     4  10  22  40  61  90 126 167 203 246 311 376
#     4  10  21  38  61  90 122 161 208 256 298 370
#     4  10  23  40  60  87 123 161 200 253 306 365
#     4  10  23  36  58  86 128 163 202 250 306 363
#     4   9  22  41  65  93 123 157 205 258 309 365
#     4  10  21  41  64  88 118 164 212 256 311 365
#
# _framework density 9.5037079999999996
#
# number of rings (size 3 to 8) (size 9 to 14) (size 15 to 20)
#    0.000    2.000    1.429    1.714    6.000    7.429 
#    0.000    2.143    0.000    1.714    0.000    0.000 
#    0.000    0.000    0.000    0.000    0.000    0.000 
#
# Total GULP energy -155985.740228 kJ/mol
# GULP energy per Si atom -5570.919294 kJ/mol
# Density = 0.948208 g / cm^3
# Si number density = 9.503708 Si / 1000 Ang^3
#
#
#
# Elastic Constant Matrix: (Units=GPa)
#
#
# Indices 1 2 3 4 5 6 
#
# 1 91.3276 34.5017 20.0341 0.0000 -9.0101 0.0000
# 2 34.5017 98.3986 34.2798 0.0000 7.4804 0.0000
# 3 20.0341 34.2798 160.5765 0.0000 -15.5068 0.0000
# 4 0.0000 0.0000 0.0000 39.7850 0.0000 7.5347
# 5 -9.0101 7.4804 -15.5068 0.0000 26.6230 0.0000
# 6 0.0000 0.0000 0.0000 7.5347 0.0000 31.9342
#
#
#
# Elastic Compliance Matrix: (Units=1/GPa)
#
#
# Indices 1 2 3 4 5 6 
#
# 1 0.013507 -0.005197 0.000007 0.000000 0.006036 0.000000
# 2 -0.005197 0.013568 -0.002952 0.000000 -0.007291 0.000000
# 3 0.000007 -0.002952 0.007351 0.000000 0.005113 0.000000
# 4 0.000000 0.000000 0.000000 0.026311 0.000000 -0.006208
# 5 0.006036 -0.007291 0.005113 0.000000 0.044631 0.000000
# 6 0.000000 0.000000 0.000000 -0.006208 0.000000 0.032779
#
#
# Mechanical properties :
#
#
# Convention : Reuss Voigt Hill
#
# Bulk Modulus (GPa) = 55.12368 58.65934 56.89151
# Shear Modulus (GPa) = 31.15703 37.10092 34.12897
#
# Velocity S-wave (km/s) = 4.05310 4.42284 4.24200
# Velocity P-wave (km/s) = 7.13916 7.55052 7.34772
#
# Compressibility (1/GPa) = 0.01814102
#
# Stress axis : x y z
#
# Youngs Moduli (GPa) = 74.03611 73.70406 136.04222
#
# Poissons Ratio (x) = 0.38306 -0.00098
# Poissons Ratio (y) = 0.38479 0.40160
# Poissons Ratio (z) = -0.00053 0.21758
#
# Static dielectric constant tensor:
#      x y z
#    x 1.721020 0.000000 0.003440 
#    y 0.000000 1.659830 0.000000 
#    z 0.003440 0.000000 1.695520 
# 
# From -- ./inp_files/87823.got.cif
#   From: 2010.05.17/outbox.ucp.g08.bks.cvg/sg12_44_cif.got.tgz:87823.got - 2010.06.11 11:47:21.
