data_PCOD9225393
_publ_section_title
;
Structure prediction by ZEFSAII (Michael W. Deem and Ramdas Pophale) SiO2 
 PCOD9225393
Probable space group: C 2/M
;
_chemical_formula_sum "Si O2"
_cell_formula_units_Z 28
_cell_length_a 30.000000
_cell_length_b 9.000000
_cell_length_c 21.000000
_cell_angle_alpha 90.000000
_cell_angle_beta 150.000000
_cell_angle_gamma 90.000000
_cell_volume 2835.000000
_symmetry_space_group_name_H-M "C 2/M"
_symmetry_group_IT_number 12
_symmetry_cell_setting 'monoclinic'
loop_
_space_group_symop_operation_xyz
x,y,z
-x,y,-z
-x,-y,-z
x,-y,z
1/2+x,1/2+y,z
1/2-x,1/2+y,-z
1/2-x,1/2-y,-z
1/2+x,1/2-y,z
loop_
_atom_site_type_symbol
_atom_site_label
_atom_site_fract_x
_atom_site_fract_y
_atom_site_fract_z
Si Si1 0.567470 0.322922 0.236308
Si Si2 0.401591 0.172708 0.349040
Si Si3 0.688490 0.677167 0.267324
Si Si4 0.737013 0.174774 0.201327
Si Si5 0.107788 0.325217 0.925934
Si Si6 0.637437 0.675208 0.461458
Si Si7 0.564502 0.322946 0.743472
O O1 0.547972 0.500000 0.209576
O O2 0.615925 0.278509 0.230995
O O3 0.478176 0.235123 0.142376
O O4 0.629159 0.300874 0.375141
O O5 0.500000 0.182902 0.500000
O O6 0.333185 0.251328 0.312260
O O7 0.404074 0.249204 0.282969
O O8 0.377015 0.000000 0.312114
O O9 0.684671 0.500000 0.256181
O O10 0.681193 0.751926 0.189313
O O11 0.784456 0.727736 0.412672
O O12 0.745313 0.000000 0.224027
O O13 0.689636 0.196606 0.074794
O O14 0.097183 0.500000 0.899822
O O15 0.114243 0.239498 0.867295
O O16 0.655687 0.500000 0.494794
O O17 0.540587 0.708439 0.372249
O O18 0.574979 0.500000 0.752667
#
# Coordination Sequence:
#
# PCOD9225393 Si02
#       7
#     8   8   8   8   8   8   8
#     4   9  20  37  57  83 115 152 191 233 287 343
#     4  11  24  41  63  91 118 147 187 231 277 334
#     4  11  22  35  55  84 116 152 193 237 286 338
#     4  11  25  42  59  82 114 152 192 235 285 338
#     4  10  22  40  61  85 112 147 195 241 279 330
#     4   9  18  34  56  84 117 151 188 230 281 342
#     4  10  21  38  62  88 117 153 187 229 287 341
#
# _framework density 9.8765429999999999
#
# number of rings (size 3 to 8) (size 9 to 14) (size 15 to 20)
#    0.000    1.857    0.000    4.286    0.000   10.857 
#    0.000    2.857    0.000    0.000    0.000    0.000 
#    0.000    0.000    0.000    0.000    0.000    0.000 
#
# Total GULP energy -156500.387549 kJ/mol
# GULP energy per Si atom -5589.299555 kJ/mol
# Density = 0.985406 g / cm^3
# Si number density = 9.876543 Si / 1000 Ang^3
#
#
#
# Elastic Constant Matrix: (Units=GPa)
#
#
# Indices 1 2 3 4 5 6 
#
# 1 95.1580 15.8384 -2.1248 0.0000 -20.4562 0.0000
# 2 15.8384 45.7578 23.7985 0.0000 -9.5015 0.0000
# 3 -2.1248 23.7985 25.1885 0.0000 -5.6580 0.0000
# 4 0.0000 0.0000 0.0000 25.4539 0.0000 -7.0284
# 5 -20.4562 -9.5015 -5.6580 0.0000 16.6139 0.0000
# 6 0.0000 0.0000 0.0000 -7.0284 0.0000 36.3614
#
#
#
# Elastic Compliance Matrix: (Units=1/GPa)
#
#
# Indices 1 2 3 4 5 6 
#
# 1 0.016744 -0.009205 0.014681 0.000000 0.020351 0.000000
# 2 -0.009205 0.050214 -0.047986 0.000000 0.001041 0.000000
# 3 0.014681 -0.047986 0.091145 0.000000 0.021674 0.000000
# 4 0.000000 0.000000 0.000000 0.041502 0.000000 0.008022
# 5 0.020351 0.001041 0.021674 0.000000 0.093225 0.000000
# 6 0.000000 0.000000 0.000000 0.008022 0.000000 0.029052
#
#
# Mechanical properties :
#
#
# Convention : Reuss Voigt Hill
#
# Bulk Modulus (GPa) = 13.68296 26.79206 20.23751
# Shear Modulus (GPa) = 11.59384 24.25866 17.92625
#
# Velocity S-wave (km/s) = 2.42531 3.50822 3.01577
# Velocity P-wave (km/s) = 3.84511 5.47751 4.73223
#
# Compressibility (1/GPa) = 0.07308360
#
# Stress axis : x y z
#
# Youngs Moduli (GPa) = 59.72356 19.91474 10.97147
#
# Poissons Ratio (x) = 0.18332 -0.16108
# Poissons Ratio (y) = 0.54978 0.52647
# Poissons Ratio (z) = -0.87682 0.95562
#
# Static dielectric constant tensor:
#      x y z
#    x 1.665630 0.000000 -0.008840 
#    y 0.000000 1.662560 0.000000 
#    z -0.008840 0.000000 1.704390 
# 
# From -- ./inp_files/329657.got.cif
#   From: 2010.05.17/outbox.ucp.g08.bks.cvg/sg12_165_cif.got.tgz:329657.got - 2010.06.11 11:47:21.
