data_PCOD9225196
_publ_section_title
;
Structure prediction by ZEFSAII (Michael W. Deem and Ramdas Pophale) SiO2 
 PCOD9225196
Probable space group: C 2/M
;
_chemical_formula_sum "Si O2"
_cell_formula_units_Z 32
_cell_length_a 18.000000
_cell_length_b 9.000000
_cell_length_c 30.000000
_cell_angle_alpha 90.000000
_cell_angle_beta 40.000000
_cell_angle_gamma 90.000000
_cell_volume 3123.947783
_symmetry_space_group_name_H-M "C 2/M"
_symmetry_group_IT_number 12
_symmetry_cell_setting 'monoclinic'
loop_
_space_group_symop_operation_xyz
x,y,z
-x,y,-z
-x,-y,-z
x,-y,z
1/2+x,1/2+y,z
1/2-x,1/2+y,-z
1/2-x,1/2-y,-z
1/2+x,1/2-y,z
loop_
_atom_site_type_symbol
_atom_site_label
_atom_site_fract_x
_atom_site_fract_y
_atom_site_fract_z
Si Si1 0.614465 0.326952 0.793387
Si Si2 0.247042 0.176240 0.864109
Si Si3 0.160885 0.837034 0.310060
Si Si4 0.634366 0.825268 0.690372
Si Si5 0.540136 0.830011 0.914832
Si Si6 0.880447 0.829900 0.566988
Si Si7 0.731763 0.171908 0.960914
Si Si8 0.951149 0.832160 0.723287
O O1 0.586458 0.500000 0.809061
O O2 0.749937 0.294497 0.739757
O O3 0.599572 0.260240 0.751183
O O4 0.549904 0.231449 0.860102
O O5 0.117154 0.221070 0.909524
O O6 0.280335 0.227503 0.898702
O O7 0.325442 0.281484 0.797288
O O8 0.264445 0.000000 0.850306
O O9 0.124808 0.836261 0.377358
O O10 0.052873 0.830390 0.327769
O O11 0.217409 0.000000 0.274932
O O12 0.754717 0.765789 0.614610
O O13 0.535228 0.792002 0.701922
O O14 0.648173 0.000000 0.693583
O O15 0.582575 0.000000 0.899877
O O16 0.404782 0.832242 0.986793
O O17 0.000000 0.753518 0.500000
O O18 0.883276 0.000000 0.547495
O O19 0.773978 0.000000 0.941388
O O20 0.750000 0.250000 0.000000
O O21 0.977425 0.000000 0.726869
#
# Coordination Sequence:
#
# PCOD9225196 Si02
#       8
#     8   8   8   8   8   8   8   8
#     4  11  21  34  57  86 114 149 193 241 290 346
#     4  12  25  41  63  89 117 153 198 245 298 357
#     4   9  18  34  57  84 116 153 192 239 288 341
#     4  10  21  36  56  83 119 155 194 243 294 345
#     4  11  23  41  63  86 116 153 195 240 294 354
#     4   8  15  32  59  87 114 153 201 241 285 346
#     4  11  26  45  64  86 118 156 197 247 300 356
#     4  11  22  37  58  84 119 156 195 244 296 351
#
# _framework density 10.243449
#
# number of rings (size 3 to 8) (size 9 to 14) (size 15 to 20)
#    0.000    1.625    1.250    4.875    1.750    4.000 
#    0.000    0.625    0.000    9.375    0.000    0.000 
#    0.000    0.000    0.000    0.000    0.000    0.000 
#
# Total GULP energy -178377.975527 kJ/mol
# GULP energy per Si atom -5574.311735 kJ/mol
# Density = 1.022013 g / cm^3
# Si number density = 10.243449 Si / 1000 Ang^3
#
#
#
# Elastic Constant Matrix: (Units=GPa)
#
#
# Indices 1 2 3 4 5 6 
#
# 1 62.6767 -3.9236 -2.5799 0.0001 -16.2362 0.0008
# 2 -3.9236 77.7233 -2.8739 0.0001 -3.4226 0.0016
# 3 -2.5799 -2.8739 35.4738 0.0000 -11.4849 0.0000
# 4 0.0001 0.0001 0.0000 4.2954 0.0000 7.0163
# 5 -16.2362 -3.4226 -11.4849 0.0000 -15.3844 0.0001
# 6 0.0008 0.0016 0.0000 7.0163 0.0001 23.6720
#
#
#
# Elastic Compliance Matrix: (Units=1/GPa)
#
#
# Indices 1 2 3 4 5 6 
#
# 1 0.012863 0.000040 -0.002786 0.000001 -0.011504 -0.000001
# 2 0.000040 0.012742 0.000084 0.000002 -0.002939 -0.000001
# 3 -0.002786 0.000084 0.023307 -0.000001 -0.014478 0.000000
# 4 0.000001 0.000002 -0.000001 0.451300 -0.000002 -0.133764
# 5 -0.011504 -0.002939 -0.014478 -0.000002 -0.041398 0.000001
# 6 -0.000001 -0.000001 0.000000 -0.133764 0.000001 0.081891
#
#
# Mechanical properties :
#
#
# Convention : Reuss Voigt Hill
#
# Bulk Modulus (GPa) = 22.94302 17.45767 20.20034
# Shear Modulus (GPa) = 8.91968 14.86668 11.89318
#
# Velocity S-wave (km/s) = 2.08885 2.69674 2.41202
# Velocity P-wave (km/s) = 4.12806 4.27042 4.19984
#
# Compressibility (1/GPa) = 0.04358625
#
# Stress axis : x y z
#
# Youngs Moduli (GPa) = 77.74461 78.48164 42.90608
#
# Poissons Ratio (x) = -0.00312 0.11953
# Poissons Ratio (y) = -0.00309 -0.00359
# Poissons Ratio (z) = 0.21658 -0.00656
#
# Static dielectric constant tensor:
#      x y z
#    x 1.825270 0.000000 -0.023770 
#    y 0.000000 1.702200 0.000000 
#    z -0.023770 0.000000 1.780640 
# 
# From -- ./inp_files/377985.got.cif
#   From: 2010.05.17/outbox.ucp.g08.bks.cvg/sg12_189_cif.got.tgz:377985.got - 2010.06.11 11:47:21.
