data_PCOD9225585
_publ_section_title
;
Structure prediction by ZEFSAII (Michael W. Deem and Ramdas Pophale) SiO2 
 PCOD9225585
Probable space group: C 2/M
;
_chemical_formula_sum "Si O2"
_cell_formula_units_Z 24
_cell_length_a 24.000000
_cell_length_b 9.000000
_cell_length_c 12.000000
_cell_angle_alpha 90.000000
_cell_angle_beta 100.000000
_cell_angle_gamma 90.000000
_cell_volume 2552.621696
_symmetry_space_group_name_H-M "C 2/M"
_symmetry_group_IT_number 12
_symmetry_cell_setting 'monoclinic'
loop_
_space_group_symop_operation_xyz
x,y,z
-x,y,-z
-x,-y,-z
x,-y,z
1/2+x,1/2+y,z
1/2-x,1/2+y,-z
1/2-x,1/2-y,-z
1/2+x,1/2-y,z
loop_
_atom_site_type_symbol
_atom_site_label
_atom_site_fract_x
_atom_site_fract_y
_atom_site_fract_z
Si Si1 0.502377 0.323102 0.671267
Si Si2 0.659651 0.176114 0.234019
Si Si3 0.118174 0.179067 0.445447
Si Si4 0.765877 0.180134 0.123439
Si Si5 0.462385 0.174470 0.878671
Si Si6 0.369518 0.318930 0.307361
O O1 0.506048 0.500000 0.655811
O O2 0.448508 0.273422 0.578474
O O3 0.483276 0.280659 0.788384
O O4 0.566009 0.264571 0.682092
O O5 0.646992 0.254956 0.346272
O O6 0.716707 0.222845 0.193368
O O7 0.604936 0.200267 0.135386
O O8 0.663209 0.000000 0.256298
O O9 0.147099 0.221537 0.571870
O O10 0.118435 0.000000 0.437617
O O11 0.825673 0.229277 0.197565
O O12 0.766129 0.000000 0.113751
O O13 0.750000 0.250000 0.000000
O O14 0.469343 0.000000 0.848931
O O15 0.500000 0.199790 0.000000
O O16 0.370144 0.500000 0.302738
#
# Coordination Sequence:
#
# PCOD9225585 Si02
#       6
#     8   8   8   8   8   8
#     4   9  17  30  50  77 103 128 162 205 250 297
#     4   9  19  35  51  71 102 134 166 209 254 292
#     4   9  17  32  55  79 102 130 166 205 250 303
#     4  10  22  38  54  73 101 136 171 209 250 295
#     4   9  18  31  48  69  97 135 170 203 247 295
#     4   9  18  33  53  77 104 134 165 205 255 297
#
# _framework density 9.4020980000000005
#
# number of rings (size 3 to 8) (size 9 to 14) (size 15 to 20)
#    0.000    2.833    0.000    0.500    2.333    3.667 
#    0.000    1.667    0.000    4.000    0.000    0.000 
#    0.000    0.000    0.000    0.000    0.000    0.000 
#
# Total GULP energy -133681.041287 kJ/mol
# GULP energy per Si atom -5570.043387 kJ/mol
# Density = 0.938070 g / cm^3
# Si number density = 9.402098 Si / 1000 Ang^3
#
#
#
# Elastic Constant Matrix: (Units=GPa)
#
#
# Indices 1 2 3 4 5 6 
#
# 1 94.1205 17.6818 58.8715 0.0000 0.8035 0.0000
# 2 17.6818 -4.2372 15.4340 0.0000 4.1420 0.0000
# 3 58.8715 15.4340 113.9344 0.0000 24.4409 0.0000
# 4 0.0000 0.0000 0.0000 21.1517 0.0000 -0.9405
# 5 0.8035 4.1420 24.4409 0.0000 21.3093 0.0000
# 6 0.0000 0.0000 0.0000 -0.9405 0.0000 16.0063
#
#
#
# Elastic Compliance Matrix: (Units=1/GPa)
#
#
# Indices 1 2 3 4 5 6 
#
# 1 0.013945 0.022586 -0.012217 0.000000 0.009096 0.000000
# 2 0.022586 -0.120381 -0.000265 0.000000 0.022852 0.000000
# 3 -0.012217 -0.000265 0.019916 0.000000 -0.022330 0.000000
# 4 0.000000 0.000000 0.000000 0.047401 0.000000 0.002785
# 5 0.009096 0.022852 -0.022330 0.000000 0.067755 0.000000
# 6 0.000000 0.000000 0.000000 0.002785 0.000000 0.062639
#
#
# Mechanical properties :
#
#
# Convention : Reuss Voigt Hill
#
# Bulk Modulus (GPa) = -15.08026 43.08804 14.00389
# Shear Modulus (GPa) = 102.11945 19.14883 60.63414
#
# Velocity S-wave (km/s) = 7.37731 3.19459 5.68463
# Velocity P-wave (km/s) = 8.03300 6.04739 7.10986
#
# Compressibility (1/GPa) = -0.06631187
#
# Stress axis : x y z
#
# Youngs Moduli (GPa) = 71.70919 -8.30695 50.21191
#
# Poissons Ratio (x) = 0.18762 0.61342
# Poissons Ratio (y) = -1.61964 0.01333
# Poissons Ratio (z) = 0.87604 -0.00221
#
# Static dielectric constant tensor:
#      x y z
#    x 1.681180 0.000000 0.006700 
#    y 0.000000 1.636240 0.000000 
#    z 0.006700 0.000000 1.647980 
# 
# From -- ./inp_files/172411.got.cif
#   From: 2010.05.17/outbox.ucp.g08.bks.cvg/sg12_87_cif.got.tgz:172411.got - 2010.06.11 11:47:21.
