data_PCOD9225804
_publ_section_title
;
Structure prediction by ZEFSAII (Michael W. Deem and Ramdas Pophale) SiO2 
 PCOD9225804
Probable space group: C 2/M
;
_chemical_formula_sum "Si O2"
_cell_formula_units_Z 28
_cell_length_a 27.000000
_cell_length_b 18.000000
_cell_length_c 9.000000
_cell_angle_alpha 90.000000
_cell_angle_beta 140.000000
_cell_angle_gamma 90.000000
_cell_volume 2811.553005
_symmetry_space_group_name_H-M "C 2/M"
_symmetry_group_IT_number 12
_symmetry_cell_setting 'monoclinic'
loop_
_space_group_symop_operation_xyz
x,y,z
-x,y,-z
-x,-y,-z
x,-y,z
1/2+x,1/2+y,z
1/2-x,1/2+y,-z
1/2-x,1/2-y,-z
1/2+x,1/2-y,z
loop_
_atom_site_type_symbol
_atom_site_label
_atom_site_fract_x
_atom_site_fract_y
_atom_site_fract_z
Si Si1 0.199663 0.305775 0.291813
Si Si2 0.586535 0.720130 0.819825
Si Si3 0.583071 0.172009 0.269324
Si Si4 0.112864 0.085879 0.673782
Si Si5 0.730886 0.084746 0.112744
Si Si6 0.921879 0.362990 0.397340
Si Si7 0.040250 0.172219 0.243739
O O1 0.250000 0.250000 0.500000
O O2 0.144770 0.348372 0.284273
O O3 0.240123 0.364679 0.278207
O O4 0.155821 0.252494 0.074515
O O5 0.588839 0.639701 0.751117
O O6 0.580635 0.777975 0.669879
O O7 0.520550 0.715847 0.791942
O O8 0.582787 0.135757 0.433743
O O9 0.596164 0.260626 0.324809
O O10 0.500000 0.162635 0.000000
O O11 0.203130 0.099851 0.855419
O O12 0.075350 0.110550 0.431221
O O13 0.097587 0.000000 0.669836
O O14 0.738476 0.000000 0.176327
O O15 0.649993 0.098252 0.846049
O O16 0.000000 0.393076 0.500000
O O17 0.000000 0.144558 0.000000
#
# Coordination Sequence:
#
# PCOD9225804 Si02
#       7
#     8   8   8   8   8   8   8
#     4  11  23  37  64  93 118 159 202 247 303 361
#     4  11  21  36  61  93 120 152 203 252 295 352
#     4  11  19  35  59  95 120 147 190 257 303 345
#     4  11  24  41  58  83 125 166 204 248 299 358
#     4  10  25  44  60  86 125 164 199 247 303 357
#     4  11  20  37  66  91 115 155 201 253 297 358
#     4  11  20  36  61  88 126 154 196 252 305 349
#
# _framework density 9.9589090000000002
#
# number of rings (size 3 to 8) (size 9 to 14) (size 15 to 20)
#    0.000    1.143    5.714    2.143    2.000    2.857 
#    0.000    1.429    0.000    1.714    0.000    0.000 
#    0.000    0.000    0.000    0.000    0.000    0.000 
#
# Total GULP energy -156100.685880 kJ/mol
# GULP energy per Si atom -5575.024496 kJ/mol
# Density = 0.993624 g / cm^3
# Si number density = 9.958909 Si / 1000 Ang^3
#
#
#
# Elastic Constant Matrix: (Units=GPa)
#
#
# Indices 1 2 3 4 5 6 
#
# 1 56.2851 37.0637 31.4190 0.0000 -18.3378 0.0000
# 2 37.0637 -6.5321 -15.2606 0.0000 1.6717 0.0000
# 3 31.4190 -15.2606 77.6612 0.0000 -19.6932 0.0000
# 4 0.0000 0.0000 0.0000 21.8855 0.0000 -11.9073
# 5 -18.3378 1.6717 -19.6932 0.0000 35.0278 0.0000
# 6 0.0000 0.0000 0.0000 -11.9073 0.0000 20.8423
#
#
#
# Elastic Compliance Matrix: (Units=1/GPa)
#
#
# Indices 1 2 3 4 5 6 
#
# 1 0.004421 0.019379 0.002766 0.000000 0.002945 0.000000
# 2 0.019379 -0.018245 -0.010067 0.000000 0.005356 0.000000
# 3 0.002766 -0.010067 0.011976 0.000000 0.008661 0.000000
# 4 0.000000 0.000000 0.000000 0.066301 0.000000 0.037878
# 5 0.002945 0.005356 0.008661 0.000000 0.034704 0.000000
# 6 0.000000 0.000000 0.000000 0.037878 0.000000 0.069619
#
#
# Mechanical properties :
#
#
# Convention : Reuss Voigt Hill
#
# Bulk Modulus (GPa) = 44.82765 25.98427 35.40596
# Shear Modulus (GPa) = 32.88252 20.49729 26.68990
#
# Velocity S-wave (km/s) = 4.06755 3.21143 3.66457
# Velocity P-wave (km/s) = 6.67945 5.17929 5.97663
#
# Compressibility (1/GPa) = 0.02230766
#
# Stress axis : x y z
#
# Youngs Moduli (GPa) = 226.17679 -54.81025 83.50314
#
# Poissons Ratio (x) = 1.06215 -0.23097
# Poissons Ratio (y) = -4.38299 0.84061
# Poissons Ratio (z) = -0.62561 -0.55177
#
# Static dielectric constant tensor:
#      x y z
#    x 1.622860 0.000000 0.038030 
#    y 0.000000 1.694290 0.000000 
#    z 0.038030 0.000000 1.835470 
# 
# From -- ./inp_files/105965.got.cif
#   From: 2010.05.17/outbox.ucp.g08.bks.cvg/sg12_53_cif.got.tgz:105965.got - 2010.06.11 11:47:21.
