data_PCOD9225915
_publ_section_title
;
Structure prediction by ZEFSAII (Michael W. Deem and Ramdas Pophale) SiO2 
 PCOD9225915
Probable space group: C 2/M
;
_chemical_formula_sum "Si O2"
_cell_formula_units_Z 24
_cell_length_a 21.000000
_cell_length_b 18.000000
_cell_length_c 18.000000
_cell_angle_alpha 90.000000
_cell_angle_beta 160.000000
_cell_angle_gamma 90.000000
_cell_volume 2327.105055
_symmetry_space_group_name_H-M "C 2/M"
_symmetry_group_IT_number 12
_symmetry_cell_setting 'monoclinic'
loop_
_space_group_symop_operation_xyz
x,y,z
-x,y,-z
-x,-y,-z
x,-y,z
1/2+x,1/2+y,z
1/2-x,1/2+y,-z
1/2-x,1/2-y,-z
1/2+x,1/2-y,z
loop_
_atom_site_type_symbol
_atom_site_label
_atom_site_fract_x
_atom_site_fract_y
_atom_site_fract_z
Si Si1 0.121779 0.915378 0.559496
Si Si2 0.300684 0.649113 0.127021
Si Si3 0.176206 0.911942 0.012632
Si Si4 0.966426 0.697625 0.377606
Si Si5 0.606255 0.166039 0.259022
Si Si6 0.696720 0.663147 0.363816
O O1 0.286049 0.868663 0.695618
O O2 0.000000 0.891553 0.500000
O O3 0.953977 0.911276 0.317348
O O4 0.187354 0.000000 0.644260
O O5 0.287331 0.634337 0.024412
O O6 0.386857 0.729660 0.245431
O O7 0.105355 0.639651 0.956727
O O8 0.970413 0.895810 0.819265
O O9 0.206311 0.000000 0.035664
O O10 0.322258 0.870272 0.225221
O O11 0.000000 0.721311 0.500000
O O12 0.142009 0.666560 0.522047
O O13 0.603661 0.255438 0.251969
O O14 0.715599 0.153414 0.457099
#
# Coordination Sequence:
#
# PCOD9225915 Si02
#       6
#     8   8   8   8   8   8
#     4  11  25  43  63 100 150 185 221 286 361 420
#     4  12  22  43  73 104 135 181 237 290 341 422
#     4  12  26  45  72 105 142 184 235 298 355 416
#     4  12  26  46  73 105 142 185 236 293 356 419
#     4  11  22  39  72  97 134 177 241 289 335 416
#     4  11  22  42  69 101 129 181 235 293 343 412
#
# _framework density 10.313243
#
# number of rings (size 3 to 8) (size 9 to 14) (size 15 to 20)
#    0.000    0.500    6.667    2.500    0.000    3.667 
#    0.000    2.500    0.000    0.000    0.000    0.000 
#    0.000    0.000    0.000    0.000    0.000    0.000 
#
# Total GULP energy -133854.436568 kJ/mol
# GULP energy per Si atom -5577.268190 kJ/mol
# Density = 1.028977 g / cm^3
# Si number density = 10.313243 Si / 1000 Ang^3
#
#
#
# Elastic Constant Matrix: (Units=GPa)
#
#
# Indices 1 2 3 4 5 6 
#
# 1 128.5988 41.9411 13.7188 0.0047 25.8115 0.0023
# 2 41.9411 127.6961 38.2195 0.0082 1.6146 0.0057
# 3 13.7188 38.2195 56.6198 0.0019 29.5052 0.0019
# 4 0.0047 0.0082 0.0019 22.6280 0.0037 2.6080
# 5 25.8115 1.6146 29.5052 0.0037 47.3941 0.0018
# 6 0.0023 0.0057 0.0019 2.6080 0.0018 30.0183
#
#
#
# Elastic Compliance Matrix: (Units=1/GPa)
#
#
# Indices 1 2 3 4 5 6 
#
# 1 0.010656 -0.005052 0.005569 0.000001 -0.009098 0.000000
# 2 -0.005052 0.013332 -0.013281 -0.000004 0.010565 -0.000002
# 3 0.005569 -0.013281 0.039405 0.000005 -0.027113 0.000001
# 4 0.000001 -0.000004 0.000005 0.044640 -0.000006 -0.003878
# 5 -0.009098 0.010565 -0.027113 -0.000006 0.042574 -0.000002
# 6 0.000000 -0.000002 0.000001 -0.003878 -0.000002 0.033650
#
#
# Mechanical properties :
#
#
# Convention : Reuss Voigt Hill
#
# Bulk Modulus (GPa) = 26.40808 55.63038 41.01923
# Shear Modulus (GPa) = 22.48155 34.61043 28.54599
#
# Velocity S-wave (km/s) = 3.30500 4.10074 3.72418
# Velocity P-wave (km/s) = 5.23401 7.03209 6.19859
#
# Compressibility (1/GPa) = 0.03786720
#
# Stress axis : x y z
#
# Youngs Moduli (GPa) = 93.84633 75.00988 25.37719
#
# Poissons Ratio (x) = 0.37893 -0.14134
# Poissons Ratio (y) = 0.47408 0.33702
# Poissons Ratio (z) = -0.52267 0.99617
#
# Static dielectric constant tensor:
#      x y z
#    x 1.778140 0.000000 -0.041190 
#    y 0.000000 1.730530 0.000000 
#    z -0.041190 0.000000 1.811270 
# 
# From -- ./inp_files/285415.got.cif
#   From: 2010.05.17/outbox.ucp.g08.bks.cvg/sg12_143_cif.got.tgz:285415.got - 2010.06.11 11:47:21.
