data_PCOD9225864
_publ_section_title
;
Structure prediction by ZEFSAII (Michael W. Deem and Ramdas Pophale) SiO2 
 PCOD9225864
Probable space group: C 2/M
;
_chemical_formula_sum "Si O2"
_cell_formula_units_Z 28
_cell_length_a 15.000000
_cell_length_b 9.000000
_cell_length_c 30.000000
_cell_angle_alpha 90.000000
_cell_angle_beta 130.000000
_cell_angle_gamma 90.000000
_cell_volume 3102.479995
_symmetry_space_group_name_H-M "C 2/M"
_symmetry_group_IT_number 12
_symmetry_cell_setting 'monoclinic'
loop_
_space_group_symop_operation_xyz
x,y,z
-x,y,-z
-x,-y,-z
x,-y,z
1/2+x,1/2+y,z
1/2-x,1/2+y,-z
1/2-x,1/2-y,-z
1/2+x,1/2-y,z
loop_
_atom_site_type_symbol
_atom_site_label
_atom_site_fract_x
_atom_site_fract_y
_atom_site_fract_z
Si Si1 0.972043 0.320362 0.773278
Si Si2 0.444601 0.178178 0.436623
Si Si3 0.651195 0.178890 0.437139
Si Si4 0.421669 0.682497 0.850400
Si Si5 0.181328 0.318248 0.936825
Si Si6 0.820110 0.820566 0.648941
Si Si7 0.729567 0.682456 0.857715
O O1 0.982794 0.500000 0.782650
O O2 0.908065 0.244210 0.795403
O O3 0.898498 0.273233 0.707253
O O4 0.099117 0.245151 0.806506
O O5 0.500000 0.240515 0.500000
O O6 0.530237 0.204317 0.423587
O O7 0.313722 0.225105 0.386367
O O8 0.437325 0.000000 0.440392
O O9 0.750000 0.250000 0.500000
O O10 0.651992 0.268409 0.391781
O O11 0.668039 0.000000 0.437132
O O12 0.421881 0.500000 0.851892
O O13 0.550533 0.751705 0.900433
O O14 0.325222 0.749849 0.853783
O O15 0.179421 0.500000 0.934759
O O16 0.241999 0.250501 0.911720
O O17 0.250000 0.250000 0.000000
O O18 0.833678 0.000000 0.658709
O O19 0.732653 0.500000 0.858583
#
# Coordination Sequence:
#
# PCOD9225864 Si02
#       7
#     8   8   8   8   8   8   8
#     4  11  23  41  61  87 120 155 199 251 303 360
#     4   9  18  35  57  79 107 146 183 221 280 351
#     4  11  21  36  57  82 110 144 185 231 286 352
#     4  11  22  40  64  91 122 162 204 250 306 358
#     4  11  22  39  61  92 129 167 208 254 302 356
#     4  11  22  39  60  83 113 150 192 240 295 356
#     4  11  22  40  64  91 121 161 206 252 303 358
#
# _framework density 9.0250380000000003
#
# number of rings (size 3 to 8) (size 9 to 14) (size 15 to 20)
#    0.000    1.286    1.429    7.714    0.000    1.714 
#    0.000   10.714    0.000    0.000    0.000    0.000 
#    0.000    0.000    0.000    0.000    0.000    0.000 
#
# Total GULP energy -156161.419604 kJ/mol
# GULP energy per Si atom -5577.193557 kJ/mol
# Density = 0.900450 g / cm^3
# Si number density = 9.025038 Si / 1000 Ang^3
#
#
#
# Elastic Constant Matrix: (Units=GPa)
#
#
# Indices 1 2 3 4 5 6 
#
# 1 97.4289 49.9250 32.1408 0.0000 -10.6238 0.0000
# 2 49.9250 169.3599 30.6599 0.0000 -7.4208 0.0000
# 3 32.1408 30.6599 113.0755 0.0000 -18.9893 0.0000
# 4 0.0000 0.0000 0.0000 29.6452 0.0000 -5.4177
# 5 -10.6238 -7.4208 -18.9893 0.0000 13.9983 0.0000
# 6 0.0000 0.0000 0.0000 -5.4177 0.0000 35.0390
#
#
#
# Elastic Compliance Matrix: (Units=1/GPa)
#
#
# Indices 1 2 3 4 5 6 
#
# 1 0.013202 -0.003298 -0.001903 0.000000 0.005690 0.000000
# 2 -0.003298 0.007052 -0.000993 0.000000 -0.000112 0.000000
# 3 -0.001903 -0.000993 0.012073 0.000000 0.014407 0.000000
# 4 0.000000 0.000000 0.000000 0.034713 0.000000 0.005367
# 5 0.005690 -0.000112 0.014407 0.000000 0.095240 0.000000
# 6 0.000000 0.000000 0.000000 0.005367 0.000000 0.029370
#
#
# Mechanical properties :
#
#
# Convention : Reuss Voigt Hill
#
# Bulk Modulus (GPa) = 50.15416 67.25732 58.70574
# Shear Modulus (GPa) = 23.73215 33.54574 28.63894
#
# Velocity S-wave (km/s) = 3.62994 4.31569 3.98758
# Velocity P-wave (km/s) = 6.73907 7.88517 7.33454
#
# Compressibility (1/GPa) = 0.01993853
#
# Stress axis : x y z
#
# Youngs Moduli (GPa) = 75.74605 141.80940 82.82692
#
# Poissons Ratio (x) = 0.46769 0.15760
# Poissons Ratio (y) = 0.24981 0.08229
# Poissons Ratio (z) = 0.14413 0.14089
#
# Static dielectric constant tensor:
#      x y z
#    x 1.610370 0.000000 -0.010200 
#    y 0.000000 1.604860 0.000000 
#    z -0.010200 0.000000 1.694400 
# 
# From -- ./inp_files/375143.got.cif
#   From: 2010.05.17/outbox.ucp.g08.bks.cvg/sg12_188_cif.got.tgz:375143.got - 2010.06.11 11:47:21.
