data_PCOD9225727
_publ_section_title
;
Structure prediction by ZEFSAII (Michael W. Deem and Ramdas Pophale) SiO2 
 PCOD9225727
Probable space group: C 2/M
;
_chemical_formula_sum "Si O2"
_cell_formula_units_Z 32
_cell_length_a 9.000000
_cell_length_b 18.000000
_cell_length_c 30.000000
_cell_angle_alpha 90.000000
_cell_angle_beta 40.000000
_cell_angle_gamma 90.000000
_cell_volume 3123.947783
_symmetry_space_group_name_H-M "C 2/M"
_symmetry_group_IT_number 12
_symmetry_cell_setting 'monoclinic'
loop_
_space_group_symop_operation_xyz
x,y,z
-x,y,-z
-x,-y,-z
x,-y,z
1/2+x,1/2+y,z
1/2-x,1/2+y,-z
1/2-x,1/2-y,-z
1/2+x,1/2-y,z
loop_
_atom_site_type_symbol
_atom_site_label
_atom_site_fract_x
_atom_site_fract_y
_atom_site_fract_z
Si Si1 0.821080 0.088178 0.703213
Si Si2 0.499785 0.334779 0.424361
Si Si3 0.852162 0.088956 0.287081
Si Si4 0.856710 0.166476 0.850906
Si Si5 0.921270 0.413333 0.914550
Si Si6 0.134226 0.336420 0.163508
Si Si7 0.875540 0.328349 0.416420
Si Si8 0.331896 0.326047 0.955641
O O1 0.949474 0.110461 0.628194
O O2 0.571361 0.128077 0.760988
O O3 0.969590 0.109791 0.713398
O O4 0.786965 0.000000 0.713446
O O5 0.715267 0.328167 0.409080
O O6 0.282755 0.356044 0.505771
O O7 0.447931 0.255017 0.413772
O O8 0.604453 0.123988 0.355482
O O9 0.940519 0.118542 0.218620
O O10 0.840990 0.000000 0.288472
O O11 0.641338 0.139753 0.870681
O O12 0.934171 0.251728 0.830981
O O13 0.743811 0.159322 0.926078
O O14 0.983025 0.500000 0.902492
O O15 0.834694 0.389479 0.886261
O O16 0.738981 0.390783 0.994269
O O17 0.396501 0.326016 0.118784
O O18 0.250000 0.250000 0.000000
#
# Coordination Sequence:
#
# PCOD9225727 Si02
#       8
#     8   8   8   8   8   8   8   8
#     4  11  25  44  66  99 144 188 235 291 359 425
#     4  10  22  42  71 104 139 182 237 294 350 419
#     4  11  25  44  66  99 144 188 235 291 359 425
#     4  12  24  43  71  97 136 179 228 286 348 424
#     4  12  26  46  70  98 135 174 222 289 357 415
#     4  12  24  43  71  97 136 179 228 286 348 424
#     4  10  22  42  71 104 139 182 237 294 350 419
#     4  12  26  44  68 106 133 174 234 290 353 425
#
# _framework density 10.243449
#
# number of rings (size 3 to 8) (size 9 to 14) (size 15 to 20)
#    0.000    0.750    3.750    3.000    1.750    5.500 
#    0.000    2.500    0.000    0.000    0.000    0.000 
#    0.000    0.000    0.000    0.000    0.000    0.000 
#
# Total GULP energy -178642.186063 kJ/mol
# GULP energy per Si atom -5582.568314 kJ/mol
# Density = 1.022013 g / cm^3
# Si number density = 10.243449 Si / 1000 Ang^3
#
#
#
# Elastic Constant Matrix: (Units=GPa)
#
#
# Indices 1 2 3 4 5 6 
#
# 1 52.0370 6.1706 37.2877 -0.0021 1.6107 0.0024
# 2 6.1706 60.2408 48.0303 0.0022 2.5309 0.0009
# 3 37.2877 48.0303 134.3113 0.0086 -7.0270 -0.0004
# 4 -0.0021 0.0022 0.0086 14.6989 0.0020 12.8020
# 5 1.6107 2.5309 -7.0270 0.0020 39.1105 -0.0034
# 6 0.0024 0.0009 -0.0004 12.8020 -0.0034 24.2896
#
#
#
# Elastic Compliance Matrix: (Units=1/GPa)
#
#
# Indices 1 2 3 4 5 6 
#
# 1 0.025009 0.004498 -0.008702 0.000021 -0.002885 -0.000014
# 2 0.004498 0.024389 -0.010158 0.000010 -0.003589 -0.000007
# 3 -0.008702 -0.010158 0.013676 -0.000018 0.003473 0.000012
# 4 0.000021 0.000010 -0.000018 0.125762 -0.000017 -0.066284
# 5 -0.002885 -0.003589 0.003473 -0.000017 0.026544 0.000013
# 6 -0.000014 -0.000007 0.000012 -0.066284 0.000013 0.076105
#
#
# Mechanical properties :
#
#
# Convention : Reuss Voigt Hill
#
# Bulk Modulus (GPa) = 29.11339 47.72958 38.42149
# Shear Modulus (GPa) = 15.07571 25.95982 20.51776
#
# Velocity S-wave (km/s) = 2.71564 3.56356 3.16809
# Velocity P-wave (km/s) = 4.90658 6.34666 5.67250
#
# Compressibility (1/GPa) = 0.03434846
#
# Stress axis : x y z
#
# Youngs Moduli (GPa) = 39.98593 41.00171 73.12260
#
# Poissons Ratio (x) = -0.18442 0.63634
# Poissons Ratio (y) = -0.17985 0.74279
# Poissons Ratio (z) = 0.34797 0.41650
#
# Static dielectric constant tensor:
#      x y z
#    x 1.833950 -0.000010 -0.047300 
#    y -0.000010 1.718130 0.000000 
#    z -0.047300 0.000000 1.746840 
# 
# From -- ./inp_files/372895.got.cif
#   From: 2010.05.17/outbox.ucp.g08.bks.cvg/sg12_187_cif.got.tgz:372895.got - 2010.06.11 11:47:21.
