data_PCOD9225198
_publ_section_title
;
Structure prediction by ZEFSAII (Michael W. Deem and Ramdas Pophale) SiO2 
 PCOD9225198
Probable space group: C 2/M
;
_chemical_formula_sum "Si O2"
_cell_formula_units_Z 32
_cell_length_a 30.000000
_cell_length_b 9.000000
_cell_length_c 18.000000
_cell_angle_alpha 90.000000
_cell_angle_beta 140.000000
_cell_angle_gamma 90.000000
_cell_volume 3123.947783
_symmetry_space_group_name_H-M "C 2/M"
_symmetry_group_IT_number 12
_symmetry_cell_setting 'monoclinic'
loop_
_space_group_symop_operation_xyz
x,y,z
-x,y,-z
-x,-y,-z
x,-y,z
1/2+x,1/2+y,z
1/2-x,1/2+y,-z
1/2-x,1/2-y,-z
1/2+x,1/2-y,z
loop_
_atom_site_type_symbol
_atom_site_label
_atom_site_fract_x
_atom_site_fract_y
_atom_site_fract_z
Si Si1 0.641281 0.668777 0.882028
Si Si2 0.331909 0.180858 0.767158
Si Si3 0.950967 0.832414 0.009550
Si Si4 0.536003 0.323662 0.466780
Si Si5 0.195666 0.822070 0.668651
Si Si6 0.074637 0.323323 0.246800
Si Si7 0.509509 0.823868 0.734863
Si Si8 0.784953 0.668955 0.154379
O O1 0.621924 0.500000 0.838798
O O2 0.580371 0.745578 0.850222
O O3 0.660546 0.756726 0.831969
O O4 0.711447 0.667442 0.018942
O O5 0.251993 0.222590 0.678522
O O6 0.364949 0.231859 0.730458
O O7 0.338389 0.000000 0.780686
O O8 0.380291 0.256805 0.891480
O O9 0.999838 0.722494 0.118360
O O10 0.940411 0.000000 0.027183
O O11 0.000000 0.850159 0.000000
O O12 0.500000 0.304398 0.500000
O O13 0.533215 0.500000 0.445611
O O14 0.615993 0.274068 0.563797
O O15 0.496045 0.228057 0.356035
O O16 0.222618 0.762279 0.781194
O O17 0.194938 0.000000 0.668826
O O18 0.082330 0.500000 0.256866
O O19 0.061155 0.272456 0.313645
O O20 0.515773 0.000000 0.750166
O O21 0.805263 0.500000 0.197041
#
# Coordination Sequence:
#
# PCOD9225198 Si02
#       8
#     8   8   8   8   8   8   8   8
#     4  10  21  37  56  81 115 151 183 224 283 346
#     4   9  18  34  54  77 111 153 193 231 275 334
#     4   9  17  29  48  76 109 145 186 231 276 322
#     4  10  22  41  62  83 109 143 186 238 294 351
#     4  10  21  36  58  84 110 148 193 234 284 342
#     4   9  19  35  53  77 112 152 192 231 276 333
#     4  11  23  37  58  85 111 146 192 238 285 335
#     4  10  21  36  56  84 116 148 182 228 284 340
#
# _framework density 10.243449
#
# number of rings (size 3 to 8) (size 9 to 14) (size 15 to 20)
#    0.000    2.250    0.000    2.250    1.750    6.250 
#    0.000    0.625    0.000    0.000    0.000    0.000 
#    0.000    0.000    0.000    0.000    0.000    0.000 
#
# Total GULP energy -178302.243542 kJ/mol
# GULP energy per Si atom -5571.945111 kJ/mol
# Density = 1.022013 g / cm^3
# Si number density = 10.243449 Si / 1000 Ang^3
#
#
#
# Elastic Constant Matrix: (Units=GPa)
#
#
# Indices 1 2 3 4 5 6 
#
# 1 135.8661 7.1224 37.3948 0.0000 36.4446 0.0000
# 2 7.1224 -48.5400 9.7856 0.0000 19.9516 0.0000
# 3 37.3948 9.7856 28.8635 0.0000 19.7542 0.0000
# 4 0.0000 0.0000 0.0000 2.2822 0.0000 -3.2432
# 5 36.4446 19.9516 19.7542 0.0000 26.2817 0.0000
# 6 0.0000 0.0000 0.0000 -3.2432 0.0000 13.2938
#
#
#
# Elastic Compliance Matrix: (Units=1/GPa)
#
#
# Indices 1 2 3 4 5 6 
#
# 1 0.012120 -0.003108 -0.009805 0.000000 -0.007079 0.000000
# 2 -0.003108 -0.014442 -0.003151 0.000000 0.017641 0.000000
# 3 -0.009805 -0.003151 0.077174 0.000000 -0.042018 0.000000
# 4 0.000000 0.000000 0.000000 0.670729 0.000000 0.163636
# 5 -0.007079 0.017641 -0.042018 0.000000 0.066055 0.000000
# 6 0.000000 0.000000 0.000000 0.163636 0.000000 0.115145
#
#
# Mechanical properties :
#
#
# Convention : Reuss Voigt Hill
#
# Bulk Modulus (GPa) = 23.40516 24.97724 24.19120
# Shear Modulus (GPa) = 5.13795 12.49732 8.81764
#
# Velocity S-wave (km/s) = 1.58536 2.47253 2.07687
# Velocity P-wave (km/s) = 3.84713 4.51326 4.19344
#
# Compressibility (1/GPa) = 0.04272562
#
# Stress axis : x y z
#
# Youngs Moduli (GPa) = 82.50528 -69.24393 12.95767
#
# Poissons Ratio (x) = -0.21519 0.12705
# Poissons Ratio (y) = 0.25640 0.04083
# Poissons Ratio (z) = 0.80895 -0.21821
#
# Static dielectric constant tensor:
#      x y z
#    x 1.816000 0.000000 -0.014850 
#    y 0.000000 1.718070 0.000000 
#    z -0.014850 0.000000 1.815170 
# 
# From -- ./inp_files/295743.got.cif
#   From: 2010.05.17/outbox.ucp.g08.bks.cvg/sg12_148_cif.got.tgz:295743.got - 2010.06.11 11:47:21.
