data_PCOD9225851
_publ_section_title
;
Structure prediction by ZEFSAII (Michael W. Deem and Ramdas Pophale) SiO2 
 PCOD9225851
Probable space group: C 2/M
;
_chemical_formula_sum "Si O2"
_cell_formula_units_Z 24
_cell_length_a 18.000000
_cell_length_b 9.000000
_cell_length_c 21.000000
_cell_angle_alpha 90.000000
_cell_angle_beta 50.000000
_cell_angle_gamma 90.000000
_cell_volume 2606.083195
_symmetry_space_group_name_H-M "C 2/M"
_symmetry_group_IT_number 12
_symmetry_cell_setting 'monoclinic'
loop_
_space_group_symop_operation_xyz
x,y,z
-x,y,-z
-x,-y,-z
x,-y,z
1/2+x,1/2+y,z
1/2-x,1/2+y,-z
1/2-x,1/2-y,-z
1/2+x,1/2-y,z
loop_
_atom_site_type_symbol
_atom_site_label
_atom_site_fract_x
_atom_site_fract_y
_atom_site_fract_z
Si Si1 0.459135 0.833123 0.224777
Si Si2 0.771855 0.170266 0.641848
Si Si3 0.550273 0.672949 0.284148
Si Si4 0.559477 0.679209 0.530718
Si Si5 0.565165 0.824327 0.905518
Si Si6 0.230770 0.326101 0.226313
O O1 0.343224 0.831587 0.298144
O O2 0.497533 0.705022 0.247889
O O3 0.481883 0.808007 0.138195
O O4 0.492860 0.000000 0.224172
O O5 0.829659 0.218229 0.547237
O O6 0.797539 0.270538 0.687554
O O7 0.802664 0.000000 0.639792
O O8 0.568310 0.500000 0.284605
O O9 0.486176 0.734391 0.378582
O O10 0.650527 0.758170 0.225541
O O11 0.500000 0.722503 0.500000
O O12 0.555065 0.500000 0.537776
O O13 0.665307 0.738796 0.847507
O O14 0.585858 0.000000 0.901438
O O15 0.500000 0.775344 0.000000
O O16 0.232265 0.500000 0.223375
#
# Coordination Sequence:
#
# PCOD9225851 Si02
#       6
#     8   8   8   8   8   8
#     4   9  19  34  53  79 111 137 167 218 272 317
#     4   9  17  34  55  74 102 145 187 222 264 312
#     4  11  21  34  53  76 107 147 185 219 263 316
#     4   9  16  29  52  76 100 138 191 231 255 300
#     4   9  19  39  65  85 103 135 175 211 258 325
#     4  11  21  33  53  81 111 139 174 220 268 313
#
# _framework density 9.2092220000000005
#
# number of rings (size 3 to 8) (size 9 to 14) (size 15 to 20)
#    0.000    2.333    1.667    3.000    0.000    3.667 
#    0.000    3.333    0.000    0.000    0.000    0.000 
#    0.000    0.000    0.000    0.000    0.000    0.000 
#
# Total GULP energy -133648.700612 kJ/mol
# GULP energy per Si atom -5568.695859 kJ/mol
# Density = 0.918826 g / cm^3
# Si number density = 9.209222 Si / 1000 Ang^3
#
#
#
# Elastic Constant Matrix: (Units=GPa)
#
#
# Indices 1 2 3 4 5 6 
#
# 1 31.2806 27.7002 24.9361 0.0000 0.2209 0.0000
# 2 27.7002 -12.2965 70.4062 0.0000 0.5917 0.0000
# 3 24.9361 70.4062 89.0681 0.0000 0.4537 0.0000
# 4 0.0000 0.0000 0.0000 94.3566 0.0000 -48.8112
# 5 0.2209 0.5917 0.4537 0.0000 2.6026 0.0000
# 6 0.0000 0.0000 0.0000 -48.8112 0.0000 57.4217
#
#
#
# Elastic Compliance Matrix: (Units=1/GPa)
#
#
# Indices 1 2 3 4 5 6 
#
# 1 0.039631 0.004653 -0.014764 0.000000 -0.001847 0.000000
# 2 0.004653 -0.014166 0.009889 0.000000 0.001102 0.000000
# 3 -0.014764 0.009889 0.007555 0.000000 -0.002313 0.000000
# 4 0.000000 0.000000 0.000000 0.018916 0.000000 0.016080
# 5 -0.001847 0.001102 -0.002313 0.000000 0.384537 0.000000
# 6 0.000000 0.000000 0.000000 0.016080 0.000000 0.031083
#
#
# Mechanical properties :
#
#
# Convention : Reuss Voigt Hill
#
# Bulk Modulus (GPa) = 30.69639 39.34859 35.02249
# Shear Modulus (GPa) = 10.44147 29.87683 20.15915
#
# Velocity S-wave (km/s) = 2.38356 4.03192 3.31193
# Velocity P-wave (km/s) = 4.92721 6.56393 5.80356
#
# Compressibility (1/GPa) = 0.03257712
#
# Stress axis : x y z
#
# Youngs Moduli (GPa) = 25.23285 -70.59310 132.35802
#
# Poissons Ratio (x) = 0.32847 1.95413
# Poissons Ratio (y) = -0.11741 -1.30894
# Poissons Ratio (z) = 0.37254 0.69812
#
# Static dielectric constant tensor:
#      x y z
#    x 1.691440 0.000000 -0.002920 
#    y 0.000000 1.633970 0.000000 
#    z -0.002920 0.000000 1.643520 
# 
# From -- ./inp_files/274060.got.cif
#   From: 2010.05.17/outbox.ucp.g08.bks.cvg/sg12_138_cif.got.tgz:274060.got - 2010.06.11 11:47:21.
