data_PCOD9225419
_publ_section_title
;
Structure prediction by ZEFSAII (Michael W. Deem and Ramdas Pophale) SiO2 
 PCOD9225419
Probable space group: C 2/M
;
_chemical_formula_sum "Si O2"
_cell_formula_units_Z 32
_cell_length_a 21.000000
_cell_length_b 18.000000
_cell_length_c 24.000000
_cell_angle_alpha 90.000000
_cell_angle_beta 160.000000
_cell_angle_gamma 90.000000
_cell_volume 3102.806740
_symmetry_space_group_name_H-M "C 2/M"
_symmetry_group_IT_number 12
_symmetry_cell_setting 'monoclinic'
loop_
_space_group_symop_operation_xyz
x,y,z
-x,y,-z
-x,-y,-z
x,-y,z
1/2+x,1/2+y,z
1/2-x,1/2+y,-z
1/2-x,1/2-y,-z
1/2+x,1/2-y,z
loop_
_atom_site_type_symbol
_atom_site_label
_atom_site_fract_x
_atom_site_fract_y
_atom_site_fract_z
Si Si1 0.212134 0.085764 0.153552
Si Si2 0.030021 0.690574 0.688806
Si Si3 0.795818 0.410732 0.919697
Si Si4 0.689260 0.170521 0.252010
Si Si5 0.486206 0.337806 0.398457
Si Si6 0.296972 0.831932 0.334167
Si Si7 0.389087 0.698157 0.148352
Si Si8 0.783404 0.910095 0.619190
O O1 0.276734 0.143790 0.159034
O O2 0.302558 0.120414 0.282727
O O3 0.263177 0.000000 0.183191
O O4 0.000000 0.086616 0.000000
O O5 0.015948 0.755251 0.630379
O O6 0.015650 0.740965 0.732029
O O7 0.874856 0.627283 0.550439
O O8 0.809588 0.500000 0.936070
O O9 0.620497 0.390696 0.734317
O O10 0.736479 0.363097 0.924207
O O11 0.003304 0.374897 0.081550
O O12 0.839851 0.156355 0.328033
O O13 0.659379 0.260785 0.226300
O O14 0.804164 0.149964 0.403841
O O15 0.500000 0.795285 0.500000
O O16 0.271244 0.890408 0.362471
O O17 0.540956 0.644492 0.245510
O O18 0.250000 0.750000 0.000000
O O19 0.806444 0.000000 0.630232
#
# Coordination Sequence:
#
# PCOD9225419 Si02
#       8
#     8   8   8   8   8   8   8   8
#     4  11  24  37  59 103 146 175 209 268 344 408
#     4  11  22  42  68  93 130 175 226 271 326 402
#     4  11  26  44  65  95 132 172 224 285 344 391
#     4  11  19  38  67  98 133 178 220 270 323 408
#     4  10  21  38  65  98 132 174 220 268 327 406
#     4  12  21  39  67  99 137 172 219 262 331 409
#     4  11  27  47  71  92 121 176 231 281 330 407
#     4  12  24  42  68  98 136 173 219 278 336 397
#
# _framework density 10.313243
#
# number of rings (size 3 to 8) (size 9 to 14) (size 15 to 20)
#    0.000    0.875    5.000    2.625    5.250    2.000 
#    0.000    3.125    0.000    0.000    0.000    0.000 
#    0.000    0.000    0.000    0.000    0.000    0.000 
#
# Total GULP energy -178201.249133 kJ/mol
# GULP energy per Si atom -5568.789035 kJ/mol
# Density = 1.028977 g / cm^3
# Si number density = 10.313243 Si / 1000 Ang^3
#
#
#
# Elastic Constant Matrix: (Units=GPa)
#
#
# Indices 1 2 3 4 5 6 
#
# 1 48.2765 30.8305 12.7711 -0.0001 0.0378 -0.0017
# 2 30.8305 175.9247 31.6302 0.0192 -0.6775 0.0114
# 3 12.7711 31.6302 51.5227 0.0449 4.2243 0.0171
# 4 -0.0001 0.0192 0.0449 47.2866 0.0129 12.8673
# 5 0.0378 -0.6775 4.2243 0.0129 23.7174 0.0015
# 6 -0.0017 0.0114 0.0171 12.8673 0.0015 29.1112
#
#
#
# Elastic Compliance Matrix: (Units=1/GPa)
#
#
# Indices 1 2 3 4 5 6 
#
# 1 0.023968 -0.003509 -0.003831 0.000004 0.000544 0.000003
# 2 -0.003509 0.006922 -0.003447 0.000001 0.000817 -0.000001
# 3 -0.003831 -0.003447 0.022815 -0.000018 -0.004156 -0.000004
# 4 0.000004 0.000001 -0.000018 0.024039 -0.000009 -0.010625
# 5 0.000544 0.000817 -0.004156 -0.000009 0.042926 0.000004
# 6 0.000003 -0.000001 -0.000004 -0.010625 0.000004 0.039048
#
#
# Mechanical properties :
#
#
# Convention : Reuss Voigt Hill
#
# Bulk Modulus (GPa) = 31.12255 47.35415 39.23835
# Shear Modulus (GPa) = 26.04125 33.38917 29.71521
#
# Velocity S-wave (km/s) = 3.55704 4.02774 3.79969
# Velocity P-wave (km/s) = 5.65610 6.68117 6.18989
#
# Compressibility (1/GPa) = 0.03213104
#
# Stress axis : x y z
#
# Youngs Moduli (GPa) = 41.72174 144.46458 43.83035
#
# Poissons Ratio (x) = 0.50700 0.16792
# Poissons Ratio (y) = 0.14642 0.15107
# Poissons Ratio (z) = 0.15984 0.49792
#
# Static dielectric constant tensor:
#      x y z
#    x 1.864510 0.000030 0.015770 
#    y 0.000030 1.690170 -0.000010 
#    z 0.015770 -0.000010 1.964520 
# 
# From -- ./inp_files/347888.got.cif
#   From: 2010.05.17/outbox.ucp.g08.bks.cvg/sg12_174_cif.got.tgz:347888.got - 2010.06.11 11:47:21.
