data_PCOD9225669
_publ_section_title
;
Structure prediction by ZEFSAII (Michael W. Deem and Ramdas Pophale) SiO2 
 PCOD9225669
Probable space group: C 2/M
;
_chemical_formula_sum "Si O2"
_cell_formula_units_Z 32
_cell_length_a 9.000000
_cell_length_b 18.000000
_cell_length_c 30.000000
_cell_angle_alpha 90.000000
_cell_angle_beta 40.000000
_cell_angle_gamma 90.000000
_cell_volume 3123.947783
_symmetry_space_group_name_H-M "C 2/M"
_symmetry_group_IT_number 12
_symmetry_cell_setting 'monoclinic'
loop_
_space_group_symop_operation_xyz
x,y,z
-x,y,-z
-x,-y,-z
x,-y,z
1/2+x,1/2+y,z
1/2-x,1/2+y,-z
1/2-x,1/2-y,-z
1/2+x,1/2-y,z
loop_
_atom_site_type_symbol
_atom_site_label
_atom_site_fract_x
_atom_site_fract_y
_atom_site_fract_z
Si Si1 0.349014 0.294613 0.749813
Si Si2 0.014133 0.241534 0.449111
Si Si3 0.795228 0.636423 0.021906
Si Si4 0.339911 0.918681 0.269588
Si Si5 0.678176 0.180122 0.321202
Si Si6 0.776155 0.584866 0.389676
Si Si7 0.634069 0.794827 0.089903
Si Si8 0.311398 0.582023 0.113393
O O1 0.303322 0.358350 0.724004
O O2 0.393249 0.224160 0.707392
O O3 0.545913 0.320173 0.738897
O O4 0.116383 0.284312 0.831086
O O5 0.750000 0.250000 0.500000
O O6 0.000000 0.282521 0.500000
O O7 0.128466 0.277494 0.379288
O O8 0.114653 0.158133 0.433447
O O9 0.740886 0.714074 0.059212
O O10 0.565069 0.588885 0.073999
O O11 0.871974 0.662104 0.955295
O O12 0.000000 0.596774 0.000000
O O13 0.304920 0.916372 0.329887
O O14 0.609765 0.908793 0.196027
O O15 0.271956 0.000000 0.268380
O O16 0.521116 0.106824 0.355899
O O17 0.706390 0.500000 0.418713
O O18 0.780950 0.848569 0.087791
O O19 0.278644 0.500000 0.099974
#
# Coordination Sequence:
#
# PCOD9225669 Si02
#       8
#     8   8   8   8   8   8   8   8
#     4  11  22  36  66  91 124 162 220 260 313 375
#     4  12  23  42  67  95 131 170 211 253 301 372
#     4  11  23  36  55  87 126 154 206 265 325 363
#     4   9  20  40  63  91 126 165 207 260 322 375
#     4  12  23  40  64  99 124 167 214 258 309 371
#     4  11  24  43  67  98 135 170 209 261 317 368
#     4  10  23  38  58  88 118 165 204 261 313 380
#     4  10  22  41  63  85 119 166 207 250 317 390
#
# _framework density 10.243449
#
# number of rings (size 3 to 8) (size 9 to 14) (size 15 to 20)
#    0.000    1.250    3.750    1.875    7.000    2.000 
#    0.000    0.000    0.000    0.750    0.000    0.000 
#    0.000    0.000    0.000    0.000    0.000    0.000 
#
# Total GULP energy -178320.774876 kJ/mol
# GULP energy per Si atom -5572.524215 kJ/mol
# Density = 1.022013 g / cm^3
# Si number density = 10.243449 Si / 1000 Ang^3
#
#
#
# Elastic Constant Matrix: (Units=GPa)
#
#
# Indices 1 2 3 4 5 6 
#
# 1 62.5847 -9.5401 2.5076 -0.0093 -43.1425 0.0025
# 2 -9.5401 62.1176 12.2881 -0.0067 -2.0500 -0.0008
# 3 2.5076 12.2881 16.7943 -0.0085 -24.2975 0.0105
# 4 -0.0093 -0.0067 -0.0085 76.1763 -0.0133 4.3676
# 5 -43.1425 -2.0500 -24.2975 -0.0133 -2.0699 -0.0012
# 6 0.0025 -0.0008 0.0105 4.3676 -0.0012 33.9412
#
#
#
# Elastic Compliance Matrix: (Units=1/GPa)
#
#
# Indices 1 2 3 4 5 6 
#
# 1 0.010992 0.005162 -0.019145 -0.000002 -0.009488 0.000005
# 2 0.005162 0.019155 -0.011005 0.000001 0.002613 0.000003
# 3 -0.019145 -0.011005 0.036898 -0.000003 -0.023194 -0.000011
# 4 -0.000002 0.000001 -0.000003 0.013225 -0.000007 -0.001702
# 5 -0.009488 0.002613 -0.023194 -0.000007 -0.015689 0.000008
# 6 0.000005 0.000003 -0.000011 -0.001702 0.000008 0.029682
#
#
# Mechanical properties :
#
#
# Convention : Reuss Voigt Hill
#
# Bulk Modulus (GPa) = 58.58341 16.88976 37.73658
# Shear Modulus (GPa) = 33.34962 30.69224 32.02093
#
# Velocity S-wave (km/s) = 4.03904 3.87478 3.95776
# Velocity P-wave (km/s) = 7.09996 5.31795 6.27256
#
# Compressibility (1/GPa) = 0.01706968
#
# Stress axis : x y z
#
# Youngs Moduli (GPa) = 90.97448 52.20690 27.10184
#
# Poissons Ratio (x) = -0.26951 0.51886
# Poissons Ratio (y) = -0.46964 0.29825
# Poissons Ratio (z) = 1.74169 0.57453
#
# Static dielectric constant tensor:
#      x y z
#    x 1.743210 -0.000070 0.005920 
#    y -0.000070 1.677340 0.000100 
#    z 0.005920 0.000100 1.532050 
# 
# From -- ./inp_files/372950.got.cif
#   From: 2010.05.17/outbox.ucp.g08.bks.cvg/sg12_187_cif.got.tgz:372950.got - 2010.06.11 11:47:21.
