data_PCOD9225587
_publ_section_title
;
Structure prediction by ZEFSAII (Michael W. Deem and Ramdas Pophale) SiO2 
 PCOD9225587
Probable space group: C 2/M
;
_chemical_formula_sum "Si O2"
_cell_formula_units_Z 32
_cell_length_a 30.000000
_cell_length_b 9.000000
_cell_length_c 15.000000
_cell_angle_alpha 90.000000
_cell_angle_beta 130.000000
_cell_angle_gamma 90.000000
_cell_volume 3102.479995
_symmetry_space_group_name_H-M "C 2/M"
_symmetry_group_IT_number 12
_symmetry_cell_setting 'monoclinic'
loop_
_space_group_symop_operation_xyz
x,y,z
-x,y,-z
-x,-y,-z
x,-y,z
1/2+x,1/2+y,z
1/2-x,1/2+y,-z
1/2-x,1/2-y,-z
1/2+x,1/2-y,z
loop_
_atom_site_type_symbol
_atom_site_label
_atom_site_fract_x
_atom_site_fract_y
_atom_site_fract_z
Si Si1 0.787391 0.177312 0.333993
Si Si2 0.362213 0.329203 0.056951
Si Si3 0.660886 0.677447 0.785817
Si Si4 0.168011 0.169452 0.181209
Si Si5 0.083665 0.674103 0.193364
Si Si6 0.036342 0.326097 0.635821
Si Si7 0.307266 0.173030 0.532579
Si Si8 0.514416 0.822554 0.799521
O O1 0.806515 0.233792 0.260552
O O2 0.721722 0.225293 0.273535
O O3 0.823564 0.251310 0.459882
O O4 0.792174 0.000000 0.343439
O O5 0.380992 0.500000 0.099340
O O6 0.324493 0.276792 0.093346
O O7 0.419371 0.231914 0.113246
O O8 0.329876 0.331057 0.922574
O O9 0.667323 0.500000 0.789338
O O10 0.593532 0.726896 0.697751
O O11 0.107217 0.233500 0.139817
O O12 0.175429 0.000000 0.222976
O O13 0.074891 0.500000 0.157481
O O14 0.137978 0.682922 0.331289
O O15 0.027806 0.733067 0.176285
O O16 0.054079 0.500000 0.669735
O O17 0.999434 0.285382 0.676944
O O18 0.000000 0.313786 0.500000
O O19 0.250000 0.250000 0.500000
O O20 0.294381 0.000000 0.501641
O O21 0.511482 0.000000 0.804296
#
# Coordination Sequence:
#
# PCOD9225587 Si02
#       8
#     8   8   8   8   8   8   8   8
#     4  11  23  38  57  84 115 149 188 231 280 336
#     4   9  20  40  60  81 111 146 185 236 286 330
#     4   9  20  38  57  79 112 148 184 228 279 334
#     4  11  23  38  59  83 109 145 191 237 284 336
#     4  10  22  38  57  82 115 149 185 228 277 335
#     4   9  18  32  54  81 110 143 183 230 274 324
#     4  11  22  37  59  83 114 153 187 230 280 330
#     4   9  19  36  56  82 111 146 186 225 278 334
#
# _framework density 10.314329000000001
#
# number of rings (size 3 to 8) (size 9 to 14) (size 15 to 20)
#    0.000    2.125    1.250    1.125    1.750    4.250 
#    0.000    2.500    0.000    0.000    0.000    0.000 
#    0.000    0.000    0.000    0.000    0.000    0.000 
#
# Total GULP energy -178345.705341 kJ/mol
# GULP energy per Si atom -5573.303292 kJ/mol
# Density = 1.029085 g / cm^3
# Si number density = 10.314329 Si / 1000 Ang^3
#
#
#
# Elastic Constant Matrix: (Units=GPa)
#
#
# Indices 1 2 3 4 5 6 
#
# 1 129.1781 21.2050 16.2124 0.0000 -27.2659 0.0000
# 2 21.2050 33.9251 12.2634 0.0000 -14.2513 0.0000
# 3 16.2124 12.2634 44.0625 0.0000 -22.5910 0.0000
# 4 0.0000 0.0000 0.0000 19.8208 0.0000 -2.9105
# 5 -27.2659 -14.2513 -22.5910 0.0000 30.7204 0.0000
# 6 0.0000 0.0000 0.0000 -2.9105 0.0000 28.8616
#
#
#
# Elastic Compliance Matrix: (Units=1/GPa)
#
#
# Indices 1 2 3 4 5 6 
#
# 1 0.009843 -0.003187 0.001583 0.000000 0.008423 0.000000
# 2 -0.003187 0.037799 -0.002901 0.000000 0.012573 0.000000
# 3 0.001583 -0.002901 0.036840 0.000000 0.027151 0.000000
# 4 0.000000 0.000000 0.000000 0.051210 0.000000 0.005164
# 5 0.008423 0.012573 0.027151 0.000000 0.065826 0.000000
# 6 0.000000 0.000000 0.000000 0.005164 0.000000 0.035169
#
#
# Mechanical properties :
#
#
# Convention : Reuss Voigt Hill
#
# Bulk Modulus (GPa) = 13.24975 34.05860 23.65417
# Shear Modulus (GPa) = 18.46002 26.37954 22.41978
#
# Velocity S-wave (km/s) = 2.99469 3.57988 3.30028
# Velocity P-wave (km/s) = 4.28888 5.79945 5.10040
#
# Compressibility (1/GPa) = 0.07547314
#
# Stress axis : x y z
#
# Youngs Moduli (GPa) = 101.59062 26.45565 27.14413
#
# Poissons Ratio (x) = 0.08431 -0.04298
# Poissons Ratio (y) = 0.32376 0.07876
# Poissons Ratio (z) = -0.16087 0.07676
#
# Static dielectric constant tensor:
#      x y z
#    x 1.724130 0.000000 -0.051550 
#    y 0.000000 1.724660 0.000000 
#    z -0.051550 0.000000 1.825550 
# 
# From -- ./inp_files/249900.got.cif
#   From: 2010.05.17/outbox.ucp.g08.bks.cvg/sg12_125_cif.got.tgz:249900.got - 2010.06.11 11:47:21.
