data_PCOD9225911
_publ_section_title
;
Structure prediction by ZEFSAII (Michael W. Deem and Ramdas Pophale) SiO2 
 PCOD9225911
Probable space group: C 2/M
;
_chemical_formula_sum "Si O2"
_cell_formula_units_Z 32
_cell_length_a 30.000000
_cell_length_b 21.000000
_cell_length_c 15.000000
_cell_angle_alpha 90.000000
_cell_angle_beta 160.000000
_cell_angle_gamma 90.000000
_cell_volume 3232.090354
_symmetry_space_group_name_H-M "C 2/M"
_symmetry_group_IT_number 12
_symmetry_cell_setting 'monoclinic'
loop_
_space_group_symop_operation_xyz
x,y,z
-x,y,-z
-x,-y,-z
x,-y,z
1/2+x,1/2+y,z
1/2-x,1/2+y,-z
1/2-x,1/2-y,-z
1/2+x,1/2-y,z
loop_
_atom_site_type_symbol
_atom_site_label
_atom_site_fract_x
_atom_site_fract_y
_atom_site_fract_z
Si Si1 0.712416 0.126050 0.088334
Si Si2 0.861911 0.715321 0.627823
Si Si3 0.841721 0.128498 0.989385
Si Si4 0.449684 0.923576 0.506520
Si Si5 0.855129 0.739996 0.915169
Si Si6 0.104909 0.072410 0.414747
Si Si7 0.639471 0.651732 0.300423
Si Si8 0.143010 0.806094 0.793741
O O1 0.682937 0.194767 0.075473
O O2 0.796162 0.087725 0.318412
O O3 0.802619 0.141717 0.173277
O O4 0.574460 0.094951 0.801704
O O5 0.769870 0.750732 0.382822
O O6 0.778852 0.653844 0.507789
O O7 0.877080 0.771824 0.727395
O O8 0.010465 0.709673 0.870974
O O9 0.688898 0.105747 0.715864
O O10 0.868638 0.187667 0.973588
O O11 0.874345 0.157535 0.146485
O O12 0.955659 0.081010 0.170193
O O13 0.500000 0.904382 0.500000
O O14 0.431557 0.000000 0.470724
O O15 0.143294 0.118110 0.403846
O O16 0.121075 0.000000 0.415216
O O17 0.500000 0.627320 0.000000
O O18 0.000000 0.780021 0.500000
O O19 0.250000 0.750000 0.000000
#
# Coordination Sequence:
#
# PCOD9225911 Si02
#       8
#     8   8   8   8   8   8   8   8
#     4  12  24  43  64  99 137 177 228 283 332 398
#     4  11  22  39  63 101 132 160 208 270 342 416
#     4  12  23  43  64  99 138 175 233 279 335 396
#     4  11  25  42  63  90 128 189 242 279 323 381
#     4  12  22  39  68 101 132 166 213 276 344 397
#     4  12  26  46  70  96 135 181 225 278 326 405
#     4  11  22  41  67  97 130 164 212 269 341 412
#     4  12  26  39  63  99 146 182 224 282 352 399
#
# _framework density 9.9007129999999997
#
# number of rings (size 3 to 8) (size 9 to 14) (size 15 to 20)
#    0.000    0.375    7.500    1.500    1.750    0.250 
#    0.000    0.625    0.000    2.250    0.000    0.000 
#    0.000    0.000    0.000    0.000    0.000    0.000 
#
# Total GULP energy -178308.606151 kJ/mol
# GULP energy per Si atom -5572.143942 kJ/mol
# Density = 0.987818 g / cm^3
# Si number density = 9.900713 Si / 1000 Ang^3
#
#
#
# Elastic Constant Matrix: (Units=GPa)
#
#
# Indices 1 2 3 4 5 6 
#
# 1 25.1033 9.0648 22.9752 0.0000 -0.2255 0.0000
# 2 9.0648 70.2854 17.1053 0.0000 2.1820 0.0000
# 3 22.9752 17.1053 147.7353 0.0000 10.6289 0.0000
# 4 0.0000 0.0000 0.0000 25.1424 0.0000 8.7218
# 5 -0.2255 2.1820 10.6289 0.0000 37.2701 0.0000
# 6 0.0000 0.0000 0.0000 8.7218 0.0000 21.5862
#
#
#
# Elastic Compliance Matrix: (Units=1/GPa)
#
#
# Indices 1 2 3 4 5 6 
#
# 1 0.048022 -0.004539 -0.007129 0.000000 0.002589 0.000000
# 2 -0.004539 0.015075 -0.000994 0.000000 -0.000626 0.000000
# 3 -0.007129 -0.000994 0.008159 0.000000 -0.002312 0.000000
# 4 0.000000 0.000000 0.000000 0.046257 0.000000 -0.018690
# 5 0.002589 -0.000626 -0.002312 0.000000 0.027543 0.000000
# 6 0.000000 0.000000 0.000000 -0.018690 0.000000 0.053877
#
#
# Mechanical properties :
#
#
# Convention : Reuss Voigt Hill
#
# Bulk Modulus (GPa) = 21.77173 37.93495 29.85334
# Shear Modulus (GPa) = 20.87092 29.73166 25.30129
#
# Velocity S-wave (km/s) = 3.25008 3.87911 3.57844
# Velocity P-wave (km/s) = 5.01028 6.26599 5.67298
#
# Compressibility (1/GPa) = 0.04593112
#
# Stress axis : x y z
#
# Youngs Moduli (GPa) = 20.82371 66.33697 122.56422
#
# Poissons Ratio (x) = 0.30110 0.87376
# Poissons Ratio (y) = 0.09452 0.12188
# Poissons Ratio (z) = 0.14845 0.06597
#
# Static dielectric constant tensor:
#      x y z
#    x 1.828550 0.000000 -0.089350 
#    y 0.000000 1.703270 0.000000 
#    z -0.089350 0.000000 1.849570 
# 
# From -- ./inp_files/251935.got.cif
#   From: 2010.05.17/outbox.ucp.g08.bks.cvg/sg12_126_cif.got.tgz:251935.got - 2010.06.11 11:47:21.
