data_PCOD9225853
_publ_section_title
;
Structure prediction by ZEFSAII (Michael W. Deem and Ramdas Pophale) SiO2 
 PCOD9225853
Probable space group: C 2/M
;
_chemical_formula_sum "Si O2"
_cell_formula_units_Z 28
_cell_length_a 9.000000
_cell_length_b 27.000000
_cell_length_c 15.000000
_cell_angle_alpha 90.000000
_cell_angle_beta 60.000000
_cell_angle_gamma 90.000000
_cell_volume 3156.662597
_symmetry_space_group_name_H-M "C 2/M"
_symmetry_group_IT_number 12
_symmetry_cell_setting 'monoclinic'
loop_
_space_group_symop_operation_xyz
x,y,z
-x,y,-z
-x,-y,-z
x,-y,z
1/2+x,1/2+y,z
1/2-x,1/2+y,-z
1/2-x,1/2-y,-z
1/2+x,1/2-y,z
loop_
_atom_site_type_symbol
_atom_site_label
_atom_site_fract_x
_atom_site_fract_y
_atom_site_fract_z
Si Si1 0.182250 0.849990 0.403242
Si Si2 0.288203 0.942741 0.665813
Si Si3 0.201752 0.154752 0.774333
Si Si4 0.486075 0.212116 0.400313
Si Si5 0.397903 0.301895 0.750981
Si Si6 0.305425 0.272583 0.076742
Si Si7 0.702434 0.943267 0.539502
O O1 0.322561 0.818100 0.414828
O O2 0.175124 0.838852 0.300791
O O3 0.221510 0.906805 0.411601
O O4 0.000000 0.838350 0.500000
O O5 0.210873 0.903844 0.758005
O O6 0.495525 0.940672 0.606686
O O7 0.243388 0.927976 0.577198
O O8 0.238677 0.000000 0.694372
O O9 0.349311 0.177768 0.667835
O O10 0.251782 0.177059 0.856091
O O11 0.021383 0.175207 0.789393
O O12 0.500000 0.223841 0.500000
O O13 0.496494 0.261021 0.336915
O O14 0.242646 0.270598 0.839574
O O15 0.500000 0.282216 0.000000
O O16 0.250000 0.250000 0.000000
O O17 0.752830 0.000000 0.536844
#
# Coordination Sequence:
#
# PCOD9225853 Si02
#       7
#     8   8   8   8   8   8   8
#     4  12  23  33  50  79 114 150 189 225 271 320
#     4   9  17  32  56  81 108 146 191 228 266 320
#     4  11  21  36  58  80 108 144 186 224 274 328
#     4  11  21  34  50  73 112 152 184 219 260 328
#     4  11  24  36  53  80 111 144 181 225 277 333
#     4  11  23  41  61  84 108 139 182 232 284 335
#     4   9  18  33  52  77 111 152 190 226 266 316
#
# _framework density 8.8701279999999993
#
# number of rings (size 3 to 8) (size 9 to 14) (size 15 to 20)
#    0.000    1.429    2.857    5.571    2.000    2.000 
#    0.000    0.714    0.000    0.429    0.000    0.000 
#    0.000    4.000    0.000    0.000    0.000    0.000 
#
# Total GULP energy -156103.069644 kJ/mol
# GULP energy per Si atom -5575.109630 kJ/mol
# Density = 0.884994 g / cm^3
# Si number density = 8.870128 Si / 1000 Ang^3
#
#
#
# Elastic Constant Matrix: (Units=GPa)
#
#
# Indices 1 2 3 4 5 6 
#
# 1 24.8483 23.5521 8.9432 0.0000 13.7376 0.0000
# 2 23.5521 97.9143 39.2057 0.0000 15.6714 0.0000
# 3 8.9432 39.2057 76.3551 0.0000 15.2846 0.0000
# 4 0.0000 0.0000 0.0000 -23.6152 0.0000 -62.1140
# 5 13.7376 15.6714 15.2846 0.0000 29.3629 0.0000
# 6 0.0000 0.0000 0.0000 -62.1140 0.0000 -71.4430
#
#
#
# Elastic Compliance Matrix: (Units=1/GPa)
#
#
# Indices 1 2 3 4 5 6 
#
# 1 0.065666 -0.013408 0.004366 0.000000 -0.025839 0.000000
# 2 -0.013408 0.015990 -0.006907 0.000000 0.001334 0.000000
# 3 0.004366 -0.006907 0.017641 0.000000 -0.007539 0.000000
# 4 0.000000 0.000000 0.000000 0.032908 0.000000 -0.028611
# 5 -0.025839 0.001334 -0.007539 0.000000 0.049358 0.000000
# 6 0.000000 0.000000 0.000000 -0.028611 0.000000 0.010878
#
#
# Mechanical properties :
#
#
# Convention : Reuss Voigt Hill
#
# Bulk Modulus (GPa) = 14.83695 38.05773 26.44734
# Shear Modulus (GPa) = 20.25885 -4.64461 7.80712
#
# Velocity S-wave (km/s) = 3.38297 -1.61982 2.10008
# Velocity P-wave (km/s) = 4.86219 4.24275 4.56299
#
# Compressibility (1/GPa) = 0.06739929
#
# Stress axis : x y z
#
# Youngs Moduli (GPa) = 15.22847 62.53830 56.68589
#
# Poissons Ratio (x) = 0.83849 -0.24746
# Poissons Ratio (y) = 0.20418 0.39153
# Poissons Ratio (z) = -0.06648 0.43196
#
# Static dielectric constant tensor:
#      x y z
#    x 1.635390 0.000000 -0.000670 
#    y 0.000000 1.625110 0.000000 
#    z -0.000670 0.000000 1.635780 
# 
# From -- ./inp_files/199317.got.cif
#   From: 2010.05.17/outbox.ucp.g08.bks.cvg/sg12_100_cif.got.tgz:199317.got - 2010.06.11 11:47:21.
