data_PCOD9225997
_publ_section_title
;
Structure prediction by ZEFSAII (Michael W. Deem and Ramdas Pophale) SiO2 
 PCOD9225997
Probable space group: P 2/C
;
_chemical_formula_sum "Si O2"
_cell_formula_units_Z 24
_cell_length_a 17.518552
_cell_length_b 11.456662
_cell_length_c 5.612041
_cell_angle_alpha 90.000000
_cell_angle_beta 114.482153
_cell_angle_gamma 90.000000
_cell_volume 1025.089241
_symmetry_space_group_name_H-M "P 2/C"
_symmetry_group_IT_number 13
_symmetry_cell_setting 'monoclinic'
loop_
_space_group_symop_operation_xyz
x,y,z
-x,y,1/2-z
-x,-y,-z
x,-y,1/2+z
loop_
_atom_site_type_symbol
_atom_site_label
_atom_site_fract_x
_atom_site_fract_y
_atom_site_fract_z
Si Si1 0.763175 0.032862 0.132500
Si Si2 0.967800 0.360880 0.958369
Si Si3 0.207306 0.433666 0.782067
Si Si4 0.616131 0.495933 0.001542
Si Si5 0.354195 0.231891 0.520468
Si Si6 0.407635 0.876041 0.588359
O O1 0.804394 0.005282 0.438797
O O2 0.734715 0.166717 0.081994
O O3 0.672120 0.963299 0.024345
O O4 0.867571 0.343343 0.827571
O O5 0.000000 0.312853 0.750000
O O6 0.000000 0.312903 0.250000
O O7 0.000000 0.500000 0.000000
O O8 0.192582 0.506765 0.520264
O O9 0.306743 0.411780 0.905058
O O10 0.572084 0.490080 0.195422
O O11 0.656934 0.368759 0.020863
O O12 0.395545 0.193817 0.321558
O O13 0.402862 0.194684 0.829119
O O14 0.500000 0.931048 0.750000
#
# Coordination Sequence:
#
# PCOD9225997 Si02
#       6
#     4   4   4   4   4   4
#     4   8  16  27  44  69  91 105 121 155 212 278
#     4  10  14  20  34  53  78 100 122 171 212 252
#     4  10  16  25  37  56  75 102 144 178 201 229
#     4  10  21  33  47  59  80 119 161 189 190 228
#     4  10  19  32  47  65  89 112 137 171 218 247
#     4  10  19  31  51  74  89 100 124 166 226 291
#
# _framework density 23.412595
#
# number of rings (size 3 to 8) (size 9 to 14) (size 15 to 20)
#    0.000    2.333    3.333    1.500    0.000    6.000 
#    0.000    0.000    0.000   10.000    0.000    0.000 
#    0.000    0.000    0.000    0.000    0.000   45.000 
#
# Total GULP energy -133636.682982 kJ/mol
# GULP energy per Si atom -5568.195124 kJ/mol
# Density = 2.335931 g / cm^3
# Si number density = 23.412595 Si / 1000 Ang^3
#
#
#
# Elastic Constant Matrix: (Units=GPa)
#
#
# Indices 1 2 3 4 5 6 
#
# 1 75.5605 -5.2561 73.2503 0.0000 -18.4005 0.0000
# 2 -5.2561 38.9810 4.6857 0.0000 -9.7994 0.0000
# 3 73.2503 4.6857 235.8056 0.0000 -65.3108 0.0000
# 4 0.0000 0.0000 0.0000 17.7494 0.0000 -11.6033
# 5 -18.4005 -9.7994 -65.3108 0.0000 53.3598 0.0000
# 6 0.0000 0.0000 0.0000 -11.6033 0.0000 1.1764
#
#
#
# Elastic Compliance Matrix: (Units=1/GPa)
#
#
# Indices 1 2 3 4 5 6 
#
# 1 0.019364 0.003289 -0.006148 0.000000 -0.000244 0.000000
# 2 0.003289 0.027704 0.000229 0.000000 0.006502 0.000000
# 3 -0.006148 0.000229 0.008427 0.000000 0.008237 0.000000
# 4 0.000000 0.000000 0.000000 -0.010342 0.000000 -0.102002
# 5 -0.000244 0.006502 0.008237 0.000000 0.029932 0.000000
# 6 0.000000 0.000000 0.000000 -0.102002 0.000000 -0.156032
#
#
# Mechanical properties :
#
#
# Convention : Reuss Voigt Hill
#
# Bulk Modulus (GPa) = 19.90683 55.07855 37.49269
# Shear Modulus (GPa) = -84.83063 32.96829 -25.93117
#
# Velocity S-wave (km/s) = -6.02591 3.75659 -3.33163
# Velocity P-wave (km/s) = 6.31620 6.51093 1.11757
#
# Compressibility (1/GPa) = 0.05023403
#
# Stress axis : x y z
#
# Youngs Moduli (GPa) = 51.64253 36.09599 118.66113
#
# Poissons Ratio (x) = -0.11871 0.72953
# Poissons Ratio (y) = -0.16984 -0.02713
# Poissons Ratio (z) = 0.31750 -0.00825
#
# Static dielectric constant tensor:
#      x y z
#    x 1.901170 0.000000 -0.020680 
#    y 0.000000 2.196640 0.000000 
#    z -0.020680 0.000000 1.904960 
# 
# From -- ./inp_files/6018.got.cif
#   From: 2010.05.17/outbox.cif.g08.bks.cpg/sg13_4_cif.got.tgz:6018.got - 2010.06.03 16:44:36.
