data_PCOD9225367
_publ_section_title
;
Structure prediction by ZEFSAII (Michael W. Deem and Ramdas Pophale) SiO2 
 PCOD9225367
Probable space group: C 2/M
;
_chemical_formula_sum "Si O2"
_cell_formula_units_Z 32
_cell_length_a 18.000000
_cell_length_b 9.000000
_cell_length_c 30.000000
_cell_angle_alpha 90.000000
_cell_angle_beta 40.000000
_cell_angle_gamma 90.000000
_cell_volume 3123.947783
_symmetry_space_group_name_H-M "C 2/M"
_symmetry_group_IT_number 12
_symmetry_cell_setting 'monoclinic'
loop_
_space_group_symop_operation_xyz
x,y,z
-x,y,-z
-x,-y,-z
x,-y,z
1/2+x,1/2+y,z
1/2-x,1/2+y,-z
1/2-x,1/2-y,-z
1/2+x,1/2-y,z
loop_
_atom_site_type_symbol
_atom_site_label
_atom_site_fract_x
_atom_site_fract_y
_atom_site_fract_z
Si Si1 0.447438 0.326797 0.571377
Si Si2 0.548318 0.822058 0.930784
Si Si3 0.131761 0.828982 0.565812
Si Si4 0.372429 0.179872 0.934212
Si Si5 0.241794 0.331191 0.286224
Si Si6 0.039080 0.325386 0.695483
Si Si7 0.452870 0.822699 0.215181
Si Si8 0.782024 0.333208 0.803474
O O1 0.500000 0.281108 0.500000
O O2 0.409844 0.500000 0.584918
O O3 0.546039 0.317910 0.563451
O O4 0.343790 0.228180 0.637135
O O5 0.462945 0.773056 0.930715
O O6 0.679440 0.773808 0.863102
O O7 0.544339 0.000000 0.932984
O O8 0.500000 0.765860 0.000000
O O9 0.250000 0.750000 0.500000
O O10 0.075669 0.759607 0.635285
O O11 0.155225 0.000000 0.563689
O O12 0.428597 0.228648 0.861497
O O13 0.364419 0.000000 0.938056
O O14 0.250000 0.250000 0.000000
O O15 0.278777 0.500000 0.277690
O O16 0.350501 0.224457 0.230007
O O17 0.183529 0.327521 0.264487
O O18 0.064243 0.500000 0.676961
O O19 0.092957 0.265941 0.716288
O O20 0.904276 0.310358 0.770157
O O21 0.459495 0.000000 0.215868
O O22 0.740183 0.500000 0.831903
#
# Coordination Sequence:
#
# PCOD9225367 Si02
#       8
#     8   8   8   8   8   8   8   8
#     4  10  23  42  63  87 116 157 201 236 286 354
#     4  10  22  39  59  85 116 153 195 241 292 344
#     4  11  24  41  62  88 121 158 195 240 292 346
#     4  10  22  39  58  83 116 153 193 237 289 347
#     4  11  22  38  62  90 118 149 193 249 296 338
#     4  10  22  41  62  86 118 155 197 241 290 349
#     4  10  22  40  62  85 116 159 197 236 292 356
#     4  10  21  38  61  87 115 151 194 242 291 342
#
# _framework density 10.243449
#
# number of rings (size 3 to 8) (size 9 to 14) (size 15 to 20)
#    0.000    1.750    2.500    0.750    3.500    3.500 
#    0.000    0.000    0.000    0.000    0.000    0.000 
#    0.000    0.000    0.000    0.000    0.000    0.000 
#
# Total GULP energy -178394.770108 kJ/mol
# GULP energy per Si atom -5574.836566 kJ/mol
# Density = 1.022013 g / cm^3
# Si number density = 10.243449 Si / 1000 Ang^3
#
#
#
# Elastic Constant Matrix: (Units=GPa)
#
#
# Indices 1 2 3 4 5 6 
#
# 1 34.9006 27.5366 22.6895 0.0000 19.5362 -0.0002
# 2 27.5366 21.1388 45.3845 0.0004 11.1502 0.0000
# 3 22.6895 45.3845 113.6413 -0.0001 22.7772 -0.0001
# 4 0.0000 0.0004 -0.0001 30.6683 0.0001 -12.9090
# 5 19.5362 11.1502 22.7772 0.0001 25.3972 0.0001
# 6 -0.0002 0.0000 -0.0001 -12.9090 0.0001 3.7329
#
#
#
# Elastic Compliance Matrix: (Units=1/GPa)
#
#
# Indices 1 2 3 4 5 6 
#
# 1 -0.012022 0.072685 -0.026925 0.000003 0.001484 0.000010
# 2 0.072685 -0.083754 0.027763 -0.000008 -0.044039 -0.000022
# 3 -0.026925 0.027763 0.001682 0.000002 0.007014 0.000006
# 4 0.000003 -0.000008 0.000002 -0.071569 0.000000 -0.247494
# 5 0.001484 -0.044039 0.007014 0.000000 0.051277 -0.000001
# 6 0.000010 -0.000022 0.000006 -0.247494 -0.000001 -0.587980
#
#
# Mechanical properties :
#
#
# Convention : Reuss Voigt Hill
#
# Bulk Modulus (GPa) = 18.88510 40.10022 29.49266
# Shear Modulus (GPa) = -6.01134 16.89768 5.44317
#
# Velocity S-wave (km/s) = -1.71482 2.87506 1.63177
# Velocity P-wave (km/s) = 2.30593 5.53510 4.23997
#
# Compressibility (1/GPa) = 0.05295181
#
# Stress axis : x y z
#
# Youngs Moduli (GPa) = -83.18303 -11.93969 594.58334
#
# Poissons Ratio (x) = 0.86783 16.00913
# Poissons Ratio (y) = 6.04612 -16.50763
# Poissons Ratio (z) = -2.23970 0.33149
#
# Static dielectric constant tensor:
#      x y z
#    x 1.739050 0.000000 0.028510 
#    y 0.000000 1.699790 0.000000 
#    z 0.028510 0.000000 1.689160 
# 
# From -- ./inp_files/377959.got.cif
#   From: 2010.05.17/outbox.ucp.g08.bks.cvg/sg12_189_cif.got.tgz:377959.got - 2010.06.11 11:47:21.
