data_PCOD9225732
_publ_section_title
;
Structure prediction by ZEFSAII (Michael W. Deem and Ramdas Pophale) SiO2 
 PCOD9225732
Probable space group: C 2/M
;
_chemical_formula_sum "Si O2"
_cell_formula_units_Z 32
_cell_length_a 9.000000
_cell_length_b 30.000000
_cell_length_c 18.000000
_cell_angle_alpha 90.000000
_cell_angle_beta 140.000000
_cell_angle_gamma 90.000000
_cell_volume 3123.947783
_symmetry_space_group_name_H-M "C 2/M"
_symmetry_group_IT_number 12
_symmetry_cell_setting 'monoclinic'
loop_
_space_group_symop_operation_xyz
x,y,z
-x,y,-z
-x,-y,-z
x,-y,z
1/2+x,1/2+y,z
1/2-x,1/2+y,-z
1/2-x,1/2-y,-z
1/2+x,1/2-y,z
loop_
_atom_site_type_symbol
_atom_site_label
_atom_site_fract_x
_atom_site_fract_y
_atom_site_fract_z
Si Si1 0.472041 0.051901 0.298821
Si Si2 0.163582 0.879404 0.496446
Si Si3 0.051913 0.104273 0.167350
Si Si4 0.707498 0.393417 0.777070
Si Si5 0.076440 0.683577 0.677438
Si Si6 0.348519 0.946597 0.078798
Si Si7 0.564341 0.749546 0.248962
Si Si8 0.384419 0.801538 0.874905
O O1 0.691257 0.079726 0.411509
O O2 0.244220 0.066391 0.256144
O O3 0.390440 0.061992 0.182855
O O4 0.522068 0.000000 0.323033
O O5 0.369620 0.844053 0.558470
O O6 0.000000 0.861629 0.500000
O O7 0.992088 0.893429 0.363139
O O8 0.217376 0.148560 0.217206
O O9 0.912902 0.112034 0.189552
O O10 0.859770 0.084072 0.035375
O O11 0.863483 0.349216 0.827507
O O12 0.896184 0.433151 0.853867
O O13 0.201178 0.720992 0.673860
O O14 0.956811 0.709323 0.701235
O O15 0.299838 0.000000 0.049854
O O16 0.506923 0.768193 0.144244
O O17 0.371940 0.716113 0.206042
O O18 0.500000 0.804432 0.000000
#
# Coordination Sequence:
#
# PCOD9225732 Si02
#       8
#     8   8   8   8   8   8   8   8
#     4  10  23  43  69  99 132 175 226 276 332 398
#     4  11  23  45  69  96 132 179 230 276 330 406
#     4  11  23  42  66 103 140 174 218 277 345 401
#     4  12  25  42  67  97 140 179 222 274 336 395
#     4  10  23  44  69 100 132 179 227 277 341 391
#     4  11  24  44  71 103 136 178 224 273 334 408
#     4  10  22  43  67  98 131 173 231 277 334 401
#     4  11  22  41  63  96 136 174 220 274 335 399
#
# _framework density 10.243449
#
# number of rings (size 3 to 8) (size 9 to 14) (size 15 to 20)
#    0.000    1.250    2.500    3.000    1.750    5.250 
#    2.250    7.500    0.000    0.000    0.000    0.000 
#    0.000    0.000    0.000    0.000    0.000    0.000 
#
# Total GULP energy -178547.890564 kJ/mol
# GULP energy per Si atom -5579.621580 kJ/mol
# Density = 1.022013 g / cm^3
# Si number density = 10.243449 Si / 1000 Ang^3
#
#
#
# Elastic Constant Matrix: (Units=GPa)
#
#
# Indices 1 2 3 4 5 6 
#
# 1 61.3978 24.9253 -9.8928 0.0000 13.8197 0.0000
# 2 24.9253 86.1966 31.7389 0.0000 5.4921 0.0000
# 3 -9.8928 31.7389 86.1555 0.0000 16.5535 0.0000
# 4 0.0000 0.0000 0.0000 24.4466 0.0000 1.9245
# 5 13.8197 5.4921 16.5535 0.0000 30.0161 0.0000
# 6 0.0000 0.0000 0.0000 1.9245 0.0000 35.2707
#
#
#
# Elastic Compliance Matrix: (Units=1/GPa)
#
#
# Indices 1 2 3 4 5 6 
#
# 1 0.025112 -0.009751 0.009345 0.000000 -0.014931 0.000000
# 2 -0.009751 0.017211 -0.008632 0.000000 0.006101 0.000000
# 3 0.009345 -0.008632 0.018325 0.000000 -0.012829 0.000000
# 4 0.000000 0.000000 0.000000 0.041082 0.000000 -0.002242
# 5 -0.014931 0.006101 -0.012829 0.000000 0.046148 0.000000
# 6 0.000000 0.000000 0.000000 -0.002242 0.000000 0.028474
#
#
# Mechanical properties :
#
#
# Convention : Reuss Voigt Hill
#
# Bulk Modulus (GPa) = 23.49052 36.36587 29.92820
# Shear Modulus (GPa) = 23.96696 30.41192 27.18944
#
# Velocity S-wave (km/s) = 3.42404 3.85705 3.64698
# Velocity P-wave (km/s) = 5.20798 6.13393 5.68982
#
# Compressibility (1/GPa) = 0.04257037
#
# Stress axis : x y z
#
# Youngs Moduli (GPa) = 39.82115 58.10273 54.57083
#
# Poissons Ratio (x) = 0.56657 -0.50994
# Poissons Ratio (y) = 0.38830 0.47107
# Poissons Ratio (z) = -0.37211 0.50156
#
# Static dielectric constant tensor:
#      x y z
#    x 1.770560 0.000000 -0.002130 
#    y 0.000000 1.771800 0.000000 
#    z -0.002130 0.000000 1.707180 
# 
# From -- ./inp_files/260370.got.cif
#   From: 2010.05.17/outbox.ucp.g08.bks.cvg/sg12_131_cif.got.tgz:260370.got - 2010.06.11 11:47:21.
