data_PCOD9225784
_publ_section_title
;
Structure prediction by ZEFSAII (Michael W. Deem and Ramdas Pophale) SiO2 
 PCOD9225784
Probable space group: C 2/M
;
_chemical_formula_sum "Si O2"
_cell_formula_units_Z 24
_cell_length_a 12.000000
_cell_length_b 18.000000
_cell_length_c 12.000000
_cell_angle_alpha 90.000000
_cell_angle_beta 70.000000
_cell_angle_gamma 90.000000
_cell_volume 2435.683273
_symmetry_space_group_name_H-M "C 2/M"
_symmetry_group_IT_number 12
_symmetry_cell_setting 'monoclinic'
loop_
_space_group_symop_operation_xyz
x,y,z
-x,y,-z
-x,-y,-z
x,-y,z
1/2+x,1/2+y,z
1/2-x,1/2+y,-z
1/2-x,1/2-y,-z
1/2+x,1/2-y,z
loop_
_atom_site_type_symbol
_atom_site_label
_atom_site_fract_x
_atom_site_fract_y
_atom_site_fract_z
Si Si1 0.027617 0.910749 0.861457
Si Si2 0.935372 0.330204 0.740705
Si Si3 0.822902 0.832135 0.794846
Si Si4 0.765001 0.411466 0.642798
Si Si5 0.871134 0.414382 0.988202
Si Si6 0.215850 0.324299 0.583604
O O1 0.153930 0.889321 0.761729
O O2 0.929004 0.882248 0.808438
O O3 0.025552 0.000000 0.866442
O O4 0.000000 0.884879 0.000000
O O5 0.872495 0.251689 0.789624
O O6 0.876753 0.366470 0.651840
O O7 0.076640 0.322159 0.669138
O O8 0.897491 0.383698 0.855822
O O9 0.712626 0.859703 0.910031
O O10 0.786973 0.836556 0.675872
O O11 0.779967 0.500000 0.647154
O O12 0.754044 0.388302 0.517086
O O13 0.823334 0.500000 0.001443
O O14 0.000000 0.416797 0.000000
O O15 0.250000 0.250000 0.500000
#
# Coordination Sequence:
#
# PCOD9225784 Si02
#       6
#     8   8   8   8   8   8
#     4  10  23  45  71 101 139 180 228 290 353 416
#     4  12  25  44  71  98 138 186 228 286 352 414
#     4  12  25  43  75  99 138 184 234 283 351 416
#     4  11  25  43  68 101 137 184 236 284 344 417
#     4  11  24  44  68 102 139 171 223 288 348 415
#     4  12  26  46  66 101 142 185 236 290 343 407
#
# _framework density 9.8534980000000001
#
# number of rings (size 3 to 8) (size 9 to 14) (size 15 to 20)
#    0.000    0.667    3.333    4.000    0.000    7.333 
#    0.000    1.667    0.000    0.000    0.000    0.000 
#    0.000    0.000    0.000    0.000    0.000    0.000 
#
# Total GULP energy -134053.751649 kJ/mol
# GULP energy per Si atom -5585.572985 kJ/mol
# Density = 0.983107 g / cm^3
# Si number density = 9.853498 Si / 1000 Ang^3
#
#
#
# Elastic Constant Matrix: (Units=GPa)
#
#
# Indices 1 2 3 4 5 6 
#
# 1 116.5207 27.9836 47.7796 0.0000 2.5702 0.0000
# 2 27.9836 73.0051 41.5570 0.0000 -13.2169 0.0000
# 3 47.7796 41.5570 152.4924 0.0000 6.1524 0.0000
# 4 0.0000 0.0000 0.0000 45.5870 0.0000 -1.0962
# 5 2.5702 -13.2169 6.1524 0.0000 45.5826 0.0000
# 6 0.0000 0.0000 0.0000 -1.0962 0.0000 30.0215
#
#
#
# Elastic Compliance Matrix: (Units=1/GPa)
#
#
# Indices 1 2 3 4 5 6 
#
# 1 0.010258 -0.002741 -0.002425 0.000000 -0.001046 0.000000
# 2 -0.002741 0.018342 -0.004384 0.000000 0.006065 0.000000
# 3 -0.002425 -0.004384 0.008605 0.000000 -0.002296 0.000000
# 4 0.000000 0.000000 0.000000 0.021955 0.000000 0.000802
# 5 -0.001046 0.006065 -0.002296 0.000000 0.024066 0.000000
# 6 0.000000 0.000000 0.000000 0.000802 0.000000 0.033339
#
#
# Mechanical properties :
#
#
# Convention : Reuss Voigt Hill
#
# Bulk Modulus (GPa) = 55.23546 64.07317 59.65431
# Shear Modulus (GPa) = 35.28591 39.21810 37.25200
#
# Velocity S-wave (km/s) = 4.23605 4.46585 4.35247
# Velocity P-wave (km/s) = 7.21212 7.69254 7.45620
#
# Compressibility (1/GPa) = 0.01810431
#
# Stress axis : x y z
#
# Youngs Moduli (GPa) = 97.48655 54.51964 116.21222
#
# Poissons Ratio (x) = 0.14944 0.28180
# Poissons Ratio (y) = 0.26720 0.50952
# Poissons Ratio (z) = 0.23639 0.23904
#
# Static dielectric constant tensor:
#      x y z
#    x 1.727640 0.000000 0.009300 
#    y 0.000000 1.706580 0.000000 
#    z 0.009300 0.000000 1.683230 
# 
# From -- ./inp_files/131639.got.cif
#   From: 2010.05.17/outbox.ucp.g08.bks.cvg/sg12_66_cif.got.tgz:131639.got - 2010.06.11 11:47:21.
