data_PCOD9225098
_publ_section_title
;
Structure prediction by ZEFSAII (Michael W. Deem and Ramdas Pophale) SiO2 
 PCOD9225098
Probable space group: C 2/M
;
_chemical_formula_sum "Si O2"
_cell_formula_units_Z 32
_cell_length_a 30.000000
_cell_length_b 18.000000
_cell_length_c 12.000000
_cell_angle_alpha 90.000000
_cell_angle_beta 150.000000
_cell_angle_gamma 90.000000
_cell_volume 3240.000000
_symmetry_space_group_name_H-M "C 2/M"
_symmetry_group_IT_number 12
_symmetry_cell_setting 'monoclinic'
loop_
_space_group_symop_operation_xyz
x,y,z
-x,y,-z
-x,-y,-z
x,-y,z
1/2+x,1/2+y,z
1/2-x,1/2+y,-z
1/2-x,1/2-y,-z
1/2+x,1/2-y,z
loop_
_atom_site_type_symbol
_atom_site_label
_atom_site_fract_x
_atom_site_fract_y
_atom_site_fract_z
Si Si1 0.088703 0.785129 0.842102
Si Si2 0.131078 0.650309 0.087454
Si Si3 0.961917 0.412953 0.639278
Si Si4 0.177305 0.198906 0.564489
Si Si5 0.856887 0.356481 0.619342
Si Si6 0.105225 0.736248 0.628094
Si Si7 0.668738 0.413402 0.161399
Si Si8 0.100681 0.916819 0.254785
O O1 0.127318 0.751714 0.806995
O O2 0.984024 0.784062 0.589419
O O3 0.098886 0.730139 0.970245
O O4 0.129827 0.861703 0.978369
O O5 0.233405 0.653799 0.271195
O O6 0.127279 0.638564 0.213280
O O7 0.069036 0.594797 0.881953
O O8 0.937731 0.500000 0.567227
O O9 0.934155 0.383739 0.703080
O O10 0.920954 0.349919 0.464629
O O11 0.166890 0.271344 0.463438
O O12 0.171545 0.231155 0.677234
O O13 0.104561 0.139534 0.366215
O O14 0.774843 0.405417 0.396606
O O15 0.641693 0.500000 0.091759
O O16 0.644924 0.387408 0.236070
O O17 0.136736 0.000000 0.357922
O O18 0.000000 0.924555 0.000000
#
# Coordination Sequence:
#
# PCOD9225098 Si02
#       8
#     8   8   8   8   8   8   8   8
#     4  10  20  41  59  89 119 154 212 251 296 356
#     4  11  21  35  60  86 121 157 196 246 298 357
#     4  10  23  41  62  89 122 162 204 249 307 362
#     4  11  20  36  59  87 116 161 202 245 300 356
#     4  11  21  37  58  90 121 156 200 249 295 364
#     4   9  22  40  64  87 117 160 205 259 294 353
#     4  11  21  35  60  87 119 157 194 250 311 360
#     4  10  21  35  54  85 123 157 193 243 308 370
#
# _framework density 9.8765429999999999
#
# number of rings (size 3 to 8) (size 9 to 14) (size 15 to 20)
#    0.000    1.625    2.500    2.625    0.000    4.500 
#    0.000    6.875    0.000    0.000    0.000    0.000 
#    0.000    0.000    0.000    0.000    0.000    0.000 
#
# Total GULP energy -178233.946670 kJ/mol
# GULP energy per Si atom -5569.810833 kJ/mol
# Density = 0.985406 g / cm^3
# Si number density = 9.876543 Si / 1000 Ang^3
#
#
#
# Elastic Constant Matrix: (Units=GPa)
#
#
# Indices 1 2 3 4 5 6 
#
# 1 72.6213 31.6818 12.3657 0.0000 -18.0320 0.0000
# 2 31.6818 113.4472 27.1325 0.0000 -22.6133 0.0000
# 3 12.3657 27.1325 70.2172 0.0000 -7.7514 0.0000
# 4 0.0000 0.0000 0.0000 29.5491 0.0000 -14.9737
# 5 -18.0320 -22.6133 -7.7514 0.0000 33.1374 0.0000
# 6 0.0000 0.0000 0.0000 -14.9737 0.0000 36.1912
#
#
#
# Elastic Compliance Matrix: (Units=1/GPa)
#
#
# Indices 1 2 3 4 5 6 
#
# 1 0.017022 -0.003136 -0.001026 0.000000 0.006882 0.000000
# 2 -0.003136 0.011562 -0.003318 0.000000 0.005407 0.000000
# 3 -0.001026 -0.003318 0.015801 0.000000 0.000873 0.000000
# 4 0.000000 0.000000 0.000000 0.042819 0.000000 0.017716
# 5 0.006882 0.005407 0.000873 0.000000 0.037817 0.000000
# 6 0.000000 0.000000 0.000000 0.017716 0.000000 0.034961
#
#
# Mechanical properties :
#
#
# Convention : Reuss Voigt Hill
#
# Bulk Modulus (GPa) = 33.98675 44.29394 39.14035
# Shear Modulus (GPa) = 27.06347 32.11592 29.58970
#
# Velocity S-wave (km/s) = 3.70549 4.03658 3.87457
# Velocity P-wave (km/s) = 5.96244 6.64814 6.31460
#
# Compressibility (1/GPa) = 0.02942323
#
# Stress axis : x y z
#
# Youngs Moduli (GPa) = 58.74769 86.49030 63.28762
#
# Poissons Ratio (x) = 0.27127 0.06493
# Poissons Ratio (y) = 0.18426 0.21001
# Poissons Ratio (z) = 0.06027 0.28701
#
# Static dielectric constant tensor:
#      x y z
#    x 1.833980 0.000000 0.127660 
#    y 0.000000 1.707770 0.000000 
#    z 0.127660 0.000000 1.825300 
# 
# From -- ./inp_files/190068.got.cif
#   From: 2010.05.17/outbox.ucp.g08.bks.cvg/sg12_96_cif.got.tgz:190068.got - 2010.06.11 11:47:21.
