data_PCOD9225115
_publ_section_title
;
Structure prediction by ZEFSAII (Michael W. Deem and Ramdas Pophale) SiO2 
 PCOD9225115
Probable space group: C 2/M
;
_chemical_formula_sum "Si O2"
_cell_formula_units_Z 26
_cell_length_a 12.000000
_cell_length_b 21.000000
_cell_length_c 21.000000
_cell_angle_alpha 90.000000
_cell_angle_beta 150.000000
_cell_angle_gamma 90.000000
_cell_volume 2646.000000
_symmetry_space_group_name_H-M "C 2/M"
_symmetry_group_IT_number 12
_symmetry_cell_setting 'monoclinic'
loop_
_space_group_symop_operation_xyz
x,y,z
-x,y,-z
-x,-y,-z
x,-y,z
1/2+x,1/2+y,z
1/2-x,1/2+y,-z
1/2-x,1/2-y,-z
1/2+x,1/2-y,z
loop_
_atom_site_type_symbol
_atom_site_label
_atom_site_fract_x
_atom_site_fract_y
_atom_site_fract_z
Si Si1 0.953535 0.071948 0.900030
Si Si2 0.170437 0.500000 0.289565
Si Si3 0.281737 0.289048 0.272438
Si Si4 0.821071 0.000000 0.509782
Si Si5 0.902345 0.627050 0.117815
Si Si6 0.774449 0.139529 0.533056
Si Si7 0.000000 0.279769 0.500000
Si Si8 0.596580 0.831977 0.740251
O O1 0.723205 0.106846 0.774728
O O2 0.948718 0.000000 0.875846
O O3 0.000000 0.071467 0.000000
O O4 0.160868 0.109083 0.973028
O O5 0.194491 0.500000 0.378462
O O6 0.417319 0.500000 0.381521
O O7 0.034624 0.562056 0.200217
O O8 0.475205 0.336684 0.346864
O O9 0.351842 0.262719 0.377666
O O10 0.284326 0.228852 0.228467
O O11 0.054100 0.326658 0.153115
O O12 0.768084 0.063614 0.522975
O O13 0.880431 0.663202 0.173867
O O14 0.650702 0.174230 0.530123
O O15 0.652277 0.166658 0.409249
#
# Coordination Sequence:
#
# PCOD9225115 Si02
#       8
#     8   4   8   4   8   8   4   8
#     4   9  19  32  51  77 105 135 170 213 262 310
#     4  11  20  32  52  85 109 136 168 222 274 306
#     4  11  21  35  54  77 108 138 176 212 260 319
#     4  11  22  31  53  82 110 136 179 214 267 320
#     4  11  19  34  56  78 107 135 172 215 266 308
#     4  11  21  35  53  78 107 139 176 218 261 316
#     4  10  22  35  50  73 110 146 172 208 264 316
#     4  10  21  33  50  78 106 142 167 210 264 314
#
# _framework density 9.8261529999999997
#
# number of rings (size 3 to 8) (size 9 to 14) (size 15 to 20)
#    0.000    1.538    3.846    3.692    2.154    0.923 
#    0.000    0.000    0.000    0.000    0.000    0.000 
#    0.000   11.077    0.000    0.000    0.000    0.000 
#
# Total GULP energy -145117.222195 kJ/mol
# GULP energy per Si atom -5581.431623 kJ/mol
# Density = 0.980379 g / cm^3
# Si number density = 9.826153 Si / 1000 Ang^3
#
#
#
# Elastic Constant Matrix: (Units=GPa)
#
#
# Indices 1 2 3 4 5 6 
#
# 1 27.6414 38.2641 2.0809 -0.0031 19.2113 0.0060
# 2 38.2641 86.4725 -6.0534 0.0019 5.3604 -0.0039
# 3 2.0809 -6.0534 16.2258 0.0009 22.9591 -0.0085
# 4 -0.0031 0.0019 0.0009 22.1426 -0.0022 6.4934
# 5 19.2113 5.3604 22.9591 -0.0022 24.7200 -0.0046
# 6 0.0060 -0.0039 -0.0085 6.4934 -0.0046 19.6835
#
#
#
# Elastic Compliance Matrix: (Units=1/GPa)
#
#
# Indices 1 2 3 4 5 6 
#
# 1 0.053092 -0.033167 -0.092378 0.000038 0.051729 -0.000063
# 2 -0.033167 0.029878 0.037889 -0.000021 -0.015893 0.000035
# 3 -0.092378 0.037889 0.007467 -0.000029 0.056641 0.000061
# 4 0.000038 -0.000021 -0.000029 0.049999 0.000003 -0.016494
# 5 0.051729 -0.015893 0.056641 0.000003 -0.048909 -0.000007
# 6 -0.000063 0.000035 0.000061 -0.016494 -0.000007 0.056245
#
#
# Mechanical properties :
#
#
# Convention : Reuss Voigt Hill
#
# Bulk Modulus (GPa) = -11.78207 22.10256 5.16024
# Shear Modulus (GPa) = 16.96102 19.71243 18.33672
#
# Velocity S-wave (km/s) = 2.94097 3.17055 3.05791
# Velocity P-wave (km/s) = 2.35034 4.96733 3.88577
#
# Compressibility (1/GPa) = -0.08487470
#
# Stress axis : x y z
#
# Youngs Moduli (GPa) = 18.83523 33.46923 133.91634
#
# Poissons Ratio (x) = 1.11006 12.37099
# Poissons Ratio (y) = 0.62470 -5.07396
# Poissons Ratio (z) = 1.73997 -1.26812
#
# Static dielectric constant tensor:
#      x y z
#    x 1.710180 0.000000 0.037510 
#    y 0.000000 1.705300 0.000000 
#    z 0.037510 0.000000 1.663080 
# 
# From -- ./inp_files/133384.got.cif
#   From: 2010.05.17/outbox.ucp.g08.bks.cvg/sg12_67_cif.got.tgz:133384.got - 2010.06.11 11:47:21.
