data_PCOD9225053
_publ_section_title
;
Structure prediction by ZEFSAII (Michael W. Deem and Ramdas Pophale) SiO2 
 PCOD9225053
Probable space group: C 2/M
;
_chemical_formula_sum "Si O2"
_cell_formula_units_Z 28
_cell_length_a 12.000000
_cell_length_b 27.000000
_cell_length_c 15.000000
_cell_angle_alpha 90.000000
_cell_angle_beta 40.000000
_cell_angle_gamma 90.000000
_cell_volume 3123.947783
_symmetry_space_group_name_H-M "C 2/M"
_symmetry_group_IT_number 12
_symmetry_cell_setting 'monoclinic'
loop_
_space_group_symop_operation_xyz
x,y,z
-x,y,-z
-x,-y,-z
x,-y,z
1/2+x,1/2+y,z
1/2-x,1/2+y,-z
1/2-x,1/2-y,-z
1/2+x,1/2-y,z
loop_
_atom_site_type_symbol
_atom_site_label
_atom_site_fract_x
_atom_site_fract_y
_atom_site_fract_z
Si Si1 0.049371 0.797825 0.371622
Si Si2 0.791620 0.556667 0.627373
Si Si3 0.984347 0.439414 0.208885
Si Si4 0.439294 0.803150 0.747855
Si Si5 0.245401 0.623987 0.516675
Si Si6 0.435501 0.840417 0.138785
Si Si7 0.794116 0.106436 0.133699
O O1 0.235518 0.824102 0.264546
O O2 0.000000 0.776893 0.500000
O O3 0.055449 0.752384 0.296068
O O4 0.911162 0.841934 0.437318
O O5 0.728440 0.500000 0.656373
O O6 0.728292 0.593027 0.588814
O O7 0.744475 0.580913 0.749156
O O8 0.000000 0.554951 0.500000
O O9 0.974219 0.500000 0.202998
O O10 0.169202 0.423901 0.141103
O O11 0.830769 0.417606 0.367593
O O12 0.964784 0.399490 0.139899
O O13 0.590988 0.835507 0.607714
O O14 0.475952 0.810562 0.832032
O O15 0.269007 0.836235 0.832250
O O16 0.500000 0.828317 0.000000
O O17 0.000000 0.103507 0.000000
#
# Coordination Sequence:
#
# PCOD9225053 Si02
#       7
#     8   8   8   8   8   8   8
#     4  12  23  40  67  90 120 159 210 257 304 369
#     4  11  20  34  59  88 121 163 200 246 311 364
#     4  10  20  39  64  88 126 165 203 253 310 361
#     4  10  23  38  63  91 119 158 205 253 316 363
#     4  10  21  37  58  95 121 152 205 261 300 363
#     4  10  24  44  60  87 126 162 205 256 309 359
#     4  10  22  38  59  92 127 160 202 253 309 370
#
# _framework density 8.9630179999999999
#
# number of rings (size 3 to 8) (size 9 to 14) (size 15 to 20)
#    0.000    1.857    5.714    1.286    2.000    4.857 
#    0.000    2.143    0.000    0.000    0.000    0.000 
#    0.000    0.000    0.000    0.000    0.000    0.000 
#
# Total GULP energy -155936.315927 kJ/mol
# GULP energy per Si atom -5569.154140 kJ/mol
# Density = 0.894262 g / cm^3
# Si number density = 8.963018 Si / 1000 Ang^3
#
#
#
# Elastic Constant Matrix: (Units=GPa)
#
#
# Indices 1 2 3 4 5 6 
#
# 1 95.0439 67.4851 62.3983 0.0000 9.3882 0.0000
# 2 67.4851 130.9921 41.0665 0.0000 5.3484 0.0000
# 3 62.3983 41.0665 111.4804 0.0000 -8.7084 0.0000
# 4 0.0000 0.0000 0.0000 15.4867 0.0000 1.2462
# 5 9.3882 5.3484 -8.7084 0.0000 20.8885 0.0000
# 6 0.0000 0.0000 0.0000 1.2462 0.0000 27.6919
#
#
#
# Elastic Compliance Matrix: (Units=1/GPa)
#
#
# Indices 1 2 3 4 5 6 
#
# 1 0.027120 -0.009293 -0.012944 0.000000 -0.015206 0.000000
# 2 -0.009293 0.012094 0.000859 0.000000 0.001438 0.000000
# 3 -0.012944 0.000859 0.016886 0.000000 0.012638 0.000000
# 4 0.000000 0.000000 0.000000 0.064806 0.000000 -0.002917
# 5 -0.015206 0.001438 0.012638 0.000000 0.059608 0.000000
# 6 0.000000 0.000000 0.000000 -0.002917 0.000000 0.036243
#
#
# Mechanical properties :
#
#
# Convention : Reuss Voigt Hill
#
# Bulk Modulus (GPa) = 74.94466 75.49068 75.21767
# Shear Modulus (GPa) = 18.94216 23.91785 21.43001
#
# Velocity S-wave (km/s) = 3.25419 3.65670 3.46131
# Velocity P-wave (km/s) = 7.48453 7.74806 7.61743
#
# Compressibility (1/GPa) = 0.01334318
#
# Stress axis : x y z
#
# Youngs Moduli (GPa) = 36.87322 82.68828 59.21962
#
# Poissons Ratio (x) = 0.76841 0.76656
# Poissons Ratio (y) = 0.34266 -0.05086
# Poissons Ratio (z) = 0.47730 -0.07101
#
# Static dielectric constant tensor:
#      x y z
#    x 1.655950 0.000000 0.033330 
#    y 0.000000 1.601400 0.000000 
#    z 0.033330 0.000000 1.627320 
# 
# From -- ./inp_files/209133.got.cif
#   From: 2010.05.17/outbox.ucp.g08.bks.cvg/sg12_105_cif.got.tgz:209133.got - 2010.06.11 11:47:21.
