data_PCOD9225021
_publ_section_title
;
Structure prediction by ZEFSAII (Michael W. Deem and Ramdas Pophale) SiO2 
 PCOD9225021
Probable space group: C 2/M
;
_chemical_formula_sum "Si O2"
_cell_formula_units_Z 32
_cell_length_a 30.000000
_cell_length_b 9.000000
_cell_length_c 24.000000
_cell_angle_alpha 90.000000
_cell_angle_beta 150.000000
_cell_angle_gamma 90.000000
_cell_volume 3240.000000
_symmetry_space_group_name_H-M "C 2/M"
_symmetry_group_IT_number 12
_symmetry_cell_setting 'monoclinic'
loop_
_space_group_symop_operation_xyz
x,y,z
-x,y,-z
-x,-y,-z
x,-y,z
1/2+x,1/2+y,z
1/2-x,1/2+y,-z
1/2-x,1/2-y,-z
1/2+x,1/2-y,z
loop_
_atom_site_type_symbol
_atom_site_label
_atom_site_fract_x
_atom_site_fract_y
_atom_site_fract_z
Si Si1 0.399750 0.170633 0.049846
Si Si2 0.032472 0.178520 0.775664
Si Si3 0.708527 0.670295 0.249681
Si Si4 0.065597 0.824103 0.687276
Si Si5 0.161810 0.830927 0.425420
Si Si6 0.037161 0.678328 0.101440
Si Si7 0.359334 0.665461 0.464153
Si Si8 0.726997 0.329083 0.790754
O O1 0.401708 0.274782 0.105076
O O2 0.469312 0.221073 0.077002
O O3 0.423491 0.000000 0.090337
O O4 0.301235 0.168917 0.918631
O O5 0.063369 0.235070 0.748476
O O6 0.935775 0.236152 0.692995
O O7 0.022710 0.000000 0.759928
O O8 0.684795 0.500000 0.217696
O O9 0.634295 0.750062 0.207124
O O10 0.802457 0.699848 0.380274
O O11 0.725362 0.745861 0.208366
O O12 0.136305 0.763605 0.719196
O O13 0.962123 0.816773 0.558508
O O14 0.088502 0.000000 0.716282
O O15 0.250000 0.750000 0.500000
O O16 0.154407 0.836083 0.484409
O O17 0.166002 0.000000 0.408527
O O18 0.044847 0.500000 0.111233
O O19 0.000000 0.719323 0.000000
O O20 0.329668 0.500000 0.412888
O O21 0.710326 0.500000 0.755224
#
# Coordination Sequence:
#
# PCOD9225021 Si02
#       8
#     8   8   8   8   8   8   8   8
#     4  10  21  35  56  85 112 144 187 227 272 328
#     4   9  19  36  55  81 115 145 178 226 278 326
#     4  12  25  37  54  85 117 146 182 230 287 335
#     4   8  17  37  64  84 105 145 193 232 270 324
#     4   9  19  34  53  77 107 142 183 226 269 321
#     4  10  20  39  60  78 108 150 189 229 272 325
#     4   9  19  38  59  80 108 147 189 228 271 329
#     4  10  20  39  62  82 107 146 194 234 269 326
#
# _framework density 9.8765429999999999
#
# number of rings (size 3 to 8) (size 9 to 14) (size 15 to 20)
#    0.000    2.375    1.250    2.625    1.750    3.250 
#    0.000    5.625    0.000    0.000    0.000    0.000 
#    0.000    0.000    0.000    0.000    0.000    0.000 
#
# Total GULP energy -178231.582066 kJ/mol
# GULP energy per Si atom -5569.736940 kJ/mol
# Density = 0.985406 g / cm^3
# Si number density = 9.876543 Si / 1000 Ang^3
#
#
#
# Elastic Constant Matrix: (Units=GPa)
#
#
# Indices 1 2 3 4 5 6 
#
# 1 19.1923 -5.6277 15.2791 0.0000 30.6066 0.0000
# 2 -5.6277 0.3567 5.3625 0.0000 1.8556 0.0000
# 3 15.2791 5.3625 36.0950 0.0000 5.7068 0.0000
# 4 0.0000 0.0000 0.0000 16.4057 0.0000 -10.5195
# 5 30.6066 1.8556 5.7068 0.0000 27.9062 0.0000
# 6 0.0000 0.0000 0.0000 -10.5195 0.0000 7.2636
#
#
#
# Elastic Compliance Matrix: (Units=1/GPa)
#
#
# Indices 1 2 3 4 5 6 
#
# 1 0.006623 -0.124098 0.015994 0.000000 -0.002283 0.000000
# 2 -0.124098 0.231642 -0.000999 0.000000 0.120909 0.000000
# 3 0.015994 -0.000999 0.024642 0.000000 -0.022515 0.000000
# 4 0.000000 0.000000 0.000000 0.854061 0.000000 1.236896
# 5 -0.002283 0.120909 -0.022515 0.000000 0.034903 0.000000
# 6 0.000000 0.000000 0.000000 1.236896 0.000000 1.929011
#
#
# Mechanical properties :
#
#
# Convention : Reuss Voigt Hill
#
# Bulk Modulus (GPa) = 22.37111 9.51908 15.94509
# Shear Modulus (GPa) = 1.50876 13.02378 7.26627
#
# Velocity S-wave (km/s) = 0.87491 2.57053 1.92003
# Velocity P-wave (km/s) = 3.51718 3.69319 3.60626
#
# Compressibility (1/GPa) = 0.04470052
#
# Stress axis : x y z
#
# Youngs Moduli (GPa) = 150.99304 4.31701 40.58039
#
# Poissons Ratio (x) = 0.53573 -0.64905
# Poissons Ratio (y) = 18.73798 0.04055
# Poissons Ratio (z) = -2.41500 0.00431
#
# Static dielectric constant tensor:
#      x y z
#    x 1.822450 0.000000 -0.151570 
#    y 0.000000 1.702080 0.000000 
#    z -0.151570 0.000000 1.898150 
# 
# From -- ./inp_files/249034.got.cif
#   From: 2010.05.17/outbox.ucp.g08.bks.cvg/sg12_125_cif.got.tgz:249034.got - 2010.06.11 11:47:21.
