data_PCOD9225671
_publ_section_title
;
Structure prediction by ZEFSAII (Michael W. Deem and Ramdas Pophale) SiO2 
 PCOD9225671
Probable space group: C 2/M
;
_chemical_formula_sum "Si O2"
_cell_formula_units_Z 20
_cell_length_a 24.000000
_cell_length_b 9.000000
_cell_length_c 18.000000
_cell_angle_alpha 90.000000
_cell_angle_beta 150.000000
_cell_angle_gamma 90.000000
_cell_volume 1944.000000
_symmetry_space_group_name_H-M "C 2/M"
_symmetry_group_IT_number 12
_symmetry_cell_setting 'monoclinic'
loop_
_space_group_symop_operation_xyz
x,y,z
-x,y,-z
-x,-y,-z
x,-y,z
1/2+x,1/2+y,z
1/2-x,1/2+y,-z
1/2-x,1/2-y,-z
1/2+x,1/2-y,z
loop_
_atom_site_type_symbol
_atom_site_label
_atom_site_fract_x
_atom_site_fract_y
_atom_site_fract_z
Si Si1 0.500564 0.170512 0.888800
Si Si2 0.713524 0.327936 0.309987
Si Si3 0.763370 0.829418 0.831927
Si Si4 0.566794 0.172624 0.360156
Si Si5 0.154657 0.175734 0.838461
O O1 0.399380 0.234169 0.820130
O O2 0.453179 0.174471 0.750524
O O3 0.528412 0.000000 0.939677
O O4 0.610127 0.271079 0.016094
O O5 0.684886 0.500000 0.294987
O O6 0.765150 0.324736 0.287586
O O7 0.810007 0.273114 0.476312
O O8 0.686069 0.726417 0.792162
O O9 0.756730 0.000000 0.850437
O O10 0.466463 0.264284 0.279857
O O11 0.559810 0.000000 0.377231
O O12 0.160705 0.000000 0.853979
O O13 0.250000 0.250000 0.000000
#
# Coordination Sequence:
#
# PCOD9225671 Si02
#       5
#     8   8   8   8   8
#     4  11  22  37  62  91 122 161 205 253 298 350
#     4  10  23  41  61  88 124 164 203 245 298 359
#     4  11  23  40  63  89 121 162 204 248 298 356
#     4  10  22  41  63  89 122 161 203 246 299 357
#     4  12  24  40  64  91 119 155 200 250 301 359
#
# _framework density 10.288066000000001
#
# number of rings (size 3 to 8) (size 9 to 14) (size 15 to 20)
#    0.000    1.200    2.000    4.200    0.000    6.400 
#    0.000    4.000    0.000    0.000    0.000    0.000 
#    0.000    0.000    0.000    0.000    0.000    0.000 
#
# Total GULP energy -111825.824788 kJ/mol
# GULP energy per Si atom -5591.291239 kJ/mol
# Density = 1.026465 g / cm^3
# Si number density = 10.288066 Si / 1000 Ang^3
#
#
#
# Elastic Constant Matrix: (Units=GPa)
#
#
# Indices 1 2 3 4 5 6 
#
# 1 75.8340 18.3899 -11.1712 0.0000 7.6374 0.0000
# 2 18.3899 86.9136 1.9292 0.0000 9.7122 0.0000
# 3 -11.1712 1.9292 38.2284 0.0000 -6.6933 0.0000
# 4 0.0000 0.0000 0.0000 26.6395 0.0000 4.8205
# 5 7.6374 9.7122 -6.6933 0.0000 26.4340 0.0000
# 6 0.0000 0.0000 0.0000 4.8205 0.0000 32.1454
#
#
#
# Elastic Compliance Matrix: (Units=1/GPa)
#
#
# Indices 1 2 3 4 5 6 
#
# 1 0.014722 -0.002967 0.004079 0.000000 -0.002130 0.000000
# 2 -0.002967 0.012673 -0.002273 0.000000 -0.004374 0.000000
# 3 0.004079 -0.002273 0.028676 0.000000 0.006918 0.000000
# 4 0.000000 0.000000 0.000000 0.038585 0.000000 -0.005786
# 5 -0.002130 -0.004374 0.006918 0.000000 0.041804 0.000000
# 6 0.000000 0.000000 0.000000 -0.005786 0.000000 0.031976
#
#
# Mechanical properties :
#
#
# Convention : Reuss Voigt Hill
#
# Bulk Modulus (GPa) = 18.60521 24.36355 21.48438
# Shear Modulus (GPa) = 26.50058 29.83234 28.16646
#
# Velocity S-wave (km/s) = 3.59266 3.81182 3.70387
# Velocity P-wave (km/s) = 5.12556 5.58925 5.36242
#
# Compressibility (1/GPa) = 0.05374838
#
# Stress axis : x y z
#
# Youngs Moduli (GPa) = 67.92690 78.90916 34.87199
#
# Poissons Ratio (x) = 0.23416 -0.14223
# Poissons Ratio (y) = 0.20157 0.07925
# Poissons Ratio (z) = -0.27706 0.17933
#
# Static dielectric constant tensor:
#      x y z
#    x 1.748210 0.000000 -0.045290 
#    y 0.000000 1.717320 0.000000 
#    z -0.045290 0.000000 1.716380 
# 
# From -- ./inp_files/151716.got.cif
#   From: 2010.05.17/outbox.ucp.g08.bks.cvg/sg12_76_cif.got.tgz:151716.got - 2010.06.11 11:47:21.
