data_PCOD9225497
_publ_section_title
;
Structure prediction by ZEFSAII (Michael W. Deem and Ramdas Pophale) SiO2 
 PCOD9225497
Probable space group: C 2/M
;
_chemical_formula_sum "Si O2"
_cell_formula_units_Z 24
_cell_length_a 30.000000
_cell_length_b 9.000000
_cell_length_c 18.000000
_cell_angle_alpha 90.000000
_cell_angle_beta 30.000000
_cell_angle_gamma 90.000000
_cell_volume 2430.000000
_symmetry_space_group_name_H-M "C 2/M"
_symmetry_group_IT_number 12
_symmetry_cell_setting 'monoclinic'
loop_
_space_group_symop_operation_xyz
x,y,z
-x,y,-z
-x,-y,-z
x,-y,z
1/2+x,1/2+y,z
1/2-x,1/2+y,-z
1/2-x,1/2-y,-z
1/2+x,1/2-y,z
loop_
_atom_site_type_symbol
_atom_site_label
_atom_site_fract_x
_atom_site_fract_y
_atom_site_fract_z
Si Si1 0.587984 0.320407 0.042910
Si Si2 0.861758 0.173679 0.191652
Si Si3 0.092794 0.322655 0.716264
Si Si4 0.657895 0.828743 0.465689
Si Si5 0.913046 0.177455 0.579567
Si Si6 0.761311 0.320888 0.066741
O O1 0.594782 0.500000 0.036144
O O2 0.491664 0.256824 0.200535
O O3 0.586900 0.275307 0.956343
O O4 0.659894 0.250021 0.995837
O O5 0.879314 0.258529 0.243471
O O6 0.762790 0.182515 0.299707
O O7 0.881663 0.000000 0.178055
O O8 0.079625 0.500000 0.743174
O O9 0.160176 0.293278 0.550885
O O10 0.605378 0.742701 0.476412
O O11 0.628278 0.000000 0.503136
O O12 0.828070 0.205225 0.755535
O O13 0.000000 0.231645 0.500000
O O14 0.922440 0.000000 0.556765
O O15 0.774156 0.500000 0.041213
O O16 0.750000 0.250000 0.000000
#
# Coordination Sequence:
#
# PCOD9225497 Si02
#       6
#     8   8   8   8   8   8
#     4  11  23  41  64  88 122 164 206 252 304 359
#     4  10  21  40  63  87 119 162 209 250 302 362
#     4  11  24  38  59  93 127 160 204 253 302 359
#     4  10  22  41  62  89 123 161 203 249 303 361
#     4  10  23  42  64  92 122 156 200 248 301 360
#     4  11  24  42  65  93 125 159 201 249 303 362
#
# _framework density 9.8765429999999999
#
# number of rings (size 3 to 8) (size 9 to 14) (size 15 to 20)
#    0.000    1.500    1.667    2.500    2.333    6.333 
#    0.000    0.000    0.000    0.000    0.000    0.000 
#    0.000    0.000    0.000    0.000    0.000    0.000 
#
# Total GULP energy -133677.785404 kJ/mol
# GULP energy per Si atom -5569.907725 kJ/mol
# Density = 0.985406 g / cm^3
# Si number density = 9.876543 Si / 1000 Ang^3
#
#
#
# Elastic Constant Matrix: (Units=GPa)
#
#
# Indices 1 2 3 4 5 6 
#
# 1 174.5885 59.9453 11.5165 -0.0019 6.4038 0.0006
# 2 59.9453 69.6553 16.6700 -0.0005 9.6131 0.0000
# 3 11.5165 16.6700 13.9478 -0.0014 -6.5037 0.0003
# 4 -0.0019 -0.0005 -0.0014 14.8285 0.0004 3.8760
# 5 6.4038 9.6131 -6.5037 0.0004 33.2983 0.0000
# 6 0.0006 0.0000 0.0003 3.8760 0.0000 54.5932
#
#
#
# Elastic Compliance Matrix: (Units=1/GPa)
#
#
# Indices 1 2 3 4 5 6 
#
# 1 0.008237 -0.008169 0.003657 0.000001 0.001488 0.000000
# 2 -0.008169 0.033263 -0.040437 -0.000004 -0.015930 0.000001
# 3 0.003657 -0.040437 0.134357 0.000012 0.037213 -0.000002
# 4 0.000001 -0.000004 0.000012 0.068713 0.000002 -0.004878
# 5 0.001488 -0.015930 0.037213 0.000002 0.041612 0.000000
# 6 0.000000 0.000001 -0.000002 -0.004878 0.000000 0.018664
#
#
# Mechanical properties :
#
#
# Convention : Reuss Voigt Hill
#
# Bulk Modulus (GPa) = 11.63365 48.27280 29.95322
# Shear Modulus (GPa) = 11.80923 31.88132 21.84528
#
# Velocity S-wave (km/s) = 2.44773 4.02181 3.32914
# Velocity P-wave (km/s) = 3.72704 6.78659 5.47488
#
# Compressibility (1/GPa) = 0.08595755
#
# Stress axis : x y z
#
# Youngs Moduli (GPa) = 121.40562 30.06376 7.44284
#
# Poissons Ratio (x) = 0.24560 -0.02721
# Poissons Ratio (y) = 0.99178 0.30097
# Poissons Ratio (z) = -0.44392 1.21569
#
# Static dielectric constant tensor:
#      x y z
#    x 1.662660 0.000000 0.037730 
#    y 0.000000 1.685080 0.000000 
#    z 0.037730 0.000000 1.786750 
# 
# From -- ./inp_files/244684.got.cif
#   From: 2010.05.17/outbox.ucp.g08.bks.cvg/sg12_123_cif.got.tgz:244684.got - 2010.06.11 11:47:21.
