data_PCOD9225158
_publ_section_title
;
Structure prediction by ZEFSAII (Michael W. Deem and Ramdas Pophale) SiO2 
 PCOD9225158
Probable space group: C 2/M
;
_chemical_formula_sum "Si O2"
_cell_formula_units_Z 28
_cell_length_a 9.000000
_cell_length_b 30.000000
_cell_length_c 21.000000
_cell_angle_alpha 90.000000
_cell_angle_beta 150.000000
_cell_angle_gamma 90.000000
_cell_volume 2835.000000
_symmetry_space_group_name_H-M "C 2/M"
_symmetry_group_IT_number 12
_symmetry_cell_setting 'monoclinic'
loop_
_space_group_symop_operation_xyz
x,y,z
-x,y,-z
-x,-y,-z
x,-y,z
1/2+x,1/2+y,z
1/2-x,1/2+y,-z
1/2-x,1/2-y,-z
1/2+x,1/2-y,z
loop_
_atom_site_type_symbol
_atom_site_label
_atom_site_fract_x
_atom_site_fract_y
_atom_site_fract_z
Si Si1 0.370226 0.447955 0.381786
Si Si2 0.310714 0.446658 0.868145
Si Si3 0.333041 0.809045 0.140426
Si Si4 0.377757 0.948837 0.024474
Si Si5 0.262874 0.761491 0.249018
Si Si6 0.191120 0.188959 0.355299
Si Si7 0.222984 0.118328 0.747642
O O1 0.500000 0.444935 0.500000
O O2 0.394543 0.500000 0.370284
O O3 0.488273 0.411992 0.375415
O O4 0.026064 0.433298 0.259837
O O5 0.290295 0.500000 0.861606
O O6 0.500000 0.432820 0.000000
O O7 0.533702 0.434347 0.894863
O O8 0.301374 0.791418 0.200676
O O9 0.462618 0.768536 0.144671
O O10 0.571201 0.847777 0.216415
O O11 0.000000 0.823158 0.000000
O O12 0.568801 0.916220 0.138111
O O13 0.394924 0.000000 0.056327
O O14 0.500000 0.949241 0.000000
O O15 0.255426 0.790384 0.310180
O O16 0.534842 0.726618 0.342020
O O17 0.500000 0.174971 0.500000
O O18 0.962099 0.148243 0.272006
#
# Coordination Sequence:
#
# PCOD9225158 Si02
#       7
#     8   8   8   8   8   8   8
#     4  10  21  38  60  85 118 159 204 248 296 350
#     4   9  16  32  61  83 103 145 201 250 286 340
#     4  10  21  35  60  88 119 149 185 236 291 351
#     4  10  21  38  59  83 117 157 201 248 295 348
#     4   9  20  40  61  85 112 154 192 225 288 357
#     4  10  21  39  61  85 117 151 194 238 287 350
#     4  11  23  36  55  91 118 152 196 247 299 338
#
# _framework density 9.8765429999999999
#
# number of rings (size 3 to 8) (size 9 to 14) (size 15 to 20)
#    0.000    2.143    1.429    1.286    2.000    2.286 
#    2.571    2.857    0.000    0.857    0.000    0.000 
#    0.000    0.000    0.000    0.000    0.000    0.000 
#
# Total GULP energy -155938.747016 kJ/mol
# GULP energy per Si atom -5569.240965 kJ/mol
# Density = 0.985406 g / cm^3
# Si number density = 9.876543 Si / 1000 Ang^3
#
#
#
# Elastic Constant Matrix: (Units=GPa)
#
#
# Indices 1 2 3 4 5 6 
#
# 1 113.8666 40.6349 15.7812 0.0010 4.8746 0.0003
# 2 40.6349 100.0194 26.4973 0.0001 -10.9222 -0.0004
# 3 15.7812 26.4973 54.1602 0.0009 6.2088 0.0112
# 4 0.0010 0.0001 0.0009 -10.9409 -0.0029 10.1603
# 5 4.8746 -10.9222 6.2088 -0.0029 18.8948 -0.0001
# 6 0.0003 -0.0004 0.0112 10.1603 -0.0001 1.9152
#
#
#
# Elastic Compliance Matrix: (Units=1/GPa)
#
#
# Indices 1 2 3 4 5 6 
#
# 1 0.010816 -0.004997 -0.000058 0.000000 -0.005660 -0.000003
# 2 -0.004997 0.015408 -0.007535 0.000007 0.012672 0.000012
# 3 -0.000058 -0.007535 0.023552 -0.000021 -0.012080 -0.000028
# 4 0.000000 0.000007 -0.000021 -0.015422 0.000009 0.081815
# 5 -0.005660 0.012672 -0.012080 0.000009 0.065679 0.000030
# 6 -0.000003 0.000012 -0.000028 0.081815 0.000030 0.088100
#
#
# Mechanical properties :
#
#
# Convention : Reuss Voigt Hill
#
# Bulk Modulus (GPa) = 40.65687 48.20812 44.43250
# Shear Modulus (GPa) = 22.57225 14.31601 18.44413
#
# Velocity S-wave (km/s) = 3.38408 2.69503 3.05902
# Velocity P-wave (km/s) = 5.99137 5.84317 5.91774
#
# Compressibility (1/GPa) = 0.02459609
#
# Stress axis : x y z
#
# Youngs Moduli (GPa) = 92.45824 64.90144 42.45952
#
# Poissons Ratio (x) = 0.32429 0.00247
# Poissons Ratio (y) = 0.46199 0.31993
# Poissons Ratio (z) = 0.00537 0.48903
#
# Static dielectric constant tensor:
#      x y z
#    x 1.752120 0.000000 0.014260 
#    y 0.000000 1.731480 -0.000010 
#    z 0.014260 -0.000010 1.692900 
# 
# From -- ./inp_files/303056.got.cif
#   From: 2010.05.17/outbox.ucp.g08.bks.cvg/sg12_152_cif.got.tgz:303056.got - 2010.06.11 11:47:21.
