data_PCOD9225475
_publ_section_title
;
Structure prediction by ZEFSAII (Michael W. Deem and Ramdas Pophale) SiO2 
 PCOD9225475
Probable space group: C 2/M
;
_chemical_formula_sum "Si O2"
_cell_formula_units_Z 32
_cell_length_a 18.000000
_cell_length_b 9.000000
_cell_length_c 30.000000
_cell_angle_alpha 90.000000
_cell_angle_beta 140.000000
_cell_angle_gamma 90.000000
_cell_volume 3123.947783
_symmetry_space_group_name_H-M "C 2/M"
_symmetry_group_IT_number 12
_symmetry_cell_setting 'monoclinic'
loop_
_space_group_symop_operation_xyz
x,y,z
-x,y,-z
-x,-y,-z
x,-y,z
1/2+x,1/2+y,z
1/2-x,1/2+y,-z
1/2-x,1/2-y,-z
1/2+x,1/2-y,z
loop_
_atom_site_type_symbol
_atom_site_label
_atom_site_fract_x
_atom_site_fract_y
_atom_site_fract_z
Si Si1 0.554029 0.171207 0.420475
Si Si2 0.587171 0.671165 0.351598
Si Si3 0.166648 0.665854 0.568540
Si Si4 0.833249 0.828840 0.346106
Si Si5 0.186622 0.174488 0.212510
Si Si6 0.164734 0.177324 0.796358
Si Si7 0.760322 0.324395 0.077810
Si Si8 0.916731 0.175491 0.075683
O O1 0.621741 0.222676 0.408212
O O2 0.620011 0.187021 0.497375
O O3 0.442909 0.276188 0.368264
O O4 0.518996 0.000000 0.400420
O O5 0.574367 0.500000 0.361555
O O6 0.695463 0.670882 0.368925
O O7 0.469070 0.719487 0.273877
O O8 0.130499 0.500000 0.567048
O O9 0.130201 0.786551 0.587237
O O10 0.726456 0.734359 0.278733
O O11 0.808976 0.000000 0.329677
O O12 0.260205 0.260255 0.209547
O O13 0.052328 0.198782 0.141459
O O14 0.211176 0.000000 0.220977
O O15 0.213298 0.241146 0.864597
O O16 0.169819 0.000000 0.799565
O O17 0.767777 0.500000 0.088976
O O18 0.851966 0.272489 0.082749
O O19 0.637473 0.291225 0.997659
O O20 0.892692 0.000000 0.073415
#
# Coordination Sequence:
#
# PCOD9225475 Si02
#       8
#     8   8   8   8   8   8   8   8
#     4  11  22  39  64  88 117 156 201 247 296 357
#     4  10  22  40  61  86 121 158 196 247 300 351
#     4  10  23  41  61  88 118 156 201 246 299 356
#     4  12  25  40  59  88 122 156 198 248 302 355
#     4  11  23  41  64  87 118 159 202 247 296 352
#     4  11  23  39  60  89 124 161 200 243 295 352
#     4  10  21  39  64  93 125 159 198 242 291 351
#     4   9  21  41  64  91 123 160 198 243 297 348
#
# _framework density 10.243449
#
# number of rings (size 3 to 8) (size 9 to 14) (size 15 to 20)
#    0.000    1.500    1.250    3.375    1.750    5.500 
#    0.000    2.500    0.000    0.000    0.000    0.000 
#    0.000    0.000    0.000    0.000    0.000    0.000 
#
# Total GULP energy -178698.229781 kJ/mol
# GULP energy per Si atom -5584.319681 kJ/mol
# Density = 1.022013 g / cm^3
# Si number density = 10.243449 Si / 1000 Ang^3
#
#
#
# Elastic Constant Matrix: (Units=GPa)
#
#
# Indices 1 2 3 4 5 6 
#
# 1 46.6827 33.3706 31.4862 0.0000 -7.2075 0.0000
# 2 33.3706 40.8048 48.5770 0.0000 -1.6694 0.0000
# 3 31.4862 48.5770 102.8675 0.0000 -7.2826 0.0000
# 4 0.0000 0.0000 0.0000 24.6924 0.0000 -11.0485
# 5 -7.2075 -1.6694 -7.2826 0.0000 29.4706 0.0000
# 6 0.0000 0.0000 0.0000 -11.0485 0.0000 23.2774
#
#
#
# Elastic Compliance Matrix: (Units=1/GPa)
#
#
# Indices 1 2 3 4 5 6 
#
# 1 0.061454 -0.065084 0.012954 0.000000 0.014544 0.000000
# 2 -0.065084 0.125244 -0.040557 0.000000 -0.018845 0.000000
# 3 0.012954 -0.040557 0.025414 0.000000 0.007151 0.000000
# 4 0.000000 0.000000 0.000000 0.051418 0.000000 0.024405
# 5 0.014544 -0.018845 0.007151 0.000000 0.038189 0.000000
# 6 0.000000 0.000000 0.000000 0.024405 0.000000 0.054544
#
#
# Mechanical properties :
#
#
# Convention : Reuss Voigt Hill
#
# Bulk Modulus (GPa) = 37.39853 46.35805 41.87829
# Shear Modulus (GPa) = 9.08183 20.61618 14.84900
#
# Velocity S-wave (km/s) = 2.10775 3.17568 2.69514
# Velocity P-wave (km/s) = 4.92118 6.01031 5.49281
#
# Compressibility (1/GPa) = 0.02673902
#
# Stress axis : x y z
#
# Youngs Moduli (GPa) = 16.27227 7.98443 39.34774
#
# Poissons Ratio (x) = 0.51966 -0.50972
# Poissons Ratio (y) = 1.05907 1.59581
# Poissons Ratio (z) = -0.21079 0.32382
#
# Static dielectric constant tensor:
#      x y z
#    x 1.750090 0.000000 0.014270 
#    y 0.000000 1.696860 0.000000 
#    z 0.014270 0.000000 1.733680 
# 
# From -- ./inp_files/378356.got.cif
#   From: 2010.05.17/outbox.ucp.g08.bks.cvg/sg12_190_cif.got.tgz:378356.got - 2010.06.11 11:47:21.
