data_PCOD9225263
_publ_section_title
;
Structure prediction by ZEFSAII (Michael W. Deem and Ramdas Pophale) SiO2 
 PCOD9225263
Probable space group: C 2/M
;
_chemical_formula_sum "Si O2"
_cell_formula_units_Z 32
_cell_length_a 21.000000
_cell_length_b 9.000000
_cell_length_c 21.000000
_cell_angle_alpha 90.000000
_cell_angle_beta 60.000000
_cell_angle_gamma 90.000000
_cell_volume 3437.254828
_symmetry_space_group_name_H-M "C 2/M"
_symmetry_group_IT_number 12
_symmetry_cell_setting 'monoclinic'
loop_
_space_group_symop_operation_xyz
x,y,z
-x,y,-z
-x,-y,-z
x,-y,z
1/2+x,1/2+y,z
1/2-x,1/2+y,-z
1/2-x,1/2-y,-z
1/2+x,1/2-y,z
loop_
_atom_site_type_symbol
_atom_site_label
_atom_site_fract_x
_atom_site_fract_y
_atom_site_fract_z
Si Si1 0.192704 0.180143 0.821912
Si Si2 0.231753 0.179693 0.440476
Si Si3 0.935835 0.819711 0.484109
Si Si4 0.670848 0.176074 0.053295
Si Si5 0.858997 0.819819 0.291648
Si Si6 0.491008 0.321183 0.316734
Si Si7 0.580003 0.679730 0.989144
Si Si8 0.147371 0.323610 0.215798
O O1 0.152850 0.221733 0.776119
O O2 0.142304 0.223727 0.906679
O O3 0.277117 0.231190 0.788385
O O4 0.195630 0.000000 0.821658
O O5 0.250000 0.250000 0.500000
O O6 0.148754 0.223267 0.460550
O O7 0.292829 0.243791 0.362823
O O8 0.234903 0.000000 0.442636
O O9 0.954561 0.776894 0.402210
O O10 0.000000 0.766524 0.500000
O O11 0.937279 0.000000 0.485996
O O12 0.656127 0.196401 0.135561
O O13 0.675086 0.000000 0.038220
O O14 0.750000 0.250000 0.000000
O O15 0.606979 0.247926 0.041611
O O16 0.936251 0.777179 0.286372
O O17 0.853124 0.000000 0.299868
O O18 0.496061 0.500000 0.313085
O O19 0.572357 0.255381 0.272970
O O20 0.580395 0.500000 0.996289
O O21 0.500000 0.719897 0.000000
O O22 0.140838 0.500000 0.231729
#
# Coordination Sequence:
#
# PCOD9225263 Si02
#       8
#     8   8   8   8   8   8   8   8
#     4   9  19  38  58  81 117 153 185 233 288 339
#     4  11  21  37  61  84 111 147 189 235 284 337
#     4   9  19  36  56  80 113 147 181 230 283 327
#     4  11  22  39  62  85 116 153 195 246 295 347
#     4  10  21  38  59  83 114 150 190 233 282 337
#     4  10  21  37  58  84 112 147 192 233 275 338
#     4  10  21  38  63  89 116 154 200 240 288 355
#     4  10  22  39  57  81 117 153 185 232 292 343
#
# _framework density 9.3097549999999991
#
# number of rings (size 3 to 8) (size 9 to 14) (size 15 to 20)
#    0.000    2.000    2.500    0.750    3.500    1.750 
#    0.000    0.625    0.000    1.875    0.000    0.000 
#    0.000    0.000    0.000    0.000    0.000    0.000 
#
# Total GULP energy -178585.350184 kJ/mol
# GULP energy per Si atom -5580.792193 kJ/mol
# Density = 0.928857 g / cm^3
# Si number density = 9.309755 Si / 1000 Ang^3
#
#
#
# Elastic Constant Matrix: (Units=GPa)
#
#
# Indices 1 2 3 4 5 6 
#
# 1 163.0407 13.9968 19.0198 0.0000 -0.1682 -0.0004
# 2 13.9968 18.0739 6.7040 0.0000 1.4073 -0.0012
# 3 19.0198 6.7040 35.4395 0.0000 -3.6923 0.0000
# 4 0.0000 0.0000 0.0000 24.3744 0.0000 -3.7534
# 5 -0.1682 1.4073 -3.6923 0.0000 41.1899 0.0000
# 6 -0.0004 -0.0012 0.0000 -3.7534 0.0000 30.5960
#
#
#
# Elastic Compliance Matrix: (Units=1/GPa)
#
#
# Indices 1 2 3 4 5 6 
#
# 1 0.006831 -0.004216 -0.002877 0.000000 -0.000086 0.000000
# 2 -0.004216 0.062493 -0.009875 0.000000 -0.003038 0.000002
# 3 -0.002877 -0.009875 0.031962 0.000000 0.003191 0.000000
# 4 0.000000 0.000000 0.000000 0.041817 0.000000 0.005130
# 5 -0.000086 -0.003038 0.003191 0.000000 0.024667 0.000000
# 6 0.000000 0.000002 0.000000 0.005130 0.000000 0.033313
#
#
# Mechanical properties :
#
#
# Convention : Reuss Voigt Hill
#
# Bulk Modulus (GPa) = 14.84825 32.88837 23.86831
# Shear Modulus (GPa) = 19.41971 31.02096 25.22033
#
# Velocity S-wave (km/s) = 3.23302 4.08615 3.68436
# Velocity P-wave (km/s) = 4.68278 6.32170 5.56293
#
# Compressibility (1/GPa) = 0.06734801
#
# Stress axis : x y z
#
# Youngs Moduli (GPa) = 146.39212 16.00178 31.28723
#
# Poissons Ratio (x) = 0.06746 0.09003
# Poissons Ratio (y) = 0.61719 0.30898
# Poissons Ratio (z) = 0.42124 0.15802
#
# Static dielectric constant tensor:
#      x y z
#    x 1.640870 0.000000 0.010390 
#    y 0.000000 1.626720 0.000000 
#    z 0.010390 0.000000 1.653170 
# 
# From -- ./inp_files/319984.got.cif
#   From: 2010.05.17/outbox.ucp.g08.bks.cvg/sg12_160_cif.got.tgz:319984.got - 2010.06.11 11:47:21.
