data_PCOD9225955
_publ_section_title
;
Structure prediction by ZEFSAII (Michael W. Deem and Ramdas Pophale) SiO2 
 PCOD9225955
Probable space group: C 2/M
;
_chemical_formula_sum "Si O2"
_cell_formula_units_Z 24
_cell_length_a 9.000000
_cell_length_b 24.000000
_cell_length_c 12.000000
_cell_angle_alpha 90.000000
_cell_angle_beta 110.000000
_cell_angle_gamma 90.000000
_cell_volume 2435.683273
_symmetry_space_group_name_H-M "C 2/M"
_symmetry_group_IT_number 12
_symmetry_cell_setting 'monoclinic'
loop_
_space_group_symop_operation_xyz
x,y,z
-x,y,-z
-x,-y,-z
x,-y,z
1/2+x,1/2+y,z
1/2-x,1/2+y,-z
1/2-x,1/2-y,-z
1/2+x,1/2-y,z
loop_
_atom_site_type_symbol
_atom_site_label
_atom_site_fract_x
_atom_site_fract_y
_atom_site_fract_z
Si Si1 0.326238 0.109912 0.283205
Si Si2 0.813735 0.066574 0.984816
Si Si3 0.680755 0.614440 0.764219
Si Si4 0.653523 0.500000 0.617090
Si Si5 0.137847 0.677244 0.366396
Si Si6 0.681234 0.000000 0.571682
Si Si7 0.375346 0.310456 0.634967
O O1 0.501821 0.131951 0.359015
O O2 0.230914 0.165847 0.291627
O O3 0.277059 0.056025 0.346436
O O4 0.288317 0.091565 0.145469
O O5 0.796775 0.098730 0.099406
O O6 0.777088 0.000000 0.988164
O O7 0.000000 0.070544 0.000000
O O8 0.669092 0.555213 0.696364
O O9 0.811792 0.654256 0.741837
O O10 0.527214 0.650786 0.691622
O O11 0.500000 0.500000 0.500000
O O12 0.769700 0.500000 0.544017
O O13 0.278922 0.675963 0.495393
O O14 0.092729 0.743551 0.353661
O O15 0.500000 0.000000 0.500000
#
# Coordination Sequence:
#
# PCOD9225955 Si02
#       7
#     8   8   8   4   8   4   8
#     4  12  23  43  67  97 131 178 223 264 333 398
#     4  11  24  45  68  94 133 184 221 268 330 401
#     4  12  23  43  66  98 131 172 225 269 329 391
#     4  12  24  35  63 101 125 158 213 285 327 381
#     4  11  25  42  67 100 136 174 215 276 335 386
#     4  12  24  39  63  99 137 164 205 277 347 397
#     4  11  23  44  68  96 136 177 218 267 332 397
#
# _framework density 9.8534980000000001
#
# number of rings (size 3 to 8) (size 9 to 14) (size 15 to 20)
#    0.000    0.500    3.333    7.000    0.000    3.333 
#    0.000    5.833    0.000    0.000    0.000    0.000 
#    0.000    0.000    0.000    0.000    0.000    0.000 
#
# Total GULP energy -133844.275502 kJ/mol
# GULP energy per Si atom -5576.844813 kJ/mol
# Density = 0.983107 g / cm^3
# Si number density = 9.853498 Si / 1000 Ang^3
#
#
#
# Elastic Constant Matrix: (Units=GPa)
#
#
# Indices 1 2 3 4 5 6 
#
# 1 19.6488 -14.6760 -15.4897 0.0000 -12.1778 0.0000
# 2 -14.6760 127.8402 44.0059 0.0000 -10.5043 0.0000
# 3 -15.4897 44.0059 136.3281 0.0000 -21.4748 0.0000
# 4 0.0000 0.0000 0.0000 43.2483 0.0000 -3.6865
# 5 -12.1778 -10.5043 -21.4748 0.0000 30.7162 0.0000
# 6 0.0000 0.0000 0.0000 -3.6865 0.0000 28.1760
#
#
#
# Elastic Compliance Matrix: (Units=1/GPa)
#
#
# Indices 1 2 3 4 5 6 
#
# 1 0.112548 0.011523 0.018787 0.000000 0.061696 0.000000
# 2 0.011523 0.010016 -0.000747 0.000000 0.007472 0.000000
# 3 0.018787 -0.000747 0.012186 0.000000 0.015712 0.000000
# 4 0.000000 0.000000 0.000000 0.023383 0.000000 0.003059
# 5 0.061696 0.007472 0.015712 0.000000 0.070556 0.000000
# 6 0.000000 0.000000 0.000000 0.003059 0.000000 0.035891
#
#
# Mechanical properties :
#
#
# Convention : Reuss Voigt Hill
#
# Bulk Modulus (GPa) = 5.15794 34.61081 19.88438
# Shear Modulus (GPa) = 18.51299 38.42658 28.46978
#
# Velocity S-wave (km/s) = 3.06831 4.42055 3.80498
# Velocity P-wave (km/s) = 3.89560 6.60726 5.42363
#
# Compressibility (1/GPa) = 0.19387598
#
# Stress axis : x y z
#
# Youngs Moduli (GPa) = 8.88509 99.83880 82.06145
#
# Poissons Ratio (x) = -1.15045 -1.54167
# Poissons Ratio (y) = -0.10238 0.06130
# Poissons Ratio (z) = -0.16692 0.07458
#
# Static dielectric constant tensor:
#      x y z
#    x 1.649320 0.000000 -0.057930 
#    y 0.000000 1.636110 0.000000 
#    z -0.057930 0.000000 1.631570 
# 
# From -- ./inp_files/122614.got.cif
#   From: 2010.05.17/outbox.ucp.g08.bks.cvg/sg12_62_cif.got.tgz:122614.got - 2010.06.11 11:47:21.
