data_PCOD9225097
_publ_section_title
;
Structure prediction by ZEFSAII (Michael W. Deem and Ramdas Pophale) SiO2 
 PCOD9225097
Probable space group: C 2/M
;
_chemical_formula_sum "Si O2"
_cell_formula_units_Z 28
_cell_length_a 18.000000
_cell_length_b 21.000000
_cell_length_c 21.000000
_cell_angle_alpha 90.000000
_cell_angle_beta 20.000000
_cell_angle_gamma 90.000000
_cell_volume 2714.955898
_symmetry_space_group_name_H-M "C 2/M"
_symmetry_group_IT_number 12
_symmetry_cell_setting 'monoclinic'
loop_
_space_group_symop_operation_xyz
x,y,z
-x,y,-z
-x,-y,-z
x,-y,z
1/2+x,1/2+y,z
1/2-x,1/2+y,-z
1/2-x,1/2-y,-z
1/2+x,1/2-y,z
loop_
_atom_site_type_symbol
_atom_site_label
_atom_site_fract_x
_atom_site_fract_y
_atom_site_fract_z
Si Si1 0.724005 0.572257 0.349405
Si Si2 0.415784 0.569253 0.393342
Si Si3 0.711804 0.262641 0.956127
Si Si4 0.056037 0.353202 0.611407
Si Si5 0.237886 0.926186 0.776515
Si Si6 0.128264 0.632627 0.963294
Si Si7 0.780462 0.692585 0.648924
O O1 0.500000 0.598199 0.500000
O O2 0.756598 0.500000 0.296629
O O3 0.678926 0.567335 0.459720
O O4 0.937347 0.612984 0.165205
O O5 0.393527 0.500000 0.380200
O O6 0.260993 0.617932 0.482204
O O7 0.670027 0.584777 0.195426
O O8 0.736720 0.199186 0.894547
O O9 0.882743 0.314949 0.793615
O O10 0.750000 0.250000 0.000000
O O11 0.458301 0.279699 0.149237
O O12 0.164113 0.310463 0.469722
O O13 0.915566 0.405937 0.686090
O O14 0.264556 0.876539 0.696924
O O15 0.261086 0.000000 0.739041
O O16 0.000000 0.917862 0.000000
O O17 0.000000 0.634054 0.000000
O O18 0.000000 0.724586 0.500000
#
# Coordination Sequence:
#
# PCOD9225097 Si02
#       7
#     8   8   8   8   8   8   8
#     4  10  21  41  65  92 128 168 214 269 325 383
#     4  11  24  43  67  98 132 168 214 270 329 392
#     4  12  27  46  64  93 138 177 226 276 331 397
#     4  11  24  43  69  96 136 175 222 271 337 397
#     4  10  20  40  71 100 132 171 217 277 339 405
#     4  12  26  40  68  96 128 173 219 268 321 389
#     4  10  24  42  68  97 132 176 221 276 330 398
#
# _framework density 10.313243
#
# number of rings (size 3 to 8) (size 9 to 14) (size 15 to 20)
#    0.000    1.143    2.857    2.571    4.000    7.714 
#    0.000    0.000    0.000    0.000    0.000    0.000 
#    0.000    0.000    0.000    0.000    0.000    0.000 
#
# Total GULP energy -156322.261101 kJ/mol
# GULP energy per Si atom -5582.937896 kJ/mol
# Density = 1.028977 g / cm^3
# Si number density = 10.313243 Si / 1000 Ang^3
#
#
#
# Elastic Constant Matrix: (Units=GPa)
#
#
# Indices 1 2 3 4 5 6 
#
# 1 85.1294 21.5176 30.4399 -0.2757 -7.5784 -0.0162
# 2 21.5176 51.8815 24.6994 -0.4352 -8.3626 0.0865
# 3 30.4399 24.6994 110.2013 -0.6855 -5.7342 -0.0747
# 4 -0.2757 -0.4352 -0.6855 15.0983 0.0558 -9.6031
# 5 -7.5784 -8.3626 -5.7342 0.0558 27.9377 0.0788
# 6 -0.0162 0.0865 -0.0747 -9.6031 0.0788 7.6125
#
#
#
# Elastic Compliance Matrix: (Units=1/GPa)
#
#
# Indices 1 2 3 4 5 6 
#
# 1 0.013980 -0.004131 -0.002832 0.000093 0.001974 0.000146
# 2 -0.004131 0.023679 -0.003891 0.000892 0.005165 0.000756
# 3 -0.002832 -0.003891 0.010757 0.002091 0.000263 0.002779
# 4 0.000093 0.000892 0.002091 0.335841 -0.001145 0.423686
# 5 0.001974 0.005165 0.000263 -0.001145 0.037937 -0.001889
# 6 0.000146 0.000756 0.002779 0.423686 -0.001889 0.665882
#
#
# Mechanical properties :
#
#
# Convention : Reuss Voigt Hill
#
# Bulk Modulus (GPa) = 37.44312 44.50291 40.97302
# Shear Modulus (GPa) = 4.46952 21.50003 12.98478
#
# Velocity S-wave (km/s) = 1.47363 3.23205 2.51174
# Velocity P-wave (km/s) = 4.59214 5.96243 5.32158
#
# Compressibility (1/GPa) = 0.02670717
#
# Stress axis : x y z
#
# Youngs Moduli (GPa) = 71.53200 42.23101 92.95954
#
# Poissons Ratio (x) = 0.17446 0.26328
# Poissons Ratio (y) = 0.29550 0.36174
# Poissons Ratio (z) = 0.20260 0.16434
#
# Static dielectric constant tensor:
#      x y z
#    x 1.766090 -0.000130 -0.032170 
#    y -0.000130 1.749020 0.000350 
#    z -0.032170 0.000350 1.746930 
# 
# From -- ./inp_files/318000.got.cif
#   From: 2010.05.17/outbox.ucp.g08.bks.cvg/sg12_159_cif.got.tgz:318000.got - 2010.06.11 11:47:21.
