data_PCOD9225565
_publ_section_title
;
Structure prediction by ZEFSAII (Michael W. Deem and Ramdas Pophale) SiO2 
 PCOD9225565
Probable space group: C 2/M
;
_chemical_formula_sum "Si O2"
_cell_formula_units_Z 28
_cell_length_a 9.000000
_cell_length_b 21.000000
_cell_length_c 30.000000
_cell_angle_alpha 90.000000
_cell_angle_beta 150.000000
_cell_angle_gamma 90.000000
_cell_volume 2835.000000
_symmetry_space_group_name_H-M "C 2/M"
_symmetry_group_IT_number 12
_symmetry_cell_setting 'monoclinic'
loop_
_space_group_symop_operation_xyz
x,y,z
-x,y,-z
-x,-y,-z
x,-y,z
1/2+x,1/2+y,z
1/2-x,1/2+y,-z
1/2-x,1/2-y,-z
1/2+x,1/2-y,z
loop_
_atom_site_type_symbol
_atom_site_label
_atom_site_fract_x
_atom_site_fract_y
_atom_site_fract_z
Si Si1 0.569598 0.570216 0.964822
Si Si2 0.242101 0.929704 0.851128
Si Si3 0.179838 0.325731 0.820745
Si Si4 0.312043 0.159463 0.586636
Si Si5 0.634520 0.791730 0.582207
Si Si6 0.142934 0.425770 0.739181
Si Si7 0.770303 0.190584 0.217644
O O1 0.440489 0.500000 0.917532
O O2 0.453517 0.633039 0.910440
O O3 0.500000 0.575261 0.000000
O O4 0.918051 0.567411 0.046383
O O5 0.230467 0.868168 0.816541
O O6 0.001122 0.923414 0.827680
O O7 0.176423 0.000000 0.812760
O O8 0.034621 0.378974 0.750293
O O9 0.220583 0.259255 0.804888
O O10 0.998526 0.309742 0.817896
O O11 0.428433 0.192479 0.571318
O O12 0.225192 0.217935 0.596954
O O13 0.537344 0.110178 0.666836
O O14 0.000000 0.124158 0.500000
O O15 0.500000 0.813743 0.500000
O O16 0.945177 0.820961 0.677204
O O17 0.053552 0.500000 0.719002
#
# Coordination Sequence:
#
# PCOD9225565 Si02
#       7
#     8   8   8   8   8   8   8
#     4  10  21  42  67  94 127 169 215 260 315 381
#     4  10  22  43  67  91 126 172 211 256 318 381
#     4  12  25  40  65  96 128 166 217 268 314 382
#     4  11  22  38  64  93 127 164 207 263 317 381
#     4  11  22  38  65  97 124 166 210 257 315 376
#     4  11  24  42  64  92 127 170 214 263 321 379
#     4  12  23  40  67  95 129 166 211 266 319 372
#
# _framework density 9.8765429999999999
#
# number of rings (size 3 to 8) (size 9 to 14) (size 15 to 20)
#    0.000    1.000    4.286    3.857    2.000    2.000 
#    0.000    2.143    0.000    0.857    0.000    0.000 
#    0.000    0.000    0.000    0.000    0.000    0.000 
#
# Total GULP energy -156013.933772 kJ/mol
# GULP energy per Si atom -5571.926206 kJ/mol
# Density = 0.985406 g / cm^3
# Si number density = 9.876543 Si / 1000 Ang^3
#
#
#
# Elastic Constant Matrix: (Units=GPa)
#
#
# Indices 1 2 3 4 5 6 
#
# 1 1.6832 46.1819 -17.4465 0.0587 -6.9452 0.0117
# 2 46.1819 156.7263 24.4405 0.0148 -19.9659 0.0059
# 3 -17.4465 24.4405 54.5861 0.0456 0.2209 0.0058
# 4 0.0587 0.0148 0.0456 15.9155 0.0199 6.8593
# 5 -6.9452 -19.9659 0.2209 0.0199 28.9188 0.0045
# 6 0.0117 0.0059 0.0058 6.8593 0.0045 19.3032
#
#
#
# Elastic Compliance Matrix: (Units=1/GPa)
#
#
# Indices 1 2 3 4 5 6 
#
# 1 -0.041836 0.015617 -0.020368 0.000219 0.000890 -0.000051
# 2 0.015617 0.001754 0.004186 -0.000085 0.004930 0.000018
# 3 -0.020368 0.004186 0.009944 0.000049 -0.002077 -0.000009
# 4 0.000219 -0.000085 0.000049 0.074194 -0.000053 -0.026365
# 5 0.000890 0.004930 -0.002077 -0.000053 0.038213 0.000009
# 6 -0.000051 0.000018 -0.000009 -0.026365 0.000009 0.061174
#
#
# Mechanical properties :
#
#
# Convention : Reuss Voigt Hill
#
# Bulk Modulus (GPa) = -31.98278 35.48305 1.75014
# Shear Modulus (GPa) = 37.27249 23.48213 30.37731
#
# Velocity S-wave (km/s) = 4.34858 3.45161 3.92580
# Velocity P-wave (km/s) = 2.99785 5.82127 4.63002
#
# Compressibility (1/GPa) = -0.03126682
#
# Stress axis : x y z
#
# Youngs Moduli (GPa) = -23.90267 570.19301 100.56546
#
# Poissons Ratio (x) = -8.90493 2.04830
# Poissons Ratio (y) = 0.37330 -0.42101
# Poissons Ratio (z) = -0.48685 -2.38706
#
# Static dielectric constant tensor:
#      x y z
#    x 1.731470 0.000000 0.007610 
#    y 0.000000 1.673380 0.000000 
#    z 0.007610 0.000000 1.831120 
# 
# From -- ./inp_files/258220.got.cif
#   From: 2010.05.17/outbox.ucp.g08.bks.cvg/sg12_130_cif.got.tgz:258220.got - 2010.06.11 11:47:21.
