data_PCOD9225443
_publ_section_title
;
Structure prediction by ZEFSAII (Michael W. Deem and Ramdas Pophale) SiO2 
 PCOD9225443
Probable space group: C 2/M
;
_chemical_formula_sum "Si O2"
_cell_formula_units_Z 28
_cell_length_a 15.000000
_cell_length_b 9.000000
_cell_length_c 24.000000
_cell_angle_alpha 90.000000
_cell_angle_beta 120.000000
_cell_angle_gamma 90.000000
_cell_volume 2805.922308
_symmetry_space_group_name_H-M "C 2/M"
_symmetry_group_IT_number 12
_symmetry_cell_setting 'monoclinic'
loop_
_space_group_symop_operation_xyz
x,y,z
-x,y,-z
-x,-y,-z
x,-y,z
1/2+x,1/2+y,z
1/2-x,1/2+y,-z
1/2-x,1/2-y,-z
1/2+x,1/2-y,z
loop_
_atom_site_type_symbol
_atom_site_label
_atom_site_fract_x
_atom_site_fract_y
_atom_site_fract_z
Si Si1 0.865616 0.329188 0.199568
Si Si2 0.478988 0.170628 0.652702
Si Si3 0.726500 0.675887 0.433607
Si Si4 0.418442 0.819947 0.428187
Si Si5 0.548510 0.676546 0.883693
Si Si6 0.616215 0.168285 0.011360
Si Si7 0.167190 0.678131 0.149148
O O1 0.837091 0.500000 0.177906
O O2 0.960917 0.329848 0.271302
O O3 0.772316 0.248921 0.202822
O O4 0.901847 0.244370 0.155818
O O5 0.383758 0.278542 0.622301
O O6 0.550558 0.220499 0.623972
O O7 0.444974 0.000000 0.630076
O O8 0.736328 0.500000 0.443335
O O9 0.750000 0.750000 0.500000
O O10 0.808575 0.731329 0.414340
O O11 0.500000 0.769151 0.500000
O O12 0.418629 0.000000 0.429654
O O13 0.541363 0.500000 0.878160
O O14 0.615180 0.724948 0.958511
O O15 0.435509 0.748038 0.858683
O O16 0.643834 0.000000 0.003105
O O17 0.500000 0.162970 0.000000
O O18 0.676059 0.212670 0.085435
O O19 0.160738 0.500000 0.152938
#
# Coordination Sequence:
#
# PCOD9225443 Si02
#       7
#     8   8   8   8   8   8   8
#     4  11  24  40  59  84 118 160 203 248 297 359
#     4  10  22  41  60  83 115 151 194 239 289 346
#     4  11  21  35  60  89 117 150 186 230 284 343
#     4   9  17  34  60  84 112 148 181 223 281 341
#     4  11  22  37  60  87 119 158 201 247 298 359
#     4   8  16  33  57  85 116 151 193 247 304 353
#     4  10  21  39  62  87 119 155 197 250 304 358
#
# _framework density 9.9788940000000004
#
# number of rings (size 3 to 8) (size 9 to 14) (size 15 to 20)
#    0.000    2.000    1.429    3.429    0.000    6.000 
#    0.000    3.571    0.000    0.000    0.000    0.000 
#    0.000    0.000    0.000    0.000    0.000    0.000 
#
# Total GULP energy -156215.993710 kJ/mol
# GULP energy per Si atom -5579.142632 kJ/mol
# Density = 0.995618 g / cm^3
# Si number density = 9.978894 Si / 1000 Ang^3
#
#
#
# Elastic Constant Matrix: (Units=GPa)
#
#
# Indices 1 2 3 4 5 6 
#
# 1 124.0484 42.2141 25.6286 0.0000 -0.3488 0.0000
# 2 42.2141 65.0280 11.2616 0.0000 4.0497 0.0000
# 3 25.6286 11.2616 26.5598 0.0000 5.2276 0.0000
# 4 0.0000 0.0000 0.0000 147.9012 0.0000 15.9610
# 5 -0.3488 4.0497 5.2276 0.0000 23.8297 0.0000
# 6 0.0000 0.0000 0.0000 15.9610 0.0000 27.7096
#
#
#
# Elastic Compliance Matrix: (Units=1/GPa)
#
#
# Indices 1 2 3 4 5 6 
#
# 1 0.012309 -0.006509 -0.009794 0.000000 0.003435 0.000000
# 2 -0.006509 0.020079 -0.001612 0.000000 -0.003154 0.000000
# 3 -0.009794 -0.001612 0.049915 0.000000 -0.010819 0.000000
# 4 0.000000 0.000000 0.000000 0.007209 0.000000 -0.004153
# 5 0.003435 -0.003154 -0.010819 0.000000 0.044924 0.000000
# 6 0.000000 0.000000 0.000000 -0.004153 0.000000 0.038481
#
#
# Mechanical properties :
#
#
# Convention : Reuss Voigt Hill
#
# Bulk Modulus (GPa) = 21.51803 41.53833 31.52818
# Shear Modulus (GPa) = 22.29766 48.99022 35.64394
#
# Velocity S-wave (km/s) = 3.34614 4.95986 4.23065
# Velocity P-wave (km/s) = 5.07288 7.32520 6.30050
#
# Compressibility (1/GPa) = 0.04647266
#
# Stress axis : x y z
#
# Youngs Moduli (GPa) = 81.23844 49.80372 20.03408
#
# Poissons Ratio (x) = 0.32415 0.19622
# Poissons Ratio (y) = 0.52875 0.03230
# Poissons Ratio (z) = 0.79567 0.08030
#
# Static dielectric constant tensor:
#      x y z
#    x 1.714490 0.000000 0.051970 
#    y 0.000000 1.719320 0.000000 
#    z 0.051970 0.000000 1.744500 
# 
# From -- ./inp_files/339097.got.cif
#   From: 2010.05.17/outbox.ucp.g08.bks.cvg/sg12_170_cif.got.tgz:339097.got - 2010.06.11 11:47:21.
