data_PCOD9225682
_publ_section_title
;
Structure prediction by ZEFSAII (Michael W. Deem and Ramdas Pophale) SiO2 
 PCOD9225682
Probable space group: C 2/M
;
_chemical_formula_sum "Si O2"
_cell_formula_units_Z 20
_cell_length_a 18.000000
_cell_length_b 9.000000
_cell_length_c 12.000000
_cell_angle_alpha 90.000000
_cell_angle_beta 90.000000
_cell_angle_gamma 90.000000
_cell_volume 1944.000000
_symmetry_space_group_name_H-M "C 2/M"
_symmetry_group_IT_number 12
_symmetry_cell_setting 'monoclinic'
loop_
_space_group_symop_operation_xyz
x,y,z
-x,y,-z
-x,-y,-z
x,-y,z
1/2+x,1/2+y,z
1/2-x,1/2+y,-z
1/2-x,1/2-y,-z
1/2+x,1/2-y,z
loop_
_atom_site_type_symbol
_atom_site_label
_atom_site_fract_x
_atom_site_fract_y
_atom_site_fract_z
Si Si1 0.818456 0.331123 0.942682
Si Si2 0.929437 0.170402 0.082522
Si Si3 0.688488 0.323235 0.278328
Si Si4 0.589773 0.674016 0.497022
Si Si5 0.364884 0.823804 0.283557
O O1 0.800124 0.500000 0.922426
O O2 0.844175 0.254188 0.829947
O O3 0.750000 0.250000 0.000000
O O4 0.882068 0.303554 0.030806
O O5 0.921925 0.221392 0.211311
O O6 0.899289 0.000000 0.076902
O O7 0.000000 0.166173 0.000000
O O8 0.686489 0.500000 0.264149
O O9 0.636758 0.290331 0.384802
O O10 0.776671 0.282075 0.273778
O O11 0.500000 0.683767 0.500000
O O12 0.607663 0.500000 0.522994
O O13 0.617423 0.787207 0.589467
O O14 0.372465 0.000000 0.259841
#
# Coordination Sequence:
#
# PCOD9225682 Si02
#       5
#     8   8   8   8   8
#     4  12  24  40  65  96 129 166 209 257 312 373
#     4  11  25  43  65  92 127 170 211 257 314 377
#     4  10  22  41  64  91 125 167 211 256 309 371
#     4  10  23  42  64  90 123 165 210 258 313 374
#     4  11  23  40  64  92 125 164 209 262 311 369
#
# _framework density 10.288066000000001
#
# number of rings (size 3 to 8) (size 9 to 14) (size 15 to 20)
#    0.000    1.200    2.000    3.600    2.800    3.600 
#    0.000    0.000    0.000    0.000    0.000    0.000 
#    0.000    0.000    0.000    0.000    0.000    0.000 
#
# Total GULP energy -111388.696145 kJ/mol
# GULP energy per Si atom -5569.434807 kJ/mol
# Density = 1.026465 g / cm^3
# Si number density = 10.288066 Si / 1000 Ang^3
#
#
#
# Elastic Constant Matrix: (Units=GPa)
#
#
# Indices 1 2 3 4 5 6 
#
# 1 28.1388 19.5851 13.2200 0.0000 -30.8773 0.0000
# 2 19.5851 2.5263 53.6188 0.0000 -21.4824 0.0000
# 3 13.2200 53.6188 117.8389 0.0000 -36.0650 0.0000
# 4 0.0000 0.0000 0.0000 34.8123 0.0000 0.4893
# 5 -30.8773 -21.4824 -36.0650 0.0000 38.9994 0.0000
# 6 0.0000 0.0000 0.0000 0.4893 0.0000 14.6418
#
#
#
# Elastic Compliance Matrix: (Units=1/GPa)
#
#
# Indices 1 2 3 4 5 6 
#
# 1 0.236294 0.090226 0.006841 0.000000 0.243109 0.000000
# 2 0.090226 -0.009424 0.020141 0.000000 0.084870 0.000000
# 3 0.006841 0.020141 0.005031 0.000000 0.021163 0.000000
# 4 0.000000 0.000000 0.000000 0.028739 0.000000 -0.000960
# 5 0.243109 0.084870 0.021163 0.000000 0.284441 0.000000
# 6 0.000000 0.000000 0.000000 -0.000960 0.000000 0.068330
#
#
# Mechanical properties :
#
#
# Convention : Reuss Voigt Hill
#
# Bulk Modulus (GPa) = 2.14447 35.70575 18.92511
# Shear Modulus (GPa) = 9.35570 21.82938 15.59254
#
# Velocity S-wave (km/s) = 2.13465 3.26069 2.75580
# Velocity P-wave (km/s) = 2.66836 5.61844 4.39812
#
# Compressibility (1/GPa) = 0.46631645
#
# Stress axis : x y z
#
# Youngs Moduli (GPa) = 4.23202 -106.10699 198.74954
#
# Poissons Ratio (x) = 9.57363 -1.35962
# Poissons Ratio (y) = -0.38184 -4.00296
# Poissons Ratio (z) = -0.02895 2.13707
#
# Static dielectric constant tensor:
#      x y z
#    x 1.815230 0.000000 0.082500 
#    y 0.000000 1.744110 0.000000 
#    z 0.082500 0.000000 1.657090 
# 
# From -- ./inp_files/151662.got.cif
#   From: 2010.05.17/outbox.ucp.g08.bks.cvg/sg12_76_cif.got.tgz:151662.got - 2010.06.11 11:47:21.
