data_PCOD9225039
_publ_section_title
;
Structure prediction by ZEFSAII (Michael W. Deem and Ramdas Pophale) SiO2 
 PCOD9225039
Probable space group: C 2/M
;
_chemical_formula_sum "Si O2"
_cell_formula_units_Z 22
_cell_length_a 24.000000
_cell_length_b 18.000000
_cell_length_c 15.000000
_cell_angle_alpha 90.000000
_cell_angle_beta 20.000000
_cell_angle_gamma 90.000000
_cell_volume 2216.290529
_symmetry_space_group_name_H-M "C 2/M"
_symmetry_group_IT_number 12
_symmetry_cell_setting 'monoclinic'
loop_
_space_group_symop_operation_xyz
x,y,z
-x,y,-z
-x,-y,-z
x,-y,z
1/2+x,1/2+y,z
1/2-x,1/2+y,-z
1/2-x,1/2-y,-z
1/2+x,1/2-y,z
loop_
_atom_site_type_symbol
_atom_site_label
_atom_site_fract_x
_atom_site_fract_y
_atom_site_fract_z
Si Si1 0.625315 0.912271 0.229396
Si Si2 0.500000 0.161675 0.000000
Si Si3 0.055822 0.181940 0.197123
Si Si4 0.804224 0.912819 0.450015
Si Si5 0.739001 0.745356 0.767153
Si Si6 0.680634 0.913298 0.430197
O O1 0.500000 0.891393 0.500000
O O2 0.512649 0.906502 0.308446
O O3 0.662169 0.000000 0.185533
O O4 0.797580 0.867565 0.978259
O O5 0.634994 0.110874 0.750361
O O6 0.603152 0.213265 0.911937
O O7 0.944138 0.135971 0.291249
O O8 0.916706 0.217742 0.473240
O O9 0.162071 0.243366 0.982423
O O10 0.756078 0.903324 0.416903
O O11 0.842662 0.000000 0.404720
O O12 0.748351 0.657970 0.727718
O O13 0.721615 0.000000 0.343316
#
# Coordination Sequence:
#
# PCOD9225039 Si02
#       6
#     8   4   8   8   8   8
#     4  10  20  39  62  88 122 159 200 253 307 354
#     4  10  21  38  59  88 130 164 190 248 317 362
#     4  11  23  39  62  92 123 162 203 250 303 364
#     4  10  21  38  63  92 120 158 207 251 298 363
#     4  11  22  38  60  89 124 159 202 248 303 363
#     4  10  21  37  59  88 120 155 200 254 302 350
#
# _framework density 9.9264960000000002
#
# number of rings (size 3 to 8) (size 9 to 14) (size 15 to 20)
#    0.000    1.636    1.818    3.000    0.000    4.364 
#    0.000    2.273    0.000    4.364    0.000   29.273 
#    0.000    0.000    0.000    0.000    0.000    0.000 
#
# Total GULP energy -122570.601084 kJ/mol
# GULP energy per Si atom -5571.390958 kJ/mol
# Density = 0.990390 g / cm^3
# Si number density = 9.926496 Si / 1000 Ang^3
#
#
#
# Elastic Constant Matrix: (Units=GPa)
#
#
# Indices 1 2 3 4 5 6 
#
# 1 64.9723 13.9880 16.9632 0.0004 -20.7355 0.0001
# 2 13.9880 70.2754 35.3549 0.0034 -0.7471 -0.0001
# 3 16.9632 35.3549 142.1618 0.0034 -12.2326 -0.0002
# 4 0.0004 0.0034 0.0034 32.1076 -0.0012 -10.6368
# 5 -20.7355 -0.7471 -12.2326 -0.0012 30.9550 -0.0001
# 6 0.0001 -0.0001 -0.0002 -10.6368 -0.0001 32.4541
#
#
#
# Elastic Compliance Matrix: (Units=1/GPa)
#
#
# Indices 1 2 3 4 5 6 
#
# 1 0.020636 -0.003786 -0.000351 0.000001 0.013593 0.000000
# 2 -0.003786 0.017006 -0.004100 -0.000002 -0.003746 -0.000001
# 3 -0.000351 -0.004100 0.008351 0.000000 0.002966 0.000000
# 4 0.000001 -0.000002 0.000000 0.034939 0.000002 0.011451
# 5 0.013593 -0.003746 0.002966 0.000002 0.042492 0.000001
# 6 0.000000 -0.000001 0.000000 0.011451 0.000001 0.034566
#
#
# Mechanical properties :
#
#
# Convention : Reuss Voigt Hill
#
# Bulk Modulus (GPa) = 33.87687 45.55794 39.71740
# Shear Modulus (GPa) = 27.12901 33.17691 30.15296
#
# Velocity S-wave (km/s) = 3.70062 4.09238 3.90142
# Velocity P-wave (km/s) = 5.94646 6.73257 6.35169
#
# Compressibility (1/GPa) = 0.02951867
#
# Stress axis : x y z
#
# Youngs Moduli (GPa) = 48.45846 58.80214 119.74672
#
# Poissons Ratio (x) = 0.22265 0.04204
# Poissons Ratio (y) = 0.18348 0.49095
# Poissons Ratio (z) = 0.01701 0.24108
#
# Static dielectric constant tensor:
#      x y z
#    x 1.760010 0.000000 0.033640 
#    y 0.000000 1.714860 0.000000 
#    z 0.033640 0.000000 1.716270 
# 
# From -- ./inp_files/241404.got.cif
#   From: 2010.05.17/outbox.ucp.g08.bks.cvg/sg12_121_cif.got.tgz:241404.got - 2010.06.11 11:47:21.
