data_PCOD9225656
_publ_section_title
;
Structure prediction by ZEFSAII (Michael W. Deem and Ramdas Pophale) SiO2 
 PCOD9225656
Probable space group: C 2/M
;
_chemical_formula_sum "Si O2"
_cell_formula_units_Z 28
_cell_length_a 15.000000
_cell_length_b 9.000000
_cell_length_c 24.000000
_cell_angle_alpha 90.000000
_cell_angle_beta 120.000000
_cell_angle_gamma 90.000000
_cell_volume 2805.922308
_symmetry_space_group_name_H-M "C 2/M"
_symmetry_group_IT_number 12
_symmetry_cell_setting 'monoclinic'
loop_
_space_group_symop_operation_xyz
x,y,z
-x,y,-z
-x,-y,-z
x,-y,z
1/2+x,1/2+y,z
1/2-x,1/2+y,-z
1/2-x,1/2-y,-z
1/2+x,1/2-y,z
loop_
_atom_site_type_symbol
_atom_site_label
_atom_site_fract_x
_atom_site_fract_y
_atom_site_fract_z
Si Si1 0.960314 0.677142 0.704156
Si Si2 0.398711 0.667536 0.321892
Si Si3 0.161766 0.668740 0.223592
Si Si4 0.096598 0.334104 0.570699
Si Si5 0.079733 0.823435 0.095363
Si Si6 0.773837 0.325303 0.566097
Si Si7 0.851450 0.179987 0.005277
O O1 0.978268 0.500000 0.704424
O O2 0.914137 0.705105 0.750024
O O3 0.874607 0.723145 0.631516
O O4 0.059364 0.775008 0.723398
O O5 0.432777 0.500000 0.344751
O O6 0.276275 0.672584 0.283370
O O7 0.437982 0.784248 0.379472
O O8 0.141449 0.500000 0.198435
O O9 0.147310 0.776192 0.168034
O O10 0.141977 0.500000 0.585374
O O11 0.177948 0.215115 0.574989
O O12 0.000000 0.334717 0.500000
O O13 0.961144 0.773383 0.066599
O O14 0.073666 0.000000 0.088689
O O15 0.130267 0.772881 0.053254
O O16 0.782689 0.500000 0.559915
O O17 0.750000 0.250000 0.500000
O O18 0.842687 0.000000 0.005233
O O19 0.750000 0.250000 0.000000
#
# Coordination Sequence:
#
# PCOD9225656 Si02
#       7
#     8   8   8   8   8   8   8
#     4  10  22  41  59  80 115 153 189 240 298 352
#     4  11  23  40  60  85 114 150 195 244 295 353
#     4  10  22  41  60  83 120 158 196 244 295 349
#     4  11  23  38  57  83 113 147 189 240 300 360
#     4   9  20  38  59  86 120 159 198 240 288 343
#     4  11  22  38  58  82 114 148 189 243 299 357
#     4   9  19  37  60  88 124 158 196 242 287 339
#
# _framework density 9.9788940000000004
#
# number of rings (size 3 to 8) (size 9 to 14) (size 15 to 20)
#    0.000    1.857    1.429    3.000    0.000    9.714 
#    0.000    7.143    0.000    0.000    0.000    0.000 
#    0.000    0.000    0.000    0.000    0.000    0.000 
#
# Total GULP energy -156179.978774 kJ/mol
# GULP energy per Si atom -5577.856385 kJ/mol
# Density = 0.995618 g / cm^3
# Si number density = 9.978894 Si / 1000 Ang^3
#
#
#
# Elastic Constant Matrix: (Units=GPa)
#
#
# Indices 1 2 3 4 5 6 
#
# 1 85.1729 14.2308 1.1572 0.0000 -9.0829 0.0000
# 2 14.2308 6.0314 28.0666 0.0000 -9.5127 0.0000
# 3 1.1572 28.0666 48.5981 0.0000 -3.2695 0.0000
# 4 0.0000 0.0000 0.0000 23.4720 0.0000 1.3196
# 5 -9.0829 -9.5127 -3.2695 0.0000 1.7053 0.0000
# 6 0.0000 0.0000 0.0000 1.3196 0.0000 29.0887
#
#
#
# Elastic Compliance Matrix: (Units=1/GPa)
#
#
# Indices 1 2 3 4 5 6 
#
# 1 0.019163 -0.012692 0.010307 0.000000 0.051030 0.000000
# 2 -0.012692 -0.011871 -0.002119 0.000000 -0.137886 0.000000
# 3 0.010307 -0.002119 0.028075 0.000000 0.096907 0.000000
# 4 0.000000 0.000000 0.000000 0.042713 0.000000 -0.001938
# 5 0.051030 -0.137886 0.096907 0.000000 0.274833 0.000000
# 6 0.000000 0.000000 0.000000 -0.001938 0.000000 0.034466
#
#
# Mechanical properties :
#
#
# Convention : Reuss Voigt Hill
#
# Bulk Modulus (GPa) = 37.93710 25.19016 31.56363
# Shear Modulus (GPa) = 12.34043 17.27636 14.80839
#
# Velocity S-wave (km/s) = 2.48931 2.94538 2.72690
# Velocity P-wave (km/s) = 5.22611 4.92099 5.07584
#
# Compressibility (1/GPa) = 0.02635942
#
# Stress axis : x y z
#
# Youngs Moduli (GPa) = 52.18315 -84.24076 35.61939
#
# Poissons Ratio (x) = -1.06919 -0.36712
# Poissons Ratio (y) = 0.66231 0.07546
# Poissons Ratio (z) = -0.53784 -0.17847
#
# Static dielectric constant tensor:
#      x y z
#    x 1.710410 0.000000 0.071330 
#    y 0.000000 1.686790 0.000000 
#    z 0.071330 0.000000 1.542650 
# 
# From -- ./inp_files/338435.got.cif
#   From: 2010.05.17/outbox.ucp.g08.bks.cvg/sg12_170_cif.got.tgz:338435.got - 2010.06.11 11:47:21.
