data_PCOD9225413
_publ_section_title
;
Structure prediction by ZEFSAII (Michael W. Deem and Ramdas Pophale) SiO2 
 PCOD9225413
Probable space group: C 2/M
;
_chemical_formula_sum "Si O2"
_cell_formula_units_Z 28
_cell_length_a 21.000000
_cell_length_b 18.000000
_cell_length_c 21.000000
_cell_angle_alpha 90.000000
_cell_angle_beta 20.000000
_cell_angle_gamma 90.000000
_cell_volume 2714.955898
_symmetry_space_group_name_H-M "C 2/M"
_symmetry_group_IT_number 12
_symmetry_cell_setting 'monoclinic'
loop_
_space_group_symop_operation_xyz
x,y,z
-x,y,-z
-x,-y,-z
x,-y,z
1/2+x,1/2+y,z
1/2-x,1/2+y,-z
1/2-x,1/2-y,-z
1/2+x,1/2-y,z
loop_
_atom_site_type_symbol
_atom_site_label
_atom_site_fract_x
_atom_site_fract_y
_atom_site_fract_z
Si Si1 0.598948 0.361727 0.812692
Si Si2 0.438088 0.703905 0.660812
Si Si3 0.594483 0.084155 0.568132
Si Si4 0.614959 0.913648 0.957760
Si Si5 0.547497 0.775535 0.218123
Si Si6 0.787988 0.631854 0.768328
Si Si7 0.639090 0.200065 0.737502
O O1 0.708857 0.386790 0.646086
O O2 0.717953 0.383123 0.763070
O O3 0.578909 0.272431 0.833425
O O4 0.387719 0.387042 0.021038
O O5 0.467998 0.719975 0.707861
O O6 0.354288 0.781366 0.712045
O O7 0.648128 0.687799 0.442184
O O8 0.300065 0.636102 0.778507
O O9 0.496659 0.143492 0.707957
O O10 0.459698 0.086044 0.633485
O O11 0.611593 0.000000 0.576722
O O12 0.487045 0.870828 0.129205
O O13 0.650858 0.000000 0.939371
O O14 0.500000 0.910683 0.000000
O O15 0.403163 0.774649 0.295286
O O16 0.750000 0.750000 0.000000
#
# Coordination Sequence:
#
# PCOD9225413 Si02
#       7
#     8   8   8   8   8   8   8
#     4  11  21  37  66  96 127 168 217 259 318 392
#     4  11  22  39  66  96 123 165 220 270 324 387
#     4  11  25  42  62  93 133 169 211 270 327 378
#     4  11  25  43  63  94 134 170 214 279 343 392
#     4  11  22  44  68  93 126 172 221 266 319 386
#     4  10  21  38  63  97 128 169 214 258 317 393
#     4  12  22  39  70  94 127 166 222 270 323 392
#
# _framework density 10.313243
#
# number of rings (size 3 to 8) (size 9 to 14) (size 15 to 20)
#    0.000    1.000    5.714    2.571    0.000    4.571 
#    0.000    2.857    0.000    0.000    0.000    0.000 
#    0.000    0.000    0.000    0.000    0.000    0.000 
#
# Total GULP energy -156282.018978 kJ/mol
# GULP energy per Si atom -5581.500678 kJ/mol
# Density = 1.028977 g / cm^3
# Si number density = 10.313243 Si / 1000 Ang^3
#
#
#
# Elastic Constant Matrix: (Units=GPa)
#
#
# Indices 1 2 3 4 5 6 
#
# 1 54.2393 1.9424 5.6907 0.0092 -8.1436 -0.0056
# 2 1.9424 106.8268 34.0401 -0.0050 1.6616 -0.0031
# 3 5.6907 34.0401 122.6028 -0.0063 -6.3264 -0.0014
# 4 0.0092 -0.0050 -0.0063 20.3469 -0.0038 -2.9820
# 5 -8.1436 1.6616 -6.3264 -0.0038 32.5807 0.0067
# 6 -0.0056 -0.0031 -0.0014 -2.9820 0.0067 21.6157
#
#
#
# Elastic Compliance Matrix: (Units=1/GPa)
#
#
# Indices 1 2 3 4 5 6 
#
# 1 0.019212 -0.000237 -0.000584 -0.000008 0.004701 0.000002
# 2 -0.000237 0.010311 -0.002911 0.000002 -0.001150 0.000002
# 3 -0.000584 -0.002911 0.009083 0.000003 0.001766 0.000000
# 4 -0.000008 0.000002 0.000003 0.050162 0.000003 0.006920
# 5 0.004701 -0.001150 0.001766 0.000003 0.032270 -0.000008
# 6 0.000002 0.000002 0.000000 0.006920 -0.000008 0.047217
#
#
# Mechanical properties :
#
#
# Convention : Reuss Voigt Hill
#
# Bulk Modulus (GPa) = 32.10922 40.77946 36.44434
# Shear Modulus (GPa) = 26.86752 31.04171 28.95461
#
# Velocity S-wave (km/s) = 3.61303 3.88357 3.75074
# Velocity P-wave (km/s) = 5.74510 6.31845 6.03858
#
# Compressibility (1/GPa) = 0.03114371
#
# Stress axis : x y z
#
# Youngs Moduli (GPa) = 52.04996 96.98616 110.09697
#
# Poissons Ratio (x) = 0.02294 0.06424
# Poissons Ratio (y) = 0.01231 0.32050
# Poissons Ratio (z) = 0.03037 0.28234
#
# Static dielectric constant tensor:
#      x y z
#    x 1.751940 0.000000 0.043530 
#    y 0.000000 1.725230 0.000010 
#    z 0.043530 0.000010 1.805780 
# 
# From -- ./inp_files/322675.got.cif
#   From: 2010.05.17/outbox.ucp.g08.bks.cvg/sg12_162_cif.got.tgz:322675.got - 2010.06.11 11:47:21.
