data_PCOD9225303
_publ_section_title
;
Structure prediction by ZEFSAII (Michael W. Deem and Ramdas Pophale) SiO2 
 PCOD9225303
Probable space group: C 2/M
;
_chemical_formula_sum "Si O2"
_cell_formula_units_Z 32
_cell_length_a 15.000000
_cell_length_b 21.000000
_cell_length_c 12.000000
_cell_angle_alpha 90.000000
_cell_angle_beta 70.000000
_cell_angle_gamma 90.000000
_cell_volume 3552.038107
_symmetry_space_group_name_H-M "C 2/M"
_symmetry_group_IT_number 12
_symmetry_cell_setting 'monoclinic'
loop_
_space_group_symop_operation_xyz
x,y,z
-x,y,-z
-x,-y,-z
x,-y,z
1/2+x,1/2+y,z
1/2-x,1/2+y,-z
1/2-x,1/2-y,-z
1/2+x,1/2-y,z
loop_
_atom_site_type_symbol
_atom_site_label
_atom_site_fract_x
_atom_site_fract_y
_atom_site_fract_z
Si Si1 0.397945 0.793535 0.982999
Si Si2 0.614160 0.077281 0.435055
Si Si3 0.232648 0.809384 0.234211
Si Si4 0.810122 0.336500 0.794834
Si Si5 0.102659 0.926066 0.213860
Si Si6 0.576514 0.574683 0.568635
Si Si7 0.608763 0.354442 0.992622
Si Si8 0.244625 0.328002 0.527341
O O1 0.312759 0.808772 0.104801
O O2 0.390074 0.717835 0.958337
O O3 0.500000 0.804168 0.000000
O O4 0.372381 0.831029 0.881234
O O5 0.500000 0.081799 0.500000
O O6 0.646756 0.109785 0.304326
O O7 0.668605 0.126460 0.496374
O O8 0.637848 0.000000 0.433134
O O9 0.191284 0.736565 0.253613
O O10 0.158626 0.867521 0.248197
O O11 0.278998 0.825379 0.332387
O O12 0.699376 0.353145 0.870800
O O13 0.991561 0.919661 0.294038
O O14 0.129033 0.000000 0.230642
O O15 0.122158 0.909690 0.077222
O O16 0.500000 0.581373 0.500000
O O17 0.612282 0.500000 0.548114
O O18 0.656455 0.630410 0.530859
O O19 0.500000 0.361711 0.000000
O O20 0.250000 0.250000 0.500000
#
# Coordination Sequence:
#
# PCOD9225303 Si02
#       8
#     8   8   8   8   8   8   8   8
#     4  10  21  37  67  95 124 167 207 269 330 374
#     4  11  28  49  66  91 132 181 223 269 328 385
#     4  11  21  41  62  96 130 159 218 272 318 382
#     4  11  21  43  67  93 129 167 213 272 323 386
#     4  11  22  37  60  90 128 169 205 256 324 390
#     4  10  22  39  60  89 129 168 199 254 329 385
#     4  10  21  37  60  93 129 164 203 255 322 391
#     4  12  25  40  67  99 126 168 224 271 315 389
#
# _framework density 9.0089120000000005
#
# number of rings (size 3 to 8) (size 9 to 14) (size 15 to 20)
#    0.000    1.250    5.000    1.125    3.500    3.750 
#    0.000    0.000    0.000    0.750    0.000    0.000 
#    0.000    0.000    0.000    0.000    0.000    0.000 
#
# Total GULP energy -178210.380914 kJ/mol
# GULP energy per Si atom -5569.074404 kJ/mol
# Density = 0.898841 g / cm^3
# Si number density = 9.008912 Si / 1000 Ang^3
#
#
#
# Elastic Constant Matrix: (Units=GPa)
#
#
# Indices 1 2 3 4 5 6 
#
# 1 103.4839 53.7786 30.5394 0.0000 -3.7677 0.0000
# 2 53.7786 157.2120 47.8287 0.0000 -3.4599 0.0000
# 3 30.5394 47.8287 91.0023 0.0000 4.8746 0.0000
# 4 0.0000 0.0000 0.0000 32.8470 0.0000 -4.7797
# 5 -3.7677 -3.4599 4.8746 0.0000 29.9134 0.0000
# 6 0.0000 0.0000 0.0000 -4.7797 0.0000 32.2140
#
#
#
# Elastic Compliance Matrix: (Units=1/GPa)
#
#
# Indices 1 2 3 4 5 6 
#
# 1 0.012196 -0.003414 -0.002380 0.000000 0.001529 0.000000
# 2 -0.003414 0.008598 -0.003433 0.000000 0.001124 0.000000
# 3 -0.002380 -0.003433 0.013749 0.000000 -0.002937 0.000000
# 4 0.000000 0.000000 0.000000 0.031116 0.000000 0.004617
# 5 0.001529 0.001124 -0.002937 0.000000 0.034231 0.000000
# 6 0.000000 0.000000 0.000000 0.004617 0.000000 0.031727
#
#
# Mechanical properties :
#
#
# Convention : Reuss Voigt Hill
#
# Bulk Modulus (GPa) = 62.15974 68.44351 65.30163
# Shear Modulus (GPa) = 32.16766 33.63164 32.89965
#
# Velocity S-wave (km/s) = 4.22989 4.32508 4.27775
# Velocity P-wave (km/s) = 7.64395 7.93793 7.79233
#
# Compressibility (1/GPa) = 0.01608758
#
# Stress axis : x y z
#
# Youngs Moduli (GPa) = 81.99620 116.30629 72.73047
#
# Poissons Ratio (x) = 0.39708 0.17312
# Poissons Ratio (y) = 0.27994 0.24971
# Poissons Ratio (z) = 0.19518 0.39933
#
# Static dielectric constant tensor:
#      x y z
#    x 1.645740 0.000000 0.045400 
#    y 0.000000 1.609550 0.000000 
#    z 0.045400 0.000000 1.672760 
# 
# From -- ./inp_files/147627.got.cif
#   From: 2010.05.17/outbox.ucp.g08.bks.cvg/sg12_74_cif.got.tgz:147627.got - 2010.06.11 11:47:21.
