data_PCOD9225566
_publ_section_title
;
Structure prediction by ZEFSAII (Michael W. Deem and Ramdas Pophale) SiO2 
 PCOD9225566
Probable space group: C 2/M
;
_chemical_formula_sum "Si O2"
_cell_formula_units_Z 28
_cell_length_a 18.000000
_cell_length_b 18.000000
_cell_length_c 9.000000
_cell_angle_alpha 90.000000
_cell_angle_beta 70.000000
_cell_angle_gamma 90.000000
_cell_volume 2740.143682
_symmetry_space_group_name_H-M "C 2/M"
_symmetry_group_IT_number 12
_symmetry_cell_setting 'monoclinic'
loop_
_space_group_symop_operation_xyz
x,y,z
-x,y,-z
-x,-y,-z
x,-y,z
1/2+x,1/2+y,z
1/2-x,1/2+y,-z
1/2-x,1/2-y,-z
1/2+x,1/2-y,z
loop_
_atom_site_type_symbol
_atom_site_label
_atom_site_fract_x
_atom_site_fract_y
_atom_site_fract_z
Si Si1 0.104380 0.081366 0.036584
Si Si2 0.080880 0.411209 0.857516
Si Si3 0.736150 0.135093 0.944797
Si Si4 0.067320 0.689101 0.582000
Si Si5 0.033398 0.915045 0.624547
Si Si6 0.289245 0.224130 0.736755
Si Si7 0.882915 0.814978 0.248422
O O1 0.191717 0.082969 0.050269
O O2 0.036035 0.088496 0.205851
O O3 0.094589 0.000000 0.969567
O O4 0.095911 0.147803 0.923987
O O5 0.079714 0.500000 0.850748
O O6 0.159969 0.389316 0.898841
O O7 0.079241 0.378814 0.690087
O O8 0.000000 0.387112 0.000000
O O9 0.784240 0.195143 0.813986
O O10 0.704940 0.170654 0.121824
O O11 0.144001 0.708330 0.429745
O O12 0.059868 0.755262 0.711079
O O13 0.000000 0.680663 0.500000
O O14 0.112234 0.880372 0.635697
O O15 0.000000 0.876790 0.500000
O O16 0.050730 0.000000 0.577683
O O17 0.204351 0.214890 0.716372
#
# Coordination Sequence:
#
# PCOD9225566 Si02
#       7
#     8   8   8   8   8   8   8
#     4  10  22  39  63  93 131 171 209 250 309 386
#     4  11  25  45  68  94 128 172 222 272 325 385
#     4  10  21  42  69  94 128 166 209 262 324 382
#     4  12  26  43  67  96 129 165 217 269 330 378
#     4  10  22  38  57  90 131 168 206 252 305 375
#     4  10  23  42  65  98 130 159 207 273 319 380
#     4  11  22  38  61  90 127 168 207 260 312 375
#
# _framework density 10.218442
#
# number of rings (size 3 to 8) (size 9 to 14) (size 15 to 20)
#    0.000    1.429    1.429    3.000    4.000    2.571 
#    2.571    5.714    0.000    0.000    0.000    0.000 
#    0.000    0.000    0.000    0.000    0.000    0.000 
#
# Total GULP energy -156144.200239 kJ/mol
# GULP energy per Si atom -5576.578580 kJ/mol
# Density = 1.019518 g / cm^3
# Si number density = 10.218442 Si / 1000 Ang^3
#
#
#
# Elastic Constant Matrix: (Units=GPa)
#
#
# Indices 1 2 3 4 5 6 
#
# 1 106.9645 30.9121 21.4865 0.0000 40.3289 0.0000
# 2 30.9121 83.2946 35.7523 0.0000 11.6647 0.0000
# 3 21.4865 35.7523 96.1345 0.0000 19.1274 0.0000
# 4 0.0000 0.0000 0.0000 25.6775 0.0000 5.6304
# 5 40.3289 11.6647 19.1274 0.0000 43.4179 0.0000
# 6 0.0000 0.0000 0.0000 5.6304 0.0000 14.2338
#
#
#
# Elastic Compliance Matrix: (Units=1/GPa)
#
#
# Indices 1 2 3 4 5 6 
#
# 1 0.015559 -0.004206 0.000808 0.000000 -0.013678 0.000000
# 2 -0.004206 0.015530 -0.005242 0.000000 0.002043 0.000000
# 3 0.000808 -0.005242 0.013197 0.000000 -0.005156 0.000000
# 4 0.000000 0.000000 0.000000 0.042643 0.000000 -0.016868
# 5 -0.013678 0.002043 -0.005156 0.000000 0.037460 0.000000
# 6 0.000000 0.000000 0.000000 -0.016868 0.000000 0.076928
#
#
# Mechanical properties :
#
#
# Convention : Reuss Voigt Hill
#
# Bulk Modulus (GPa) = 37.02794 51.41061 44.21927
# Shear Modulus (GPa) = 21.96849 29.88202 25.92526
#
# Velocity S-wave (km/s) = 3.28219 3.82797 3.56554
# Velocity P-wave (km/s) = 5.70274 6.68941 6.21568
#
# Compressibility (1/GPa) = 0.02700663
#
# Stress axis : x y z
#
# Youngs Moduli (GPa) = 64.27116 64.39026 75.77497
#
# Poissons Ratio (x) = 0.27080 -0.06123
# Poissons Ratio (y) = 0.27029 0.39724
# Poissons Ratio (z) = -0.05193 0.33755
#
# Static dielectric constant tensor:
#      x y z
#    x 1.746830 0.000000 0.024580 
#    y 0.000000 1.811710 0.000000 
#    z 0.024580 0.000000 1.705360 
# 
# From -- ./inp_files/75870.got.cif
#   From: 2010.05.17/outbox.ucp.g08.bks.cvg/sg12_38_cif.got.tgz:75870.got - 2010.06.11 11:47:21.
