data_PCOD9225265
_publ_section_title
;
Structure prediction by ZEFSAII (Michael W. Deem and Ramdas Pophale) SiO2 
 PCOD9225265
Probable space group: C 2/M
;
_chemical_formula_sum "Si O2"
_cell_formula_units_Z 20
_cell_length_a 18.000000
_cell_length_b 27.000000
_cell_length_c 9.000000
_cell_angle_alpha 90.000000
_cell_angle_beta 30.000000
_cell_angle_gamma 90.000000
_cell_volume 2187.000000
_symmetry_space_group_name_H-M "C 2/M"
_symmetry_group_IT_number 12
_symmetry_cell_setting 'monoclinic'
loop_
_space_group_symop_operation_xyz
x,y,z
-x,y,-z
-x,-y,-z
x,-y,z
1/2+x,1/2+y,z
1/2-x,1/2+y,-z
1/2-x,1/2-y,-z
1/2+x,1/2-y,z
loop_
_atom_site_type_symbol
_atom_site_label
_atom_site_fract_x
_atom_site_fract_y
_atom_site_fract_z
Si Si1 0.378455 0.654519 0.435030
Si Si2 0.621661 0.944936 0.573133
Si Si3 0.847353 0.253274 0.685283
Si Si4 0.216244 0.154504 0.741064
Si Si5 0.715571 0.055180 0.759318
O O1 0.350488 0.701733 0.588438
O O2 0.299760 0.660338 0.409889
O O3 0.318774 0.602741 0.605816
O O4 0.552627 0.651566 0.095413
O O5 0.698710 0.896774 0.371765
O O6 0.675973 0.945383 0.651478
O O7 0.657677 0.000000 0.449598
O O8 0.443565 0.939234 0.884716
O O9 0.796453 0.297494 0.666974
O O10 0.000000 0.265325 0.500000
O O11 0.750000 0.250000 0.000000
O O12 0.776102 0.000000 0.689721
#
# Coordination Sequence:
#
# PCOD9225265 Si02
#       5
#     8   8   8   8   8
#     4  10  21  37  58  85 113 144 187 230 276 330
#     4   8  15  29  52  83 114 143 179 223 272 325
#     4  12  25  42  57  78 112 150 189 231 282 334
#     4  10  21  37  58  85 113 144 186 232 275 328
#     4   8  15  29  52  83 114 143 178 224 274 323
#
# _framework density 9.1449470000000002
#
# number of rings (size 3 to 8) (size 9 to 14) (size 15 to 20)
#    0.000    2.400    2.000    1.800    2.800    0.800 
#    0.000    4.000    0.000    2.400    0.000    0.000 
#    0.000    0.000    0.000    0.000    0.000    0.000 
#
# Total GULP energy -111434.493171 kJ/mol
# GULP energy per Si atom -5571.724659 kJ/mol
# Density = 0.912413 g / cm^3
# Si number density = 9.144947 Si / 1000 Ang^3
#
#
#
# Elastic Constant Matrix: (Units=GPa)
#
#
# Indices 1 2 3 4 5 6 
#
# 1 45.3665 58.4215 34.1097 0.0000 -10.4565 0.0000
# 2 58.4215 209.6470 65.7203 0.0000 -4.9385 0.0000
# 3 34.1097 65.7203 74.3727 0.0000 1.6510 0.0000
# 4 0.0000 0.0000 0.0000 31.8182 0.0000 -8.6462
# 5 -10.4565 -4.9385 1.6510 0.0000 21.3386 0.0000
# 6 0.0000 0.0000 0.0000 -8.6462 0.0000 3.5827
#
#
#
# Elastic Compliance Matrix: (Units=1/GPa)
#
#
# Indices 1 2 3 4 5 6 
#
# 1 0.050832 -0.008462 -0.016373 0.000000 0.024218 0.000000
# 2 -0.008462 0.008091 -0.003224 0.000000 -0.002025 0.000000
# 3 -0.016373 -0.003224 0.024040 0.000000 -0.010630 0.000000
# 4 0.000000 0.000000 0.000000 0.091304 0.000000 0.220343
# 5 0.024218 -0.002025 -0.010630 0.000000 0.059085 0.000000
# 6 0.000000 0.000000 0.000000 0.220343 0.000000 0.810871
#
#
# Mechanical properties :
#
#
# Convention : Reuss Voigt Hill
#
# Bulk Modulus (GPa) = 37.25117 71.76548 54.50833
# Shear Modulus (GPa) = 4.50739 22.75688 13.63214
#
# Velocity S-wave (km/s) = 1.57155 3.53119 2.73305
# Velocity P-wave (km/s) = 4.86871 7.47989 6.31083
#
# Compressibility (1/GPa) = 0.02684479
#
# Stress axis : x y z
#
# Youngs Moduli (GPa) = 19.67249 123.59601 41.59773
#
# Poissons Ratio (x) = 1.04587 0.68110
# Poissons Ratio (y) = 0.16647 0.13410
# Poissons Ratio (z) = 0.32211 0.39844
#
# Static dielectric constant tensor:
#      x y z
#    x 1.607670 0.000000 -0.001280 
#    y 0.000000 1.623490 0.000000 
#    z -0.001280 0.000000 1.611450 
# 
# From -- ./inp_files/40300.got.cif
#   From: 2010.05.17/outbox.ucp.g08.bks.cvg/sg12_21_cif.got.tgz:40300.got - 2010.06.11 11:47:21.
