data_PCOD9225450
_publ_section_title
;
Structure prediction by ZEFSAII (Michael W. Deem and Ramdas Pophale) SiO2 
 PCOD9225450
Probable space group: C 2/M
;
_chemical_formula_sum "Si O2"
_cell_formula_units_Z 24
_cell_length_a 18.000000
_cell_length_b 9.000000
_cell_length_c 30.000000
_cell_angle_alpha 90.000000
_cell_angle_beta 150.000000
_cell_angle_gamma 90.000000
_cell_volume 2430.000000
_symmetry_space_group_name_H-M "C 2/M"
_symmetry_group_IT_number 12
_symmetry_cell_setting 'monoclinic'
loop_
_space_group_symop_operation_xyz
x,y,z
-x,y,-z
-x,-y,-z
x,-y,z
1/2+x,1/2+y,z
1/2-x,1/2+y,-z
1/2-x,1/2-y,-z
1/2+x,1/2-y,z
loop_
_atom_site_type_symbol
_atom_site_label
_atom_site_fract_x
_atom_site_fract_y
_atom_site_fract_z
Si Si1 0.676881 0.678631 0.587809
Si Si2 0.047906 0.331787 0.206025
Si Si3 0.475786 0.674086 0.892688
Si Si4 0.685508 0.325310 0.774585
Si Si5 0.661231 0.679314 0.412744
Si Si6 0.241404 0.170576 0.098626
O O1 0.500000 0.716941 0.500000
O O2 0.682351 0.500000 0.583113
O O3 0.792326 0.706887 0.688839
O O4 0.753458 0.763320 0.586689
O O5 0.061961 0.500000 0.194836
O O6 0.986444 0.218990 0.137637
O O7 0.910174 0.336681 0.168505
O O8 0.458390 0.500000 0.888985
O O9 0.313776 0.748170 0.812888
O O10 0.610717 0.716086 0.996268
O O11 0.686040 0.500000 0.766667
O O12 0.513936 0.274880 0.679148
O O13 0.745339 0.285361 0.854608
O O14 0.665530 0.500000 0.417128
O O15 0.750000 0.750000 0.500000
O O16 0.205133 0.000000 0.094569
#
# Coordination Sequence:
#
# PCOD9225450 Si02
#       6
#     8   8   8   8   8   8
#     4  10  22  41  66  93 122 157 196 245 305 363
#     4  10  21  39  62  88 124 162 198 247 303 357
#     4  11  24  38  59  91 125 161 204 250 296 355
#     4  11  24  41  62  89 122 159 202 250 301 357
#     4  11  25  43  65  92 121 157 201 248 300 360
#     4  10  21  40  63  88 120 162 205 247 302 358
#
# _framework density 9.8765429999999999
#
# number of rings (size 3 to 8) (size 9 to 14) (size 15 to 20)
#    0.000    1.500    1.667    2.500    2.333    7.000 
#    0.000    0.000    0.000    0.000    0.000    0.000 
#    0.000    0.000    0.000    0.000    0.000    0.000 
#
# Total GULP energy -133794.027113 kJ/mol
# GULP energy per Si atom -5574.751130 kJ/mol
# Density = 0.985406 g / cm^3
# Si number density = 9.876543 Si / 1000 Ang^3
#
#
#
# Elastic Constant Matrix: (Units=GPa)
#
#
# Indices 1 2 3 4 5 6 
#
# 1 28.1802 8.3394 4.7933 0.0000 1.1840 0.0000
# 2 8.3394 22.5973 25.0038 0.0000 -3.9291 0.0000
# 3 4.7933 25.0038 129.4941 0.0000 -0.4502 0.0000
# 4 0.0000 0.0000 0.0000 18.2929 0.0000 -0.2122
# 5 1.1840 -3.9291 -0.4502 0.0000 31.5966 0.0000
# 6 0.0000 0.0000 0.0000 -0.2122 0.0000 32.5115
#
#
#
# Elastic Compliance Matrix: (Units=1/GPa)
#
#
# Indices 1 2 3 4 5 6 
#
# 1 0.040561 -0.017723 0.001908 0.000000 -0.003697 0.000000
# 2 -0.017723 0.065540 -0.011969 0.000000 0.008644 0.000000
# 3 0.001908 -0.011969 0.009958 0.000000 -0.001418 0.000000
# 4 0.000000 0.000000 0.000000 0.054670 0.000000 0.000357
# 5 -0.003697 0.008644 -0.001418 0.000000 0.032842 0.000000
# 6 0.000000 0.000000 0.000000 0.000357 0.000000 0.030761
#
#
# Mechanical properties :
#
#
# Convention : Reuss Voigt Hill
#
# Bulk Modulus (GPa) = 16.53119 28.50494 22.51807
# Shear Modulus (GPa) = 16.12570 25.95586 21.04078
#
# Velocity S-wave (km/s) = 2.86031 3.62887 3.26726
# Velocity P-wave (km/s) = 4.39267 5.65864 5.06536
#
# Compressibility (1/GPa) = 0.06049172
#
# Stress axis : x y z
#
# Youngs Moduli (GPa) = 24.65397 15.25784 100.42300
#
# Poissons Ratio (x) = 0.27041 -0.19159
# Poissons Ratio (y) = 0.43693 1.20196
# Poissons Ratio (z) = -0.04703 0.18262
#
# Static dielectric constant tensor:
#      x y z
#    x 1.818600 0.000000 -0.018390 
#    y 0.000000 1.691960 0.000000 
#    z -0.018390 0.000000 1.663120 
# 
# From -- ./inp_files/244748.got.cif
#   From: 2010.05.17/outbox.ucp.g08.bks.cvg/sg12_123_cif.got.tgz:244748.got - 2010.06.11 11:47:21.
