data_PCOD9225246
_publ_section_title
;
Structure prediction by ZEFSAII (Michael W. Deem and Ramdas Pophale) SiO2 
 PCOD9225246
Probable space group: C 2/M
;
_chemical_formula_sum "Si O2"
_cell_formula_units_Z 32
_cell_length_a 30.000000
_cell_length_b 9.000000
_cell_length_c 24.000000
_cell_angle_alpha 90.000000
_cell_angle_beta 30.000000
_cell_angle_gamma 90.000000
_cell_volume 3240.000000
_symmetry_space_group_name_H-M "C 2/M"
_symmetry_group_IT_number 12
_symmetry_cell_setting 'monoclinic'
loop_
_space_group_symop_operation_xyz
x,y,z
-x,y,-z
-x,-y,-z
x,-y,z
1/2+x,1/2+y,z
1/2-x,1/2+y,-z
1/2-x,1/2-y,-z
1/2+x,1/2-y,z
loop_
_atom_site_type_symbol
_atom_site_label
_atom_site_fract_x
_atom_site_fract_y
_atom_site_fract_z
Si Si1 0.133163 0.175434 0.484758
Si Si2 0.267130 0.322766 0.422045
Si Si3 0.999236 0.322718 0.715844
Si Si4 0.102128 0.324201 0.793516
Si Si5 0.185032 0.822488 0.115503
Si Si6 0.722067 0.326716 0.886906
Si Si7 0.020001 0.176496 0.142099
Si Si8 0.768896 0.678166 0.243252
O O1 0.214660 0.214919 0.437024
O O2 0.176141 0.212700 0.377723
O O3 0.060326 0.269144 0.597587
O O4 0.111576 0.000000 0.508841
O O5 0.246903 0.500000 0.443035
O O6 0.250000 0.250000 0.500000
O O7 0.363016 0.289224 0.292473
O O8 0.007306 0.500000 0.713625
O O9 0.905089 0.263422 0.798803
O O10 0.011263 0.247825 0.764254
O O11 0.114873 0.500000 0.768119
O O12 0.150473 0.292010 0.799585
O O13 0.001486 0.276493 0.890543
O O14 0.215004 0.779942 0.145185
O O15 0.178024 0.000000 0.116015
O O16 0.250000 0.750000 0.000000
O O17 0.750837 0.500000 0.856237
O O18 0.719818 0.268532 0.825656
O O19 0.628066 0.319987 0.021245
O O20 0.998550 0.000000 0.162861
O O21 0.769096 0.500000 0.233105
#
# Coordination Sequence:
#
# PCOD9225246 Si02
#       8
#     8   8   8   8   8   8   8   8
#     4  10  21  39  60  85 119 159 201 248 301 360
#     4  11  20  32  51  77 112 154 200 248 301 359
#     4  12  24  39  63  94 126 160 199 251 308 364
#     4  10  21  37  56  82 117 159 206 252 301 357
#     4  12  24  42  67  94 125 158 197 246 304 366
#     4  11  24  41  64  91 122 160 203 252 305 362
#     4  11  23  38  58  88 125 162 203 253 308 363
#     4   9  21  41  63  86 119 164 208 251 302 357
#
# _framework density 9.8765429999999999
#
# number of rings (size 3 to 8) (size 9 to 14) (size 15 to 20)
#    0.000    1.250    1.250    6.375    0.000    5.000 
#    0.000    3.125    0.000    3.750    0.000    0.000 
#    0.000    0.000    0.000    0.000    0.000    0.000 
#
# Total GULP energy -178156.459054 kJ/mol
# GULP energy per Si atom -5567.389345 kJ/mol
# Density = 0.985406 g / cm^3
# Si number density = 9.876543 Si / 1000 Ang^3
#
#
#
# Elastic Constant Matrix: (Units=GPa)
#
#
# Indices 1 2 3 4 5 6 
#
# 1 71.0631 23.5533 13.3092 -0.0040 5.2103 0.0045
# 2 23.5533 107.3834 31.6953 0.0069 6.9449 -0.0027
# 3 13.3092 31.6953 35.6413 -0.0044 9.6897 0.0034
# 4 -0.0040 0.0069 -0.0044 34.8600 -0.0064 7.1454
# 5 5.2103 6.9449 9.6897 -0.0064 26.5919 0.0044
# 6 0.0045 -0.0027 0.0034 7.1454 0.0044 32.3260
#
#
#
# Elastic Compliance Matrix: (Units=1/GPa)
#
#
# Indices 1 2 3 4 5 6 
#
# 1 0.015572 -0.002329 -0.003418 0.000002 -0.001197 -0.000002
# 2 -0.002329 0.012994 -0.010974 -0.000005 0.001062 0.000003
# 3 -0.003418 -0.010974 0.042324 0.000006 -0.011887 -0.000005
# 4 0.000002 -0.000005 0.000006 0.030048 0.000007 -0.006642
# 5 -0.001197 0.001062 -0.011887 0.000007 0.041894 -0.000006
# 6 -0.000002 0.000003 -0.000005 -0.006642 -0.000006 0.032403
#
#
# Mechanical properties :
#
#
# Convention : Reuss Voigt Hill
#
# Bulk Modulus (GPa) = 26.70405 39.02261 32.86333
# Shear Modulus (GPa) = 22.60809 28.45756 25.53283
#
# Velocity S-wave (km/s) = 3.38677 3.79973 3.59917
# Velocity P-wave (km/s) = 5.37046 6.24889 5.82626
#
# Compressibility (1/GPa) = 0.03744750
#
# Stress axis : x y z
#
# Youngs Moduli (GPa) = 64.21811 76.96009 23.62708
#
# Poissons Ratio (x) = 0.17926 0.08076
# Poissons Ratio (y) = 0.14958 0.25928
# Poissons Ratio (z) = 0.21950 0.84456
#
# Static dielectric constant tensor:
#      x y z
#    x 1.727680 0.000000 0.051970 
#    y 0.000000 1.648940 0.000000 
#    z 0.051970 0.000000 1.388450 
# 
# From -- ./inp_files/353345.got.cif
#   From: 2010.05.17/outbox.ucp.g08.bks.cvg/sg12_177_cif.got.tgz:353345.got - 2010.06.11 11:47:21.
