data_PCOD9225806
_publ_section_title
;
Structure prediction by ZEFSAII (Michael W. Deem and Ramdas Pophale) SiO2 
 PCOD9225806
Probable space group: C 2/M
;
_chemical_formula_sum "Si O2"
_cell_formula_units_Z 26
_cell_length_a 12.000000
_cell_length_b 24.000000
_cell_length_c 12.000000
_cell_angle_alpha 90.000000
_cell_angle_beta 130.000000
_cell_angle_gamma 90.000000
_cell_volume 2647.449595
_symmetry_space_group_name_H-M "C 2/M"
_symmetry_group_IT_number 12
_symmetry_cell_setting 'monoclinic'
loop_
_space_group_symop_operation_xyz
x,y,z
-x,y,-z
-x,-y,-z
x,-y,z
1/2+x,1/2+y,z
1/2-x,1/2+y,-z
1/2-x,1/2-y,-z
1/2+x,1/2-y,z
loop_
_atom_site_type_symbol
_atom_site_label
_atom_site_fract_x
_atom_site_fract_y
_atom_site_fract_z
Si Si1 0.362345 0.000000 0.209153
Si Si2 0.409491 0.690393 0.831009
Si Si3 0.166027 0.500000 0.261133
Si Si4 0.685281 0.500000 0.868532
Si Si5 0.134566 0.322965 0.175500
Si Si6 0.568707 0.625057 0.736322
Si Si7 0.262154 0.394183 0.444565
Si Si8 0.838653 0.396657 0.369409
O O1 0.513158 0.000000 0.232530
O O2 0.348364 0.053282 0.284333
O O3 0.242002 0.000000 0.032958
O O4 0.373354 0.756533 0.805437
O O5 0.510246 0.664542 0.798570
O O6 0.264688 0.652799 0.738265
O O7 0.500000 0.681030 0.000000
O O8 0.180639 0.500000 0.135890
O O9 0.254023 0.447045 0.360123
O O10 0.601766 0.559703 0.792739
O O11 0.283142 0.346417 0.214110
O O12 0.148895 0.352477 0.307766
O O13 0.000000 0.335530 0.000000
O O14 0.427997 0.626052 0.564387
O O15 0.219068 0.412215 0.543189
O O16 0.000000 0.376349 0.500000
#
# Coordination Sequence:
#
# PCOD9225806 Si02
#       8
#     4   8   4   4   8   8   8   8
#     4  12  25  43  67 107 150 170 233 288 347 419
#     4  10  25  46  68 100 138 188 237 282 347 419
#     4  12  23  40  69 100 142 177 229 281 347 417
#     4  12  26  40  71 106 136 192 221 289 349 415
#     4  11  26  44  69 101 139 182 233 298 344 406
#     4  11  25  45  69 103 140 184 230 286 355 405
#     4  11  24  42  69 100 139 178 235 280 345 418
#     4  11  23  42  69  99 137 189 220 288 345 403
#
# _framework density 9.8207719999999998
#
# number of rings (size 3 to 8) (size 9 to 14) (size 15 to 20)
#    0.000    0.923    3.077    2.769    2.154   11.077 
#    0.000    3.846    0.000    0.000    0.000    0.000 
#    0.000    0.000    0.000    0.000    0.000    0.000 
#
# Total GULP energy -144957.694205 kJ/mol
# GULP energy per Si atom -5575.295931 kJ/mol
# Density = 0.979842 g / cm^3
# Si number density = 9.820772 Si / 1000 Ang^3
#
#
#
# Elastic Constant Matrix: (Units=GPa)
#
#
# Indices 1 2 3 4 5 6 
#
# 1 115.6520 38.3759 43.2405 0.0000 -4.8734 0.0000
# 2 38.3759 138.1923 63.3664 0.0000 -4.0586 0.0000
# 3 43.2405 63.3664 156.1112 0.0000 -7.1714 0.0000
# 4 0.0000 0.0000 0.0000 31.0183 0.0000 -3.1108
# 5 -4.8734 -4.0586 -7.1714 0.0000 41.2587 0.0000
# 6 0.0000 0.0000 0.0000 -3.1108 0.0000 31.9638
#
#
#
# Elastic Compliance Matrix: (Units=1/GPa)
#
#
# Indices 1 2 3 4 5 6 
#
# 1 0.010036 -0.001851 -0.001998 0.000000 0.000656 0.000000
# 2 -0.001851 0.009235 -0.003230 0.000000 0.000128 0.000000
# 3 -0.001998 -0.003230 0.008311 0.000000 0.000891 0.000000
# 4 0.000000 0.000000 0.000000 0.032557 0.000000 0.003168
# 5 0.000656 0.000128 0.000891 0.000000 0.024482 0.000000
# 6 0.000000 0.000000 0.000000 0.003168 0.000000 0.031594
#
#
# Mechanical properties :
#
#
# Convention : Reuss Voigt Hill
#
# Bulk Modulus (GPa) = 74.49828 77.76900 76.13364
# Shear Modulus (GPa) = 37.07877 38.51302 37.79589
#
# Velocity S-wave (km/s) = 4.34956 4.43289 4.39142
# Velocity P-wave (km/s) = 7.95212 8.11670 8.03483
#
# Compressibility (1/GPa) = 0.01342313
#
# Stress axis : x y z
#
# Youngs Moduli (GPa) = 99.64447 108.28085 120.32103
#
# Poissons Ratio (x) = 0.20047 0.24041
# Poissons Ratio (y) = 0.18449 0.38863
# Poissons Ratio (z) = 0.19910 0.34974
#
# Static dielectric constant tensor:
#      x y z
#    x 1.762900 0.000000 -0.026510 
#    y 0.000000 1.699740 0.000000 
#    z -0.026510 0.000000 1.707220 
# 
# From -- ./inp_files/136051.got.cif
#   From: 2010.05.17/outbox.ucp.g08.bks.cvg/sg12_69_cif.got.tgz:136051.got - 2010.06.11 11:47:21.
