data_PCOD9225379
_publ_section_title
;
Structure prediction by ZEFSAII (Michael W. Deem and Ramdas Pophale) SiO2 
 PCOD9225379
Probable space group: C 2/M
;
_chemical_formula_sum "Si O2"
_cell_formula_units_Z 32
_cell_length_a 18.000000
_cell_length_b 9.000000
_cell_length_c 30.000000
_cell_angle_alpha 90.000000
_cell_angle_beta 40.000000
_cell_angle_gamma 90.000000
_cell_volume 3123.947783
_symmetry_space_group_name_H-M "C 2/M"
_symmetry_group_IT_number 12
_symmetry_cell_setting 'monoclinic'
loop_
_space_group_symop_operation_xyz
x,y,z
-x,y,-z
-x,-y,-z
x,-y,z
1/2+x,1/2+y,z
1/2-x,1/2+y,-z
1/2-x,1/2-y,-z
1/2+x,1/2-y,z
loop_
_atom_site_type_symbol
_atom_site_label
_atom_site_fract_x
_atom_site_fract_y
_atom_site_fract_z
Si Si1 0.045539 0.165919 0.280002
Si Si2 0.330332 0.171407 0.367184
Si Si3 0.077140 0.828959 0.365950
Si Si4 0.827216 0.324742 0.266773
Si Si5 0.905659 0.328816 0.504003
Si Si6 0.418625 0.321550 0.136667
Si Si7 0.680172 0.678909 0.991857
Si Si8 0.258876 0.821675 0.858137
O O1 0.104370 0.167607 0.301195
O O2 0.115903 0.269242 0.214601
O O3 0.918879 0.221730 0.350515
O O4 0.042702 0.000000 0.263198
O O5 0.369667 0.188065 0.297554
O O6 0.201678 0.225686 0.434745
O O7 0.342786 0.000000 0.374048
O O8 0.195926 0.767251 0.331086
O O9 0.971111 0.730345 0.430311
O O10 0.057580 0.000000 0.389889
O O11 0.821388 0.500000 0.258672
O O12 0.893916 0.245264 0.196548
O O13 0.869390 0.500000 0.516086
O O14 0.000000 0.318898 0.500000
O O15 0.408437 0.500000 0.144729
O O16 0.328713 0.269520 0.140246
O O17 0.546060 0.285625 0.060835
O O18 0.692634 0.500000 0.987666
O O19 0.723592 0.730691 0.923460
O O20 0.750000 0.750000 0.000000
O O21 0.254062 0.000000 0.860996
#
# Coordination Sequence:
#
# PCOD9225379 Si02
#       8
#     8   8   8   8   8   8   8   8
#     4  11  24  41  62  90 124 156 198 252 301 352
#     4  11  24  41  62  87 121 163 201 243 302 364
#     4  10  21  40  63  87 119 159 199 246 300 357
#     4  10  21  38  61  89 119 155 202 249 297 355
#     4  11  23  38  61  92 122 154 199 253 301 352
#     4  10  21  38  63  90 118 158 204 249 295 349
#     4  10  23  41  60  89 124 160 200 245 299 355
#     4  10  21  40  64  87 119 161 203 244 295 360
#
# _framework density 10.243449
#
# number of rings (size 3 to 8) (size 9 to 14) (size 15 to 20)
#    0.000    1.625    2.500    1.500    1.750    6.000 
#    0.000    0.000    0.000    2.250    0.000    0.000 
#    0.000    0.000    0.000    0.000    0.000    0.000 
#
# Total GULP energy -178530.863283 kJ/mol
# GULP energy per Si atom -5579.089478 kJ/mol
# Density = 1.022013 g / cm^3
# Si number density = 10.243449 Si / 1000 Ang^3
#
#
#
# Elastic Constant Matrix: (Units=GPa)
#
#
# Indices 1 2 3 4 5 6 
#
# 1 28.8425 8.3504 20.2521 -0.0063 -14.7714 0.0086
# 2 8.3504 -1.5626 8.6420 -0.0443 5.0192 0.0557
# 3 20.2521 8.6420 102.9901 0.0013 10.1993 -0.0018
# 4 -0.0063 -0.0443 0.0013 497.6831 -0.0009 -597.7002
# 5 -14.7714 5.0192 10.1993 -0.0009 26.9308 0.0012
# 6 0.0086 0.0557 -0.0018 -597.7002 0.0012 785.8079
#
#
#
# Elastic Compliance Matrix: (Units=1/GPa)
#
#
# Indices 1 2 3 4 5 6 
#
# 1 0.022965 0.072596 -0.010925 0.000003 0.003204 -0.000003
# 2 0.072596 -0.108760 -0.011532 -0.000005 0.064456 0.000003
# 3 -0.010925 -0.011532 0.013721 0.000000 -0.009039 0.000001
# 4 0.000003 -0.000005 0.000000 0.023223 0.000003 0.017664
# 5 0.003204 0.064456 -0.009039 0.000003 0.030300 -0.000003
# 6 -0.000003 0.000003 0.000001 0.017664 -0.000003 0.014708
#
#
# Mechanical properties :
#
#
# Convention : Reuss Voigt Hill
#
# Bulk Modulus (GPa) = 35.45659 22.75101 29.10380
# Shear Modulus (GPa) = -52.78764 268.28607 107.74921
#
# Velocity S-wave (km/s) = -5.08158 11.45597 7.26005
# Velocity P-wave (km/s) = 4.13345 13.64239 9.19319
#
# Compressibility (1/GPa) = 0.02820350
#
# Stress axis : x y z
#
# Youngs Moduli (GPa) = 43.54434 -9.19459 72.88215
#
# Poissons Ratio (x) = 0.66749 0.79622
# Poissons Ratio (y) = -3.16113 0.84050
# Poissons Ratio (z) = 0.47571 -0.10603
#
# Static dielectric constant tensor:
#      x y z
#    x 1.960200 0.000000 -0.014560 
#    y 0.000000 1.708800 0.000000 
#    z -0.014560 0.000000 1.687030 
# 
# From -- ./inp_files/378051.got.cif
#   From: 2010.05.17/outbox.ucp.g08.bks.cvg/sg12_190_cif.got.tgz:378051.got - 2010.06.11 11:47:21.
