data_PCOD9225814
_publ_section_title
;
Structure prediction by ZEFSAII (Michael W. Deem and Ramdas Pophale) SiO2 
 PCOD9225814
Probable space group: C 2/M
;
_chemical_formula_sum "Si O2"
_cell_formula_units_Z 32
_cell_length_a 9.000000
_cell_length_b 21.000000
_cell_length_c 21.000000
_cell_angle_alpha 90.000000
_cell_angle_beta 60.000000
_cell_angle_gamma 90.000000
_cell_volume 3437.254828
_symmetry_space_group_name_H-M "C 2/M"
_symmetry_group_IT_number 12
_symmetry_cell_setting 'monoclinic'
loop_
_space_group_symop_operation_xyz
x,y,z
-x,y,-z
-x,-y,-z
x,-y,z
1/2+x,1/2+y,z
1/2-x,1/2+y,-z
1/2-x,1/2-y,-z
1/2+x,1/2-y,z
loop_
_atom_site_type_symbol
_atom_site_label
_atom_site_fract_x
_atom_site_fract_y
_atom_site_fract_z
Si Si1 0.042406 0.800698 0.853791
Si Si2 0.640976 0.174825 0.913852
Si Si3 0.638481 0.873623 0.232374
Si Si4 0.422979 0.342857 0.647275
Si Si5 0.838833 0.576082 0.208754
Si Si6 0.395270 0.246116 0.299105
Si Si7 0.280334 0.576823 0.468091
Si Si8 0.556017 0.075705 0.388594
O O1 0.085219 0.741151 0.890915
O O2 0.172994 0.859907 0.836969
O O3 0.100212 0.779267 0.770640
O O4 0.838594 0.816508 0.896360
O O5 0.644251 0.118544 0.859512
O O6 0.500000 0.162856 0.000000
O O7 0.512979 0.913605 0.212892
O O8 0.544483 0.805885 0.259994
O O9 0.631494 0.900753 0.305662
O O10 0.314720 0.390947 0.716653
O O11 0.550877 0.298126 0.660726
O O12 0.279408 0.293567 0.651146
O O13 0.541956 0.384299 0.574368
O O14 0.810440 0.500000 0.204936
O O15 0.309602 0.500000 0.467961
O O16 0.137957 0.597946 0.551264
O O17 0.181529 0.587775 0.421612
O O18 0.540451 0.000000 0.387510
#
# Coordination Sequence:
#
# PCOD9225814 Si02
#       8
#     8   8   8   8   8   8   8   8
#     4  12  19  40  63  90 121 157 198 249 300 357
#     4  12  24  40  64  94 125 160 198 245 307 368
#     4  11  20  36  63  88 121 154 201 252 303 356
#     4  11  20  36  60  85 117 159 199 245 300 355
#     4  11  23  40  60  89 123 158 202 253 299 356
#     4  11  19  33  59  83 116 149 191 247 297 343
#     4   9  19  36  58  86 121 160 206 255 303 356
#     4   9  19  35  58  87 120 161 205 257 303 348
#
# _framework density 9.3097549999999991
#
# number of rings (size 3 to 8) (size 9 to 14) (size 15 to 20)
#    0.000    1.250    6.250    2.625    0.000    0.250 
#    0.000    3.750    2.750    7.500    0.000    0.000 
#    0.000    0.000    0.000    0.000    0.000    0.000 
#
# Total GULP energy -178628.693819 kJ/mol
# GULP energy per Si atom -5582.146682 kJ/mol
# Density = 0.928857 g / cm^3
# Si number density = 9.309755 Si / 1000 Ang^3
#
#
#
# Elastic Constant Matrix: (Units=GPa)
#
#
# Indices 1 2 3 4 5 6 
#
# 1 94.5995 43.5854 44.5734 0.0000 -29.3898 0.0000
# 2 43.5854 91.9754 36.2559 0.0000 -12.9990 0.0000
# 3 44.5734 36.2559 82.7543 0.0000 -22.1825 0.0000
# 4 0.0000 0.0000 0.0000 28.7530 0.0000 -3.0451
# 5 -29.3898 -12.9990 -22.1825 0.0000 35.4181 0.0000
# 6 0.0000 0.0000 0.0000 -3.0451 0.0000 28.1209
#
#
#
# Elastic Compliance Matrix: (Units=1/GPa)
#
#
# Indices 1 2 3 4 5 6 
#
# 1 0.018584 -0.005427 -0.004846 0.000000 0.010394 0.000000
# 2 -0.005427 0.014791 -0.003976 0.000000 -0.001566 0.000000
# 3 -0.004846 -0.003976 0.017987 0.000000 0.005785 0.000000
# 4 0.000000 0.000000 0.000000 0.035182 0.000000 0.003810
# 5 0.010394 -0.001566 0.005785 0.000000 0.039907 0.000000
# 6 0.000000 0.000000 0.000000 0.003810 0.000000 0.035973
#
#
# Mechanical properties :
#
#
# Convention : Reuss Voigt Hill
#
# Bulk Modulus (GPa) = 43.74032 57.57318 50.65675
# Shear Modulus (GPa) = 25.18335 28.11937 26.65136
#
# Velocity S-wave (km/s) = 3.68166 3.89036 3.78745
# Velocity P-wave (km/s) = 6.45101 7.15317 6.81114
#
# Compressibility (1/GPa) = 0.02286220
#
# Stress axis : x y z
#
# Youngs Moduli (GPa) = 53.81022 67.61068 55.59660
#
# Poissons Ratio (x) = 0.36695 0.26941
# Poissons Ratio (y) = 0.29205 0.22107
# Poissons Ratio (z) = 0.26075 0.26884
#
# Static dielectric constant tensor:
#      x y z
#    x 1.730120 0.000000 0.019960 
#    y 0.000000 1.652670 0.000000 
#    z 0.019960 0.000000 1.645670 
# 
# From -- ./inp_files/301695.got.cif
#   From: 2010.05.17/outbox.ucp.g08.bks.cvg/sg12_151_cif.got.tgz:301695.got - 2010.06.11 11:47:21.
