data_PCOD9225785
_publ_section_title
;
Structure prediction by ZEFSAII (Michael W. Deem and Ramdas Pophale) SiO2 
 PCOD9225785
Probable space group: C 2/M
;
_chemical_formula_sum "Si O2"
_cell_formula_units_Z 22
_cell_length_a 12.000000
_cell_length_b 27.000000
_cell_length_c 15.000000
_cell_angle_alpha 90.000000
_cell_angle_beta 150.000000
_cell_angle_gamma 90.000000
_cell_volume 2430.000000
_symmetry_space_group_name_H-M "C 2/M"
_symmetry_group_IT_number 12
_symmetry_cell_setting 'monoclinic'
loop_
_space_group_symop_operation_xyz
x,y,z
-x,y,-z
-x,-y,-z
x,-y,z
1/2+x,1/2+y,z
1/2-x,1/2+y,-z
1/2-x,1/2-y,-z
1/2+x,1/2-y,z
loop_
_atom_site_type_symbol
_atom_site_label
_atom_site_fract_x
_atom_site_fract_y
_atom_site_fract_z
Si Si1 0.232154 0.697391 0.317469
Si Si2 0.889667 0.888883 0.131406
Si Si3 0.069763 0.639782 0.752128
Si Si4 0.000000 0.636156 0.000000
Si Si5 0.243294 0.186204 0.292499
Si Si6 0.164243 0.556448 0.527871
O O1 0.500000 0.688242 0.500000
O O2 0.199113 0.755768 0.276906
O O3 0.100631 0.677450 0.314569
O O4 0.118276 0.668384 0.157733
O O5 0.714532 0.888000 0.094203
O O6 0.059750 0.842766 0.225141
O O7 0.077038 0.931601 0.269801
O O8 0.726007 0.887324 0.932920
O O9 0.231443 0.667716 0.792738
O O10 0.924883 0.597802 0.602179
O O11 0.500000 0.177281 0.500000
O O12 0.146461 0.500000 0.482072
O O13 0.000000 0.560095 0.500000
#
# Coordination Sequence:
#
# PCOD9225785 Si02
#       6
#     8   8   8   4   8   8
#     4  10  24  36  58  88 126 170 205 245 288 361
#     4  11  22  40  61  87 125 162 199 256 295 363
#     4  11  22  39  61  91 126 162 203 245 306 360
#     4  10  24  38  59  86 124 166 209 236 300 356
#     4  11  22  36  60  88 123 168 203 246 297 353
#     4  11  23  42  67  93 119 152 201 262 319 358
#
# _framework density 9.0534979999999994
#
# number of rings (size 3 to 8) (size 9 to 14) (size 15 to 20)
#    0.000    1.273    3.636    1.636    5.091    3.636 
#    0.000    2.273    0.000   10.364    0.000    0.000 
#    0.000    0.000    0.000    0.000    0.000    0.000 
#
# Total GULP energy -122566.207791 kJ/mol
# GULP energy per Si atom -5571.191263 kJ/mol
# Density = 0.903289 g / cm^3
# Si number density = 9.053498 Si / 1000 Ang^3
#
#
#
# Elastic Constant Matrix: (Units=GPa)
#
#
# Indices 1 2 3 4 5 6 
#
# 1 144.6348 48.1890 32.3694 0.0000 18.9178 0.0000
# 2 48.1890 109.0137 28.9901 0.0000 -0.5195 0.0000
# 3 32.3694 28.9901 90.7200 0.0000 13.0718 0.0000
# 4 0.0000 0.0000 0.0000 16.3134 0.0000 6.0156
# 5 18.9178 -0.5195 13.0718 0.0000 40.2494 0.0000
# 6 0.0000 0.0000 0.0000 6.0156 0.0000 21.2878
#
#
#
# Elastic Compliance Matrix: (Units=1/GPa)
#
#
# Indices 1 2 3 4 5 6 
#
# 1 0.008930 -0.003565 -0.001506 0.000000 -0.003754 0.000000
# 2 -0.003565 0.011506 -0.002799 0.000000 0.002733 0.000000
# 3 -0.001506 -0.002799 0.012965 0.000000 -0.003539 0.000000
# 4 0.000000 0.000000 0.000000 0.068430 0.000000 -0.019337
# 5 -0.003754 0.002733 -0.003539 0.000000 0.027794 0.000000
# 6 0.000000 0.000000 0.000000 -0.019337 0.000000 0.052440
#
#
# Mechanical properties :
#
#
# Convention : Reuss Voigt Hill
#
# Bulk Modulus (GPa) = 56.62096 62.60728 59.61412
# Shear Modulus (GPa) = 24.54704 31.22481 27.88592
#
# Velocity S-wave (km/s) = 3.68593 4.15717 3.92862
# Velocity P-wave (km/s) = 7.03227 7.59566 7.31939
#
# Compressibility (1/GPa) = 0.01766131
#
# Stress axis : x y z
#
# Youngs Moduli (GPa) = 111.98560 86.90961 77.13325
#
# Poissons Ratio (x) = 0.30981 0.11617
# Poissons Ratio (y) = 0.39919 0.21588
# Poissons Ratio (z) = 0.16867 0.24324
#
# Static dielectric constant tensor:
#      x y z
#    x 1.642740 0.000000 -0.020400 
#    y 0.000000 1.625590 0.000000 
#    z -0.020400 0.000000 1.654380 
# 
# From -- ./inp_files/209214.got.cif
#   From: 2010.05.17/outbox.ucp.g08.bks.cvg/sg12_105_cif.got.tgz:209214.got - 2010.06.11 11:47:21.
