data_PCOD9225668
_publ_section_title
;
Structure prediction by ZEFSAII (Michael W. Deem and Ramdas Pophale) SiO2 
 PCOD9225668
Probable space group: C 2/M
;
_chemical_formula_sum "Si O2"
_cell_formula_units_Z 24
_cell_length_a 21.000000
_cell_length_b 9.000000
_cell_length_c 27.000000
_cell_angle_alpha 90.000000
_cell_angle_beta 30.000000
_cell_angle_gamma 90.000000
_cell_volume 2551.500000
_symmetry_space_group_name_H-M "C 2/M"
_symmetry_group_IT_number 12
_symmetry_cell_setting 'monoclinic'
loop_
_space_group_symop_operation_xyz
x,y,z
-x,y,-z
-x,-y,-z
x,-y,z
1/2+x,1/2+y,z
1/2-x,1/2+y,-z
1/2-x,1/2-y,-z
1/2+x,1/2-y,z
loop_
_atom_site_type_symbol
_atom_site_label
_atom_site_fract_x
_atom_site_fract_y
_atom_site_fract_z
Si Si1 0.002103 0.822586 0.886701
Si Si2 0.982753 0.676580 0.569956
Si Si3 0.240178 0.676197 0.122619
Si Si4 0.250752 0.821491 0.553874
Si Si5 0.760815 0.677166 0.215646
Si Si6 0.012639 0.678609 0.771265
O O1 0.116496 0.753642 0.841816
O O2 0.999776 0.746599 0.834574
O O3 0.021494 0.000000 0.868539
O O4 0.867277 0.798388 0.004857
O O5 0.955697 0.500000 0.594163
O O6 0.865534 0.768220 0.670761
O O7 0.000000 0.705732 0.500000
O O8 0.114308 0.708500 0.510089
O O9 0.235331 0.500000 0.138361
O O10 0.247837 0.768503 0.167835
O O11 0.113944 0.710997 0.175840
O O12 0.250000 0.750000 0.500000
O O13 0.135307 0.750570 0.662536
O O14 0.235628 0.000000 0.561103
O O15 0.773039 0.500000 0.209953
O O16 0.026500 0.500000 0.764597
#
# Coordination Sequence:
#
# PCOD9225668 Si02
#       6
#     8   8   8   8   8   8
#     4  11  23  41  64  88 120 162 203 244 297 359
#     4  10  22  41  63  85 114 156 202 245 293 354
#     4  10  23  42  63  88 121 162 202 243 296 358
#     4  11  23  39  61  89 121 159 201 245 297 356
#     4  12  25  39  61  92 123 156 199 252 302 352
#     4  11  23  40  63  92 124 156 198 251 302 355
#
# _framework density 9.4062319999999993
#
# number of rings (size 3 to 8) (size 9 to 14) (size 15 to 20)
#    0.000    1.167    0.000    6.000    0.000   11.667 
#    0.000    0.000    0.000    0.000    0.000    0.000 
#    0.000    0.000    0.000    0.000    0.000    0.000 
#
# Total GULP energy -134311.887280 kJ/mol
# GULP energy per Si atom -5596.328637 kJ/mol
# Density = 0.938482 g / cm^3
# Si number density = 9.406232 Si / 1000 Ang^3
#
#
#
# Elastic Constant Matrix: (Units=GPa)
#
#
# Indices 1 2 3 4 5 6 
#
# 1 69.9074 18.8206 -17.2525 0.0003 0.7669 0.0000
# 2 18.8206 70.9009 22.6539 0.0002 -1.0528 -0.0001
# 3 -17.2525 22.6539 54.4812 0.0001 -3.7274 0.0001
# 4 0.0003 0.0002 0.0001 32.4750 0.0000 3.2220
# 5 0.7669 -1.0528 -3.7274 0.0000 39.4055 0.0000
# 6 0.0000 -0.0001 0.0001 3.2220 0.0000 39.7741
#
#
#
# Elastic Compliance Matrix: (Units=1/GPa)
#
#
# Indices 1 2 3 4 5 6 
#
# 1 0.018711 -0.007914 0.009236 0.000000 0.000298 0.000000
# 2 -0.007914 0.019614 -0.010684 0.000000 -0.000333 0.000000
# 3 0.009236 -0.010684 0.025858 0.000000 0.001981 0.000000
# 4 0.000000 0.000000 0.000000 0.031042 0.000000 -0.002515
# 5 0.000298 -0.000333 0.001981 0.000000 0.025550 0.000000
# 6 0.000000 0.000000 0.000000 -0.002515 0.000000 0.025346
#
#
# Mechanical properties :
#
#
# Convention : Reuss Voigt Hill
#
# Bulk Modulus (GPa) = 21.99756 27.08148 24.53952
# Shear Modulus (GPa) = 27.77816 33.73540 30.75678
#
# Velocity S-wave (km/s) = 3.84680 4.23927 4.04780
# Velocity P-wave (km/s) = 5.60794 6.19586 5.90921
#
# Compressibility (1/GPa) = 0.04545959
#
# Stress axis : x y z
#
# Youngs Moduli (GPa) = 53.44370 50.98472 38.67279
#
# Poissons Ratio (x) = 0.40347 -0.35719
# Poissons Ratio (y) = 0.42293 0.41319
# Poissons Ratio (z) = -0.49362 0.54474
#
# Static dielectric constant tensor:
#      x y z
#    x 1.618740 0.000000 0.001320 
#    y 0.000000 1.627740 0.000000 
#    z 0.001320 0.000000 1.622270 
# 
# From -- ./inp_files/365381.got.cif
#   From: 2010.05.17/outbox.ucp.g08.bks.cvg/sg12_183_cif.got.tgz:365381.got - 2010.06.11 11:47:21.
