data_PCOD9225809
_publ_section_title
;
Structure prediction by ZEFSAII (Michael W. Deem and Ramdas Pophale) SiO2 
 PCOD9225809
Probable space group: C 2/M
;
_chemical_formula_sum "Si O2"
_cell_formula_units_Z 16
_cell_length_a 15.000000
_cell_length_b 12.000000
_cell_length_c 9.000000
_cell_angle_alpha 90.000000
_cell_angle_beta 70.000000
_cell_angle_gamma 90.000000
_cell_volume 1522.302046
_symmetry_space_group_name_H-M "C 2/M"
_symmetry_group_IT_number 12
_symmetry_cell_setting 'monoclinic'
loop_
_space_group_symop_operation_xyz
x,y,z
-x,y,-z
-x,-y,-z
x,-y,z
1/2+x,1/2+y,z
1/2-x,1/2+y,-z
1/2-x,1/2-y,-z
1/2+x,1/2-y,z
loop_
_atom_site_type_symbol
_atom_site_label
_atom_site_fract_x
_atom_site_fract_y
_atom_site_fract_z
Si Si1 0.100551 0.000000 0.291099
Si Si2 0.770369 0.211214 0.321562
Si Si3 0.071042 0.759676 0.320902
Si Si4 0.933718 0.373781 0.181069
Si Si5 0.374336 0.500000 0.380712
O O1 0.116429 0.126390 0.227088
O O2 0.149153 0.000000 0.428461
O O3 0.986801 0.000000 0.331967
O O4 0.750000 0.250000 0.500000
O O5 0.666062 0.193181 0.312357
O O6 0.837527 0.304413 0.209433
O O7 0.834396 0.103538 0.312402
O O8 0.000000 0.790626 0.500000
O O9 0.999876 0.690661 0.260276
O O10 0.911172 0.500000 0.243349
O O11 0.000000 0.379228 0.000000
#
# Coordination Sequence:
#
# PCOD9225809 Si02
#       5
#     4   8   8   8   4
#     4  11  16  36  60  90 134 158 204 269 330 367
#     4  12  23  38  69  99 129 169 220 267 319 380
#     4  12  22  39  66 101 126 168 219 272 318 384
#     4  11  27  48  64  91 137 177 213 267 333 391
#     4  11  20  36  59 102 129 158 213 276 320 366
#
# _framework density 10.510398
#
# number of rings (size 3 to 8) (size 9 to 14) (size 15 to 20)
#    0.000    0.500   10.000    0.000    5.250    1.500 
#    0.000    2.500    0.000    0.000    0.000    0.000 
#    0.000    0.000    0.000    0.000    0.000    0.000 
#
# Total GULP energy -89112.612469 kJ/mol
# GULP energy per Si atom -5569.538279 kJ/mol
# Density = 1.048648 g / cm^3
# Si number density = 10.510398 Si / 1000 Ang^3
#
#
#
# Elastic Constant Matrix: (Units=GPa)
#
#
# Indices 1 2 3 4 5 6 
#
# 1 151.5996 33.8359 4.1339 0.0000 -3.0378 0.0000
# 2 33.8359 133.1906 12.8471 0.0000 6.4622 0.0000
# 3 4.1339 12.8471 20.3023 0.0000 -10.6191 0.0000
# 4 0.0000 0.0000 0.0000 14.7265 0.0000 9.8339
# 5 -3.0378 6.4622 -10.6191 0.0000 22.5274 0.0000
# 6 0.0000 0.0000 0.0000 9.8339 0.0000 38.1458
#
#
#
# Elastic Compliance Matrix: (Units=1/GPa)
#
#
# Indices 1 2 3 4 5 6 
#
# 1 0.007050 -0.001959 0.000790 0.000000 0.001885 0.000000
# 2 -0.001959 0.009253 -0.009268 0.000000 -0.007287 0.000000
# 3 0.000790 -0.009268 0.074864 0.000000 0.038055 0.000000
# 4 0.000000 0.000000 0.000000 0.082025 0.000000 -0.021146
# 5 0.001885 -0.007287 0.038055 0.000000 0.064673 0.000000
# 6 0.000000 0.000000 0.000000 -0.021146 0.000000 0.031667
#
#
# Mechanical properties :
#
#
# Convention : Reuss Voigt Hill
#
# Bulk Modulus (GPa) = 14.22619 45.19184 29.70901
# Shear Modulus (GPa) = 15.93183 32.03166 23.98175
#
# Velocity S-wave (km/s) = 2.75600 3.90783 3.38132
# Velocity P-wave (km/s) = 4.11215 6.47355 5.42294
#
# Compressibility (1/GPa) = 0.07029290
#
# Stress axis : x y z
#
# Youngs Moduli (GPa) = 141.85033 108.07163 13.35756
#
# Poissons Ratio (x) = 0.21166 -0.01055
# Poissons Ratio (y) = 0.27782 0.12380
# Poissons Ratio (z) = -0.11202 1.00162
#
# Static dielectric constant tensor:
#      x y z
#    x 2.148070 0.000000 0.028260 
#    y 0.000000 1.984730 0.000000 
#    z 0.028260 0.000000 1.814920 
# 
# From -- ./inp_files/56828.got.cif
#   From: 2010.05.17/outbox.ucp.g08.bks.cvg/sg12_29_cif.got.tgz:56828.got - 2010.06.11 11:47:21.
