data_PCOD9225105
_publ_section_title
;
Structure prediction by ZEFSAII (Michael W. Deem and Ramdas Pophale) SiO2 
 PCOD9225105
Probable space group: C 2/M
;
_chemical_formula_sum "Si O2"
_cell_formula_units_Z 32
_cell_length_a 15.000000
_cell_length_b 15.000000
_cell_length_c 18.000000
_cell_angle_alpha 90.000000
_cell_angle_beta 50.000000
_cell_angle_gamma 90.000000
_cell_volume 3102.479995
_symmetry_space_group_name_H-M "C 2/M"
_symmetry_group_IT_number 12
_symmetry_cell_setting 'monoclinic'
loop_
_space_group_symop_operation_xyz
x,y,z
-x,y,-z
-x,-y,-z
x,-y,z
1/2+x,1/2+y,z
1/2-x,1/2+y,-z
1/2-x,1/2-y,-z
1/2+x,1/2-y,z
loop_
_atom_site_type_symbol
_atom_site_label
_atom_site_fract_x
_atom_site_fract_y
_atom_site_fract_z
Si Si1 0.358685 0.739457 0.497394
Si Si2 0.030578 0.095158 0.334059
Si Si3 0.976030 0.152875 0.829578
Si Si4 0.743299 0.842422 0.708758
Si Si5 0.210021 0.846612 0.790808
Si Si6 0.026922 0.601360 0.376113
Si Si7 0.503814 0.860719 0.213091
Si Si8 0.269045 0.396514 0.047299
O O1 0.250000 0.750000 0.500000
O O2 0.449586 0.670968 0.412014
O O3 0.304176 0.700565 0.602575
O O4 0.435563 0.829896 0.461967
O O5 0.039855 0.103417 0.240145
O O6 0.157410 0.102617 0.302989
O O7 0.977015 0.000000 0.381963
O O8 0.091930 0.121777 0.812510
O O9 0.999354 0.254116 0.791993
O O10 0.859899 0.150443 0.942710
O O11 0.713744 0.759601 0.778300
O O12 0.620848 0.889327 0.754079
O O13 0.333761 0.880115 0.690572
O O14 0.208767 0.869172 0.878798
O O15 0.002277 0.500000 0.410926
O O16 0.007916 0.611615 0.297075
O O17 0.629030 0.886596 0.110392
O O18 0.297441 0.500000 0.024626
#
# Coordination Sequence:
#
# PCOD9225105 Si02
#       8
#     8   8   8   8   8   8   8   8
#     4  12  23  46  68  93 134 172 217 283 337 391
#     4  12  26  43  66  95 133 179 227 272 325 397
#     4  11  22  42  67  94 134 182 221 270 338 402
#     4  11  23  42  69  89 133 175 222 276 329 398
#     4  10  21  40  66  95 130 175 215 278 339 395
#     4  11  22  40  68  98 131 168 218 277 338 394
#     4  10  20  41  66  94 128 175 217 276 332 395
#     4  11  23  39  65  99 135 168 221 287 337 400
#
# _framework density 10.314329000000001
#
# number of rings (size 3 to 8) (size 9 to 14) (size 15 to 20)
#    0.000    1.000    3.750    4.500    0.000    5.000 
#    0.000    3.750    0.000    1.500    0.000    0.000 
#    0.000    0.000    0.000    0.000    0.000    0.000 
#
# Total GULP energy -178826.601356 kJ/mol
# GULP energy per Si atom -5588.331292 kJ/mol
# Density = 1.029085 g / cm^3
# Si number density = 10.314329 Si / 1000 Ang^3
#
#
#
# Elastic Constant Matrix: (Units=GPa)
#
#
# Indices 1 2 3 4 5 6 
#
# 1 158.7248 33.9714 53.3145 0.0000 -25.0128 0.0000
# 2 33.9714 102.3299 24.7898 0.0000 0.1516 0.0000
# 3 53.3145 24.7898 90.5360 0.0000 -19.4294 0.0000
# 4 0.0000 0.0000 0.0000 25.4128 0.0000 77.3841
# 5 -25.0128 0.1516 -19.4294 0.0000 34.4266 0.0000
# 6 0.0000 0.0000 0.0000 77.3841 0.0000 123.7894
#
#
#
# Elastic Compliance Matrix: (Units=1/GPa)
#
#
# Indices 1 2 3 4 5 6 
#
# 1 0.008606 -0.001987 -0.003618 0.000000 0.004219 0.000000
# 2 -0.001987 0.011035 -0.002471 0.000000 -0.002887 0.000000
# 3 -0.003618 -0.002471 0.015122 0.000000 0.005917 0.000000
# 4 0.000000 0.000000 0.000000 -0.043550 0.000000 0.027224
# 5 0.004219 -0.002887 0.005917 0.000000 0.035465 0.000000
# 6 0.000000 0.000000 0.000000 0.027224 0.000000 -0.008940
#
#
# Mechanical properties :
#
#
# Convention : Reuss Voigt Hill
#
# Bulk Modulus (GPa) = 53.73184 63.97136 58.85160
# Shear Modulus (GPa) = 124.71165 52.69341 88.70253
#
# Velocity S-wave (km/s) = 7.78375 5.05957 6.56453
# Velocity P-wave (km/s) = 10.33857 8.07531 9.27622
#
# Compressibility (1/GPa) = 0.01861094
#
# Stress axis : x y z
#
# Youngs Moduli (GPa) = 116.20301 90.62302 66.12722
#
# Poissons Ratio (x) = 0.18003 0.23926
# Poissons Ratio (y) = 0.23085 0.16340
# Poissons Ratio (z) = 0.42045 0.22393
#
# Static dielectric constant tensor:
#      x y z
#    x 1.756640 0.000000 -0.000510 
#    y 0.000000 1.750900 0.000000 
#    z -0.000510 0.000000 1.692220 
# 
# From -- ./inp_files/270672.got.cif
#   From: 2010.05.17/outbox.ucp.g08.bks.cvg/sg12_136_cif.got.tgz:270672.got - 2010.06.11 11:47:21.
