data_PCOD9225687
_publ_section_title
;
Structure prediction by ZEFSAII (Michael W. Deem and Ramdas Pophale) SiO2 
 PCOD9225687
Probable space group: C 2/M
;
_chemical_formula_sum "Si O2"
_cell_formula_units_Z 28
_cell_length_a 18.000000
_cell_length_b 15.000000
_cell_length_c 21.000000
_cell_angle_alpha 90.000000
_cell_angle_beta 30.000000
_cell_angle_gamma 90.000000
_cell_volume 2835.000000
_symmetry_space_group_name_H-M "C 2/M"
_symmetry_group_IT_number 12
_symmetry_cell_setting 'monoclinic'
loop_
_space_group_symop_operation_xyz
x,y,z
-x,y,-z
-x,-y,-z
x,-y,z
1/2+x,1/2+y,z
1/2-x,1/2+y,-z
1/2-x,1/2-y,-z
1/2+x,1/2-y,z
loop_
_atom_site_type_symbol
_atom_site_label
_atom_site_fract_x
_atom_site_fract_y
_atom_site_fract_z
Si Si1 0.676111 0.769069 0.392344
Si Si2 0.320499 0.708502 0.151905
Si Si3 0.827221 0.107228 0.382316
Si Si4 0.692106 0.892787 0.622301
Si Si5 0.153709 0.608141 0.161078
Si Si6 0.173448 0.401743 0.891541
Si Si7 0.334897 0.393936 0.903498
O O1 0.500000 0.764100 0.500000
O O2 0.775054 0.807151 0.259267
O O3 0.711874 0.838316 0.423603
O O4 0.742128 0.674456 0.372151
O O5 0.220580 0.652573 0.175698
O O6 0.272309 0.812274 0.181461
O O7 0.500000 0.699695 0.000000
O O8 0.786690 0.121036 0.486875
O O9 0.998403 0.136938 0.239440
O O10 0.815447 0.000000 0.379737
O O11 0.518420 0.873169 0.731803
O O12 0.699238 0.000000 0.633821
O O13 0.162804 0.500000 0.160578
O O14 0.260973 0.640348 0.023491
O O15 0.237222 0.500000 0.828068
O O16 0.216145 0.385396 0.933848
O O17 0.000000 0.405810 0.000000
O O18 0.351662 0.500000 0.900542
#
# Coordination Sequence:
#
# PCOD9225687 Si02
#       7
#     8   8   8   8   8   8   8
#     4  12  27  42  62  93 128 164 203 256 315 365
#     4  11  25  40  60  97 126 166 205 247 313 366
#     4  10  22  43  68  93 120 162 211 253 305 368
#     4  10  24  44  66  90 122 165 210 255 307 366
#     4  10  22  41  65  92 124 163 207 255 305 362
#     4   9  20  36  56  86 129 166 201 247 301 366
#     4   9  19  36  64  94 118 159 208 253 304 356
#
# _framework density 9.8765429999999999
#
# number of rings (size 3 to 8) (size 9 to 14) (size 15 to 20)
#    0.000    1.857    0.000    2.143    8.000    2.571 
#    0.000    0.000    0.000    0.000    0.000    0.000 
#    0.000    0.000    0.000    0.000    0.000    0.000 
#
# Total GULP energy -156159.599316 kJ/mol
# GULP energy per Si atom -5577.128547 kJ/mol
# Density = 0.985406 g / cm^3
# Si number density = 9.876543 Si / 1000 Ang^3
#
#
#
# Elastic Constant Matrix: (Units=GPa)
#
#
# Indices 1 2 3 4 5 6 
#
# 1 142.9334 36.2929 51.1189 0.0008 -18.2564 -0.0001
# 2 36.2929 77.9817 11.8857 -0.0016 -11.1757 -0.0001
# 3 51.1189 11.8857 126.5811 0.0001 -6.9596 0.0000
# 4 0.0008 -0.0016 0.0001 17.7335 0.0009 -2.7003
# 5 -18.2564 -11.1757 -6.9596 0.0009 35.2306 0.0001
# 6 -0.0001 -0.0001 0.0000 -2.7003 0.0001 50.2941
#
#
#
# Elastic Compliance Matrix: (Units=1/GPa)
#
#
# Indices 1 2 3 4 5 6 
#
# 1 0.009463 -0.003445 -0.003325 -0.000001 0.003154 0.000000
# 2 -0.003445 0.014825 0.000162 0.000001 0.002949 0.000000
# 3 -0.003325 0.000162 0.009236 0.000000 0.000153 0.000000
# 4 -0.000001 0.000001 0.000000 0.056855 -0.000002 0.003053
# 5 0.003154 0.002949 0.000153 -0.000002 0.030985 0.000000
# 6 0.000000 0.000000 0.000000 0.003053 0.000000 0.020047
#
#
# Mechanical properties :
#
#
# Convention : Reuss Voigt Hill
#
# Bulk Modulus (GPa) = 49.24414 60.67679 54.96047
# Shear Modulus (GPa) = 30.97955 37.19821 34.08888
#
# Velocity S-wave (km/s) = 3.96452 4.34425 4.15872
# Velocity P-wave (km/s) = 6.77795 7.47981 7.13751
#
# Compressibility (1/GPa) = 0.02030698
#
# Stress axis : x y z
#
# Youngs Moduli (GPa) = 105.67506 67.45335 108.27261
#
# Poissons Ratio (x) = 0.23240 0.35997
# Poissons Ratio (y) = 0.36409 -0.01749
# Poissons Ratio (z) = 0.35133 -0.01089
#
# Static dielectric constant tensor:
#      x y z
#    x 1.695020 0.000000 0.017650 
#    y 0.000000 1.730100 0.000000 
#    z 0.017650 0.000000 1.724470 
# 
# From -- ./inp_files/316680.got.cif
#   From: 2010.05.17/outbox.ucp.g08.bks.cvg/sg12_159_cif.got.tgz:316680.got - 2010.06.11 11:47:21.
