data_PCOD9225758
_publ_section_title
;
Structure prediction by ZEFSAII (Michael W. Deem and Ramdas Pophale) SiO2 
 PCOD9225758
Probable space group: C 2/M
;
_chemical_formula_sum "Si O2"
_cell_formula_units_Z 24
_cell_length_a 27.000000
_cell_length_b 9.000000
_cell_length_c 21.000000
_cell_angle_alpha 90.000000
_cell_angle_beta 30.000000
_cell_angle_gamma 90.000000
_cell_volume 2551.500000
_symmetry_space_group_name_H-M "C 2/M"
_symmetry_group_IT_number 12
_symmetry_cell_setting 'monoclinic'
loop_
_space_group_symop_operation_xyz
x,y,z
-x,y,-z
-x,-y,-z
x,-y,z
1/2+x,1/2+y,z
1/2-x,1/2+y,-z
1/2-x,1/2-y,-z
1/2+x,1/2-y,z
loop_
_atom_site_type_symbol
_atom_site_label
_atom_site_fract_x
_atom_site_fract_y
_atom_site_fract_z
Si Si1 0.325138 0.326679 0.464410
Si Si2 0.451340 0.675115 0.837072
Si Si3 0.717029 0.679504 0.229101
Si Si4 0.093314 0.179811 0.493994
Si Si5 0.110543 0.320089 0.226848
Si Si6 0.570952 0.679914 0.984593
O O1 0.250000 0.250000 0.500000
O O2 0.435617 0.309354 0.313111
O O3 0.330951 0.279825 0.532437
O O4 0.199789 0.000000 0.507361
O O5 0.422954 0.500000 0.865882
O O6 0.390880 0.758483 0.845833
O O7 0.453494 0.715966 0.911482
O O8 0.721163 0.500000 0.216579
O O9 0.636388 0.710570 0.375487
O O10 0.689849 0.754172 0.190556
O O11 0.821342 0.742464 0.139751
O O12 0.992648 0.264102 0.625565
O O13 0.075649 0.000000 0.517627
O O14 0.116756 0.500000 0.218314
O O15 0.578150 0.500000 0.974414
O O16 0.500000 0.718793 0.000000
#
# Coordination Sequence:
#
# PCOD9225758 Si02
#       6
#     8   8   8   8   8   8
#     4   9  18  32  53  81 111 148 190 232 282 340
#     4   9  20  40  60  81 117 158 192 236 295 352
#     4  11  23  39  61  87 119 161 197 236 293 355
#     4   9  20  38  57  83 121 158 191 233 294 357
#     4  11  22  37  61  92 119 149 195 249 295 343
#     4  10  23  42  63  87 117 155 198 246 293 340
#
# _framework density 9.4062319999999993
#
# number of rings (size 3 to 8) (size 9 to 14) (size 15 to 20)
#    0.000    2.167    0.000    3.500    2.333    7.667 
#    0.000    0.000    0.000    0.000    0.000    0.000 
#    0.000    0.000    0.000    0.000    0.000    0.000 
#
# Total GULP energy -133645.617723 kJ/mol
# GULP energy per Si atom -5568.567405 kJ/mol
# Density = 0.938482 g / cm^3
# Si number density = 9.406232 Si / 1000 Ang^3
#
#
#
# Elastic Constant Matrix: (Units=GPa)
#
#
# Indices 1 2 3 4 5 6 
#
# 1 197.1320 54.7169 34.8488 0.0001 5.0891 0.0003
# 2 54.7169 70.8038 22.1711 -0.0003 -0.1596 -0.0001
# 3 34.8488 22.1711 48.0186 -0.0017 17.0303 0.0008
# 4 0.0001 -0.0003 -0.0017 24.0900 -0.0001 -2.0556
# 5 5.0891 -0.1596 17.0303 -0.0001 45.3254 0.0004
# 6 0.0003 -0.0001 0.0008 -2.0556 0.0004 43.0917
#
#
#
# Elastic Compliance Matrix: (Units=1/GPa)
#
#
# Indices 1 2 3 4 5 6 
#
# 1 0.006799 -0.004285 -0.003091 0.000000 0.000383 0.000000
# 2 -0.004285 0.019671 -0.007116 0.000000 0.003224 0.000000
# 3 -0.003091 -0.007116 0.030274 0.000002 -0.011053 0.000000
# 4 0.000000 0.000000 0.000002 0.041681 -0.000001 0.001988
# 5 0.000383 0.003224 -0.011053 -0.000001 0.026184 0.000000
# 6 0.000000 0.000000 0.000000 0.001988 0.000000 0.023301
#
#
# Mechanical properties :
#
#
# Convention : Reuss Voigt Hill
#
# Bulk Modulus (GPa) = 36.02444 59.93645 47.98044
# Shear Modulus (GPa) = 26.86041 36.11592 31.48816
#
# Velocity S-wave (km/s) = 3.78272 4.38629 4.09564
# Velocity P-wave (km/s) = 6.18623 7.58827 6.92284
#
# Compressibility (1/GPa) = 0.02775893
#
# Stress axis : x y z
#
# Youngs Moduli (GPa) = 147.08555 50.83739 33.03112
#
# Poissons Ratio (x) = 0.21785 0.10211
# Poissons Ratio (y) = 0.63028 0.23504
# Poissons Ratio (z) = 0.45471 0.36175
#
# Static dielectric constant tensor:
#      x y z
#    x 1.693420 0.000000 -0.000410 
#    y 0.000000 1.640560 0.000000 
#    z -0.000410 0.000000 1.684210 
# 
# From -- ./inp_files/327142.got.cif
#   From: 2010.05.17/outbox.ucp.g08.bks.cvg/sg12_164_cif.got.tgz:327142.got - 2010.06.11 11:47:21.
