data_PCOD9225219
_publ_section_title
;
Structure prediction by ZEFSAII (Michael W. Deem and Ramdas Pophale) SiO2 
 PCOD9225219
Probable space group: C 2/M
;
_chemical_formula_sum "Si O2"
_cell_formula_units_Z 28
_cell_length_a 15.000000
_cell_length_b 12.000000
_cell_length_c 18.000000
_cell_angle_alpha 90.000000
_cell_angle_beta 120.000000
_cell_angle_gamma 90.000000
_cell_volume 2805.922308
_symmetry_space_group_name_H-M "C 2/M"
_symmetry_group_IT_number 12
_symmetry_cell_setting 'monoclinic'
loop_
_space_group_symop_operation_xyz
x,y,z
-x,y,-z
-x,-y,-z
x,-y,z
1/2+x,1/2+y,z
1/2-x,1/2+y,-z
1/2-x,1/2-y,-z
1/2+x,1/2-y,z
loop_
_atom_site_type_symbol
_atom_site_label
_atom_site_fract_x
_atom_site_fract_y
_atom_site_fract_z
Si Si1 0.027216 0.124083 0.355394
Si Si2 0.834978 0.500000 0.952417
Si Si3 0.508992 0.236877 0.203230
Si Si4 0.797497 0.129859 0.306501
Si Si5 0.269635 0.276978 0.134589
Si Si6 0.025696 0.500000 0.139743
Si Si7 0.092070 0.125178 0.097028
Si Si8 0.273387 0.631100 0.468018
O O1 0.111011 0.119304 0.454230
O O2 0.046724 0.212610 0.297808
O O3 0.919858 0.145503 0.351024
O O4 0.020417 0.000000 0.316938
O O5 0.767214 0.388675 0.921881
O O6 0.901220 0.500000 0.902867
O O7 0.912977 0.500000 0.053976
O O8 0.384891 0.247440 0.158650
O O9 0.537883 0.110049 0.194894
O O10 0.552858 0.308569 0.153071
O O11 0.761456 0.197757 0.219937
O O12 0.763189 0.153572 0.375875
O O13 0.774661 0.000000 0.282848
O O14 0.186921 0.180237 0.092702
O O15 0.118920 0.000000 0.130810
O O16 0.000000 0.124783 0.000000
O O17 0.230334 0.500000 0.463268
O O18 0.250000 0.750000 0.500000
#
# Coordination Sequence:
#
# PCOD9225219 Si02
#       8
#     8   4   8   8   8   4   8   8
#     4   9  19  38  63  87 115 153 199 246 295 354
#     4  11  22  40  62  87 118 161 207 260 309 358
#     4  11  24  41  63  90 120 161 208 253 307 363
#     4   9  18  36  62  89 114 149 200 245 291 352
#     4  11  23  40  64  91 119 159 206 258 302 364
#     4  11  24  40  60  87 124 159 205 260 317 358
#     4  11  25  42  59  85 121 160 202 253 310 366
#     4  10  21  36  59  92 123 155 193 242 298 360
#
# _framework density 9.9788940000000004
#
# number of rings (size 3 to 8) (size 9 to 14) (size 15 to 20)
#    0.000    1.714    2.143    1.714    5.000    4.000 
#    1.286    0.000    1.571    0.857    0.000    0.000 
#    0.000    0.000    0.000    0.000    0.000    0.000 
#
# Total GULP energy -156129.019914 kJ/mol
# GULP energy per Si atom -5576.036425 kJ/mol
# Density = 0.995618 g / cm^3
# Si number density = 9.978894 Si / 1000 Ang^3
#
#
#
# Elastic Constant Matrix: (Units=GPa)
#
#
# Indices 1 2 3 4 5 6 
#
# 1 73.5715 31.9696 2.9229 0.0000 6.9938 0.0000
# 2 31.9696 124.3751 -0.6022 0.0000 -4.8484 0.0000
# 3 2.9229 -0.6022 38.6986 0.0000 1.7902 0.0000
# 4 0.0000 0.0000 0.0000 151.5217 0.0000 -86.3673
# 5 6.9938 -4.8484 1.7902 0.0000 33.0548 0.0000
# 6 0.0000 0.0000 0.0000 -86.3673 0.0000 50.3050
#
#
#
# Elastic Compliance Matrix: (Units=1/GPa)
#
#
# Indices 1 2 3 4 5 6 
#
# 1 0.015846 -0.004231 -0.001082 0.000000 -0.003915 0.000000
# 2 -0.004231 0.009216 0.000360 0.000000 0.002227 0.000000
# 3 -0.001082 0.000360 0.025980 0.000000 -0.001125 0.000000
# 4 0.000000 0.000000 0.000000 0.308635 0.000000 0.529887
# 5 -0.003915 0.002227 -0.001125 0.000000 0.031469 0.000000
# 6 0.000000 0.000000 0.000000 0.529887 0.000000 0.929628
#
#
# Mechanical properties :
#
#
# Convention : Reuss Voigt Hill
#
# Bulk Modulus (GPa) = 24.30894 33.91396 29.11145
# Shear Modulus (GPa) = 3.71916 60.46662 32.09289
#
# Velocity S-wave (km/s) = 1.36659 5.51027 4.01439
# Velocity P-wave (km/s) = 3.83363 7.58378 6.00876
#
# Compressibility (1/GPa) = 0.04113714
#
# Stress axis : x y z
#
# Youngs Moduli (GPa) = 63.10830 108.50364 38.49104
#
# Poissons Ratio (x) = 0.45906 0.04163
# Poissons Ratio (y) = 0.26700 -0.01385
# Poissons Ratio (z) = 0.06826 -0.03905
#
# Static dielectric constant tensor:
#      x y z
#    x 1.705520 0.000000 0.055020 
#    y 0.000000 1.746010 0.000000 
#    z 0.055020 0.000000 1.727210 
# 
# From -- ./inp_files/269401.got.cif
#   From: 2010.05.17/outbox.ucp.g08.bks.cvg/sg12_135_cif.got.tgz:269401.got - 2010.06.11 11:47:21.
