data_PCOD9225820
_publ_section_title
;
Structure prediction by ZEFSAII (Michael W. Deem and Ramdas Pophale) SiO2 
 PCOD9225820
Probable space group: C 2/M
;
_chemical_formula_sum "Si O2"
_cell_formula_units_Z 32
_cell_length_a 15.000000
_cell_length_b 30.000000
_cell_length_c 21.000000
_cell_angle_alpha 90.000000
_cell_angle_beta 160.000000
_cell_angle_gamma 90.000000
_cell_volume 3232.090354
_symmetry_space_group_name_H-M "C 2/M"
_symmetry_group_IT_number 12
_symmetry_cell_setting 'monoclinic'
loop_
_space_group_symop_operation_xyz
x,y,z
-x,y,-z
-x,-y,-z
x,-y,z
1/2+x,1/2+y,z
1/2-x,1/2+y,-z
1/2-x,1/2-y,-z
1/2+x,1/2-y,z
loop_
_atom_site_type_symbol
_atom_site_label
_atom_site_fract_x
_atom_site_fract_y
_atom_site_fract_z
Si Si1 0.953597 0.640882 0.573699
Si Si2 0.872841 0.166996 0.767043
Si Si3 0.274098 0.828624 0.578730
Si Si4 0.106076 0.621752 0.897833
Si Si5 0.834413 0.659320 0.825781
Si Si6 0.074727 0.548733 0.689754
Si Si7 0.550761 0.236349 0.195843
Si Si8 0.081764 0.048148 0.951199
O O1 0.768773 0.648011 0.389881
O O2 0.900894 0.675074 0.594786
O O3 0.249704 0.645112 0.747194
O O4 0.901388 0.591816 0.565731
O O5 0.803394 0.218432 0.722704
O O6 0.180096 0.161012 0.965124
O O7 0.409672 0.868941 0.708480
O O8 0.331968 0.786290 0.662161
O O9 0.971539 0.839290 0.368381
O O10 0.302862 0.581987 0.020480
O O11 0.939308 0.620896 0.849437
O O12 0.902582 0.702622 0.830067
O O13 0.000000 0.658792 0.000000
O O14 0.948892 0.500000 0.605615
O O15 0.249935 0.552647 0.870905
O O16 0.282601 0.550285 0.771356
O O17 0.250000 0.250000 0.000000
O O18 0.129921 0.000000 0.956596
#
# Coordination Sequence:
#
# PCOD9225820 Si02
#       8
#     8   8   8   8   8   8   8   8
#     4  11  23  37  58  90 122 163 196 244 309 359
#     4  11  24  38  55  87 124 159 195 255 295 353
#     4  11  24  39  64  85 117 161 206 246 300 358
#     4  11  19  40  63  84 121 151 206 247 293 357
#     4  11  25  43  62  85 117 163 202 252 304 355
#     4   9  17  33  57  90 127 155 195 242 301 370
#     4  11  23  43  58  86 117 154 206 256 295 348
#     4   9  17  31  59  93 121 152 192 247 302 360
#
# _framework density 9.9007129999999997
#
# number of rings (size 3 to 8) (size 9 to 14) (size 15 to 20)
#    0.000    1.500    5.000    3.000    3.500    2.000 
#    0.000    1.875    0.000    2.625    0.000    0.000 
#    0.000    0.000    0.000    0.000    0.000    0.000 
#
# Total GULP energy -178170.667492 kJ/mol
# GULP energy per Si atom -5567.833359 kJ/mol
# Density = 0.987818 g / cm^3
# Si number density = 9.900713 Si / 1000 Ang^3
#
#
#
# Elastic Constant Matrix: (Units=GPa)
#
#
# Indices 1 2 3 4 5 6 
#
# 1 32.7434 53.5006 2.5699 -0.0049 -37.6608 0.0103
# 2 53.5006 37.3350 -6.2808 0.0139 16.6495 -0.0132
# 3 2.5699 -6.2808 69.8251 0.0059 -12.2678 0.0066
# 4 -0.0049 0.0139 0.0059 10.5548 -0.0046 17.8877
# 5 -37.6608 16.6495 -12.2678 -0.0046 -3.9401 0.0028
# 6 0.0103 -0.0132 0.0066 17.8877 0.0028 3.3194
#
#
#
# Elastic Compliance Matrix: (Units=1/GPa)
#
#
# Indices 1 2 3 4 5 6 
#
# 1 0.004209 0.002267 -0.003449 0.000005 -0.019908 -0.000008
# 2 0.002267 0.014307 0.005183 0.000006 0.022649 -0.000010
# 3 -0.003449 0.005183 0.015872 0.000001 0.005447 -0.000009
# 4 0.000005 0.000006 0.000001 -0.011650 0.000031 0.062778
# 5 -0.019908 0.022649 0.005447 0.000031 0.015238 -0.000039
# 6 -0.000008 -0.000010 -0.000009 0.062778 -0.000039 -0.037043
#
#
# Mechanical properties :
#
#
# Convention : Reuss Voigt Hill
#
# Bulk Modulus (GPa) = 23.59054 26.60921 25.09988
# Shear Modulus (GPa) = 708.17402 7.99442 358.08422
#
# Velocity S-wave (km/s) = 18.93183 2.01148 13.46218
# Velocity P-wave (km/s) = 22.13199 4.34303 15.94815
#
# Compressibility (1/GPa) = 0.04238987
#
# Stress axis : x y z
#
# Youngs Moduli (GPa) = 237.61392 69.89546 63.00533
#
# Poissons Ratio (x) = -0.15847 0.21729
# Poissons Ratio (y) = -0.53872 -0.32655
# Poissons Ratio (z) = 0.81946 -0.36226
#
# Static dielectric constant tensor:
#      x y z
#    x 1.692000 -0.000010 0.002420 
#    y -0.000010 1.829920 0.000000 
#    z 0.002420 0.000000 1.676650 
# 
# From -- ./inp_files/312949.got.cif
#   From: 2010.05.17/outbox.ucp.g08.bks.cvg/sg12_157_cif.got.tgz:312949.got - 2010.06.11 11:47:21.
