data_PCOD9225716
_publ_section_title
;
Structure prediction by ZEFSAII (Michael W. Deem and Ramdas Pophale) SiO2 
 PCOD9225716
Probable space group: C 2/M
;
_chemical_formula_sum "Si O2"
_cell_formula_units_Z 32
_cell_length_a 21.000000
_cell_length_b 24.000000
_cell_length_c 18.000000
_cell_angle_alpha 90.000000
_cell_angle_beta 20.000000
_cell_angle_gamma 90.000000
_cell_volume 3102.806740
_symmetry_space_group_name_H-M "C 2/M"
_symmetry_group_IT_number 12
_symmetry_cell_setting 'monoclinic'
loop_
_space_group_symop_operation_xyz
x,y,z
-x,y,-z
-x,-y,-z
x,-y,z
1/2+x,1/2+y,z
1/2-x,1/2+y,-z
1/2-x,1/2-y,-z
1/2+x,1/2-y,z
loop_
_atom_site_type_symbol
_atom_site_label
_atom_site_fract_x
_atom_site_fract_y
_atom_site_fract_z
Si Si1 0.167452 0.438473 0.875722
Si Si2 0.793172 0.670976 0.633343
Si Si3 0.377477 0.184635 0.059893
Si Si4 0.639029 0.061817 0.080812
Si Si5 0.263616 0.220206 0.405664
Si Si6 0.771266 0.698189 0.821989
Si Si7 0.543514 0.360014 0.203058
Si Si8 0.271451 0.566823 0.400816
O O1 0.264882 0.500000 0.756182
O O2 0.233177 0.373199 0.801924
O O3 0.107468 0.440281 0.027204
O O4 0.000000 0.438444 0.000000
O O5 0.734254 0.727421 0.653839
O O6 0.721530 0.671612 0.796602
O O7 0.732089 0.613329 0.661182
O O8 0.018803 0.678566 0.389514
O O9 0.546712 0.184674 0.813728
O O10 0.500000 0.195893 0.000000
O O11 0.248795 0.235728 0.173836
O O12 0.439421 0.069802 0.337307
O O13 0.710350 0.000000 0.025084
O O14 0.789747 0.108328 0.937402
O O15 0.250000 0.250000 0.500000
O O16 0.086776 0.178172 0.600844
O O17 0.637099 0.678210 0.035625
O O18 0.413933 0.406508 0.304684
O O19 0.309244 0.500000 0.344087
#
# Coordination Sequence:
#
# PCOD9225716 Si02
#       8
#     8   8   8   8   8   8   8   8
#     4   9  20  38  63  92 125 168 215 261 320 395
#     4  11  24  44  61  97 130 174 228 268 335 397
#     4  11  21  39  63  93 128 173 219 265 336 392
#     4  10  22  42  66  95 133 174 220 272 325 390
#     4  12  23  37  62  95 126 162 223 275 324 403
#     4  11  24  41  66  91 135 177 212 282 333 396
#     4  12  24  40  66 100 131 173 217 278 337 389
#     4  11  23  42  67  94 131 174 225 275 324 396
#
# _framework density 10.313243
#
# number of rings (size 3 to 8) (size 9 to 14) (size 15 to 20)
#    0.000    1.125    5.000    1.125    1.750    0.500 
#    0.000    3.750    0.000    2.250    0.000   15.750 
#    0.000    0.000    0.000    0.000    0.000    0.000 
#
# Total GULP energy -178517.592857 kJ/mol
# GULP energy per Si atom -5578.674777 kJ/mol
# Density = 1.028977 g / cm^3
# Si number density = 10.313243 Si / 1000 Ang^3
#
#
#
# Elastic Constant Matrix: (Units=GPa)
#
#
# Indices 1 2 3 4 5 6 
#
# 1 83.1854 34.9844 6.4815 0.0481 2.2421 -0.0011
# 2 34.9844 165.1313 12.6321 0.0871 -10.2482 -0.0152
# 3 6.4815 12.6321 44.4070 0.2199 -1.9328 -0.0478
# 4 0.0481 0.0871 0.2199 34.0226 -0.0734 -7.1549
# 5 2.2421 -10.2482 -1.9328 -0.0734 22.0099 0.0147
# 6 -0.0011 -0.0152 -0.0478 -7.1549 0.0147 36.4369
#
#
#
# Elastic Compliance Matrix: (Units=1/GPa)
#
#
# Indices 1 2 3 4 5 6 
#
# 1 0.013425 -0.002925 -0.001251 -0.000010 -0.002839 -0.000003
# 2 -0.002925 0.006997 -0.001414 0.000003 0.003432 0.000000
# 3 -0.001251 -0.001414 0.023170 -0.000141 0.001503 0.000002
# 4 -0.000010 0.000003 -0.000141 0.030659 0.000088 0.006020
# 5 -0.002839 0.003432 0.001503 0.000088 0.047453 0.000001
# 6 -0.000003 0.000000 0.000002 0.006020 0.000001 0.028627
#
#
# Mechanical properties :
#
#
# Convention : Reuss Voigt Hill
#
# Bulk Modulus (GPa) = 30.85262 44.54662 37.69962
# Shear Modulus (GPa) = 29.01655 34.40226 31.70941
#
# Velocity S-wave (km/s) = 3.75475 4.08838 3.92511
# Velocity P-wave (km/s) = 5.81273 6.62799 6.23370
#
# Compressibility (1/GPa) = 0.03241216
#
# Stress axis : x y z
#
# Youngs Moduli (GPa) = 74.48564 142.92744 43.15933
#
# Poissons Ratio (x) = 0.41803 0.05400
# Poissons Ratio (y) = 0.21785 0.06103
# Poissons Ratio (z) = 0.09319 0.20210
#
# Static dielectric constant tensor:
#      x y z
#    x 1.752530 -0.000020 0.001930 
#    y -0.000020 1.789310 0.000050 
#    z 0.001930 0.000050 1.743550 
# 
# From -- ./inp_files/286412.got.cif
#   From: 2010.05.17/outbox.ucp.g08.bks.cvg/sg12_144_cif.got.tgz:286412.got - 2010.06.11 11:47:21.
