data_PCOD9225886
_publ_section_title
;
Structure prediction by ZEFSAII (Michael W. Deem and Ramdas Pophale) SiO2 
 PCOD9225886
Probable space group: C 2/M
;
_chemical_formula_sum "Si O2"
_cell_formula_units_Z 22
_cell_length_a 12.000000
_cell_length_b 21.000000
_cell_length_c 9.000000
_cell_angle_alpha 90.000000
_cell_angle_beta 70.000000
_cell_angle_gamma 90.000000
_cell_volume 2131.222864
_symmetry_space_group_name_H-M "C 2/M"
_symmetry_group_IT_number 12
_symmetry_cell_setting 'monoclinic'
loop_
_space_group_symop_operation_xyz
x,y,z
-x,y,-z
-x,-y,-z
x,-y,z
1/2+x,1/2+y,z
1/2-x,1/2+y,-z
1/2-x,1/2-y,-z
1/2+x,1/2-y,z
loop_
_atom_site_type_symbol
_atom_site_label
_atom_site_fract_x
_atom_site_fract_y
_atom_site_fract_z
Si Si1 0.030701 0.265034 0.776285
Si Si2 0.975799 0.885019 0.184021
Si Si3 0.733640 0.924130 0.442229
Si Si4 0.683865 0.806139 0.945369
Si Si5 0.298932 0.427264 0.759451
Si Si6 0.000000 0.657781 0.500000
O O1 0.001992 0.190817 0.807427
O O2 0.155749 0.277553 0.796503
O O3 0.024547 0.293091 0.619430
O O4 0.936197 0.308472 0.906618
O O5 0.842636 0.900917 0.291638
O O6 0.063154 0.920672 0.258608
O O7 0.000000 0.901339 0.000000
O O8 0.768000 0.912601 0.601116
O O9 0.615629 0.887196 0.446276
O O10 0.718222 0.000000 0.433275
O O11 0.739953 0.874576 0.893470
O O12 0.750000 0.750000 0.000000
O O13 0.260610 0.500000 0.805260
#
# Coordination Sequence:
#
# PCOD9225886 Si02
#       6
#     8   8   8   8   8   4
#     4  11  25  40  68 103 136 177 232 287 343 404
#     4  12  25  44  70 105 137 176 228 295 351 405
#     4  11  27  48  68  96 141 186 230 282 342 415
#     4  11  21  45  69  97 142 179 224 287 345 405
#     4  11  24  45  70 101 137 181 230 284 350 413
#     4  12  27  44  70 102 135 188 234 280 342 412
#
# _framework density 10.322711999999999
#
# number of rings (size 3 to 8) (size 9 to 14) (size 15 to 20)
#    0.000    0.727    5.455    1.364    7.636    3.636 
#    0.000    2.727    0.000    0.000    0.000    0.000 
#    0.000    0.000    0.000    0.000    0.000    0.000 
#
# Total GULP energy -122763.759841 kJ/mol
# GULP energy per Si atom -5580.170902 kJ/mol
# Density = 1.029922 g / cm^3
# Si number density = 10.322712 Si / 1000 Ang^3
#
#
#
# Elastic Constant Matrix: (Units=GPa)
#
#
# Indices 1 2 3 4 5 6 
#
# 1 116.2616 33.1159 47.0382 0.0000 29.6435 0.0000
# 2 33.1159 82.3574 52.6464 0.0000 16.6243 0.0000
# 3 47.0382 52.6464 78.8949 0.0000 21.2835 0.0000
# 4 0.0000 0.0000 0.0000 21.2116 0.0000 -0.2543
# 5 29.6435 16.6243 21.2835 0.0000 23.5321 0.0000
# 6 0.0000 0.0000 0.0000 -0.2543 0.0000 23.3829
#
#
#
# Elastic Compliance Matrix: (Units=1/GPa)
#
#
# Indices 1 2 3 4 5 6 
#
# 1 0.013879 0.000172 -0.004815 0.000000 -0.013250 0.000000
# 2 0.000172 0.021326 -0.013506 0.000000 -0.003067 0.000000
# 3 -0.004815 -0.013506 0.026915 0.000000 -0.008737 0.000000
# 4 0.000000 0.000000 0.000000 0.047150 0.000000 0.000513
# 5 -0.013250 -0.003067 -0.008737 0.000000 0.069254 0.000000
# 6 0.000000 0.000000 0.000000 0.000513 0.000000 0.042772
#
#
# Mechanical properties :
#
#
# Convention : Reuss Voigt Hill
#
# Bulk Modulus (GPa) = 38.72709 60.34609 49.53659
# Shear Modulus (GPa) = 18.78286 23.27287 21.02787
#
# Velocity S-wave (km/s) = 3.01953 3.36112 3.19489
# Velocity P-wave (km/s) = 5.56378 6.66003 6.13644
#
# Compressibility (1/GPa) = 0.02582172
#
# Stress axis : x y z
#
# Youngs Moduli (GPa) = 72.05276 46.89219 37.15406
#
# Poissons Ratio (x) = -0.00806 0.17890
# Poissons Ratio (y) = -0.01238 0.50179
# Poissons Ratio (z) = 0.34693 0.63331
#
# Static dielectric constant tensor:
#      x y z
#    x 2.060620 0.000000 0.027540 
#    y 0.000000 1.696410 0.000000 
#    z 0.027540 0.000000 1.735600 
# 
# From -- ./inp_files/49200.got.cif
#   From: 2010.05.17/outbox.ucp.g08.bks.cvg/sg12_25_cif.got.tgz:49200.got - 2010.06.11 11:47:21.
