data_PCOD9225175
_publ_section_title
;
Structure prediction by ZEFSAII (Michael W. Deem and Ramdas Pophale) SiO2 
 PCOD9225175
Probable space group: C 2/M
;
_chemical_formula_sum "Si O2"
_cell_formula_units_Z 32
_cell_length_a 24.000000
_cell_length_b 9.000000
_cell_length_c 30.000000
_cell_angle_alpha 90.000000
_cell_angle_beta 30.000000
_cell_angle_gamma 90.000000
_cell_volume 3240.000000
_symmetry_space_group_name_H-M "C 2/M"
_symmetry_group_IT_number 12
_symmetry_cell_setting 'monoclinic'
loop_
_space_group_symop_operation_xyz
x,y,z
-x,y,-z
-x,-y,-z
x,-y,z
1/2+x,1/2+y,z
1/2-x,1/2+y,-z
1/2-x,1/2-y,-z
1/2+x,1/2-y,z
loop_
_atom_site_type_symbol
_atom_site_label
_atom_site_fract_x
_atom_site_fract_y
_atom_site_fract_z
Si Si1 0.360683 0.822907 0.299802
Si Si2 0.869360 0.178799 0.082051
Si Si3 0.396823 0.823466 0.881881
Si Si4 0.769088 0.676425 0.062711
Si Si5 0.972279 0.668583 0.435722
Si Si6 0.323147 0.322831 0.726102
Si Si7 0.730465 0.665377 0.558116
Si Si8 0.138263 0.821212 0.405157
O O1 0.476037 0.782978 0.198012
O O2 0.353886 0.753947 0.352843
O O3 0.254557 0.770058 0.346452
O O4 0.353005 0.000000 0.308090
O O5 0.784413 0.249206 0.177074
O O6 0.860906 0.000000 0.088830
O O7 0.824894 0.241467 0.065628
O O8 0.000000 0.218133 0.000000
O O9 0.337177 0.793610 0.970033
O O10 0.386156 0.000000 0.880706
O O11 0.349553 0.738978 0.871517
O O12 0.765815 0.500000 0.073503
O O13 0.010577 0.500000 0.418730
O O14 0.851218 0.661492 0.497760
O O15 0.950476 0.755837 0.497366
O O16 0.058681 0.748989 0.342496
O O17 0.321417 0.500000 0.734513
O O18 0.334820 0.290601 0.665252
O O19 0.690030 0.500000 0.578748
O O20 0.750000 0.750000 0.500000
O O21 0.125858 0.000000 0.416996
#
# Coordination Sequence:
#
# PCOD9225175 Si02
#       8
#     8   8   8   8   8   8   8   8
#     4   9  18  34  56  82 112 148 186 230 284 341
#     4  11  26  45  62  85 119 158 199 246 302 360
#     4   9  19  36  61  89 118 153 192 239 297 350
#     4  10  21  38  62  88 117 152 195 245 295 349
#     4  10  21  37  57  83 118 153 190 235 287 346
#     4  11  23  38  61  88 114 152 197 240 290 346
#     4  10  21  36  54  79 110 148 186 229 281 336
#     4   9  19  35  57  86 118 150 193 241 285 340
#
# _framework density 9.8765429999999999
#
# number of rings (size 3 to 8) (size 9 to 14) (size 15 to 20)
#    0.000    2.125    0.000    2.250    1.750    7.000 
#    0.000    1.250    0.000    0.000    0.000    0.000 
#    0.000    0.000    0.000    0.000    0.000    0.000 
#
# Total GULP energy -178183.743423 kJ/mol
# GULP energy per Si atom -5568.241982 kJ/mol
# Density = 0.985406 g / cm^3
# Si number density = 9.876543 Si / 1000 Ang^3
#
#
#
# Elastic Constant Matrix: (Units=GPa)
#
#
# Indices 1 2 3 4 5 6 
#
# 1 46.8392 3.5097 31.0074 0.0006 14.5968 0.0023
# 2 3.5097 -56.1584 50.1703 0.0008 -17.4756 0.0091
# 3 31.0074 50.1703 128.9460 0.0010 -6.3358 -0.0009
# 4 0.0006 0.0008 0.0010 29.0470 -0.0003 6.7341
# 5 14.5968 -17.4756 -6.3358 -0.0003 0.5772 -0.0002
# 6 0.0023 0.0091 -0.0009 6.7341 -0.0002 11.2920
#
#
#
# Elastic Compliance Matrix: (Units=1/GPa)
#
#
# Indices 1 2 3 4 5 6 
#
# 1 -0.017381 -0.016975 0.015476 -0.000004 0.095489 0.000022
# 2 -0.016975 -0.017661 0.012531 -0.000004 0.032098 0.000021
# 3 0.015476 0.012531 -0.003106 0.000003 -0.046076 -0.000016
# 4 -0.000004 -0.000004 0.000003 0.039950 0.000010 -0.023825
# 5 0.095489 0.032098 -0.046076 0.000010 -0.216251 -0.000057
# 6 0.000022 0.000021 -0.000016 -0.023825 -0.000057 0.102767
#
#
# Mechanical properties :
#
#
# Convention : Reuss Voigt Hill
#
# Bulk Modulus (GPa) = -62.17164 32.11126 -15.03019
# Shear Modulus (GPa) = -35.94335 10.51254 -12.71540
#
# Velocity S-wave (km/s) = -4.27034 2.30944 -2.53991
# Velocity P-wave (km/s) = 7.47376 4.83766 4.02829
#
# Compressibility (1/GPa) = -0.01608450
#
# Stress axis : x y z
#
# Youngs Moduli (GPa) = -57.53291 -56.62057 -321.97883
#
# Poissons Ratio (x) = -0.96113 4.98299
# Poissons Ratio (y) = -0.97662 4.03465
# Poissons Ratio (z) = 0.89039 0.70950
#
# Static dielectric constant tensor:
#      x y z
#    x 1.974310 0.000000 -0.164050 
#    y 0.000000 1.698090 0.000000 
#    z -0.164050 0.000000 1.742170 
# 
# From -- ./inp_files/382263.got.cif
#   From: 2010.05.17/outbox.ucp.g08.bks.cvg/sg12_192_cif.got.tgz:382263.got - 2010.06.11 11:47:21.
