data_PCOD9225595
_publ_section_title
;
Structure prediction by ZEFSAII (Michael W. Deem and Ramdas Pophale) SiO2 
 PCOD9225595
Probable space group: C 2/M
;
_chemical_formula_sum "Si O2"
_cell_formula_units_Z 20
_cell_length_a 12.000000
_cell_length_b 18.000000
_cell_length_c 18.000000
_cell_angle_alpha 90.000000
_cell_angle_beta 150.000000
_cell_angle_gamma 90.000000
_cell_volume 1944.000000
_symmetry_space_group_name_H-M "C 2/M"
_symmetry_group_IT_number 12
_symmetry_cell_setting 'monoclinic'
loop_
_space_group_symop_operation_xyz
x,y,z
-x,y,-z
-x,-y,-z
x,-y,z
1/2+x,1/2+y,z
1/2-x,1/2+y,-z
1/2-x,1/2-y,-z
1/2+x,1/2-y,z
loop_
_atom_site_type_symbol
_atom_site_label
_atom_site_fract_x
_atom_site_fract_y
_atom_site_fract_z
Si Si1 0.450664 0.346005 0.559499
Si Si2 0.665433 0.824167 0.915899
Si Si3 0.871194 0.414252 0.849181
Si Si4 0.927471 0.082677 0.870724
Si Si5 0.031623 0.316767 0.670642
O O1 0.500000 0.358603 0.500000
O O2 0.610301 0.397645 0.700860
O O3 0.495508 0.259602 0.606134
O O4 0.198587 0.357446 0.441868
O O5 0.451949 0.857370 0.832694
O O6 0.632367 0.805057 0.810916
O O7 0.750000 0.750000 0.000000
O O8 0.854044 0.885044 0.040321
O O9 0.912753 0.500000 0.853057
O O10 0.000000 0.398386 0.000000
O O11 0.714815 0.133800 0.735867
O O12 0.877591 0.000000 0.818633
O O13 0.000000 0.082046 0.000000
#
# Coordination Sequence:
#
# PCOD9225595 Si02
#       5
#     8   8   8   8   8
#     4  11  22  41  62  92 122 160 203 254 306 360
#     4  11  20  36  63  91 120 162 203 250 299 361
#     4  11  24  41  61  91 127 161 203 252 306 366
#     4   9  19  35  56  85 119 152 196 246 297 356
#     4  10  22  38  61  89 120 158 206 252 299 359
#
# _framework density 10.288066000000001
#
# number of rings (size 3 to 8) (size 9 to 14) (size 15 to 20)
#    0.000    1.600    2.000    3.000    0.000    3.600 
#    0.000    0.000    0.000    0.600    0.000    0.000 
#    0.000    0.000    0.000    0.000    0.000    0.000 
#
# Total GULP energy -111535.600408 kJ/mol
# GULP energy per Si atom -5576.780020 kJ/mol
# Density = 1.026465 g / cm^3
# Si number density = 10.288066 Si / 1000 Ang^3
#
#
#
# Elastic Constant Matrix: (Units=GPa)
#
#
# Indices 1 2 3 4 5 6 
#
# 1 11.6333 -22.6578 8.5728 0.0046 2.7531 -0.0039
# 2 -22.6578 3.6240 6.4155 0.0027 -3.7968 -0.0024
# 3 8.5728 6.4155 96.3371 0.0209 11.0888 -0.0023
# 4 0.0046 0.0027 0.0209 -21.4832 0.0053 20.0729
# 5 2.7531 -3.7968 11.0888 0.0053 27.7890 -0.0027
# 6 -0.0039 -0.0024 -0.0023 20.0729 -0.0027 -4.1033
#
#
#
# Elastic Compliance Matrix: (Units=1/GPa)
#
#
# Indices 1 2 3 4 5 6 
#
# 1 -0.004846 -0.045890 0.004354 -0.000008 -0.007527 -0.000003
# 2 -0.045890 -0.021523 0.005589 -0.000012 -0.000624 -0.000005
# 3 0.004354 0.005589 0.010044 0.000000 -0.003676 -0.000011
# 4 -0.000008 -0.000012 0.000000 0.013036 0.000003 0.063770
# 5 -0.007527 -0.000624 -0.003676 0.000003 0.038112 -0.000001
# 6 -0.000003 -0.000005 -0.000011 0.063770 -0.000001 0.068250
#
#
# Mechanical properties :
#
#
# Convention : Reuss Voigt Hill
#
# Bulk Modulus (GPa) = -11.33522 10.69506 -0.32008
# Shear Modulus (GPa) = 34.34967 8.39144 21.37055
#
# Velocity S-wave (km/s) = 4.09025 2.02166 3.22624
# Velocity P-wave (km/s) = 4.09708 3.26474 3.70436
#
# Compressibility (1/GPa) = -0.08822057
#
# Stress axis : x y z
#
# Youngs Moduli (GPa) = -206.36474 -46.46198 99.56518
#
# Poissons Ratio (x) = -2.13215 -0.43348
# Poissons Ratio (y) = -9.47014 -0.55646
# Poissons Ratio (z) = 0.89845 0.25967
#
# Static dielectric constant tensor:
#      x y z
#    x 1.748550 0.000000 0.024840 
#    y 0.000000 1.681750 0.000000 
#    z 0.024840 0.000000 1.733970 
# 
# From -- ./inp_files/47159.got.cif
#   From: 2010.05.17/outbox.ucp.g08.bks.cvg/sg12_24_cif.got.tgz:47159.got - 2010.06.11 11:47:21.
