data_PCOD9225228
_publ_section_title
;
Structure prediction by ZEFSAII (Michael W. Deem and Ramdas Pophale) SiO2 
 PCOD9225228
Probable space group: C 2/M
;
_chemical_formula_sum "Si O2"
_cell_formula_units_Z 28
_cell_length_a 27.000000
_cell_length_b 9.000000
_cell_length_c 18.000000
_cell_angle_alpha 90.000000
_cell_angle_beta 40.000000
_cell_angle_gamma 90.000000
_cell_volume 2811.553005
_symmetry_space_group_name_H-M "C 2/M"
_symmetry_group_IT_number 12
_symmetry_cell_setting 'monoclinic'
loop_
_space_group_symop_operation_xyz
x,y,z
-x,y,-z
-x,-y,-z
x,-y,z
1/2+x,1/2+y,z
1/2-x,1/2+y,-z
1/2-x,1/2-y,-z
1/2+x,1/2-y,z
loop_
_atom_site_type_symbol
_atom_site_label
_atom_site_fract_x
_atom_site_fract_y
_atom_site_fract_z
Si Si1 0.840370 0.319508 0.215860
Si Si2 0.168039 0.821940 0.617234
Si Si3 0.703825 0.674204 0.155054
Si Si4 0.054612 0.822058 0.610370
Si Si5 0.619786 0.825796 0.987741
Si Si6 0.595427 0.822514 0.171126
Si Si7 0.329679 0.320061 0.648250
O O1 0.846096 0.500000 0.215593
O O2 0.858075 0.244950 0.273723
O O3 0.886391 0.268048 0.088959
O O4 0.752080 0.281680 0.295211
O O5 0.250000 0.750000 0.500000
O O6 0.106193 0.789855 0.623831
O O7 0.177225 0.000000 0.611550
O O8 0.688078 0.500000 0.158704
O O9 0.791890 0.681636 0.083253
O O10 0.673058 0.764602 0.120512
O O11 0.660719 0.731473 0.278636
O O12 0.103769 0.775174 0.482988
O O13 0.975026 0.737327 0.701253
O O14 0.042236 0.000000 0.622104
O O15 0.599761 0.000000 0.004274
O O16 0.578280 0.761316 0.107335
O O17 0.598768 0.000000 0.163482
O O18 0.328258 0.500000 0.654404
#
# Coordination Sequence:
#
# PCOD9225228 Si02
#       7
#     8   8   8   8   8   8   8
#     4   9  16  33  58  81 103 132 173 221 261 302
#     4  11  21  34  56  83 108 134 171 215 262 313
#     4   9  17  33  58  79  97 134 181 219 258 310
#     4  10  21  37  53  73 104 143 179 208 249 319
#     4   8  17  34  57  79 103 138 180 215 254 313
#     4  11  22  35  50  76 110 141 174 219 265 304
#     4   8  15  31  54  77 100 132 176 214 251 310
#
# _framework density 9.9589090000000002
#
# number of rings (size 3 to 8) (size 9 to 14) (size 15 to 20)
#    0.000    2.571    1.429    3.000    0.000    1.714 
#    0.000    9.286    0.000    4.286    0.000    0.000 
#    0.000    0.000    0.000    0.000    0.000    0.000 
#
# Total GULP energy -155989.223452 kJ/mol
# GULP energy per Si atom -5571.043695 kJ/mol
# Density = 0.993624 g / cm^3
# Si number density = 9.958909 Si / 1000 Ang^3
#
#
#
# Elastic Constant Matrix: (Units=GPa)
#
#
# Indices 1 2 3 4 5 6 
#
# 1 30.1497 12.5893 2.8463 0.0036 14.2295 -0.0008
# 2 12.5893 22.3896 -0.9068 0.0094 0.6562 -0.0051
# 3 2.8463 -0.9068 50.9944 0.0113 17.0974 -0.0050
# 4 0.0036 0.0094 0.0113 12.7935 -0.0043 6.3604
# 5 14.2295 0.6562 17.0974 -0.0043 33.0567 0.0021
# 6 -0.0008 -0.0051 -0.0050 6.3604 0.0021 29.0610
#
#
#
# Elastic Compliance Matrix: (Units=1/GPa)
#
#
# Indices 1 2 3 4 5 6 
#
# 1 0.059145 -0.032229 0.005380 -0.000007 -0.027602 0.000000
# 2 -0.032229 0.062326 -0.001608 -0.000040 0.013468 0.000017
# 3 0.005380 -0.001608 0.024253 -0.000033 -0.014828 0.000012
# 4 -0.000007 -0.000040 -0.000033 0.087708 0.000033 -0.019196
# 5 -0.027602 0.013468 -0.014828 0.000033 0.049535 -0.000012
# 6 0.000000 0.000017 0.000012 -0.019196 -0.000012 0.038612
#
#
# Mechanical properties :
#
#
# Convention : Reuss Voigt Hill
#
# Bulk Modulus (GPa) = 11.26022 14.73238 12.99630
# Shear Modulus (GPa) = 12.25205 20.91591 16.58398
#
# Velocity S-wave (km/s) = 2.48287 3.24406 2.88865
# Velocity P-wave (km/s) = 3.72628 4.63082 4.20295
#
# Compressibility (1/GPa) = 0.08880821
#
# Stress axis : x y z
#
# Youngs Moduli (GPa) = 16.90766 16.04472 41.23277
#
# Poissons Ratio (x) = 0.51711 -0.22184
# Poissons Ratio (y) = 0.54492 0.06632
# Poissons Ratio (z) = -0.09097 0.02581
#
# Static dielectric constant tensor:
#      x y z
#    x 1.679190 0.000000 0.020800 
#    y 0.000000 1.661580 0.000000 
#    z 0.020800 0.000000 1.813430 
# 
# From -- ./inp_files/292370.got.cif
#   From: 2010.05.17/outbox.ucp.g08.bks.cvg/sg12_147_cif.got.tgz:292370.got - 2010.06.11 11:47:21.
