data_PCOD9225929
_publ_section_title
;
Structure prediction by ZEFSAII (Michael W. Deem and Ramdas Pophale) SiO2 
 PCOD9225929
Probable space group: C 2/M
;
_chemical_formula_sum "Si O2"
_cell_formula_units_Z 24
_cell_length_a 24.000000
_cell_length_b 9.000000
_cell_length_c 12.000000
_cell_angle_alpha 90.000000
_cell_angle_beta 90.000000
_cell_angle_gamma 90.000000
_cell_volume 2592.000000
_symmetry_space_group_name_H-M "C 2/M"
_symmetry_group_IT_number 12
_symmetry_cell_setting 'monoclinic'
loop_
_space_group_symop_operation_xyz
x,y,z
-x,y,-z
-x,-y,-z
x,-y,z
1/2+x,1/2+y,z
1/2-x,1/2+y,-z
1/2-x,1/2-y,-z
1/2+x,1/2-y,z
loop_
_atom_site_type_symbol
_atom_site_label
_atom_site_fract_x
_atom_site_fract_y
_atom_site_fract_z
Si Si1 0.928489 0.170791 0.115502
Si Si2 0.871891 0.673955 0.673924
Si Si3 0.055950 0.171064 0.148764
Si Si4 0.862857 0.674299 0.286473
Si Si5 0.563979 0.323200 0.526737
Si Si6 0.746562 0.323877 0.621344
O O1 0.883763 0.281966 0.164541
O O2 0.990422 0.204740 0.161273
O O3 0.915314 0.000000 0.147658
O O4 0.932023 0.176486 0.982490
O O5 0.879979 0.500000 0.647288
O O6 0.904937 0.719893 0.783781
O O7 0.898003 0.772716 0.576145
O O8 0.805926 0.700807 0.680440
O O9 0.064495 0.000000 0.186772
O O10 0.857864 0.500000 0.303592
O O11 0.910104 0.740667 0.367764
O O12 0.804966 0.752366 0.315104
O O13 0.500000 0.283549 0.500000
O O14 0.566754 0.500000 0.543480
O O15 0.737906 0.500000 0.609264
O O16 0.750000 0.250000 0.500000
#
# Coordination Sequence:
#
# PCOD9225929 Si02
#       6
#     8   8   8   8   8   8
#     4   9  19  38  61  86 116 153 194 234 280 343
#     4  11  23  37  57  86 116 146 188 239 290 341
#     4   9  19  37  62  87 115 153 193 232 284 345
#     4  12  24  37  57  86 116 150 192 239 290 341
#     4  11  23  37  56  82 114 152 189 230 285 347
#     4  11  23  40  60  82 112 154 196 238 287 345
#
# _framework density 9.2592590000000001
#
# number of rings (size 3 to 8) (size 9 to 14) (size 15 to 20)
#    0.000    1.500    1.667    5.000    0.000    8.667 
#    0.000    2.500    0.000    0.000    0.000    0.000 
#    0.000    0.000    0.000    0.000    0.000    0.000 
#
# Total GULP energy -134086.766991 kJ/mol
# GULP energy per Si atom -5586.948625 kJ/mol
# Density = 0.923818 g / cm^3
# Si number density = 9.259259 Si / 1000 Ang^3
#
#
#
# Elastic Constant Matrix: (Units=GPa)
#
#
# Indices 1 2 3 4 5 6 
#
# 1 25.1724 28.6841 20.2157 0.0000 -38.4925 0.0000
# 2 28.6841 66.3993 20.3962 0.0000 -18.4377 0.0000
# 3 20.2157 20.3962 40.6725 0.0000 -8.5219 0.0000
# 4 0.0000 0.0000 0.0000 29.5252 0.0000 0.7217
# 5 -38.4925 -18.4377 -8.5219 0.0000 20.9867 0.0000
# 6 0.0000 0.0000 0.0000 0.7217 0.0000 25.2604
#
#
#
# Elastic Compliance Matrix: (Units=1/GPa)
#
#
# Indices 1 2 3 4 5 6 
#
# 1 -0.021285 -0.003130 0.003709 0.000000 -0.040283 0.000000
# 2 -0.003130 0.021411 -0.007042 0.000000 0.010210 0.000000
# 3 0.003709 -0.007042 0.028859 0.000000 0.012334 0.000000
# 4 0.000000 0.000000 0.000000 0.033893 0.000000 -0.000968
# 5 -0.040283 0.010210 0.012334 0.000000 -0.012258 0.000000
# 6 0.000000 0.000000 0.000000 -0.000968 0.000000 0.039615
#
#
# Mechanical properties :
#
#
# Convention : Reuss Voigt Hill
#
# Bulk Modulus (GPa) = 62.27398 30.09291 46.18344
# Shear Modulus (GPa) = 46.07649 19.35101 32.71375
#
# Velocity S-wave (km/s) = 4.99353 3.23608 4.20759
# Velocity P-wave (km/s) = 8.18218 5.49986 6.97124
#
# Compressibility (1/GPa) = 0.01605807
#
# Stress axis : x y z
#
# Youngs Moduli (GPa) = -46.98211 46.70557 34.65132
#
# Poissons Ratio (x) = 0.14619 -0.12851
# Poissons Ratio (y) = -0.14706 0.24401
# Poissons Ratio (z) = 0.17424 0.32890
#
# Static dielectric constant tensor:
#      x y z
#    x 1.630910 0.000000 -0.008570 
#    y 0.000000 1.626020 0.000000 
#    z -0.008570 0.000000 1.669210 
# 
# From -- ./inp_files/172256.got.cif
#   From: 2010.05.17/outbox.ucp.g08.bks.cvg/sg12_87_cif.got.tgz:172256.got - 2010.06.11 11:47:21.
