data_PCOD9225436
_publ_section_title
;
Structure prediction by ZEFSAII (Michael W. Deem and Ramdas Pophale) SiO2 
 PCOD9225436
Probable space group: C 2/M
;
_chemical_formula_sum "Si O2"
_cell_formula_units_Z 32
_cell_length_a 15.000000
_cell_length_b 9.000000
_cell_length_c 30.000000
_cell_angle_alpha 90.000000
_cell_angle_beta 60.000000
_cell_angle_gamma 90.000000
_cell_volume 3507.402885
_symmetry_space_group_name_H-M "C 2/M"
_symmetry_group_IT_number 12
_symmetry_cell_setting 'monoclinic'
loop_
_space_group_symop_operation_xyz
x,y,z
-x,y,-z
-x,-y,-z
x,-y,z
1/2+x,1/2+y,z
1/2-x,1/2+y,-z
1/2-x,1/2-y,-z
1/2+x,1/2-y,z
loop_
_atom_site_type_symbol
_atom_site_label
_atom_site_fract_x
_atom_site_fract_y
_atom_site_fract_z
Si Si1 0.332840 0.181015 0.944170
Si Si2 0.885456 0.180549 0.745929
Si Si3 0.281999 0.675031 0.444833
Si Si4 0.896940 0.680261 0.335633
Si Si5 0.599487 0.674030 0.443491
Si Si6 0.806942 0.822836 0.669596
Si Si7 0.968328 0.820871 0.060169
Si Si8 0.258228 0.319174 0.869527
O O1 0.443408 0.239752 0.933262
O O2 0.310691 0.246727 0.900387
O O3 0.326237 0.000000 0.945896
O O4 0.250000 0.250000 0.000000
O O5 0.827330 0.231364 0.714686
O O6 0.821786 0.215045 0.807573
O O7 0.998504 0.253987 0.711805
O O8 0.896530 0.000000 0.742275
O O9 0.304215 0.500000 0.445344
O O10 0.250000 0.750000 0.500000
O O11 0.369483 0.752187 0.391691
O O12 0.179611 0.707536 0.442095
O O13 0.901990 0.500000 0.337384
O O14 0.799756 0.722532 0.327868
O O15 0.500000 0.684066 0.500000
O O16 0.635954 0.500000 0.439096
O O17 0.600920 0.702523 0.389741
O O18 0.799431 0.000000 0.675983
O O19 0.857550 0.749190 0.099914
O O20 0.966539 0.000000 0.068157
O O21 0.000000 0.798913 0.000000
O O22 0.253867 0.500000 0.874691
#
# Coordination Sequence:
#
# PCOD9225436 Si02
#       8
#     8   8   8   8   8   8   8   8
#     4  12  24  40  65  94 128 168 210 258 316 371
#     4  10  22  40  63  90 120 164 208 249 297 361
#     4  11  22  36  55  82 116 152 195 249 305 367
#     4  10  21  39  61  87 118 158 203 253 309 368
#     4   9  18  33  55  84 114 150 191 238 301 368
#     4   8  17  36  58  81 116 156 197 240 297 361
#     4  11  23  40  65  95 128 166 207 257 314 369
#     4  11  24  41  62  94 132 168 214 257 302 371
#
# _framework density 9.1235599999999994
#
# number of rings (size 3 to 8) (size 9 to 14) (size 15 to 20)
#    0.000    1.750    1.250    4.125    1.750    2.750 
#    0.000    4.375    0.000    0.000    0.000    0.000 
#    0.000    0.000    0.000    0.000    0.000    0.000 
#
# Total GULP energy -178433.542743 kJ/mol
# GULP energy per Si atom -5576.048211 kJ/mol
# Density = 0.910279 g / cm^3
# Si number density = 9.123560 Si / 1000 Ang^3
#
#
#
# Elastic Constant Matrix: (Units=GPa)
#
#
# Indices 1 2 3 4 5 6 
#
# 1 127.6268 44.4442 82.7023 0.0000 1.2227 0.0000
# 2 44.4442 117.3208 68.6667 0.0000 -2.7252 0.0000
# 3 82.7023 68.6667 205.9575 0.0000 0.3813 0.0000
# 4 0.0000 0.0000 0.0000 35.7628 0.0000 -4.0156
# 5 1.2227 -2.7252 0.3813 0.0000 39.4863 0.0000
# 6 0.0000 0.0000 0.0000 -4.0156 0.0000 31.9130
#
#
#
# Elastic Compliance Matrix: (Units=1/GPa)
#
#
# Indices 1 2 3 4 5 6 
#
# 1 0.010948 -0.001969 -0.003739 0.000000 -0.000439 0.000000
# 2 -0.001969 0.010968 -0.002867 0.000000 0.000846 0.000000
# 3 -0.003739 -0.002867 0.007313 0.000000 -0.000153 0.000000
# 4 0.000000 0.000000 0.000000 0.028363 0.000000 0.003569
# 5 -0.000439 0.000846 -0.000153 0.000000 0.025399 0.000000
# 6 0.000000 0.000000 0.000000 0.003569 0.000000 0.031784
#
#
# Mechanical properties :
#
#
# Convention : Reuss Voigt Hill
#
# Bulk Modulus (GPa) = 82.79821 93.61462 88.20642
# Shear Modulus (GPa) = 36.77787 38.43854 37.60821
#
# Velocity S-wave (km/s) = 4.49435 4.59470 4.54480
# Velocity P-wave (km/s) = 8.50922 8.91984 8.71695
#
# Compressibility (1/GPa) = 0.01207756
#
# Stress axis : x y z
#
# Youngs Moduli (GPa) = 91.34005 91.17794 136.74330
#
# Poissons Ratio (x) = 0.17956 0.51126
# Poissons Ratio (y) = 0.17988 0.39210
# Poissons Ratio (z) = 0.34150 0.26144
#
# Static dielectric constant tensor:
#      x y z
#    x 1.673640 0.000000 0.013810 
#    y 0.000000 1.614820 0.000000 
#    z 0.013810 0.000000 1.630760 
# 
# From -- ./inp_files/374997.got.cif
#   From: 2010.05.17/outbox.ucp.g08.bks.cvg/sg12_188_cif.got.tgz:374997.got - 2010.06.11 11:47:21.
