data_PCOD9225985
_publ_section_title
;
Structure prediction by ZEFSAII (Michael W. Deem and Ramdas Pophale) SiO2 
 PCOD9225985
Probable space group: C 2/M
;
_chemical_formula_sum "Si O2"
_cell_formula_units_Z 32
_cell_length_a 9.000000
_cell_length_b 15.000000
_cell_length_c 30.000000
_cell_angle_alpha 90.000000
_cell_angle_beta 130.000000
_cell_angle_gamma 90.000000
_cell_volume 3102.479995
_symmetry_space_group_name_H-M "C 2/M"
_symmetry_group_IT_number 12
_symmetry_cell_setting 'monoclinic'
loop_
_space_group_symop_operation_xyz
x,y,z
-x,y,-z
-x,-y,-z
x,-y,z
1/2+x,1/2+y,z
1/2-x,1/2+y,-z
1/2-x,1/2-y,-z
1/2+x,1/2-y,z
loop_
_atom_site_type_symbol
_atom_site_label
_atom_site_fract_x
_atom_site_fract_y
_atom_site_fract_z
Si Si1 0.988987 0.759015 0.228204
Si Si2 0.446998 0.601904 0.683049
Si Si3 0.588430 0.602856 0.945186
Si Si4 0.188353 0.398381 0.314889
Si Si5 0.192722 0.397644 0.926665
Si Si6 0.070697 0.241625 0.149795
Si Si7 0.796400 0.390852 0.441804
Si Si8 0.457233 0.391063 0.442021
O O1 0.121051 0.776170 0.210861
O O2 0.777388 0.748743 0.166281
O O3 0.003151 0.838295 0.265717
O O4 0.044970 0.669363 0.264314
O O5 0.413758 0.500000 0.690385
O O6 0.621950 0.601251 0.680763
O O7 0.261913 0.636164 0.619256
O O8 0.622221 0.500000 0.938981
O O9 0.387871 0.605431 0.934727
O O10 0.560734 0.667034 0.898345
O O11 0.751154 0.630846 0.012245
O O12 0.116575 0.500000 0.303337
O O13 0.260563 0.368243 0.377779
O O14 0.130416 0.500000 0.916248
O O15 0.031469 0.335807 0.875211
O O16 0.793929 0.500000 0.440662
O O17 0.632677 0.361307 0.444604
O O18 0.000000 0.361435 0.500000
O O19 0.500000 0.360556 0.500000
O O20 0.458143 0.500000 0.442641
#
# Coordination Sequence:
#
# PCOD9225985 Si02
#       8
#     8   8   8   8   8   8   8   8
#     4  12  24  38  57  83 116 153 195 236 271 330
#     4   9  19  38  59  78 110 153 190 230 284 342
#     4   9  19  38  63  90 118 147 186 233 278 329
#     4   9  19  38  60  78 108 154 193 229 280 343
#     4   9  19  38  64  89 115 152 189 223 277 344
#     4  12  23  38  59  87 118 150 189 236 279 322
#     4   8  14  28  52  78 103 136 179 227 283 342
#     4   8  14  28  52  79 103 133 180 233 281 332
#
# _framework density 10.314329000000001
#
# number of rings (size 3 to 8) (size 9 to 14) (size 15 to 20)
#    0.000    2.500    2.500    2.625    0.000    2.000 
#    2.250    0.625    0.000    4.500    0.000    0.000 
#    0.000    0.000    0.000    0.000    0.000    0.000 
#
# Total GULP energy -178383.381019 kJ/mol
# GULP energy per Si atom -5574.480657 kJ/mol
# Density = 1.029085 g / cm^3
# Si number density = 10.314329 Si / 1000 Ang^3
#
#
#
# Elastic Constant Matrix: (Units=GPa)
#
#
# Indices 1 2 3 4 5 6 
#
# 1 19.6412 18.7103 29.7961 0.0000 -2.6531 0.0000
# 2 18.7103 67.8806 49.6019 0.0000 -17.1769 0.0000
# 3 29.7961 49.6019 97.6323 0.0000 -25.2353 0.0000
# 4 0.0000 0.0000 0.0000 -22.7737 0.0000 41.4185
# 5 -2.6531 -17.1769 -25.2353 0.0000 25.3065 0.0000
# 6 0.0000 0.0000 0.0000 41.4185 0.0000 -13.9554
#
#
#
# Elastic Compliance Matrix: (Units=1/GPa)
#
#
# Indices 1 2 3 4 5 6 
#
# 1 0.115593 -0.013157 -0.037411 0.000000 -0.034118 0.000000
# 2 -0.013157 0.025496 -0.006495 0.000000 0.009449 0.000000
# 3 -0.037411 -0.006495 0.030726 0.000000 0.022309 0.000000
# 4 0.000000 0.000000 0.000000 0.009985 0.000000 0.029634
# 5 -0.034118 0.009449 0.022309 0.000000 0.064598 0.000000
# 6 0.000000 0.000000 0.000000 0.029634 0.000000 0.016294
#
#
# Mechanical properties :
#
#
# Convention : Reuss Voigt Hill
#
# Bulk Modulus (GPa) = 17.33516 42.37453 29.85484
# Shear Modulus (GPa) = 12.62472 3.51853 8.07162
#
# Velocity S-wave (km/s) = 2.47655 1.30742 1.98023
# Velocity P-wave (km/s) = 4.07423 4.78177 4.44211
#
# Compressibility (1/GPa) = 0.05768623
#
# Stress axis : x y z
#
# Youngs Moduli (GPa) = 8.65106 39.22240 32.54562
#
# Poissons Ratio (x) = 0.51607 1.21758
# Poissons Ratio (y) = 0.11383 0.21139
# Poissons Ratio (z) = 0.32365 0.25476
#
# Static dielectric constant tensor:
#      x y z
#    x 1.704550 0.000000 0.024900 
#    y 0.000000 1.721410 0.000000 
#    z 0.024900 0.000000 1.729990 
# 
# From -- ./inp_files/372610.got.cif
#   From: 2010.05.17/outbox.ucp.g08.bks.cvg/sg12_187_cif.got.tgz:372610.got - 2010.06.11 11:47:21.
