data_PCOD9225717
_publ_section_title
;
Structure prediction by ZEFSAII (Michael W. Deem and Ramdas Pophale) SiO2 
 PCOD9225717
Probable space group: C 2/M
;
_chemical_formula_sum "Si O2"
_cell_formula_units_Z 20
_cell_length_a 15.000000
_cell_length_b 15.000000
_cell_length_c 9.000000
_cell_angle_alpha 90.000000
_cell_angle_beta 110.000000
_cell_angle_gamma 90.000000
_cell_volume 1902.877557
_symmetry_space_group_name_H-M "C 2/M"
_symmetry_group_IT_number 12
_symmetry_cell_setting 'monoclinic'
loop_
_space_group_symop_operation_xyz
x,y,z
-x,y,-z
-x,-y,-z
x,-y,z
1/2+x,1/2+y,z
1/2-x,1/2+y,-z
1/2-x,1/2-y,-z
1/2+x,1/2-y,z
loop_
_atom_site_type_symbol
_atom_site_label
_atom_site_fract_x
_atom_site_fract_y
_atom_site_fract_z
Si Si1 0.408888 0.827148 0.354046
Si Si2 0.242712 0.598800 0.504835
Si Si3 0.717984 0.334780 0.791443
Si Si4 0.113008 0.000000 0.880378
Si Si5 0.907409 0.603465 0.039412
Si Si6 0.386913 0.500000 0.769500
O O1 0.500000 0.797165 0.500000
O O2 0.339481 0.872494 0.432525
O O3 0.349904 0.749338 0.242194
O O4 0.431709 0.889802 0.227502
O O5 0.220016 0.500000 0.432099
O O6 0.258351 0.657392 0.370109
O O7 0.337080 0.583535 0.658329
O O8 0.656645 0.415817 0.821521
O O9 0.816992 0.339072 0.935558
O O10 0.998940 0.000000 0.811292
O O11 0.138552 0.000000 0.070632
O O12 0.884647 0.500000 0.991629
O O13 0.000000 0.630388 0.000000
#
# Coordination Sequence:
#
# PCOD9225717 Si02
#       6
#     8   8   8   4   8   4
#     4  12  27  42  66 103 140 177 219 281 338 393
#     4  10  22  42  67  93 134 173 226 272 329 397
#     4  12  24  43  70  98 136 174 226 278 335 398
#     4  11  21  43  66  95 132 175 233 265 342 389
#     4  11  24  46  72  98 133 179 230 272 333 401
#     4   9  23  39  68  97 124 179 221 281 318 403
#
# _framework density 10.510398
#
# number of rings (size 3 to 8) (size 9 to 14) (size 15 to 20)
#    0.600    0.400    2.000    4.200    2.800    4.000 
#    3.600    0.000    0.000    0.000    0.000    0.000 
#    0.000    0.000    0.000    0.000    0.000    0.000 
#
# Total GULP energy -111672.090873 kJ/mol
# GULP energy per Si atom -5583.604544 kJ/mol
# Density = 1.048648 g / cm^3
# Si number density = 10.510398 Si / 1000 Ang^3
#
#
#
# Elastic Constant Matrix: (Units=GPa)
#
#
# Indices 1 2 3 4 5 6 
#
# 1 116.5532 18.1719 61.7572 0.0000 -0.9694 0.0000
# 2 18.1719 25.8442 6.4221 0.0000 12.6786 0.0000
# 3 61.7572 6.4221 137.9973 0.0000 -1.6967 0.0000
# 4 0.0000 0.0000 0.0000 28.2485 0.0000 -2.3874
# 5 -0.9694 12.6786 -1.6967 0.0000 49.7806 0.0000
# 6 0.0000 0.0000 0.0000 -2.3874 0.0000 8.0310
#
#
#
# Elastic Compliance Matrix: (Units=1/GPa)
#
#
# Indices 1 2 3 4 5 6 
#
# 1 0.012766 -0.008798 -0.005275 0.000000 0.002310 0.000000
# 2 -0.008798 0.050958 0.001405 0.000000 -0.013102 0.000000
# 3 -0.005275 0.001405 0.009540 0.000000 -0.000135 0.000000
# 4 0.000000 0.000000 0.000000 0.036312 0.000000 0.010795
# 5 0.002310 -0.013102 -0.000135 0.000000 0.023465 0.000000
# 6 0.000000 0.000000 0.000000 0.010795 0.000000 0.127727
#
#
# Mechanical properties :
#
#
# Convention : Reuss Voigt Hill
#
# Bulk Modulus (GPa) = 20.86500 50.34412 35.60456
# Shear Modulus (GPa) = 16.55181 30.14826 23.35004
#
# Velocity S-wave (km/s) = 2.80911 3.79121 3.33649
# Velocity P-wave (km/s) = 4.52426 6.57008 5.64070
#
# Compressibility (1/GPa) = 0.04792715
#
# Stress axis : x y z
#
# Youngs Moduli (GPa) = 78.33402 19.62391 104.81902
#
# Poissons Ratio (x) = 0.17266 0.55294
# Poissons Ratio (y) = 0.68920 -0.14726
# Poissons Ratio (z) = 0.41323 -0.02757
#
# Static dielectric constant tensor:
#      x y z
#    x 1.719780 0.000000 0.012200 
#    y 0.000000 1.818850 0.000000 
#    z 0.012200 0.000000 1.716570 
# 
# From -- ./inp_files/59276.got.cif
#   From: 2010.05.17/outbox.ucp.g08.bks.cvg/sg12_30_cif.got.tgz:59276.got - 2010.06.11 11:47:21.
