data_PCOD9225018
_publ_section_title
;
Structure prediction by ZEFSAII (Michael W. Deem and Ramdas Pophale) SiO2 
 PCOD9225018
Probable space group: C 2/M
;
_chemical_formula_sum "Si O2"
_cell_formula_units_Z 28
_cell_length_a 15.000000
_cell_length_b 18.000000
_cell_length_c 21.000000
_cell_angle_alpha 90.000000
_cell_angle_beta 30.000000
_cell_angle_gamma 90.000000
_cell_volume 2835.000000
_symmetry_space_group_name_H-M "C 2/M"
_symmetry_group_IT_number 12
_symmetry_cell_setting 'monoclinic'
loop_
_space_group_symop_operation_xyz
x,y,z
-x,y,-z
-x,-y,-z
x,-y,z
1/2+x,1/2+y,z
1/2-x,1/2+y,-z
1/2-x,1/2-y,-z
1/2+x,1/2-y,z
loop_
_atom_site_type_symbol
_atom_site_label
_atom_site_fract_x
_atom_site_fract_y
_atom_site_fract_z
Si Si1 0.812875 0.304601 0.156997
Si Si2 0.117361 0.179877 0.601055
Si Si3 0.657770 0.588047 0.449099
Si Si4 0.484242 0.911306 0.157602
Si Si5 0.410652 0.912538 0.486384
Si Si6 0.274910 0.361835 0.198647
Si Si7 0.163758 0.088371 0.983657
O O1 0.605933 0.313514 0.254145
O O2 0.880446 0.368058 0.164867
O O3 0.787150 0.225271 0.206656
O O4 0.000000 0.296814 0.000000
O O5 0.250000 0.250000 0.500000
O O6 0.134067 0.127217 0.530019
O O7 0.234005 0.137433 0.583441
O O8 0.500000 0.614563 0.500000
O O9 0.636104 0.500000 0.469933
O O10 0.852339 0.600918 0.298930
O O11 0.686601 0.889260 0.055384
O O12 0.487842 0.000000 0.140751
O O13 0.500000 0.900631 0.500000
O O14 0.579428 0.892764 0.336619
O O15 0.365932 0.000000 0.506743
O O16 0.295941 0.372855 0.109201
O O17 0.450025 0.398000 0.124440
O O18 0.188483 0.000000 0.959853
#
# Coordination Sequence:
#
# PCOD9225018 Si02
#       7
#     8   8   8   8   8   8   8
#     4  12  26  44  63  95 140 177 211 262 332 406
#     4  12  25  42  67  97 132 173 219 272 329 388
#     4  10  20  39  68  94 120 161 221 280 322 369
#     4  10  23  41  65  98 128 170 223 271 325 388
#     4  11  25  44  67  96 131 173 220 268 325 393
#     4  11  21  42  64  96 131 168 215 268 329 379
#     4  10  20  38  69  97 123 164 222 277 320 373
#
# _framework density 9.8765429999999999
#
# number of rings (size 3 to 8) (size 9 to 14) (size 15 to 20)
#    0.000    1.143    4.286    3.000    0.000    5.429 
#    0.000    1.429    0.000    0.000    0.000    0.000 
#    0.000    0.000    0.000    0.000    0.000    0.000 
#
# Total GULP energy -155907.631940 kJ/mol
# GULP energy per Si atom -5568.129712 kJ/mol
# Density = 0.985406 g / cm^3
# Si number density = 9.876543 Si / 1000 Ang^3
#
#
#
# Elastic Constant Matrix: (Units=GPa)
#
#
# Indices 1 2 3 4 5 6 
#
# 1 99.3398 32.7429 25.3313 0.0008 -43.7289 0.0018
# 2 32.7429 59.0199 11.5922 0.0068 -16.9014 0.0075
# 3 25.3313 11.5922 86.8649 0.0336 -35.8802 0.0229
# 4 0.0008 0.0068 0.0336 0.4632 0.0044 -34.6782
# 5 -43.7289 -16.9014 -35.8802 0.0044 48.6329 0.0017
# 6 0.0018 0.0075 0.0229 -34.6782 0.0017 14.5112
#
#
#
# Elastic Compliance Matrix: (Units=1/GPa)
#
#
# Indices 1 2 3 4 5 6 
#
# 1 0.018693 -0.006137 0.002056 0.000003 0.016192 0.000003
# 2 -0.006137 0.020836 -0.000402 0.000006 0.001426 0.000004
# 3 0.002056 -0.000402 0.016788 0.000019 0.014095 0.000018
# 4 0.000003 0.000006 0.000019 -0.012135 0.000021 -0.028999
# 5 0.016192 0.001426 0.014095 0.000021 0.046016 0.000021
# 6 0.000003 0.000004 0.000018 -0.028999 0.000021 -0.000387
#
#
# Mechanical properties :
#
#
# Convention : Reuss Voigt Hill
#
# Bulk Modulus (GPa) = 21.11913 42.72860 31.92386
# Shear Modulus (GPa) = 43.64552 24.42535 34.03544
#
# Velocity S-wave (km/s) = 4.70569 3.52025 4.15546
# Velocity P-wave (km/s) = 6.34346 6.18071 6.26261
#
# Compressibility (1/GPa) = 0.04735044
#
# Stress axis : x y z
#
# Youngs Moduli (GPa) = 53.49737 47.99487 59.56569
#
# Poissons Ratio (x) = 0.29456 -0.12247
# Poissons Ratio (y) = 0.32833 0.02392
# Poissons Ratio (z) = -0.10999 0.01928
#
# Static dielectric constant tensor:
#      x y z
#    x 1.734870 0.000000 -0.003810 
#    y 0.000000 1.709460 0.000000 
#    z -0.003810 0.000000 1.745840 
# 
# From -- ./inp_files/311705.got.cif
#   From: 2010.05.17/outbox.ucp.g08.bks.cvg/sg12_156_cif.got.tgz:311705.got - 2010.06.11 11:47:21.
