data_PCOD9225089
_publ_section_title
;
Structure prediction by ZEFSAII (Michael W. Deem and Ramdas Pophale) SiO2 
 PCOD9225089
Probable space group: C 2/M
;
_chemical_formula_sum "Si O2"
_cell_formula_units_Z 32
_cell_length_a 21.000000
_cell_length_b 18.000000
_cell_length_c 24.000000
_cell_angle_alpha 90.000000
_cell_angle_beta 20.000000
_cell_angle_gamma 90.000000
_cell_volume 3102.806740
_symmetry_space_group_name_H-M "C 2/M"
_symmetry_group_IT_number 12
_symmetry_cell_setting 'monoclinic'
loop_
_space_group_symop_operation_xyz
x,y,z
-x,y,-z
-x,-y,-z
x,-y,z
1/2+x,1/2+y,z
1/2-x,1/2+y,-z
1/2-x,1/2-y,-z
1/2+x,1/2-y,z
loop_
_atom_site_type_symbol
_atom_site_label
_atom_site_fract_x
_atom_site_fract_y
_atom_site_fract_z
Si Si1 0.384518 0.315174 0.366683
Si Si2 0.875430 0.588707 0.932422
Si Si3 0.406444 0.913384 0.137535
Si Si4 0.524566 0.414308 0.798517
Si Si5 0.840922 0.769428 0.675165
Si Si6 0.625646 0.783501 0.230445
Si Si7 0.022255 0.146630 0.920152
Si Si8 0.896049 0.412066 0.362087
O O1 0.250000 0.250000 0.500000
O O2 0.362850 0.346227 0.322291
O O3 0.579594 0.277726 0.221327
O O4 0.318678 0.387737 0.455018
O O5 0.876196 0.500000 0.936690
O O6 0.946953 0.612480 0.934744
O O7 0.030026 0.609996 0.759562
O O8 0.678134 0.601382 0.063083
O O9 0.247794 0.850797 0.262125
O O10 0.347928 0.000000 0.197558
O O11 0.500000 0.914361 0.000000
O O12 0.575954 0.500000 0.741588
O O13 0.537963 0.406382 0.853846
O O14 0.916542 0.754759 0.675551
O O15 0.687202 0.705734 0.791007
O O16 0.000000 0.758315 0.500000
O O17 0.512881 0.859752 0.308733
O O18 0.838424 0.806236 0.057877
O O19 0.000000 0.110587 0.000000
O O20 0.924502 0.500000 0.347343
#
# Coordination Sequence:
#
# PCOD9225089 Si02
#       8
#     8   8   8   8   8   8   8   8
#     4  10  24  38  59  95 132 169 211 261 327 381
#     4   9  20  37  63  96 125 160 208 264 325 379
#     4  10  22  42  66  92 126 167 212 266 330 392
#     4  11  23  41  68 101 130 166 222 274 321 391
#     4  11  26  41  63  90 128 169 220 272 320 396
#     4  10  22  42  62  95 128 172 219 262 327 386
#     4  10  23  43  65  92 132 175 216 271 330 390
#     4  10  20  40  66  94 134 168 208 268 323 382
#
# _framework density 10.313243
#
# number of rings (size 3 to 8) (size 9 to 14) (size 15 to 20)
#    0.000    1.875    1.250    1.500    8.750    2.000 
#    0.000    2.500    0.000    0.750    0.000    0.000 
#    0.000    0.000    0.000    0.000    0.000    0.000 
#
# Total GULP energy -178225.433463 kJ/mol
# GULP energy per Si atom -5569.544796 kJ/mol
# Density = 1.028977 g / cm^3
# Si number density = 10.313243 Si / 1000 Ang^3
#
#
#
# Elastic Constant Matrix: (Units=GPa)
#
#
# Indices 1 2 3 4 5 6 
#
# 1 136.1601 56.7435 16.4438 -0.0005 9.7116 -0.0059
# 2 56.7435 102.5933 20.7549 0.0135 4.4683 0.0131
# 3 16.4438 20.7549 36.8173 0.0268 5.4037 -0.0021
# 4 -0.0005 0.0135 0.0268 28.0173 -0.0129 -3.2208
# 5 9.7116 4.4683 5.4037 -0.0129 22.6079 -0.0053
# 6 -0.0059 0.0131 -0.0021 -3.2208 -0.0053 30.4746
#
#
#
# Elastic Compliance Matrix: (Units=1/GPa)
#
#
# Indices 1 2 3 4 5 6 
#
# 1 0.009799 -0.005072 -0.001085 0.000003 -0.002948 0.000004
# 2 -0.005072 0.013638 -0.005542 -0.000002 0.000808 -0.000007
# 3 -0.001085 -0.005542 0.031651 -0.000030 -0.006004 0.000000
# 4 0.000003 -0.000002 -0.000030 0.036131 0.000028 0.003819
# 5 -0.002948 0.000808 -0.006004 0.000028 0.046774 0.000010
# 6 0.000004 -0.000007 0.000000 0.003819 0.000010 0.033218
#
#
# Mechanical properties :
#
#
# Convention : Reuss Voigt Hill
#
# Bulk Modulus (GPa) = 31.55401 51.49501 41.52451
# Shear Modulus (GPa) = 24.36974 28.32850 26.34912
#
# Velocity S-wave (km/s) = 3.44099 3.70997 3.57801
# Velocity P-wave (km/s) = 5.57837 6.58570 6.10286
#
# Compressibility (1/GPa) = 0.03169169
#
# Stress axis : x y z
#
# Youngs Moduli (GPa) = 102.04825 73.32215 31.59473
#
# Poissons Ratio (x) = 0.37189 0.03427
# Poissons Ratio (y) = 0.51760 0.17508
# Poissons Ratio (z) = 0.11070 0.40632
#
# Static dielectric constant tensor:
#      x y z
#    x 1.768750 0.000000 0.000740 
#    y 0.000000 1.741210 0.000010 
#    z 0.000740 0.000010 1.886790 
# 
# From -- ./inp_files/347859.got.cif
#   From: 2010.05.17/outbox.ucp.g08.bks.cvg/sg12_174_cif.got.tgz:347859.got - 2010.06.11 11:47:21.
