data_PCOD9225055
_publ_section_title
;
Structure prediction by ZEFSAII (Michael W. Deem and Ramdas Pophale) SiO2 
 PCOD9225055
Probable space group: C 2/M
;
_chemical_formula_sum "Si O2"
_cell_formula_units_Z 28
_cell_length_a 21.000000
_cell_length_b 9.000000
_cell_length_c 18.000000
_cell_angle_alpha 90.000000
_cell_angle_beta 60.000000
_cell_angle_gamma 90.000000
_cell_volume 2946.218424
_symmetry_space_group_name_H-M "C 2/M"
_symmetry_group_IT_number 12
_symmetry_cell_setting 'monoclinic'
loop_
_space_group_symop_operation_xyz
x,y,z
-x,y,-z
-x,-y,-z
x,-y,z
1/2+x,1/2+y,z
1/2-x,1/2+y,-z
1/2-x,1/2-y,-z
1/2+x,1/2-y,z
loop_
_atom_site_type_symbol
_atom_site_label
_atom_site_fract_x
_atom_site_fract_y
_atom_site_fract_z
Si Si1 0.690865 0.178690 0.977965
Si Si2 0.542426 0.174957 0.140511
Si Si3 0.330450 0.821688 0.442454
Si Si4 0.884721 0.178227 0.257135
Si Si5 0.962819 0.174113 0.441800
Si Si6 0.092647 0.326205 0.279815
Si Si7 0.761328 0.178088 0.203348
O O1 0.710821 0.234492 0.884672
O O2 0.695388 0.000000 0.981576
O O3 0.750000 0.250000 0.000000
O O4 0.606537 0.222083 0.046298
O O5 0.465430 0.263535 0.184755
O O6 0.583886 0.186504 0.196049
O O7 0.525151 0.000000 0.139354
O O8 0.250000 0.750000 0.500000
O O9 0.364082 0.761212 0.345498
O O10 0.388670 0.766555 0.470552
O O11 0.325592 0.000000 0.445252
O O12 0.817895 0.207652 0.237913
O O13 0.888074 0.000000 0.266711
O O14 0.000000 0.195616 0.500000
O O15 0.026679 0.228252 0.349570
O O16 0.946220 0.000000 0.440804
O O17 0.080118 0.500000 0.306471
O O18 0.174082 0.284763 0.261953
O O19 0.763239 0.000000 0.188273
#
# Coordination Sequence:
#
# PCOD9225055 Si02
#       7
#     8   8   8   8   8   8   8
#     4  11  22  38  62  91 124 163 208 259 315 368
#     4  10  21  39  63  89 122 165 205 253 310 372
#     4  12  26  45  68  93 127 169 210 257 314 375
#     4  11  24  42  65  93 126 166 207 257 313 371
#     4  11  25  43  64  97 131 160 207 262 309 370
#     4  10  20  39  64  89 122 166 208 251 308 372
#     4  10  23  42  62  91 127 162 209 258 309 371
#
# _framework density 9.5037079999999996
#
# number of rings (size 3 to 8) (size 9 to 14) (size 15 to 20)
#    0.000    1.286    2.857    2.571    2.000    4.571 
#    0.000    2.857    0.000    0.000    0.000    0.000 
#    0.000    0.000    0.000    0.000    0.000    0.000 
#
# Total GULP energy -156438.339902 kJ/mol
# GULP energy per Si atom -5587.083568 kJ/mol
# Density = 0.948208 g / cm^3
# Si number density = 9.503708 Si / 1000 Ang^3
#
#
#
# Elastic Constant Matrix: (Units=GPa)
#
#
# Indices 1 2 3 4 5 6 
#
# 1 151.7942 64.2841 25.4858 0.0000 -25.2639 0.0000
# 2 64.2841 99.4183 34.8238 0.0000 -7.3907 0.0000
# 3 25.4858 34.8238 55.1004 0.0000 -19.0031 0.0000
# 4 0.0000 0.0000 0.0000 29.6406 0.0000 -4.6046
# 5 -25.2639 -7.3907 -19.0031 0.0000 37.4498 0.0000
# 6 0.0000 0.0000 0.0000 -4.6046 0.0000 38.1486
#
#
#
# Elastic Compliance Matrix: (Units=1/GPa)
#
#
# Indices 1 2 3 4 5 6 
#
# 1 0.010225 -0.006750 0.001765 0.000000 0.006462 0.000000
# 2 -0.006750 0.017490 -0.010075 0.000000 -0.006214 0.000000
# 3 0.001765 -0.010075 0.028394 0.000000 0.013610 0.000000
# 4 0.000000 0.000000 0.000000 0.034382 0.000000 0.004150
# 5 0.006462 -0.006214 0.013610 0.000000 0.036741 0.000000
# 6 0.000000 0.000000 0.000000 0.004150 0.000000 0.026714
#
#
# Mechanical properties :
#
#
# Convention : Reuss Voigt Hill
#
# Bulk Modulus (GPa) = 38.47731 61.72224 50.09977
# Shear Modulus (GPa) = 25.94313 33.16241 29.55277
#
# Velocity S-wave (km/s) = 3.69846 4.18150 3.94738
# Velocity P-wave (km/s) = 6.20688 7.47372 6.86957
#
# Compressibility (1/GPa) = 0.02598935
#
# Stress axis : x y z
#
# Youngs Moduli (GPa) = 97.79542 57.17605 35.21908
#
# Poissons Ratio (x) = 0.38591 -0.06215
# Poissons Ratio (y) = 0.66007 0.35483
# Poissons Ratio (z) = -0.17257 0.57604
#
# Static dielectric constant tensor:
#      x y z
#    x 1.653270 0.000000 0.024650 
#    y 0.000000 1.641620 0.000000 
#    z 0.024650 0.000000 1.695200 
# 
# From -- ./inp_files/280895.got.cif
#   From: 2010.05.17/outbox.ucp.g08.bks.cvg/sg12_141_cif.got.tgz:280895.got - 2010.06.11 11:47:21.
