data_PCOD9225345
_publ_section_title
;
Structure prediction by ZEFSAII (Michael W. Deem and Ramdas Pophale) SiO2 
 PCOD9225345
Probable space group: C 2/M
;
_chemical_formula_sum "Si O2"
_cell_formula_units_Z 32
_cell_length_a 15.000000
_cell_length_b 30.000000
_cell_length_c 9.000000
_cell_angle_alpha 90.000000
_cell_angle_beta 60.000000
_cell_angle_gamma 90.000000
_cell_volume 3507.402885
_symmetry_space_group_name_H-M "C 2/M"
_symmetry_group_IT_number 12
_symmetry_cell_setting 'monoclinic'
loop_
_space_group_symop_operation_xyz
x,y,z
-x,y,-z
-x,-y,-z
x,-y,z
1/2+x,1/2+y,z
1/2-x,1/2+y,-z
1/2-x,1/2-y,-z
1/2+x,1/2-y,z
loop_
_atom_site_type_symbol
_atom_site_label
_atom_site_fract_x
_atom_site_fract_y
_atom_site_fract_z
Si Si1 0.118386 0.200235 0.543885
Si Si2 0.214802 0.286850 0.382663
Si Si3 0.689904 0.135590 0.955400
Si Si4 0.392035 0.313841 0.798344
Si Si5 0.115220 0.551546 0.839069
Si Si6 0.611566 0.132130 0.332095
Si Si7 0.381998 0.763380 0.043371
Si Si8 0.386919 0.048343 0.514770
O O1 0.128892 0.254379 0.524832
O O2 0.222449 0.187366 0.541827
O O3 0.119485 0.188165 0.370287
O O4 0.016400 0.181876 0.709274
O O5 0.166197 0.321246 0.311757
O O6 0.301274 0.258166 0.225845
O O7 0.807289 0.148447 0.909911
O O8 0.679763 0.093869 0.850188
O O9 0.618034 0.121864 0.153878
O O10 0.646082 0.184302 0.944219
O O11 0.369576 0.267499 0.905069
O O12 0.151199 0.500000 0.844586
O O13 0.106932 0.553990 0.667105
O O14 0.000000 0.555350 0.000000
O O15 0.500000 0.137001 0.500000
O O16 0.665976 0.091284 0.370937
O O17 0.500000 0.758994 0.000000
O O18 0.500000 0.047507 0.500000
O O19 0.339334 0.000000 0.585934
#
# Coordination Sequence:
#
# PCOD9225345 Si02
#       8
#     8   8   8   8   8   8   8   8
#     4  10  23  36  56  76 109 155 195 239 283 329
#     4  11  22  37  54  79 112 153 196 237 283 339
#     4  12  24  36  57  85 115 157 192 239 292 345
#     4  11  22  39  54  79 115 153 196 241 284 333
#     4  10  21  38  59  85 118 150 190 241 298 357
#     4  11  24  34  55  83 115 150 191 236 280 350
#     4  12  23  38  54  78 117 156 198 238 281 336
#     4   9  19  37  57  78 109 146 183 233 291 349
#
# _framework density 9.1235599999999994
#
# number of rings (size 3 to 8) (size 9 to 14) (size 15 to 20)
#    0.000    1.250    3.750    3.000    5.250    1.500 
#    0.000    0.000    0.000    0.000    0.000    2.625 
#    0.000    3.000    0.000    0.000    0.000    0.000 
#
# Total GULP energy -178293.469721 kJ/mol
# GULP energy per Si atom -5571.670929 kJ/mol
# Density = 0.910279 g / cm^3
# Si number density = 9.123560 Si / 1000 Ang^3
#
#
#
# Elastic Constant Matrix: (Units=GPa)
#
#
# Indices 1 2 3 4 5 6 
#
# 1 52.4423 24.0558 17.1902 0.0000 -6.2726 0.0000
# 2 24.0558 115.3803 34.4735 0.0000 1.7160 0.0000
# 3 17.1902 34.4735 79.8854 0.0000 2.7320 0.0000
# 4 0.0000 0.0000 0.0000 23.6450 0.0000 5.1131
# 5 -6.2726 1.7160 2.7320 0.0000 31.1323 0.0000
# 6 0.0000 0.0000 0.0000 5.1131 0.0000 25.4750
#
#
#
# Elastic Compliance Matrix: (Units=1/GPa)
#
#
# Indices 1 2 3 4 5 6 
#
# 1 0.022506 -0.003753 -0.003396 0.000000 0.005039 0.000000
# 2 -0.003753 0.010576 -0.003722 0.000000 -0.001012 0.000000
# 3 -0.003396 -0.003722 0.014916 0.000000 -0.001788 0.000000
# 4 0.000000 0.000000 0.000000 0.044211 0.000000 -0.008874
# 5 0.005039 -0.001012 -0.001788 0.000000 0.033349 0.000000
# 6 0.000000 0.000000 0.000000 -0.008874 0.000000 0.041035
#
#
# Mechanical properties :
#
#
# Convention : Reuss Voigt Hill
#
# Bulk Modulus (GPa) = 38.08457 44.34965 41.21711
# Shear Modulus (GPa) = 25.36948 27.51635 26.44292
#
# Velocity S-wave (km/s) = 3.73276 3.88749 3.81091
# Velocity P-wave (km/s) = 6.28449 6.67142 6.48084
#
# Compressibility (1/GPa) = 0.02625735
#
# Stress axis : x y z
#
# Youngs Moduli (GPa) = 44.43292 94.54925 67.04209
#
# Poissons Ratio (x) = 0.35480 0.22767
# Poissons Ratio (y) = 0.16674 0.24953
# Poissons Ratio (z) = 0.15089 0.35191
#
# Static dielectric constant tensor:
#      x y z
#    x 1.687290 0.000000 0.021470 
#    y 0.000000 1.654750 0.000000 
#    z 0.021470 0.000000 1.687140 
# 
# From -- ./inp_files/68220.got.cif
#   From: 2010.05.17/outbox.ucp.g08.bks.cvg/sg12_35_cif.got.tgz:68220.got - 2010.06.11 11:47:21.
