data_PCOD9225395
_publ_section_title
;
Structure prediction by ZEFSAII (Michael W. Deem and Ramdas Pophale) SiO2 
 PCOD9225395
Probable space group: C 2/M
;
_chemical_formula_sum "Si O2"
_cell_formula_units_Z 24
_cell_length_a 27.000000
_cell_length_b 15.000000
_cell_length_c 9.000000
_cell_angle_alpha 90.000000
_cell_angle_beta 140.000000
_cell_angle_gamma 90.000000
_cell_volume 2342.960837
_symmetry_space_group_name_H-M "C 2/M"
_symmetry_group_IT_number 12
_symmetry_cell_setting 'monoclinic'
loop_
_space_group_symop_operation_xyz
x,y,z
-x,y,-z
-x,-y,-z
x,-y,z
1/2+x,1/2+y,z
1/2-x,1/2+y,-z
1/2-x,1/2-y,-z
1/2+x,1/2-y,z
loop_
_atom_site_type_symbol
_atom_site_label
_atom_site_fract_x
_atom_site_fract_y
_atom_site_fract_z
Si Si1 0.809264 0.187024 0.049911
Si Si2 0.648937 0.607276 0.290969
Si Si3 0.915392 0.898682 0.524920
Si Si4 0.791799 0.394264 0.441415
Si Si5 0.444019 0.267634 0.151682
Si Si6 0.962134 0.601856 0.752467
O O1 0.848667 0.119566 0.254166
O O2 0.878890 0.239395 0.128335
O O3 0.750000 0.250000 0.000000
O O4 0.763816 0.133140 0.819949
O O5 0.638348 0.500000 0.226625
O O6 0.620543 0.616379 0.394190
O O7 0.739488 0.629351 0.466019
O O8 0.598604 0.677601 0.079968
O O9 0.985067 0.832764 0.649315
O O10 0.943494 0.000000 0.582680
O O11 0.803668 0.500000 0.479294
O O12 0.876510 0.359395 0.591623
O O13 0.483794 0.172904 0.207265
O O14 0.957879 0.500000 0.678269
O O15 0.000000 0.593014 0.000000
#
# Coordination Sequence:
#
# PCOD9225395 Si02
#       6
#     8   8   8   8   8   8
#     4  11  24  39  56  81 117 158 196 236 287 347
#     4   9  19  36  61  92 121 151 188 236 294 349
#     4  11  22  37  61  92 122 152 192 240 290 348
#     4   9  19  38  60  82 113 151 191 236 287 341
#     4  11  22  38  60  86 120 155 192 241 294 347
#     4  10  21  38  62  89 115 150 199 248 290 338
#
# _framework density 10.243449
#
# number of rings (size 3 to 8) (size 9 to 14) (size 15 to 20)
#    0.000    1.833    0.000    4.000    0.000    5.333 
#    0.000    7.500    0.000    4.000    0.000    0.000 
#    0.000    0.000    0.000    0.000    0.000    0.000 
#
# Total GULP energy -133945.998206 kJ/mol
# GULP energy per Si atom -5581.083259 kJ/mol
# Density = 1.022013 g / cm^3
# Si number density = 10.243449 Si / 1000 Ang^3
#
#
#
# Elastic Constant Matrix: (Units=GPa)
#
#
# Indices 1 2 3 4 5 6 
#
# 1 147.2764 49.5231 44.0365 0.0000 30.3974 0.0000
# 2 49.5231 92.2194 11.2381 0.0000 10.9683 0.0000
# 3 44.0365 11.2381 67.3021 0.0000 13.2286 0.0000
# 4 0.0000 0.0000 0.0000 41.7948 0.0000 -9.9663
# 5 30.3974 10.9683 13.2286 0.0000 25.0786 0.0000
# 6 0.0000 0.0000 0.0000 -9.9663 0.0000 52.0012
#
#
#
# Elastic Compliance Matrix: (Units=1/GPa)
#
#
# Indices 1 2 3 4 5 6 
#
# 1 0.011852 -0.004594 -0.005087 0.000000 -0.009674 0.000000
# 2 -0.004594 0.013285 0.000932 0.000000 -0.000733 0.000000
# 3 -0.005087 0.000932 0.018854 0.000000 -0.004187 0.000000
# 4 0.000000 0.000000 0.000000 0.025072 0.000000 0.004805
# 5 -0.009674 -0.000733 -0.004187 0.000000 0.054129 0.000000
# 6 0.000000 0.000000 0.000000 0.004805 0.000000 0.020151
#
#
# Mechanical properties :
#
#
# Convention : Reuss Voigt Hill
#
# Bulk Modulus (GPa) = 37.74599 57.37704 47.56151
# Shear Modulus (GPa) = 29.46846 37.24160 33.35503
#
# Velocity S-wave (km/s) = 3.79675 4.26822 4.03937
# Velocity P-wave (km/s) = 6.13880 7.23587 6.70979
#
# Compressibility (1/GPa) = 0.02649288
#
# Stress axis : x y z
#
# Youngs Moduli (GPa) = 84.37099 75.27521 53.03913
#
# Poissons Ratio (x) = 0.34585 0.26979
# Poissons Ratio (y) = 0.38764 -0.04943
# Poissons Ratio (z) = 0.42916 -0.07016
#
# Static dielectric constant tensor:
#      x y z
#    x 1.730230 0.000000 0.008880 
#    y 0.000000 1.741890 0.000000 
#    z 0.008880 0.000000 1.746620 
# 
# From -- ./inp_files/73590.got.cif
#   From: 2010.05.17/outbox.ucp.g08.bks.cvg/sg12_37_cif.got.tgz:73590.got - 2010.06.11 11:47:21.
