data_PCOD9225255
_publ_section_title
;
Structure prediction by ZEFSAII (Michael W. Deem and Ramdas Pophale) SiO2 
 PCOD9225255
Probable space group: C 2/M
;
_chemical_formula_sum "Si O2"
_cell_formula_units_Z 20
_cell_length_a 15.000000
_cell_length_b 9.000000
_cell_length_c 30.000000
_cell_angle_alpha 90.000000
_cell_angle_beta 150.000000
_cell_angle_gamma 90.000000
_cell_volume 2025.000000
_symmetry_space_group_name_H-M "C 2/M"
_symmetry_group_IT_number 12
_symmetry_cell_setting 'monoclinic'
loop_
_space_group_symop_operation_xyz
x,y,z
-x,y,-z
-x,-y,-z
x,-y,z
1/2+x,1/2+y,z
1/2-x,1/2+y,-z
1/2-x,1/2-y,-z
1/2+x,1/2-y,z
loop_
_atom_site_type_symbol
_atom_site_label
_atom_site_fract_x
_atom_site_fract_y
_atom_site_fract_z
Si Si1 0.470736 0.322310 0.637254
Si Si2 0.095797 0.174366 0.870082
Si Si3 0.159752 0.677430 0.804422
Si Si4 0.002194 0.326741 0.081460
Si Si5 0.914871 0.820939 0.512330
O O1 0.484926 0.500000 0.649089
O O2 0.581966 0.240382 0.724068
O O3 0.269322 0.267241 0.560306
O O4 0.514779 0.290720 0.603540
O O5 0.076517 0.248317 0.812975
O O6 0.000972 0.262581 0.869433
O O7 0.043571 0.000000 0.846565
O O8 0.304303 0.180398 0.975015
O O9 0.140291 0.500000 0.798070
O O10 0.364882 0.729004 0.890409
O O11 0.057697 0.500000 0.105585
O O12 0.000000 0.785394 0.500000
O O13 0.882767 0.000000 0.497889
#
# Coordination Sequence:
#
# PCOD9225255 Si02
#       5
#     8   8   8   8   8
#     4  10  21  37  57  83 114 144 182 231 279 334
#     4  10  21  38  59  83 112 148 192 238 285 339
#     4  12  24  37  56  82 116 154 192 236 283 331
#     4  10  21  38  59  83 113 149 190 236 286 340
#     4   9  19  38  62  84 109 143 180 222 278 340
#
# _framework density 9.8765429999999999
#
# number of rings (size 3 to 8) (size 9 to 14) (size 15 to 20)
#    0.000    1.800    0.000    4.200    0.000    7.600 
#    0.000    6.000    0.000    0.000    0.000    0.000 
#    0.000    0.000    0.000    0.000    0.000    0.000 
#
# Total GULP energy -111658.244556 kJ/mol
# GULP energy per Si atom -5582.912228 kJ/mol
# Density = 0.985406 g / cm^3
# Si number density = 9.876543 Si / 1000 Ang^3
#
#
#
# Elastic Constant Matrix: (Units=GPa)
#
#
# Indices 1 2 3 4 5 6 
#
# 1 132.3282 36.3732 12.9215 0.0000 -37.6201 0.0000
# 2 36.3732 119.5764 22.8552 0.0000 -23.4636 0.0000
# 3 12.9215 22.8552 43.8706 0.0001 -24.4333 0.0000
# 4 0.0000 0.0000 0.0001 32.6381 0.0000 -4.3289
# 5 -37.6201 -23.4636 -24.4333 0.0000 35.7384 0.0000
# 6 0.0000 0.0000 0.0000 -4.3289 0.0000 37.4928
#
#
#
# Elastic Compliance Matrix: (Units=1/GPa)
#
#
# Indices 1 2 3 4 5 6 
#
# 1 0.011829 -0.001718 0.006004 0.000000 0.015429 0.000000
# 2 -0.001718 0.010009 -0.003320 0.000000 0.002493 0.000000
# 3 0.006004 -0.003320 0.040472 0.000000 0.031810 0.000000
# 4 0.000000 0.000000 0.000000 0.031116 0.000000 0.003593
# 5 0.015429 0.002493 0.031810 0.000000 0.067606 0.000000
# 6 0.000000 0.000000 0.000000 0.003593 0.000000 0.027087
#
#
# Mechanical properties :
#
#
# Convention : Reuss Voigt Hill
#
# Bulk Modulus (GPa) = 15.56634 48.89722 32.23178
# Shear Modulus (GPa) = 24.08463 36.08221 30.08342
#
# Velocity S-wave (km/s) = 3.49561 4.27858 3.90676
# Velocity P-wave (km/s) = 4.91833 7.01543 6.05831
#
# Compressibility (1/GPa) = 0.06424117
#
# Stress axis : x y z
#
# Youngs Moduli (GPa) = 84.53582 99.90738 24.70864
#
# Poissons Ratio (x) = 0.17168 -0.14835
# Poissons Ratio (y) = 0.14526 0.08203
# Poissons Ratio (z) = -0.50754 0.33170
#
# Static dielectric constant tensor:
#      x y z
#    x 1.688220 0.000000 0.007910 
#    y 0.000000 1.657720 0.000000 
#    z 0.007910 0.000000 1.755410 
# 
# From -- ./inp_files/211209.got.cif
#   From: 2010.05.17/outbox.ucp.g08.bks.cvg/sg12_106_cif.got.tgz:211209.got - 2010.06.11 11:47:21.
