data_PCOD9225133
_publ_section_title
;
Structure prediction by ZEFSAII (Michael W. Deem and Ramdas Pophale) SiO2 
 PCOD9225133
Probable space group: C 2/M
;
_chemical_formula_sum "Si O2"
_cell_formula_units_Z 32
_cell_length_a 18.000000
_cell_length_b 9.000000
_cell_length_c 30.000000
_cell_angle_alpha 90.000000
_cell_angle_beta 140.000000
_cell_angle_gamma 90.000000
_cell_volume 3123.947783
_symmetry_space_group_name_H-M "C 2/M"
_symmetry_group_IT_number 12
_symmetry_cell_setting 'monoclinic'
loop_
_space_group_symop_operation_xyz
x,y,z
-x,y,-z
-x,-y,-z
x,-y,z
1/2+x,1/2+y,z
1/2-x,1/2+y,-z
1/2-x,1/2-y,-z
1/2+x,1/2-y,z
loop_
_atom_site_type_symbol
_atom_site_label
_atom_site_fract_x
_atom_site_fract_y
_atom_site_fract_z
Si Si1 0.379585 0.675214 0.155078
Si Si2 0.961767 0.172762 0.090523
Si Si3 0.553264 0.821575 0.475073
Si Si4 0.615532 0.169743 0.273998
Si Si5 0.380353 0.177853 0.967715
Si Si6 0.535642 0.678857 0.652942
Si Si7 0.779174 0.177819 0.763425
Si Si8 0.804499 0.672938 0.589371
O O1 0.389312 0.500000 0.171467
O O2 0.407041 0.686165 0.114619
O O3 0.487173 0.765729 0.224175
O O4 0.249087 0.728150 0.106037
O O5 0.099633 0.208182 0.154922
O O6 0.950158 0.000000 0.071773
O O7 0.896222 0.277282 0.026266
O O8 0.500000 0.794201 0.500000
O O9 0.476381 0.735143 0.403546
O O10 0.684266 0.761144 0.527040
O O11 0.550612 0.000000 0.466546
O O12 0.684461 0.266392 0.269357
O O13 0.680356 0.169731 0.350477
O O14 0.606046 0.000000 0.252842
O O15 0.378772 0.000000 0.961845
O O16 0.500000 0.234079 0.000000
O O17 0.533128 0.500000 0.655442
O O18 0.662008 0.741422 0.725981
O O19 0.420998 0.749787 0.623541
O O20 0.760877 0.000000 0.754866
O O21 0.796575 0.500000 0.569912
#
# Coordination Sequence:
#
# PCOD9225133 Si02
#       8
#     8   8   8   8   8   8   8   8
#     4   9  19  36  56  79 110 147 187 232 283 337
#     4   9  19  35  56  80 106 143 186 229 278 333
#     4  11  24  42  65  90 117 153 194 236 286 340
#     4  10  21  37  60  88 114 147 193 239 283 336
#     4  10  21  35  52  78 111 145 183 231 285 339
#     4  12  25  40  61  88 119 155 194 235 283 339
#     4  10  21  39  61  86 118 150 186 235 288 342
#     4  11  24  41  60  86 122 156 191 238 286 336
#
# _framework density 10.243449
#
# number of rings (size 3 to 8) (size 9 to 14) (size 15 to 20)
#    0.000    1.750    0.000    4.875    0.000    9.250 
#    0.000    2.500    0.000    0.000    0.000    0.000 
#    0.000    0.000    0.000    0.000    0.000    0.000 
#
# Total GULP energy -178736.846967 kJ/mol
# GULP energy per Si atom -5585.526468 kJ/mol
# Density = 1.022013 g / cm^3
# Si number density = 10.243449 Si / 1000 Ang^3
#
#
#
# Elastic Constant Matrix: (Units=GPa)
#
#
# Indices 1 2 3 4 5 6 
#
# 1 59.8399 13.1408 2.3641 0.0000 33.8544 0.0000
# 2 13.1408 82.8170 15.2887 0.0000 17.5982 0.0000
# 3 2.3641 15.2887 60.3901 0.0000 28.7641 0.0000
# 4 0.0000 0.0000 0.0000 32.5892 0.0000 6.2436
# 5 33.8544 17.5982 28.7641 0.0000 46.6077 0.0000
# 6 0.0000 0.0000 0.0000 6.2436 0.0000 29.7052
#
#
#
# Elastic Compliance Matrix: (Units=1/GPa)
#
#
# Indices 1 2 3 4 5 6 
#
# 1 0.036862 -0.001111 0.016134 0.000000 -0.036313 0.000000
# 2 -0.001111 0.013241 -0.001858 0.000000 -0.003046 0.000000
# 3 0.016134 -0.001858 0.030658 0.000000 -0.029938 0.000000
# 4 0.000000 0.000000 0.000000 0.031972 0.000000 -0.006720
# 5 -0.036313 -0.003046 -0.029938 0.000000 0.067459 0.000000
# 6 0.000000 0.000000 0.000000 -0.006720 0.000000 0.035077
#
#
# Mechanical properties :
#
#
# Convention : Reuss Voigt Hill
#
# Bulk Modulus (GPa) = 9.33778 29.40379 19.37079
# Shear Modulus (GPa) = 22.25824 33.26398 27.76111
#
# Velocity S-wave (km/s) = 3.29973 4.03385 3.68512
# Velocity P-wave (km/s) = 4.36869 6.00663 5.25191
#
# Compressibility (1/GPa) = 0.10709179
#
# Stress axis : x y z
#
# Youngs Moduli (GPa) = 27.12816 75.52088 32.61834
#
# Poissons Ratio (x) = 0.08392 -0.52628
# Poissons Ratio (y) = 0.03014 0.06060
# Poissons Ratio (z) = -0.43770 0.14031
#
# Static dielectric constant tensor:
#      x y z
#    x 1.730490 0.000000 -0.013860 
#    y 0.000000 1.703280 0.000000 
#    z -0.013860 0.000000 1.748360 
# 
# From -- ./inp_files/378287.got.cif
#   From: 2010.05.17/outbox.ucp.g08.bks.cvg/sg12_190_cif.got.tgz:378287.got - 2010.06.11 11:47:21.
