data_PCOD9225781
_publ_section_title
;
Structure prediction by ZEFSAII (Michael W. Deem and Ramdas Pophale) SiO2 
 PCOD9225781
Probable space group: C 2/M
;
_chemical_formula_sum "Si O2"
_cell_formula_units_Z 16
_cell_length_a 15.000000
_cell_length_b 21.000000
_cell_length_c 15.000000
_cell_angle_alpha 90.000000
_cell_angle_beta 20.000000
_cell_angle_gamma 90.000000
_cell_volume 1616.045177
_symmetry_space_group_name_H-M "C 2/M"
_symmetry_group_IT_number 12
_symmetry_cell_setting 'monoclinic'
loop_
_space_group_symop_operation_xyz
x,y,z
-x,y,-z
-x,-y,-z
x,-y,z
1/2+x,1/2+y,z
1/2-x,1/2+y,-z
1/2-x,1/2-y,-z
1/2+x,1/2-y,z
loop_
_atom_site_type_symbol
_atom_site_label
_atom_site_fract_x
_atom_site_fract_y
_atom_site_fract_z
Si Si1 0.778511 0.000000 0.283564
Si Si2 0.334570 0.385763 0.370511
Si Si3 0.500000 0.840462 0.000000
Si Si4 0.281037 0.712192 0.272919
Si Si5 0.110866 0.577628 0.068746
O O1 0.500000 0.000000 0.500000
O O2 0.794926 0.938176 0.330702
O O3 0.000000 0.000000 0.000000
O O4 0.315363 0.317314 0.338777
O O5 0.122724 0.398466 0.647100
O O6 0.619717 0.399709 0.140769
O O7 0.682754 0.788679 0.775543
O O8 0.398591 0.887107 0.017972
O O9 0.000000 0.694209 0.500000
O O10 0.500000 0.684604 0.000000
O O11 0.101334 0.500000 0.070855
#
# Coordination Sequence:
#
# PCOD9225781 Si02
#       5
#     4   8   4   8   8
#     4  12  22  38  68  97 132 175 206 272 332 392
#     4  12  24  43  69 101 137 171 226 277 340 399
#     4  10  29  44  72  93 136 184 230 274 334 389
#     4  10  23  45  66 100 133 174 225 268 339 404
#     4  12  25  46  68 100 135 177 229 280 331 396
#
# _framework density 9.9007129999999997
#
# number of rings (size 3 to 8) (size 9 to 14) (size 15 to 20)
#    0.750    0.000    2.500    4.875    3.500    2.000 
#    0.000    2.500    0.000    0.000    0.000    0.000 
#    0.000    0.000    0.000    0.000    0.000    0.000 
#
# Total GULP energy -89324.055424 kJ/mol
# GULP energy per Si atom -5582.753464 kJ/mol
# Density = 0.987818 g / cm^3
# Si number density = 9.900713 Si / 1000 Ang^3
#
#
#
# Elastic Constant Matrix: (Units=GPa)
#
#
# Indices 1 2 3 4 5 6 
#
# 1 138.3415 66.3638 53.1893 0.0778 8.8217 -0.1258
# 2 66.3638 114.9826 40.2566 -0.0503 12.8695 -0.1095
# 3 53.1893 40.2566 140.2273 0.2894 -10.8883 -0.2488
# 4 0.0778 -0.0503 0.2894 -0.4367 -0.1855 14.1483
# 5 8.8217 12.8695 -10.8883 -0.1855 19.7087 0.1824
# 6 -0.1258 -0.1095 -0.2488 14.1483 0.1824 45.9907
#
#
#
# Elastic Compliance Matrix: (Units=1/GPa)
#
#
# Indices 1 2 3 4 5 6 
#
# 1 0.010944 -0.004885 -0.003011 0.000223 -0.003370 -0.000053
# 2 -0.004885 0.013309 -0.002584 0.000038 -0.007931 0.000024
# 3 -0.003011 -0.002584 0.009665 0.000251 0.008377 -0.000073
# 4 0.000223 0.000038 0.000251 -0.208652 -0.002544 0.064200
# 5 -0.003370 -0.007931 0.008377 -0.002544 0.062025 0.000554
# 6 -0.000053 0.000024 -0.000073 0.064200 0.000554 0.001991
#
#
# Mechanical properties :
#
#
# Convention : Reuss Voigt Hill
#
# Bulk Modulus (GPa) = 77.17004 79.24119 78.20562
# Shear Modulus (GPa) = -58.52126 28.63533 -14.94296
#
# Velocity S-wave (km/s) = -5.44226 3.80692 -2.75005
# Velocity P-wave (km/s) = 0.65909 7.70898 5.43111
#
# Compressibility (1/GPa) = 0.01295840
#
# Stress axis : x y z
#
# Youngs Moduli (GPa) = 91.37100 75.13797 103.46735
#
# Poissons Ratio (x) = 0.36707 0.31154
# Poissons Ratio (y) = 0.44638 0.26731
# Poissons Ratio (z) = 0.27512 0.19412
#
# Static dielectric constant tensor:
#      x y z
#    x 1.704590 0.000000 -0.014260 
#    y 0.000000 1.727090 -0.000030 
#    z -0.014260 -0.000030 1.682280 
# 
# From -- ./inp_files/217541.got.cif
#   From: 2010.05.17/outbox.ucp.g08.bks.cvg/sg12_109_cif.got.tgz:217541.got - 2010.06.11 11:47:21.
