data_PCOD9225319
_publ_section_title
;
Structure prediction by ZEFSAII (Michael W. Deem and Ramdas Pophale) SiO2 
 PCOD9225319
Probable space group: C 2/M
;
_chemical_formula_sum "Si O2"
_cell_formula_units_Z 28
_cell_length_a 15.000000
_cell_length_b 21.000000
_cell_length_c 18.000000
_cell_angle_alpha 90.000000
_cell_angle_beta 30.000000
_cell_angle_gamma 90.000000
_cell_volume 2835.000000
_symmetry_space_group_name_H-M "C 2/M"
_symmetry_group_IT_number 12
_symmetry_cell_setting 'monoclinic'
loop_
_space_group_symop_operation_xyz
x,y,z
-x,y,-z
-x,-y,-z
x,-y,z
1/2+x,1/2+y,z
1/2-x,1/2+y,-z
1/2-x,1/2-y,-z
1/2+x,1/2-y,z
loop_
_atom_site_type_symbol
_atom_site_label
_atom_site_fract_x
_atom_site_fract_y
_atom_site_fract_z
Si Si1 0.062591 0.120661 0.212050
Si Si2 0.177026 0.742151 0.173477
Si Si3 0.444755 0.306154 0.151348
Si Si4 0.057698 0.568812 0.043828
Si Si5 0.187800 0.576518 0.551025
Si Si6 0.415232 0.178354 0.248882
Si Si7 0.914714 0.647545 0.642902
O O1 0.132212 0.183695 0.204934
O O2 0.024398 0.148700 0.157931
O O3 0.878361 0.091070 0.374728
O O4 0.230063 0.073992 0.097172
O O5 0.072914 0.712146 0.318313
O O6 0.085653 0.707457 0.169069
O O7 0.386336 0.724229 0.014897
O O8 0.344127 0.244348 0.262178
O O9 0.300286 0.350828 0.213830
O O10 0.996968 0.500000 0.118508
O O11 0.973154 0.629693 0.143782
O O12 0.000000 0.570399 0.000000
O O13 0.177106 0.500000 0.576722
O O14 0.178346 0.630040 0.624313
O O15 0.022364 0.595764 0.615071
O O16 0.000000 0.648074 0.500000
#
# Coordination Sequence:
#
# PCOD9225319 Si02
#       7
#     8   8   8   8   8   8   8
#     4  11  21  40  64  91 121 167 211 258 323 373
#     4  10  21  37  66  93 127 155 211 270 321 375
#     4  11  20  39  64  98 125 157 211 273 321 376
#     4  11  23  39  60  89 120 160 213 261 311 382
#     4  11  25  44  63  90 134 180 217 255 307 390
#     4  10  21  39  66  88 123 164 210 261 325 371
#     4  11  24  38  62 100 131 169 209 258 324 379
#
# _framework density 9.8765429999999999
#
# number of rings (size 3 to 8) (size 9 to 14) (size 15 to 20)
#    0.000    1.286    4.286    2.143    4.000    2.000 
#    0.000    0.714    0.000    4.286    0.000    0.000 
#    0.000    0.000    0.000    0.000    0.000    0.000 
#
# Total GULP energy -155958.936393 kJ/mol
# GULP energy per Si atom -5569.962014 kJ/mol
# Density = 0.985406 g / cm^3
# Si number density = 9.876543 Si / 1000 Ang^3
#
#
#
# Elastic Constant Matrix: (Units=GPa)
#
#
# Indices 1 2 3 4 5 6 
#
# 1 63.6901 24.0283 14.3750 -0.0111 -5.7609 0.0082
# 2 24.0283 92.2968 17.5242 -0.0085 2.7473 0.0151
# 3 14.3750 17.5242 61.9612 -0.0144 -5.0096 0.0143
# 4 -0.0111 -0.0085 -0.0144 28.6163 0.0090 -4.5028
# 5 -5.7609 2.7473 -5.0096 0.0090 31.8875 -0.0069
# 6 0.0082 0.0151 0.0143 -4.5028 -0.0069 17.5163
#
#
#
# Elastic Compliance Matrix: (Units=1/GPa)
#
#
# Indices 1 2 3 4 5 6 
#
# 1 0.018246 -0.004325 -0.002748 0.000003 0.003237 0.000000
# 2 -0.004325 0.012547 -0.002731 0.000000 -0.002291 -0.000007
# 3 -0.002748 -0.002731 0.017753 0.000005 0.002528 -0.000009
# 4 0.000003 0.000000 0.000005 0.036418 -0.000007 0.009362
# 5 0.003237 -0.002291 0.002528 -0.000007 0.032540 0.000010
# 6 0.000000 -0.000007 -0.000009 0.009362 0.000010 0.059496
#
#
# Mechanical properties :
#
#
# Convention : Reuss Voigt Hill
#
# Bulk Modulus (GPa) = 34.55490 36.64477 35.59984
# Shear Modulus (GPa) = 24.24205 26.40542 25.32373
#
# Velocity S-wave (km/s) = 3.50702 3.66016 3.58441
# Velocity P-wave (km/s) = 5.82497 6.03772 5.93230
#
# Compressibility (1/GPa) = 0.02893946
#
# Stress axis : x y z
#
# Youngs Moduli (GPa) = 54.80765 79.69961 56.32737
#
# Poissons Ratio (x) = 0.34467 0.15480
# Poissons Ratio (y) = 0.23702 0.15381
# Poissons Ratio (z) = 0.15062 0.21763
#
# Static dielectric constant tensor:
#      x y z
#    x 1.773520 0.000000 0.022910 
#    y 0.000000 1.665830 0.000010 
#    z 0.022910 0.000010 1.719640 
# 
# From -- ./inp_files/272345.got.cif
#   From: 2010.05.17/outbox.ucp.g08.bks.cvg/sg12_137_cif.got.tgz:272345.got - 2010.06.11 11:47:21.
