data_PCOD9225331
_publ_section_title
;
Structure prediction by ZEFSAII (Michael W. Deem and Ramdas Pophale) SiO2 
 PCOD9225331
Probable space group: C 2/M
;
_chemical_formula_sum "Si O2"
_cell_formula_units_Z 32
_cell_length_a 24.000000
_cell_length_b 9.000000
_cell_length_c 30.000000
_cell_angle_alpha 90.000000
_cell_angle_beta 150.000000
_cell_angle_gamma 90.000000
_cell_volume 3240.000000
_symmetry_space_group_name_H-M "C 2/M"
_symmetry_group_IT_number 12
_symmetry_cell_setting 'monoclinic'
loop_
_space_group_symop_operation_xyz
x,y,z
-x,y,-z
-x,-y,-z
x,-y,z
1/2+x,1/2+y,z
1/2-x,1/2+y,-z
1/2-x,1/2-y,-z
1/2+x,1/2-y,z
loop_
_atom_site_type_symbol
_atom_site_label
_atom_site_fract_x
_atom_site_fract_y
_atom_site_fract_z
Si Si1 0.050762 0.820212 0.964405
Si Si2 0.129672 0.179946 0.922205
Si Si3 0.372538 0.176977 0.581896
Si Si4 0.242921 0.326097 0.645680
Si Si5 0.200369 0.172992 0.704329
Si Si6 0.546017 0.674925 0.273578
Si Si7 0.055010 0.826241 0.458539
Si Si8 0.328404 0.321038 0.865096
O O1 0.073586 0.769261 0.930079
O O2 0.935466 0.778550 0.908668
O O3 0.048801 0.000000 0.961799
O O4 0.145733 0.778236 0.066103
O O5 0.056715 0.219373 0.828633
O O6 0.135599 0.000000 0.927972
O O7 0.250000 0.250000 0.000000
O O8 0.250000 0.250000 0.500000
O O9 0.437726 0.229868 0.670970
O O10 0.429427 0.236254 0.576378
O O11 0.362039 0.000000 0.573065
O O12 0.215209 0.500000 0.629245
O O13 0.262107 0.264289 0.708437
O O14 0.347367 0.310349 0.685091
O O15 0.143702 0.234559 0.554928
O O16 0.228342 0.238554 0.772046
O O17 0.068196 0.189165 0.607168
O O18 0.229914 0.000000 0.722116
O O19 0.537124 0.500000 0.279429
O O20 0.075450 0.000000 0.463555
O O21 0.315976 0.500000 0.854548
#
# Coordination Sequence:
#
# PCOD9225331 Si02
#       8
#     8   8   8   8   8   8   8   8
#     4   8  16  34  60  85 110 144 188 243 296 341
#     4  10  21  38  58  84 120 156 193 240 296 354
#     4  12  24  40  64  90 118 154 200 251 298 352
#     4  11  22  38  63  88 113 152 202 246 291 353
#     4  11  24  38  54  83 124 159 189 237 302 354
#     4  10  22  40  63  90 120 157 199 248 303 356
#     4  11  24  41  59  83 120 160 194 240 299 352
#     4   9  17  34  61  86 108 143 193 242 291 351
#
# _framework density 9.8765429999999999
#
# number of rings (size 3 to 8) (size 9 to 14) (size 15 to 20)
#    0.000    1.750    1.250    4.125    0.000    7.500 
#    0.000    6.250    0.000    0.000    0.000    0.000 
#    0.000    0.000    0.000    0.000    0.000    0.000 
#
# Total GULP energy -178754.722050 kJ/mol
# GULP energy per Si atom -5586.085064 kJ/mol
# Density = 0.985406 g / cm^3
# Si number density = 9.876543 Si / 1000 Ang^3
#
#
#
# Elastic Constant Matrix: (Units=GPa)
#
#
# Indices 1 2 3 4 5 6 
#
# 1 64.3694 26.4953 9.3730 0.0000 -25.2432 -0.0001
# 2 26.4953 62.8826 29.4112 0.0001 -6.6890 -0.0002
# 3 9.3730 29.4112 101.1254 0.0003 -19.6942 0.0000
# 4 0.0000 0.0001 0.0003 24.2080 0.0001 2.0068
# 5 -25.2432 -6.6890 -19.6942 0.0001 27.3875 0.0000
# 6 -0.0001 -0.0002 0.0000 2.0068 0.0000 19.3150
#
#
#
# Elastic Compliance Matrix: (Units=1/GPa)
#
#
# Indices 1 2 3 4 5 6 
#
# 1 0.032648 -0.013720 0.007177 0.000000 0.031902 0.000000
# 2 -0.013720 0.024185 -0.008227 0.000000 -0.012654 0.000000
# 3 0.007177 -0.008227 0.014551 0.000000 0.015069 0.000000
# 4 0.000000 0.000000 0.000000 0.041667 0.000000 -0.004329
# 5 0.031902 -0.012654 0.015069 0.000000 0.073663 0.000000
# 6 0.000000 0.000000 0.000000 -0.004329 0.000000 0.052223
#
#
# Mechanical properties :
#
#
# Convention : Reuss Voigt Hill
#
# Bulk Modulus (GPa) = 23.89733 39.88184 31.88958
# Shear Modulus (GPa) = 17.70385 25.05531 21.37958
#
# Velocity S-wave (km/s) = 2.99700 3.56536 3.29346
# Velocity P-wave (km/s) = 4.90921 6.09779 5.53549
#
# Compressibility (1/GPa) = 0.04184568
#
# Stress axis : x y z
#
# Youngs Moduli (GPa) = 30.62959 41.34786 68.72422
#
# Poissons Ratio (x) = 0.56727 -0.49324
# Poissons Ratio (y) = 0.42022 0.56538
# Poissons Ratio (z) = -0.21983 0.34016
#
# Static dielectric constant tensor:
#      x y z
#    x 1.669110 0.000000 -0.000180 
#    y 0.000000 1.662540 0.000000 
#    z -0.000180 0.000000 1.737870 
# 
# From -- ./inp_files/382518.got.cif
#   From: 2010.05.17/outbox.ucp.g08.bks.cvg/sg12_192_cif.got.tgz:382518.got - 2010.06.11 11:47:21.
