data_PCOD9225390
_publ_section_title
;
Structure prediction by ZEFSAII (Michael W. Deem and Ramdas Pophale) SiO2 
 PCOD9225390
Probable space group: C 2/M
;
_chemical_formula_sum "Si O2"
_cell_formula_units_Z 20
_cell_length_a 15.000000
_cell_length_b 9.000000
_cell_length_c 30.000000
_cell_angle_alpha 90.000000
_cell_angle_beta 150.000000
_cell_angle_gamma 90.000000
_cell_volume 2025.000000
_symmetry_space_group_name_H-M "C 2/M"
_symmetry_group_IT_number 12
_symmetry_cell_setting 'monoclinic'
loop_
_space_group_symop_operation_xyz
x,y,z
-x,y,-z
-x,-y,-z
x,-y,z
1/2+x,1/2+y,z
1/2-x,1/2+y,-z
1/2-x,1/2-y,-z
1/2+x,1/2-y,z
loop_
_atom_site_type_symbol
_atom_site_label
_atom_site_fract_x
_atom_site_fract_y
_atom_site_fract_z
Si Si1 0.070606 0.819212 0.400679
Si Si2 0.479013 0.178536 0.718095
Si Si3 0.344690 0.170526 0.898870
Si Si4 0.792487 0.820573 0.718265
Si Si5 0.932617 0.328195 0.095176
O O1 0.250000 0.750000 0.500000
O O2 0.050822 0.757883 0.341992
O O3 0.892698 0.753608 0.346661
O O4 0.073270 0.000000 0.403313
O O5 0.673893 0.225016 0.821297
O O6 0.338079 0.251815 0.690296
O O7 0.464519 0.000000 0.708752
O O8 0.437521 0.165334 0.891114
O O9 0.291142 0.000000 0.888065
O O10 0.500000 0.218964 0.000000
O O11 0.956540 0.765439 0.820630
O O12 0.781853 0.000000 0.714103
O O13 0.900292 0.500000 0.095848
O O14 0.750000 0.250000 0.000000
#
# Coordination Sequence:
#
# PCOD9225390 Si02
#       5
#     8   8   8   8   8
#     4  12  26  48  74 103 137 176 226 282 344 407
#     4  12  25  43  69 101 136 178 227 279 340 405
#     4  10  21  38  61  92 133 179 225 276 335 398
#     4  12  25  44  69  99 137 180 227 281 339 401
#     4  11  22  37  61  94 136 180 227 279 335 400
#
# _framework density 9.8765429999999999
#
# number of rings (size 3 to 8) (size 9 to 14) (size 15 to 20)
#    0.000    0.600    2.000    7.200    0.000    3.600 
#    0.000    4.000    0.000    0.000    0.000    0.000 
#    0.000    0.000    0.000    0.000    0.000    0.000 
#
# Total GULP energy -111877.440799 kJ/mol
# GULP energy per Si atom -5593.872040 kJ/mol
# Density = 0.985406 g / cm^3
# Si number density = 9.876543 Si / 1000 Ang^3
#
#
#
# Elastic Constant Matrix: (Units=GPa)
#
#
# Indices 1 2 3 4 5 6 
#
# 1 152.4607 69.9189 63.2757 0.0000 7.1295 0.0000
# 2 69.9189 233.0891 87.0390 0.0000 12.1357 0.0000
# 3 63.2757 87.0390 147.9736 0.0000 12.0527 0.0000
# 4 0.0000 0.0000 0.0000 42.2363 0.0000 0.1182
# 5 7.1295 12.1357 12.0527 0.0000 27.3357 0.0000
# 6 0.0000 0.0000 0.0000 0.1182 0.0000 29.6387
#
#
#
# Elastic Compliance Matrix: (Units=1/GPa)
#
#
# Indices 1 2 3 4 5 6 
#
# 1 0.008370 -0.001495 -0.002672 0.000000 -0.000341 0.000000
# 2 -0.001495 0.005794 -0.002688 0.000000 -0.000997 0.000000
# 3 -0.002672 -0.002688 0.009675 0.000000 -0.002376 0.000000
# 4 0.000000 0.000000 0.000000 0.023677 0.000000 -0.000094
# 5 -0.000341 -0.000997 -0.002376 0.000000 0.038161 0.000000
# 6 0.000000 0.000000 0.000000 -0.000094 0.000000 0.033740
#
#
# Mechanical properties :
#
#
# Convention : Reuss Voigt Hill
#
# Bulk Modulus (GPa) = 98.72026 108.22118 103.47072
# Shear Modulus (GPa) = 36.62948 40.72814 38.67881
#
# Velocity S-wave (km/s) = 4.31091 4.54570 4.42986
# Velocity P-wave (km/s) = 8.65241 9.08059 8.86908
#
# Compressibility (1/GPa) = 0.01012963
#
# Stress axis : x y z
#
# Youngs Moduli (GPa) = 119.48096 172.58557 103.36141
#
# Poissons Ratio (x) = 0.25804 0.27615
# Poissons Ratio (y) = 0.17864 0.27779
# Poissons Ratio (z) = 0.31922 0.46384
#
# Static dielectric constant tensor:
#      x y z
#    x 1.756230 0.000000 -0.030470 
#    y 0.000000 1.672250 0.000000 
#    z -0.030470 0.000000 1.671050 
# 
# From -- ./inp_files/211448.got.cif
#   From: 2010.05.17/outbox.ucp.g08.bks.cvg/sg12_106_cif.got.tgz:211448.got - 2010.06.11 11:47:21.
