data_PCOD9225736
_publ_section_title
;
Structure prediction by ZEFSAII (Michael W. Deem and Ramdas Pophale) SiO2 
 PCOD9225736
Probable space group: C 2/M
;
_chemical_formula_sum "Si O2"
_cell_formula_units_Z 28
_cell_length_a 15.000000
_cell_length_b 15.000000
_cell_length_c 24.000000
_cell_angle_alpha 90.000000
_cell_angle_beta 30.000000
_cell_angle_gamma 90.000000
_cell_volume 2700.000000
_symmetry_space_group_name_H-M "C 2/M"
_symmetry_group_IT_number 12
_symmetry_cell_setting 'monoclinic'
loop_
_space_group_symop_operation_xyz
x,y,z
-x,y,-z
-x,-y,-z
x,-y,z
1/2+x,1/2+y,z
1/2-x,1/2+y,-z
1/2-x,1/2-y,-z
1/2+x,1/2-y,z
loop_
_atom_site_type_symbol
_atom_site_label
_atom_site_fract_x
_atom_site_fract_y
_atom_site_fract_z
Si Si1 0.388385 0.897299 0.331486
Si Si2 0.148479 0.333065 0.870933
Si Si3 0.001993 0.902574 0.730562
Si Si4 0.527917 0.399090 0.122002
Si Si5 0.584931 0.892350 0.109171
Si Si6 0.687785 0.233897 0.470786
Si Si7 0.645401 0.831763 0.290016
O O1 0.497327 0.874937 0.216460
O O2 0.222964 0.829169 0.423593
O O3 0.518878 0.884632 0.314762
O O4 0.332289 0.000000 0.359796
O O5 0.312954 0.395959 0.800625
O O6 0.266943 0.246324 0.794092
O O7 0.038655 0.356731 0.874255
O O8 0.000000 0.325190 0.000000
O O9 0.160873 0.833101 0.633474
O O10 0.954036 0.895192 0.821384
O O11 0.079201 0.000000 0.676920
O O12 0.539966 0.500000 0.094716
O O13 0.326478 0.372933 0.216276
O O14 0.711533 0.355246 0.000680
O O15 0.591020 0.000000 0.097952
O O16 0.750000 0.250000 0.500000
O O17 0.485849 0.199492 0.588414
#
# Coordination Sequence:
#
# PCOD9225736 Si02
#       7
#     8   8   8   8   8   8   8
#     4  10  22  43  69  93 129 171 216 270 322 382
#     4  12  24  40  67  97 130 171 214 266 327 387
#     4  11  23  42  68  96 129 168 214 268 322 382
#     4  10  23  41  64  95 129 169 212 264 329 385
#     4  10  23  41  64  95 128 168 217 268 324 385
#     4  10  22  44  62  95 129 170 217 261 320 381
#     4  11  25  41  63  98 130 170 216 264 322 388
#
# _framework density 10.370369999999999
#
# number of rings (size 3 to 8) (size 9 to 14) (size 15 to 20)
#    0.000    1.429    4.286    0.857    4.000    4.571 
#    0.000    3.571    0.000    1.714    0.000    0.000 
#    0.000    0.000    0.000    0.000    0.000    0.000 
#
# Total GULP energy -156066.426138 kJ/mol
# GULP energy per Si atom -5573.800934 kJ/mol
# Density = 1.034677 g / cm^3
# Si number density = 10.370370 Si / 1000 Ang^3
#
#
#
# Elastic Constant Matrix: (Units=GPa)
#
#
# Indices 1 2 3 4 5 6 
#
# 1 81.4613 14.8325 27.3633 0.0015 -13.9175 -0.0025
# 2 14.8325 88.9258 65.4518 -0.0015 0.1124 -0.0008
# 3 27.3633 65.4518 124.3979 -0.0017 7.2323 -0.0081
# 4 0.0015 -0.0015 -0.0017 33.8853 -0.0017 -13.7090
# 5 -13.9175 0.1124 7.2323 -0.0017 0.8350 0.0064
# 6 -0.0025 -0.0008 -0.0081 -13.7090 0.0064 64.4907
#
#
#
# Elastic Compliance Matrix: (Units=1/GPa)
#
#
# Indices 1 2 3 4 5 6 
#
# 1 -0.000723 -0.004611 0.006546 0.000000 -0.068128 0.000007
# 2 -0.004611 0.016901 -0.006602 0.000000 -0.021959 0.000001
# 3 0.006546 -0.006602 0.007407 0.000001 0.045843 -0.000003
# 4 0.000000 0.000000 0.000001 0.032288 0.000003 0.006864
# 5 -0.068128 -0.021959 0.045843 0.000003 -0.332031 0.000036
# 6 0.000007 0.000001 -0.000003 0.006864 0.000036 0.016965
#
#
# Mechanical properties :
#
#
# Convention : Reuss Voigt Hill
#
# Bulk Modulus (GPa) = 70.16805 56.67559 63.42182
# Shear Modulus (GPa) = -20.39909 32.31804 5.95947
#
# Velocity S-wave (km/s) = -3.13953 3.95168 1.69693
# Velocity P-wave (km/s) = 4.55657 6.94306 5.87232
#
# Compressibility (1/GPa) = 0.01425150
#
# Stress axis : x y z
#
# Youngs Moduli (GPa) = -1383.13558 59.16749 135.00923
#
# Poissons Ratio (x) = 0.27285 -0.88380
# Poissons Ratio (y) = -6.37832 0.89127
# Poissons Ratio (z) = 9.05431 0.39060
#
# Static dielectric constant tensor:
#      x y z
#    x 1.735270 0.000000 0.041000 
#    y 0.000000 1.816350 0.000000 
#    z 0.041000 0.000000 1.731250 
# 
# From -- ./inp_files/246583.got.cif
#   From: 2010.05.17/outbox.ucp.g08.bks.cvg/sg12_124_cif.got.tgz:246583.got - 2010.06.11 11:47:21.
