data_PCOD9225821
_publ_section_title
;
Structure prediction by ZEFSAII (Michael W. Deem and Ramdas Pophale) SiO2 
 PCOD9225821
Probable space group: C 2/M
;
_chemical_formula_sum "Si O2"
_cell_formula_units_Z 24
_cell_length_a 18.000000
_cell_length_b 18.000000
_cell_length_c 9.000000
_cell_angle_alpha 90.000000
_cell_angle_beta 60.000000
_cell_angle_gamma 90.000000
_cell_volume 2525.330077
_symmetry_space_group_name_H-M "C 2/M"
_symmetry_group_IT_number 12
_symmetry_cell_setting 'monoclinic'
loop_
_space_group_symop_operation_xyz
x,y,z
-x,y,-z
-x,-y,-z
x,-y,z
1/2+x,1/2+y,z
1/2-x,1/2+y,-z
1/2-x,1/2-y,-z
1/2+x,1/2-y,z
loop_
_atom_site_type_symbol
_atom_site_label
_atom_site_fract_x
_atom_site_fract_y
_atom_site_fract_z
Si Si1 0.956135 0.286748 0.207988
Si Si2 0.254897 0.285653 0.828777
Si Si3 0.943980 0.191817 0.692192
Si Si4 0.689324 0.663774 0.668140
Si Si5 0.182449 0.407755 0.703076
Si Si6 0.914185 0.919939 0.990150
O O1 0.890752 0.216780 0.299265
O O2 0.905003 0.364990 0.263223
O O3 0.024531 0.270273 0.269239
O O4 0.000000 0.279224 0.000000
O O5 0.352137 0.304975 0.713186
O O6 0.237941 0.223600 0.721533
O O7 0.201801 0.360511 0.837167
O O8 0.250000 0.250000 0.000000
O O9 0.932317 0.138784 0.844714
O O10 0.000000 0.164185 0.500000
O O11 0.744287 0.622680 0.485901
O O12 0.656354 0.604365 0.820673
O O13 0.179947 0.500000 0.714132
O O14 0.893600 0.000000 0.944385
O O15 0.000000 0.924191 0.000000
#
# Coordination Sequence:
#
# PCOD9225821 Si02
#       6
#     8   8   8   8   8   8
#     4  11  20  41  67  86 118 165 220 253 295 376
#     4  11  22  39  64  90 123 161 211 254 309 377
#     4  12  21  36  59  90 120 156 201 260 306 367
#     4  11  19  42  63  87 118 167 215 252 295 379
#     4  11  25  41  64  96 128 165 211 263 314 370
#     4  11  22  36  57  85 120 162 201 249 314 368
#
# _framework density 9.5037079999999996
#
# number of rings (size 3 to 8) (size 9 to 14) (size 15 to 20)
#    0.000    0.833    5.000    5.500    0.000    1.333 
#    0.000    0.000    0.000    5.500    0.000    0.000 
#    0.000    0.000    0.000    0.000    0.000    0.000 
#
# Total GULP energy -133613.469110 kJ/mol
# GULP energy per Si atom -5567.227880 kJ/mol
# Density = 0.948208 g / cm^3
# Si number density = 9.503708 Si / 1000 Ang^3
#
#
#
# Elastic Constant Matrix: (Units=GPa)
#
#
# Indices 1 2 3 4 5 6 
#
# 1 49.8854 30.3476 -13.3083 0.0000 10.1088 0.0000
# 2 30.3476 135.5857 24.4039 0.0000 -5.0463 0.0000
# 3 -13.3083 24.4039 104.1436 0.0000 0.5897 0.0000
# 4 0.0000 0.0000 0.0000 23.5788 0.0000 -5.9851
# 5 10.1088 -5.0463 0.5897 0.0000 21.8000 0.0000
# 6 0.0000 0.0000 0.0000 -5.9851 0.0000 19.7249
#
#
#
# Elastic Compliance Matrix: (Units=1/GPa)
#
#
# Indices 1 2 3 4 5 6 
#
# 1 0.029928 -0.008350 0.005871 0.000000 -0.015969 0.000000
# 2 -0.008350 0.010104 -0.003470 0.000000 0.006304 0.000000
# 3 0.005871 -0.003470 0.011187 0.000000 -0.003829 0.000000
# 4 0.000000 0.000000 0.000000 0.045950 0.000000 0.013943
# 5 -0.015969 0.006304 -0.003829 0.000000 0.054840 0.000000
# 6 0.000000 0.000000 0.000000 0.013943 0.000000 0.054928
#
#
# Mechanical properties :
#
#
# Convention : Reuss Voigt Hill
#
# Bulk Modulus (GPa) = 25.43134 41.38901 33.41017
# Shear Modulus (GPa) = 21.55723 29.56551 25.56137
#
# Velocity S-wave (km/s) = 3.37137 3.94823 3.67114
# Velocity P-wave (km/s) = 5.34449 6.52741 5.96534
#
# Compressibility (1/GPa) = 0.03932157
#
# Stress axis : x y z
#
# Youngs Moduli (GPa) = 33.41360 98.97503 89.38721
#
# Poissons Ratio (x) = 0.82642 -0.52483
# Poissons Ratio (y) = 0.27900 0.31020
# Poissons Ratio (z) = -0.19619 0.34347
#
# Static dielectric constant tensor:
#      x y z
#    x 1.638810 0.000000 0.028430 
#    y 0.000000 1.860350 0.000000 
#    z 0.028430 0.000000 1.578390 
# 
# From -- ./inp_files/75075.got.cif
#   From: 2010.05.17/outbox.ucp.g08.bks.cvg/sg12_38_cif.got.tgz:75075.got - 2010.06.11 11:47:21.
