data_PCOD9225215
_publ_section_title
;
Structure prediction by ZEFSAII (Michael W. Deem and Ramdas Pophale) SiO2 
 PCOD9225215
Probable space group: C 2/M
;
_chemical_formula_sum "Si O2"
_cell_formula_units_Z 32
_cell_length_a 15.000000
_cell_length_b 9.000000
_cell_length_c 30.000000
_cell_angle_alpha 90.000000
_cell_angle_beta 60.000000
_cell_angle_gamma 90.000000
_cell_volume 3507.402885
_symmetry_space_group_name_H-M "C 2/M"
_symmetry_group_IT_number 12
_symmetry_cell_setting 'monoclinic'
loop_
_space_group_symop_operation_xyz
x,y,z
-x,y,-z
-x,-y,-z
x,-y,z
1/2+x,1/2+y,z
1/2-x,1/2+y,-z
1/2-x,1/2-y,-z
1/2+x,1/2-y,z
loop_
_atom_site_type_symbol
_atom_site_label
_atom_site_fract_x
_atom_site_fract_y
_atom_site_fract_z
Si Si1 0.400959 0.678930 0.995020
Si Si2 0.904305 0.177570 0.812176
Si Si3 0.095223 0.322168 0.445476
Si Si4 0.332787 0.822575 0.921123
Si Si5 0.693601 0.677352 0.255427
Si Si6 0.529965 0.823751 0.360415
Si Si7 0.361615 0.677291 0.273639
Si Si8 0.306104 0.176454 0.381958
O O1 0.406496 0.500000 0.988747
O O2 0.392513 0.751754 0.948284
O O3 0.500000 0.724886 0.000000
O O4 0.289491 0.715062 0.044722
O O5 0.876781 0.261539 0.864025
O O6 0.828285 0.215168 0.790457
O O7 0.019627 0.211240 0.766461
O O8 0.898908 0.000000 0.821171
O O9 0.107212 0.500000 0.447528
O O10 0.203035 0.244072 0.428459
O O11 0.000000 0.274563 0.500000
O O12 0.067190 0.291736 0.400991
O O13 0.341772 0.000000 0.921165
O O14 0.704891 0.500000 0.256448
O O15 0.595778 0.729912 0.308960
O O16 0.790843 0.759549 0.252075
O O17 0.409036 0.794596 0.384605
O O18 0.547228 0.000000 0.347497
O O19 0.349213 0.500000 0.280394
O O20 0.325476 0.750969 0.328749
O O21 0.294518 0.000000 0.379582
#
# Coordination Sequence:
#
# PCOD9225215 Si02
#       8
#     8   8   8   8   8   8   8   8
#     4   9  19  38  62  85 115 156 198 236 288 350
#     4  10  23  40  57  81 120 158 191 233 288 349
#     4  10  22  40  60  83 114 153 193 236 291 351
#     4  10  21  36  58  88 118 151 194 244 289 333
#     4  11  22  37  58  86 114 149 194 237 285 342
#     4  10  21  37  58  83 114 150 187 232 286 343
#     4  11  22  38  58  82 112 152 193 232 289 349
#     4  11  22  36  58  86 113 145 190 239 285 337
#
# _framework density 9.1235599999999994
#
# number of rings (size 3 to 8) (size 9 to 14) (size 15 to 20)
#    0.000    1.750    2.500    1.500    0.000    5.000 
#    0.000    3.750    0.000    0.000    0.000    0.000 
#    0.000    0.000    0.000    0.000    0.000    0.000 
#
# Total GULP energy -178741.198800 kJ/mol
# GULP energy per Si atom -5585.662463 kJ/mol
# Density = 0.910279 g / cm^3
# Si number density = 9.123560 Si / 1000 Ang^3
#
#
#
# Elastic Constant Matrix: (Units=GPa)
#
#
# Indices 1 2 3 4 5 6 
#
# 1 81.4733 17.5301 -18.0186 0.0000 -3.9178 0.0000
# 2 17.5301 22.8750 10.2283 0.0000 -1.3019 0.0000
# 3 -18.0186 10.2283 34.8554 0.0000 -1.7594 0.0000
# 4 0.0000 0.0000 0.0000 29.9000 0.0000 -3.6362
# 5 -3.9178 -1.3019 -1.7594 0.0000 13.3808 0.0000
# 6 0.0000 0.0000 0.0000 -3.6362 0.0000 29.3776
#
#
#
# Elastic Compliance Matrix: (Units=1/GPa)
#
#
# Indices 1 2 3 4 5 6 
#
# 1 0.022322 -0.025368 0.019317 0.000000 0.006608 0.000000
# 2 -0.025368 0.079265 -0.036603 0.000000 -0.004528 0.000000
# 3 0.019317 -0.036603 0.049854 0.000000 0.008650 0.000000
# 4 0.000000 0.000000 0.000000 0.033956 0.000000 0.004203
# 5 0.006608 -0.004528 0.008650 0.000000 0.077366 0.000000
# 6 0.000000 0.000000 0.000000 0.004203 0.000000 0.034560
#
#
# Mechanical properties :
#
#
# Convention : Reuss Voigt Hill
#
# Bulk Modulus (GPa) = 15.12077 17.63145 16.37611
# Shear Modulus (GPa) = 12.35562 23.16259 17.75911
#
# Velocity S-wave (km/s) = 2.60499 3.56671 3.12309
# Velocity P-wave (km/s) = 4.16565 5.16192 4.69031
#
# Compressibility (1/GPa) = 0.06613418
#
# Stress axis : x y z
#
# Youngs Moduli (GPa) = 44.79863 12.61588 20.05865
#
# Poissons Ratio (x) = 0.32004 -0.38748
# Poissons Ratio (y) = 1.13644 0.73420
# Poissons Ratio (z) = -0.86538 0.46178
#
# Static dielectric constant tensor:
#      x y z
#    x 1.624510 0.000000 -0.009040 
#    y 0.000000 1.609180 0.000000 
#    z -0.009040 0.000000 1.599080 
# 
# From -- ./inp_files/374995.got.cif
#   From: 2010.05.17/outbox.ucp.g08.bks.cvg/sg12_188_cif.got.tgz:374995.got - 2010.06.11 11:47:21.
