data_PCOD9225305
_publ_section_title
;
Structure prediction by ZEFSAII (Michael W. Deem and Ramdas Pophale) SiO2 
 PCOD9225305
Probable space group: C 2/M
;
_chemical_formula_sum "Si O2"
_cell_formula_units_Z 29
_cell_length_a 30.000000
_cell_length_b 15.000000
_cell_length_c 21.000000
_cell_angle_alpha 90.000000
_cell_angle_beta 160.000000
_cell_angle_gamma 90.000000
_cell_volume 3232.090354
_symmetry_space_group_name_H-M "C 2/M"
_symmetry_group_IT_number 12
_symmetry_cell_setting 'monoclinic'
loop_
_space_group_symop_operation_xyz
x,y,z
-x,y,-z
-x,-y,-z
x,-y,z
1/2+x,1/2+y,z
1/2-x,1/2+y,-z
1/2-x,1/2-y,-z
1/2+x,1/2-y,z
loop_
_atom_site_type_symbol
_atom_site_label
_atom_site_fract_x
_atom_site_fract_y
_atom_site_fract_z
Si Si1 0.043007 0.347358 0.899385
Si Si2 0.103273 0.243106 0.190883
Si Si3 0.518376 0.862750 0.644667
Si Si4 0.828469 0.599802 0.508887
Si Si5 0.213744 0.599713 0.248563
Si Si6 0.992892 0.159023 0.567162
Si Si7 0.218074 0.395952 0.021599
Si Si8 0.000000 0.500000 0.500000
O O1 0.973401 0.269152 0.847169
O O2 0.926736 0.389414 0.700900
O O3 0.117944 0.395865 0.058267
O O4 0.153588 0.336868 0.992248
O O5 0.216909 0.173951 0.359155
O O6 0.165979 0.328874 0.237540
O O7 0.000000 0.206863 0.000000
O O8 0.410616 0.888343 0.553590
O O9 0.497336 0.761871 0.594162
O O10 0.512478 0.923358 0.573957
O O11 0.651320 0.872725 0.864484
O O12 0.774073 0.500000 0.437162
O O13 0.208751 0.500000 0.268649
O O14 0.359107 0.619883 0.416953
O O15 0.000000 0.149832 0.500000
O O16 0.126960 0.115623 0.772163
O O17 0.186637 0.500000 0.993996
#
# Coordination Sequence:
#
# PCOD9225305 Si02
#       8
#     8   8   8   8   8   8   8   2
#     4  10  21  37  61  89 117 157 203 247 296 363
#     4  10  23  40  61  88 122 154 201 256 309 359
#     4  11  22  39  62  88 119 161 207 256 299 362
#     4  11  21  39  65  89 118 159 204 255 305 360
#     4  11  22  38  59  88 122 160 199 246 299 364
#     4  12  23  36  60  89 126 163 194 250 308 364
#     4  11  22  38  60  90 123 160 208 246 303 366
#     4  12  20  40  64  88 114 160 214 252 294 354
#
# _framework density 8.9725210000000004
#
# number of rings (size 3 to 8) (size 9 to 14) (size 15 to 20)
#    0.000    1.103    4.828    3.310    0.000    4.414 
#    0.000    0.000    0.000    0.000    0.000    0.000 
#    0.000    0.000    0.000    0.000    0.000    0.000 
#
# Total GULP energy -161509.621575 kJ/mol
# GULP energy per Si atom -5569.297296 kJ/mol
# Density = 0.895210 g / cm^3
# Si number density = 8.972521 Si / 1000 Ang^3
#
#
#
# Elastic Constant Matrix: (Units=GPa)
#
#
# Indices 1 2 3 4 5 6 
#
# 1 82.2295 12.7326 30.2316 0.0000 -13.9508 0.0000
# 2 12.7326 89.2062 47.9730 0.0000 -6.3692 0.0000
# 3 30.2316 47.9730 119.2310 0.0000 3.7011 0.0001
# 4 0.0000 0.0000 0.0000 11.8445 0.0000 -2.5117
# 5 -13.9508 -6.3692 3.7011 0.0000 29.3486 0.0000
# 6 0.0000 0.0000 0.0001 -2.5117 0.0000 15.7759
#
#
#
# Elastic Compliance Matrix: (Units=1/GPa)
#
#
# Indices 1 2 3 4 5 6 
#
# 1 0.014969 0.000758 -0.004343 0.000000 0.007828 0.000000
# 2 0.000758 0.014789 -0.006278 0.000000 0.004362 0.000000
# 3 -0.004343 -0.006278 0.012168 0.000000 -0.004962 0.000000
# 4 0.000000 0.000000 0.000000 0.087377 0.000000 0.013911
# 5 0.007828 0.004362 -0.004962 0.000000 0.039366 0.000000
# 6 0.000000 0.000000 0.000000 0.013911 0.000000 0.065603
#
#
# Mechanical properties :
#
#
# Convention : Reuss Voigt Hill
#
# Bulk Modulus (GPa) = 45.04597 52.50456 48.77526
# Shear Modulus (GPa) = 19.12784 24.70910 21.91847
#
# Velocity S-wave (km/s) = 3.26837 3.71473 3.49868
# Velocity P-wave (km/s) = 6.27692 6.90804 6.60003
#
# Compressibility (1/GPa) = 0.02219955
#
# Stress axis : x y z
#
# Youngs Moduli (GPa) = 66.80687 67.61571 82.17982
#
# Poissons Ratio (x) = -0.05126 0.35694
# Poissons Ratio (y) = -0.05065 0.51594
# Poissons Ratio (z) = 0.29017 0.42451
#
# Static dielectric constant tensor:
#      x y z
#    x 1.588670 0.000000 0.013420 
#    y 0.000000 1.626790 0.000000 
#    z 0.013420 0.000000 1.623670 
# 
# From -- ./inp_files/330280.got.cif
#   From: 2010.05.17/outbox.ucp.g08.bks.cvg/sg12_166_cif.got.tgz:330280.got - 2010.06.11 11:47:21.
