data_PCOD9225967
_publ_section_title
;
Structure prediction by ZEFSAII (Michael W. Deem and Ramdas Pophale) SiO2 
 PCOD9225967
Probable space group: C 2/M
;
_chemical_formula_sum "Si O2"
_cell_formula_units_Z 20
_cell_length_a 18.000000
_cell_length_b 9.000000
_cell_length_c 12.000000
_cell_angle_alpha 90.000000
_cell_angle_beta 80.000000
_cell_angle_gamma 90.000000
_cell_volume 1914.466272
_symmetry_space_group_name_H-M "C 2/M"
_symmetry_group_IT_number 12
_symmetry_cell_setting 'monoclinic'
loop_
_space_group_symop_operation_xyz
x,y,z
-x,y,-z
-x,-y,-z
x,-y,z
1/2+x,1/2+y,z
1/2-x,1/2+y,-z
1/2-x,1/2-y,-z
1/2+x,1/2-y,z
loop_
_atom_site_type_symbol
_atom_site_label
_atom_site_fract_x
_atom_site_fract_y
_atom_site_fract_z
Si Si1 0.360994 0.326344 0.189824
Si Si2 0.928002 0.327161 0.592570
Si Si3 0.764579 0.819430 0.616282
Si Si4 0.461702 0.671687 0.796833
Si Si5 0.666800 0.824910 0.022069
O O1 0.340960 0.500000 0.164995
O O2 0.297746 0.266390 0.292434
O O3 0.450051 0.333334 0.194107
O O4 0.357427 0.199942 0.097634
O O5 0.911066 0.500000 0.570826
O O6 0.851547 0.230081 0.613565
O O7 0.958536 0.301099 0.707086
O O8 0.000000 0.277829 0.500000
O O9 0.750000 0.750000 0.500000
O O10 0.757134 0.000000 0.624300
O O11 0.443857 0.500000 0.766823
O O12 0.395260 0.725414 0.896843
O O13 0.668326 0.000000 0.054066
O O14 0.750000 0.750000 0.000000
#
# Coordination Sequence:
#
# PCOD9225967 Si02
#       5
#     8   8   8   8   8
#     4  11  24  43  66  93 127 164 206 256 310 369
#     4  11  24  42  65  93 126 164 208 257 309 368
#     4  12  25  42  65  93 127 165 208 256 309 368
#     4  11  24  42  65  93 126 164 206 255 311 369
#     4  12  25  42  65  92 126 165 208 257 309 368
#
# _framework density 10.446776
#
# number of rings (size 3 to 8) (size 9 to 14) (size 15 to 20)
#    0.000    0.600    0.000    8.400    0.000   10.400 
#    0.000    0.000    0.000    0.000    0.000    0.000 
#    0.000    0.000    0.000    0.000    0.000    0.000 
#
# Total GULP energy -111402.102424 kJ/mol
# GULP energy per Si atom -5570.105121 kJ/mol
# Density = 1.042300 g / cm^3
# Si number density = 10.446776 Si / 1000 Ang^3
#
#
#
# Elastic Constant Matrix: (Units=GPa)
#
#
# Indices 1 2 3 4 5 6 
#
# 1 142.8963 43.2931 21.3566 0.0000 -30.9912 0.0000
# 2 43.2931 126.5711 -13.3703 0.0000 -10.6074 0.0000
# 3 21.3566 -13.3703 67.6549 0.0000 -37.8281 0.0000
# 4 0.0000 0.0000 0.0000 -149.3859 0.0000 212.2075
# 5 -30.9912 -10.6074 -37.8281 0.0000 46.1618 0.0000
# 6 0.0000 0.0000 0.0000 212.2075 0.0000 -219.0683
#
#
#
# Elastic Compliance Matrix: (Units=1/GPa)
#
#
# Indices 1 2 3 4 5 6 
#
# 1 0.008979 -0.002733 -0.000655 0.000000 0.004863 0.000000
# 2 -0.002733 0.009853 0.005629 0.000000 0.005042 0.000000
# 3 -0.000655 0.005629 0.030597 0.000000 0.025926 0.000000
# 4 0.000000 0.000000 0.000000 0.017801 0.000000 0.017244
# 5 0.004863 0.005042 0.025926 0.000000 0.047332 0.000000
# 6 0.000000 0.000000 0.000000 0.017244 0.000000 0.012139
#
#
# Mechanical properties :
#
#
# Convention : Reuss Voigt Hill
#
# Bulk Modulus (GPa) = 18.54962 48.85346 33.70154
# Shear Modulus (GPa) = 35.66631 -45.40230 -4.86799
#
# Velocity S-wave (km/s) = 4.13613 -4.66663 -1.52806
# Velocity P-wave (km/s) = 5.63094 2.36723 3.61273
#
# Compressibility (1/GPa) = 0.05390947
#
# Stress axis : x y z
#
# Youngs Moduli (GPa) = 111.37541 101.49590 32.68345
#
# Poissons Ratio (x) = 0.27737 0.02142
# Poissons Ratio (y) = 0.30437 -0.18397
# Poissons Ratio (z) = 0.07299 -0.57132
#
# Static dielectric constant tensor:
#      x y z
#    x 1.459680 0.000000 0.153340 
#    y 0.000000 1.829720 0.000000 
#    z 0.153340 0.000000 2.021720 
# 
# From -- ./inp_files/151727.got.cif
#   From: 2010.05.17/outbox.ucp.g08.bks.cvg/sg12_76_cif.got.tgz:151727.got - 2010.06.11 11:47:21.
