data_PCOD9225680
_publ_section_title
;
Structure prediction by ZEFSAII (Michael W. Deem and Ramdas Pophale) SiO2 
 PCOD9225680
Probable space group: C 2/M
;
_chemical_formula_sum "Si O2"
_cell_formula_units_Z 28
_cell_length_a 12.000000
_cell_length_b 15.000000
_cell_length_c 15.000000
_cell_angle_alpha 90.000000
_cell_angle_beta 90.000000
_cell_angle_gamma 90.000000
_cell_volume 2700.000000
_symmetry_space_group_name_H-M "C 2/M"
_symmetry_group_IT_number 12
_symmetry_cell_setting 'monoclinic'
loop_
_space_group_symop_operation_xyz
x,y,z
-x,y,-z
-x,-y,-z
x,-y,z
1/2+x,1/2+y,z
1/2-x,1/2+y,-z
1/2-x,1/2-y,-z
1/2+x,1/2-y,z
loop_
_atom_site_type_symbol
_atom_site_label
_atom_site_fract_x
_atom_site_fract_y
_atom_site_fract_z
Si Si1 0.297173 0.393685 0.452523
Si Si2 0.401807 0.606955 0.062544
Si Si3 0.403720 0.753875 0.570736
Si Si4 0.673547 0.606341 0.747011
Si Si5 0.279595 0.396431 0.892493
Si Si6 0.118020 0.738094 0.224380
Si Si7 0.517760 0.898363 0.894492
O O1 0.280903 0.500000 0.468577
O O2 0.356043 0.340218 0.532702
O O3 0.185142 0.335090 0.438524
O O4 0.361674 0.385561 0.356849
O O5 0.412352 0.500000 0.065217
O O6 0.399972 0.632561 0.166141
O O7 0.500000 0.643319 0.000000
O O8 0.296533 0.626169 0.998279
O O9 0.500000 0.776022 0.500000
O O10 0.429913 0.744957 0.675994
O O11 0.701174 0.500000 0.757775
O O12 0.776586 0.672848 0.758987
O O13 0.318993 0.500000 0.880274
O O14 0.341318 0.326625 0.828064
O O15 0.148913 0.394717 0.874632
O O16 0.039807 0.678078 0.162374
O O17 0.477479 0.000000 0.873530
O O18 0.500000 0.885359 0.000000
#
# Coordination Sequence:
#
# PCOD9225680 Si02
#       7
#     8   8   8   8   8   8   8
#     4   9  20  40  64  88 116 153 196 246 305 361
#     4   9  18  33  54  83 121 160 196 238 288 346
#     4  10  23  41  60  88 121 152 197 253 304 362
#     4   9  18  35  59  86 117 154 199 248 298 358
#     4  10  23  40  57  86 127 165 202 245 293 350
#     4  11  23  38  61  87 118 159 203 246 302 361
#     4  10  22  41  64  91 124 161 203 249 294 347
#
# _framework density 10.370369999999999
#
# number of rings (size 3 to 8) (size 9 to 14) (size 15 to 20)
#    0.000    2.286    0.000    1.286    0.000   12.571 
#    0.000    2.857    0.000    0.857    0.000    0.000 
#    0.000    0.000    0.000    0.000    0.000    0.000 
#
# Total GULP energy -156213.026850 kJ/mol
# GULP energy per Si atom -5579.036673 kJ/mol
# Density = 1.034677 g / cm^3
# Si number density = 10.370370 Si / 1000 Ang^3
#
#
#
# Elastic Constant Matrix: (Units=GPa)
#
#
# Indices 1 2 3 4 5 6 
#
# 1 58.7250 46.4928 43.9129 0.0000 -13.2439 0.0000
# 2 46.4928 150.2593 81.4170 0.0000 -1.4399 0.0000
# 3 43.9129 81.4170 185.4405 0.0000 -20.0184 0.0000
# 4 0.0000 0.0000 0.0000 37.5323 0.0000 -4.5519
# 5 -13.2439 -1.4399 -20.0184 0.0000 33.3437 0.0000
# 6 0.0000 0.0000 0.0000 -4.5519 0.0000 26.4427
#
#
#
# Elastic Compliance Matrix: (Units=1/GPa)
#
#
# Indices 1 2 3 4 5 6 
#
# 1 0.026016 -0.006740 -0.002264 0.000000 0.008683 0.000000
# 2 -0.006740 0.010613 -0.003532 0.000000 -0.004339 0.000000
# 3 -0.002264 -0.003532 0.007876 0.000000 0.003677 0.000000
# 4 0.000000 0.000000 0.000000 0.027212 0.000000 0.004684
# 5 0.008683 -0.004339 0.003677 0.000000 0.035460 0.000000
# 6 0.000000 0.000000 0.000000 0.004684 0.000000 0.038624
#
#
# Mechanical properties :
#
#
# Convention : Reuss Voigt Hill
#
# Bulk Modulus (GPa) = 51.45863 82.00781 66.73322
# Shear Modulus (GPa) = 28.19296 34.30387 31.24841
#
# Velocity S-wave (km/s) = 3.69087 4.07127 3.88573
# Velocity P-wave (km/s) = 6.55955 7.85657 7.23717
#
# Compressibility (1/GPa) = 0.01943309
#
# Stress axis : x y z
#
# Youngs Moduli (GPa) = 38.43845 94.22698 126.96254
#
# Poissons Ratio (x) = 0.63505 0.28748
# Poissons Ratio (y) = 0.25906 0.44842
# Poissons Ratio (z) = 0.08703 0.33280
#
# Static dielectric constant tensor:
#      x y z
#    x 1.828910 0.000000 0.014550 
#    y 0.000000 1.725150 0.000000 
#    z 0.014550 0.000000 1.745720 
# 
# From -- ./inp_files/205039.got.cif
#   From: 2010.05.17/outbox.ucp.g08.bks.cvg/sg12_103_cif.got.tgz:205039.got - 2010.06.11 11:47:21.
