data_PCOD9225970
_publ_section_title
;
Structure prediction by ZEFSAII (Michael W. Deem and Ramdas Pophale) SiO2 
 PCOD9225970
Probable space group: C 2/M
;
_chemical_formula_sum "Si O2"
_cell_formula_units_Z 18
_cell_length_a 15.000000
_cell_length_b 27.000000
_cell_length_c 9.000000
_cell_angle_alpha 90.000000
_cell_angle_beta 150.000000
_cell_angle_gamma 90.000000
_cell_volume 1822.500000
_symmetry_space_group_name_H-M "C 2/M"
_symmetry_group_IT_number 12
_symmetry_cell_setting 'monoclinic'
loop_
_space_group_symop_operation_xyz
x,y,z
-x,y,-z
-x,-y,-z
x,-y,z
1/2+x,1/2+y,z
1/2-x,1/2+y,-z
1/2-x,1/2-y,-z
1/2+x,1/2-y,z
loop_
_atom_site_type_symbol
_atom_site_label
_atom_site_fract_x
_atom_site_fract_y
_atom_site_fract_z
Si Si1 0.826499 0.000000 0.637914
Si Si2 0.366033 0.391315 0.548403
Si Si3 0.252214 0.105279 0.955731
Si Si4 0.709823 0.298724 0.341996
Si Si5 0.500000 0.823490 0.500000
Si Si6 0.443134 0.000000 0.248153
O O1 0.834782 0.947887 0.559591
O O2 0.630262 0.000000 0.429730
O O3 0.000000 0.000000 0.000000
O O4 0.280257 0.381107 0.263118
O O5 0.576692 0.390002 0.807522
O O6 0.294140 0.350469 0.564476
O O7 0.391804 0.141972 0.231248
O O8 0.326228 0.049253 0.056112
O O9 0.750000 0.250000 0.500000
O O10 0.847869 0.299388 0.396405
O O11 0.500000 0.294285 0.000000
O O12 0.500000 0.000000 0.500000
#
# Coordination Sequence:
#
# PCOD9225970 Si02
#       6
#     4   8   8   8   4   4
#     4  12  25  40  71 102 148 196 240 303 363 430
#     4  11  25  47  71 107 148 186 247 300 364 431
#     4  11  24  43  72 104 146 194 239 302 359 436
#     4  12  29  51  76 109 146 190 243 303 366 433
#     4  12  26  47  78 104 146 189 244 296 368 432
#     4  12  23  38  61 105 145 192 246 285 357 429
#
# _framework density 9.8765429999999999
#
# number of rings (size 3 to 8) (size 9 to 14) (size 15 to 20)
#    0.000    0.444    3.333    4.667    3.111    8.000 
#    0.000    0.000    0.000    0.000    0.000    0.000 
#    0.000    0.000    0.000    0.000    0.000    0.000 
#
# Total GULP energy -100422.477121 kJ/mol
# GULP energy per Si atom -5579.026507 kJ/mol
# Density = 0.985406 g / cm^3
# Si number density = 9.876543 Si / 1000 Ang^3
#
#
#
# Elastic Constant Matrix: (Units=GPa)
#
#
# Indices 1 2 3 4 5 6 
#
# 1 166.8957 54.2607 46.9833 0.0000 18.3200 0.0000
# 2 54.2607 127.9851 38.1014 0.0000 -0.8164 0.0000
# 3 46.9833 38.1014 108.7905 0.0000 7.2932 0.0000
# 4 0.0000 0.0000 0.0000 37.4629 0.0000 -4.0211
# 5 18.3200 -0.8164 7.2932 0.0000 32.2490 0.0000
# 6 0.0000 0.0000 0.0000 -4.0211 0.0000 25.4338
#
#
#
# Elastic Compliance Matrix: (Units=1/GPa)
#
#
# Indices 1 2 3 4 5 6 
#
# 1 0.007951 -0.002742 -0.002199 0.000000 -0.004089 0.000000
# 2 -0.002742 0.009696 -0.002368 0.000000 0.002339 0.000000
# 3 -0.002199 -0.002368 0.011059 0.000000 -0.001312 0.000000
# 4 0.000000 0.000000 0.000000 0.027154 0.000000 0.004293
# 5 -0.004089 0.002339 -0.001312 0.000000 0.033687 0.000000
# 6 0.000000 0.000000 0.000000 0.004293 0.000000 0.039997
#
#
# Mechanical properties :
#
#
# Convention : Reuss Voigt Hill
#
# Bulk Modulus (GPa) = 70.98978 75.81801 73.40390
# Shear Modulus (GPa) = 33.58861 36.65086 35.11974
#
# Velocity S-wave (km/s) = 4.12809 4.31217 4.22113
# Velocity P-wave (km/s) = 7.66408 7.95357 7.81017
#
# Compressibility (1/GPa) = 0.01408653
#
# Stress axis : x y z
#
# Youngs Moduli (GPa) = 125.76446 103.13492 90.42271
#
# Poissons Ratio (x) = 0.28284 0.19887
# Poissons Ratio (y) = 0.34490 0.21414
# Poissons Ratio (z) = 0.27660 0.24425
#
# Static dielectric constant tensor:
#      x y z
#    x 1.713410 0.000000 0.024600 
#    y 0.000000 1.884070 0.000000 
#    z 0.024600 0.000000 1.772240 
# 
# From -- ./inp_files/67265.got.cif
#   From: 2010.05.17/outbox.ucp.g08.bks.cvg/sg12_34_cif.got.tgz:67265.got - 2010.06.11 11:47:21.
