data_PCOD9225054
_publ_section_title
;
Structure prediction by ZEFSAII (Michael W. Deem and Ramdas Pophale) SiO2 
 PCOD9225054
Probable space group: C 2/M
;
_chemical_formula_sum "Si O2"
_cell_formula_units_Z 32
_cell_length_a 18.000000
_cell_length_b 9.000000
_cell_length_c 30.000000
_cell_angle_alpha 90.000000
_cell_angle_beta 40.000000
_cell_angle_gamma 90.000000
_cell_volume 3123.947783
_symmetry_space_group_name_H-M "C 2/M"
_symmetry_group_IT_number 12
_symmetry_cell_setting 'monoclinic'
loop_
_space_group_symop_operation_xyz
x,y,z
-x,y,-z
-x,-y,-z
x,-y,z
1/2+x,1/2+y,z
1/2-x,1/2+y,-z
1/2-x,1/2-y,-z
1/2+x,1/2-y,z
loop_
_atom_site_type_symbol
_atom_site_label
_atom_site_fract_x
_atom_site_fract_y
_atom_site_fract_z
Si Si1 0.001125 0.330953 0.195893
Si Si2 0.762084 0.326122 0.193120
Si Si3 0.363881 0.822869 0.566384
Si Si4 0.754559 0.819717 0.045813
Si Si5 0.298430 0.178795 0.432905
Si Si6 0.728531 0.673396 0.720842
Si Si7 0.033109 0.331815 0.282515
Si Si8 0.505273 0.664676 0.945386
O O1 0.985371 0.500000 0.184270
O O2 0.133544 0.285186 0.125621
O O3 0.978562 0.341250 0.258705
O O4 0.906084 0.216387 0.222877
O O5 0.773084 0.500000 0.182277
O O6 0.734503 0.279599 0.256364
O O7 0.648079 0.262457 0.222355
O O8 0.880996 0.249341 0.122898
O O9 0.500000 0.783347 0.500000
O O10 0.285578 0.733854 0.567648
O O11 0.306420 0.800010 0.641367
O O12 0.355381 0.000000 0.560565
O O13 0.762283 0.000000 0.044670
O O14 0.750000 0.750000 0.000000
O O15 0.881013 0.757797 0.999255
O O16 0.250000 0.250000 0.500000
O O17 0.431557 0.224845 0.361342
O O18 0.298694 0.000000 0.435108
O O19 0.739063 0.500000 0.727527
O O20 0.066241 0.500000 0.281043
O O21 0.507457 0.500000 0.922371
O O22 0.500000 0.641794 0.000000
#
# Coordination Sequence:
#
# PCOD9225054 Si02
#       8
#     8   8   8   8   8   8   8   8
#     4  10  20  39  64  89 118 155 203 253 307 365
#     4  12  26  40  60  91 127 164 209 262 309 362
#     4  10  23  43  66  93 126 165 208 254 307 365
#     4  10  21  35  57  86 116 152 194 245 298 360
#     4  11  24  42  67  96 128 164 204 254 306 365
#     4  11  23  40  63  90 125 164 207 256 310 371
#     4  10  22  42  65  88 120 163 208 251 306 367
#     4  10  21  41  65  87 117 160 209 255 309 373
#
# _framework density 10.243449
#
# number of rings (size 3 to 8) (size 9 to 14) (size 15 to 20)
#    0.000    1.500    1.250    3.375    1.750    7.500 
#    0.000    1.250    0.000    0.000    0.000    0.000 
#    0.000    0.000    0.000    0.000    0.000    0.000 
#
# Total GULP energy -178298.772614 kJ/mol
# GULP energy per Si atom -5571.836644 kJ/mol
# Density = 1.022013 g / cm^3
# Si number density = 10.243449 Si / 1000 Ang^3
#
#
#
# Elastic Constant Matrix: (Units=GPa)
#
#
# Indices 1 2 3 4 5 6 
#
# 1 58.5995 3.2405 13.7987 0.0003 -8.4524 0.0004
# 2 3.2405 29.3091 26.5806 0.0009 -9.1676 -0.0004
# 3 13.7987 26.5806 135.6239 0.0000 -13.6882 0.0000
# 4 0.0003 0.0009 0.0000 29.0127 0.0000 4.3106
# 5 -8.4524 -9.1676 -13.6882 0.0000 32.1813 0.0001
# 6 0.0004 -0.0004 0.0000 4.3106 0.0001 30.6504
#
#
#
# Elastic Compliance Matrix: (Units=1/GPa)
#
#
# Indices 1 2 3 4 5 6 
#
# 1 0.018006 0.000753 -0.001547 0.000000 0.004286 0.000000
# 2 0.000753 0.044018 -0.007751 -0.000001 0.009440 0.000001
# 3 -0.001547 -0.007751 0.009180 0.000000 0.001290 0.000000
# 4 0.000000 -0.000001 0.000000 0.035203 0.000000 -0.004951
# 5 0.004286 0.009440 0.001290 0.000000 0.035438 0.000000
# 6 0.000000 0.000001 0.000000 -0.004951 0.000000 0.033322
#
#
# Mechanical properties :
#
#
# Convention : Reuss Voigt Hill
#
# Bulk Modulus (GPa) = 18.47964 34.53023 26.50493
# Shear Modulus (GPa) = 23.77614 30.36306 27.06960
#
# Velocity S-wave (km/s) = 3.41039 3.85395 3.63893
# Velocity P-wave (km/s) = 4.95454 6.05766 5.53366
#
# Compressibility (1/GPa) = 0.05411361
#
# Stress axis : x y z
#
# Youngs Moduli (GPa) = 55.53766 22.71805 108.93250
#
# Poissons Ratio (x) = -0.01710 0.16851
# Poissons Ratio (y) = -0.04180 0.84430
# Poissons Ratio (z) = 0.08591 0.17608
#
# Static dielectric constant tensor:
#      x y z
#    x 1.689390 0.000000 -0.009070 
#    y 0.000000 1.634760 0.000000 
#    z -0.009070 0.000000 1.677010 
# 
# From -- ./inp_files/378108.got.cif
#   From: 2010.05.17/outbox.ucp.g08.bks.cvg/sg12_190_cif.got.tgz:378108.got - 2010.06.11 11:47:21.
