data_PCOD9225977
_publ_section_title
;
Structure prediction by ZEFSAII (Michael W. Deem and Ramdas Pophale) SiO2 
 PCOD9225977
Probable space group: C 2/M
;
_chemical_formula_sum "Si O2"
_cell_formula_units_Z 24
_cell_length_a 9.000000
_cell_length_b 30.000000
_cell_length_c 9.000000
_cell_angle_alpha 90.000000
_cell_angle_beta 90.000000
_cell_angle_gamma 90.000000
_cell_volume 2430.000000
_symmetry_space_group_name_H-M "C 2/M"
_symmetry_group_IT_number 12
_symmetry_cell_setting 'monoclinic'
loop_
_space_group_symop_operation_xyz
x,y,z
-x,y,-z
-x,-y,-z
x,-y,z
1/2+x,1/2+y,z
1/2-x,1/2+y,-z
1/2-x,1/2-y,-z
1/2+x,1/2-y,z
loop_
_atom_site_type_symbol
_atom_site_label
_atom_site_fract_x
_atom_site_fract_y
_atom_site_fract_z
Si Si1 0.107944 0.323773 0.205325
Si Si2 0.222227 0.900209 0.612182
Si Si3 0.379869 0.402773 0.724445
Si Si4 0.219133 0.000000 0.622040
Si Si5 0.228251 0.672679 0.879002
Si Si6 0.393540 0.500000 0.719859
Si Si7 0.627078 0.266025 0.384487
O O1 0.188231 0.360982 0.306514
O O2 0.078626 0.278685 0.298375
O O3 0.941579 0.338848 0.163757
O O4 0.206250 0.314046 0.054158
O O5 0.204990 0.893258 0.433300
O O6 0.288368 0.950456 0.638710
O O7 0.053807 0.900346 0.678506
O O8 0.332313 0.369853 0.854308
O O9 0.342028 0.452671 0.777737
O O10 0.156540 0.000000 0.453155
O O11 0.072217 0.000000 0.723755
O O12 0.301274 0.704875 0.750875
O O13 0.500000 0.285144 0.500000
O O14 0.750000 0.250000 0.500000
#
# Coordination Sequence:
#
# PCOD9225977 Si02
#       7
#     8   8   8   4   8   4   8
#     4  11  25  43  58  85 125 159 188 236 295 353
#     4   9  18  33  61  89 119 154 198 245 287 340
#     4   9  18  33  60  90 117 154 200 242 288 339
#     4   7  12  28  52  87 118 150 192 242 290 330
#     4  11  25  42  60  85 122 159 192 235 294 351
#     4   7  12  28  52  85 120 148 191 247 284 328
#     4  12  25  44  67  88 111 147 197 247 291 345
#
# _framework density 9.8765429999999999
#
# number of rings (size 3 to 8) (size 9 to 14) (size 15 to 20)
#    0.000    2.167    1.667    3.500    4.667    0.667 
#    0.000    1.667    0.000    8.000    0.000    0.000 
#    0.000    0.000    0.000    0.000    0.000    0.000 
#
# Total GULP energy -133651.026639 kJ/mol
# GULP energy per Si atom -5568.792777 kJ/mol
# Density = 0.985406 g / cm^3
# Si number density = 9.876543 Si / 1000 Ang^3
#
#
#
# Elastic Constant Matrix: (Units=GPa)
#
#
# Indices 1 2 3 4 5 6 
#
# 1 40.1716 10.3908 5.9518 0.0000 -9.4882 0.0000
# 2 10.3908 92.6653 12.9464 0.0000 -6.2029 0.0000
# 3 5.9518 12.9464 55.2164 0.0000 -21.4305 0.0000
# 4 0.0000 0.0000 0.0000 20.4168 0.0000 -1.7860
# 5 -9.4882 -6.2029 -21.4305 0.0000 36.5687 0.0000
# 6 0.0000 0.0000 0.0000 -1.7860 0.0000 15.0028
#
#
#
# Elastic Compliance Matrix: (Units=1/GPa)
#
#
# Indices 1 2 3 4 5 6 
#
# 1 0.027128 -0.002633 0.000326 0.000000 0.006783 0.000000
# 2 -0.002633 0.011419 -0.002468 0.000000 -0.000193 0.000000
# 3 0.000326 -0.002468 0.023978 0.000000 0.013718 0.000000
# 4 0.000000 0.000000 0.000000 0.049495 0.000000 0.005892
# 5 0.006783 -0.000193 0.013718 0.000000 0.037112 0.000000
# 6 0.000000 0.000000 0.000000 0.005892 0.000000 0.067355
#
#
# Mechanical properties :
#
#
# Convention : Reuss Voigt Hill
#
# Bulk Modulus (GPa) = 18.87734 27.40348 23.14041
# Shear Modulus (GPa) = 20.51726 24.98196 22.74961
#
# Velocity S-wave (km/s) = 3.22636 3.56014 3.39735
# Velocity P-wave (km/s) = 4.84320 5.55001 5.20861
#
# Compressibility (1/GPa) = 0.05297358
#
# Stress axis : x y z
#
# Youngs Moduli (GPa) = 36.86206 87.57518 41.70428
#
# Poissons Ratio (x) = 0.23062 -0.01359
# Poissons Ratio (y) = 0.09707 0.10294
# Poissons Ratio (z) = -0.01201 0.21616
#
# Static dielectric constant tensor:
#      x y z
#    x 1.713140 0.000000 0.009740 
#    y 0.000000 1.784220 0.000000 
#    z 0.009740 0.000000 1.695220 
# 
# From -- ./inp_files/42283.got.cif
#   From: 2010.05.17/outbox.ucp.g08.bks.cvg/sg12_22_cif.got.tgz:42283.got - 2010.06.11 11:47:21.
