data_PCOD9225007
_publ_section_title
;
Structure prediction by ZEFSAII (Michael W. Deem and Ramdas Pophale) SiO2 
 PCOD9225007
Probable space group: C 2/M
;
_chemical_formula_sum "Si O2"
_cell_formula_units_Z 32
_cell_length_a 15.000000
_cell_length_b 24.000000
_cell_length_c 15.000000
_cell_angle_alpha 90.000000
_cell_angle_beta 40.000000
_cell_angle_gamma 90.000000
_cell_volume 3471.053092
_symmetry_space_group_name_H-M "C 2/M"
_symmetry_group_IT_number 12
_symmetry_cell_setting 'monoclinic'
loop_
_space_group_symop_operation_xyz
x,y,z
-x,y,-z
-x,-y,-z
x,-y,z
1/2+x,1/2+y,z
1/2-x,1/2+y,-z
1/2-x,1/2-y,-z
1/2+x,1/2-y,z
loop_
_atom_site_type_symbol
_atom_site_label
_atom_site_fract_x
_atom_site_fract_y
_atom_site_fract_z
Si Si1 0.199660 0.288177 0.668625
Si Si2 0.444417 0.855386 0.948521
Si Si3 0.859824 0.292839 0.662396
Si Si4 0.599690 0.322792 0.641760
Si Si5 0.931046 0.060560 0.251432
Si Si6 0.244807 0.564609 0.029805
Si Si7 0.652171 0.612035 0.861502
Si Si8 0.302873 0.725837 0.865704
O O1 0.073726 0.327050 0.797028
O O2 0.293532 0.263903 0.675758
O O3 0.307723 0.316067 0.517504
O O4 0.142349 0.231004 0.668028
O O5 0.359185 0.897894 0.949873
O O6 0.334668 0.806961 0.059886
O O7 0.500000 0.879901 0.000000
O O8 0.753161 0.343396 0.739047
O O9 0.865937 0.277845 0.761899
O O10 0.000000 0.303609 0.500000
O O11 0.627868 0.384115 0.658151
O O12 0.433077 0.316098 0.764946
O O13 0.887605 0.065630 0.180722
O O14 0.098259 0.063841 0.129308
O O15 0.886354 0.000000 0.320346
O O16 0.198389 0.500000 0.070659
O O17 0.272541 0.589462 0.107720
O O18 0.500000 0.638301 0.000000
O O19 0.250000 0.750000 0.000000
#
# Coordination Sequence:
#
# PCOD9225007 Si02
#       8
#     8   8   8   8   8   8   8   8
#     4  11  24  38  57  89 127 165 200 251 316 382
#     4  12  24  38  62  91 121 160 211 263 308 373
#     4  12  24  38  58  92 129 169 201 250 322 386
#     4  11  22  39  59  88 126 163 203 253 313 374
#     4  10  20  38  65  94 122 160 211 260 310 370
#     4  10  22  41  64  90 121 164 213 265 313 364
#     4  10  22  37  64  93 124 160 207 258 309 378
#     4  12  23  36  60  90 125 163 207 252 316 375
#
# _framework density 9.2191039999999997
#
# number of rings (size 3 to 8) (size 9 to 14) (size 15 to 20)
#    0.000    1.000    6.250    1.125    3.500    1.750 
#    0.000    0.625    0.000    0.750    0.000    2.625 
#    0.000    0.000    0.000    0.000    0.000    0.000 
#
# Total GULP energy -178370.189672 kJ/mol
# GULP energy per Si atom -5574.068427 kJ/mol
# Density = 0.919812 g / cm^3
# Si number density = 9.219104 Si / 1000 Ang^3
#
#
#
# Elastic Constant Matrix: (Units=GPa)
#
#
# Indices 1 2 3 4 5 6 
#
# 1 93.6691 44.7045 42.8373 0.0007 -0.6470 -0.0001
# 2 44.7045 115.9760 60.5886 0.0003 2.0540 0.0010
# 3 42.8373 60.5886 145.9326 -0.0001 -2.1245 0.0014
# 4 0.0007 0.0003 -0.0001 23.5305 0.0002 -3.2052
# 5 -0.6470 2.0540 -2.1245 0.0002 21.1283 -0.0003
# 6 -0.0001 0.0010 0.0014 -3.2052 -0.0003 16.2100
#
#
#
# Elastic Compliance Matrix: (Units=1/GPa)
#
#
# Indices 1 2 3 4 5 6 
#
# 1 0.013684 -0.004075 -0.002317 0.000000 0.000582 0.000000
# 2 -0.004075 0.012274 -0.003925 0.000000 -0.001713 0.000000
# 3 -0.002317 -0.003925 0.009180 0.000000 0.001234 -0.000001
# 4 0.000000 0.000000 0.000000 0.043674 0.000000 0.008636
# 5 0.000582 -0.001713 0.001234 0.000000 0.047638 0.000001
# 6 0.000000 0.000000 -0.000001 0.008636 0.000001 0.063398
#
#
# Mechanical properties :
#
#
# Convention : Reuss Voigt Hill
#
# Bulk Modulus (GPa) = 68.93844 72.42651 70.68247
# Shear Modulus (GPa) = 23.22171 26.00357 24.61264
#
# Velocity S-wave (km/s) = 3.55270 3.75948 3.65755
# Velocity P-wave (km/s) = 7.36878 7.62961 7.50033
#
# Compressibility (1/GPa) = 0.01450570
#
# Stress axis : x y z
#
# Youngs Moduli (GPa) = 73.07767 81.47417 108.93340
#
# Poissons Ratio (x) = 0.33199 0.25236
# Poissons Ratio (y) = 0.29777 0.42753
# Poissons Ratio (z) = 0.16929 0.31976
#
# Static dielectric constant tensor:
#      x y z
#    x 1.805890 0.000000 0.066070 
#    y 0.000000 1.636550 0.000000 
#    z 0.066070 0.000000 1.641640 
# 
# From -- ./inp_files/218500.got.cif
#   From: 2010.05.17/outbox.ucp.g08.bks.cvg/sg12_110_cif.got.tgz:218500.got - 2010.06.11 11:47:21.
