data_PCOD9225883
_publ_section_title
;
Structure prediction by ZEFSAII (Michael W. Deem and Ramdas Pophale) SiO2 
 PCOD9225883
Probable space group: C 2/M
;
_chemical_formula_sum "Si O2"
_cell_formula_units_Z 32
_cell_length_a 15.000000
_cell_length_b 21.000000
_cell_length_c 30.000000
_cell_angle_alpha 90.000000
_cell_angle_beta 160.000000
_cell_angle_gamma 90.000000
_cell_volume 3232.090354
_symmetry_space_group_name_H-M "C 2/M"
_symmetry_group_IT_number 12
_symmetry_cell_setting 'monoclinic'
loop_
_space_group_symop_operation_xyz
x,y,z
-x,y,-z
-x,-y,-z
x,-y,z
1/2+x,1/2+y,z
1/2-x,1/2+y,-z
1/2-x,1/2-y,-z
1/2+x,1/2-y,z
loop_
_atom_site_type_symbol
_atom_site_label
_atom_site_fract_x
_atom_site_fract_y
_atom_site_fract_z
Si Si1 0.451819 0.746905 0.530366
Si Si2 0.993278 0.074890 0.818465
Si Si3 0.614356 0.317673 0.951583
Si Si4 0.893954 0.345485 0.758086
Si Si5 0.651087 0.574151 0.722932
Si Si6 0.233052 0.152756 0.849420
Si Si7 0.438820 0.792815 0.258225
Si Si8 0.560868 0.102209 0.475234
O O1 0.500000 0.738836 0.500000
O O2 0.693453 0.714107 0.668725
O O3 0.436973 0.821682 0.531186
O O4 0.172907 0.712053 0.404521
O O5 0.680397 0.074997 0.666023
O O6 0.074943 0.128069 0.894334
O O7 0.092306 0.104017 0.817471
O O8 0.077459 0.000000 0.864670
O O9 0.336730 0.307299 0.846746
O O10 0.750000 0.250000 0.000000
O O11 0.829856 0.341711 0.087764
O O12 0.737988 0.399161 0.714712
O O13 0.974479 0.339626 0.742471
O O14 0.729955 0.500000 0.763908
O O15 0.770870 0.618328 0.819185
O O16 0.341371 0.578295 0.589539
O O17 0.085941 0.220053 0.772886
O O18 0.500000 0.168841 0.000000
O O19 0.500000 0.090628 0.500000
#
# Coordination Sequence:
#
# PCOD9225883 Si02
#       8
#     8   8   8   8   8   8   8   8
#     4   9  19  38  67  98 129 164 218 280 337 388
#     4  12  26  42  64  97 139 179 222 275 341 418
#     4  12  25  42  68 102 135 177 226 283 340 403
#     4  11  24  41  65  97 132 174 220 275 336 393
#     4  12  26  41  62  94 135 179 224 268 329 410
#     4  12  23  40  66  95 133 174 218 275 342 402
#     4  11  22  44  70  99 133 170 225 285 338 391
#     4  11  21  41  67  96 131 176 225 277 339 403
#
# _framework density 9.9007129999999997
#
# number of rings (size 3 to 8) (size 9 to 14) (size 15 to 20)
#    0.000    0.750    2.500    7.125    1.750    3.500 
#    0.000    0.625    0.000    4.875    0.000    0.000 
#    0.000    0.000    0.000    0.000    0.000    0.000 
#
# Total GULP energy -178660.443198 kJ/mol
# GULP energy per Si atom -5583.138850 kJ/mol
# Density = 0.987818 g / cm^3
# Si number density = 9.900713 Si / 1000 Ang^3
#
#
#
# Elastic Constant Matrix: (Units=GPa)
#
#
# Indices 1 2 3 4 5 6 
#
# 1 108.6768 45.1962 12.4865 0.0021 17.4741 0.0023
# 2 45.1962 107.8508 17.4929 0.0151 -6.0099 -0.0060
# 3 12.4865 17.4929 111.3117 0.0291 12.5537 -0.0090
# 4 0.0021 0.0151 0.0291 18.4890 -0.0044 -5.5351
# 5 17.4741 -6.0099 12.5537 -0.0044 42.0863 -0.0051
# 6 0.0023 -0.0060 -0.0090 -5.5351 -0.0051 28.6514
#
#
#
# Elastic Compliance Matrix: (Units=1/GPa)
#
#
# Indices 1 2 3 4 5 6 
#
# 1 0.012477 -0.005590 0.000158 0.000001 -0.006026 -0.000003
# 2 -0.005590 0.012163 -0.001803 -0.000005 0.004596 0.000002
# 3 0.000158 -0.001803 0.009609 -0.000015 -0.003189 -0.000001
# 4 0.000001 -0.000005 -0.000015 0.057406 0.000011 0.011090
# 5 -0.006026 0.004596 -0.003189 0.000011 0.027870 0.000008
# 6 -0.000003 0.000002 -0.000001 0.011090 0.000008 0.037045
#
#
# Mechanical properties :
#
#
# Convention : Reuss Voigt Hill
#
# Bulk Modulus (GPa) = 50.55469 53.13227 51.84348
# Shear Modulus (GPa) = 28.14792 34.68959 31.41876
#
# Velocity S-wave (km/s) = 3.77438 4.19008 3.98765
# Velocity P-wave (km/s) = 6.67689 7.09224 6.88770
#
# Compressibility (1/GPa) = 0.01978056
#
# Stress axis : x y z
#
# Youngs Moduli (GPa) = 80.14660 82.21532 104.06893
#
# Poissons Ratio (x) = 0.45960 -0.01649
# Poissons Ratio (y) = 0.44804 0.18760
# Poissons Ratio (z) = -0.01270 0.14821
#
# Static dielectric constant tensor:
#      x y z
#    x 1.727070 0.000000 0.026000 
#    y 0.000000 1.693360 -0.000020 
#    z 0.026000 -0.000020 1.763720 
# 
# From -- ./inp_files/377112.got.cif
#   From: 2010.05.17/outbox.ucp.g08.bks.cvg/sg12_189_cif.got.tgz:377112.got - 2010.06.11 11:47:21.
