data_PCOD9225609
_publ_section_title
;
Structure prediction by ZEFSAII (Michael W. Deem and Ramdas Pophale) SiO2 
 PCOD9225609
Probable space group: C 2/M
;
_chemical_formula_sum "Si O2"
_cell_formula_units_Z 32
_cell_length_a 24.000000
_cell_length_b 9.000000
_cell_length_c 30.000000
_cell_angle_alpha 90.000000
_cell_angle_beta 30.000000
_cell_angle_gamma 90.000000
_cell_volume 3240.000000
_symmetry_space_group_name_H-M "C 2/M"
_symmetry_group_IT_number 12
_symmetry_cell_setting 'monoclinic'
loop_
_space_group_symop_operation_xyz
x,y,z
-x,y,-z
-x,-y,-z
x,-y,z
1/2+x,1/2+y,z
1/2-x,1/2+y,-z
1/2-x,1/2-y,-z
1/2+x,1/2-y,z
loop_
_atom_site_type_symbol
_atom_site_label
_atom_site_fract_x
_atom_site_fract_y
_atom_site_fract_z
Si Si1 0.143474 0.678667 0.847483
Si Si2 0.708673 0.323096 0.392595
Si Si3 0.940769 0.177002 0.933557
Si Si4 0.854003 0.324109 0.652929
Si Si5 0.223799 0.322518 0.889579
Si Si6 0.446446 0.321887 0.235593
Si Si7 0.925563 0.674843 0.439017
Si Si8 0.984983 0.822140 0.710430
O O1 0.138782 0.500000 0.847316
O O2 0.037985 0.749331 0.896070
O O3 0.252341 0.741167 0.747412
O O4 0.157740 0.716895 0.889923
O O5 0.701023 0.500000 0.394505
O O6 0.638520 0.246490 0.401403
O O7 0.834984 0.266257 0.300306
O O8 0.665802 0.265102 0.469922
O O9 0.964260 0.210264 0.865263
O O10 0.945104 0.000000 0.935923
O O11 0.827697 0.240588 0.032427
O O12 0.831007 0.500000 0.664345
O O13 0.961944 0.306969 0.609343
O O14 0.213365 0.500000 0.902931
O O15 0.354232 0.288397 0.793601
O O16 0.424085 0.500000 0.249607
O O17 0.483386 0.285361 0.260405
O O18 0.897954 0.500000 0.456833
O O19 0.946545 0.737329 0.375103
O O20 0.000000 0.000000 0.694297
#
# Coordination Sequence:
#
# PCOD9225609 Si02
#       8
#     8   8   8   8   8   8   8   8
#     4  11  21  36  61  91 123 159 199 248 305 364
#     4  12  25  40  64  93 123 162 205 248 299 364
#     4  11  23  38  60  90 124 163 205 248 302 365
#     4  11  22  38  62  92 126 160 195 245 307 366
#     4  10  22  39  61  90 124 159 201 252 304 360
#     4  10  23  43  64  87 121 162 206 258 308 355
#     4  11  24  41  64  93 126 160 198 250 307 363
#     4  10  22  43  66  88 119 162 208 255 306 360
#
# _framework density 9.8765429999999999
#
# number of rings (size 3 to 8) (size 9 to 14) (size 15 to 20)
#    0.000    1.250    2.500    3.375    0.000    8.000 
#    0.000    0.000    0.000    0.000    0.000    0.000 
#    0.000    0.000    0.000    0.000    0.000    0.000 
#
# Total GULP energy -178959.538419 kJ/mol
# GULP energy per Si atom -5592.485576 kJ/mol
# Density = 0.985406 g / cm^3
# Si number density = 9.876543 Si / 1000 Ang^3
#
#
#
# Elastic Constant Matrix: (Units=GPa)
#
#
# Indices 1 2 3 4 5 6 
#
# 1 86.2735 29.0999 10.6035 0.0006 34.5038 -0.0009
# 2 29.0999 54.0181 31.1664 0.0007 23.5695 -0.0017
# 3 10.6035 31.1664 84.2979 0.0001 39.1328 -0.0003
# 4 0.0006 0.0007 0.0001 33.3165 0.0001 7.9124
# 5 34.5038 23.5695 39.1328 0.0001 35.0750 0.0001
# 6 -0.0009 -0.0017 -0.0003 7.9124 0.0001 27.3095
#
#
#
# Elastic Compliance Matrix: (Units=1/GPa)
#
#
# Indices 1 2 3 4 5 6 
#
# 1 0.032354 -0.007966 0.023161 -0.000001 -0.052314 0.000001
# 2 -0.007966 0.028560 -0.008890 -0.000001 -0.001436 0.000002
# 3 0.023161 -0.008890 0.041569 0.000000 -0.063188 0.000001
# 4 -0.000001 -0.000001 0.000000 0.032233 0.000001 -0.009339
# 5 -0.052314 -0.001436 -0.063188 0.000001 0.151436 -0.000004
# 6 0.000001 0.000002 0.000001 -0.009339 -0.000004 0.039323
#
#
# Mechanical properties :
#
#
# Convention : Reuss Voigt Hill
#
# Bulk Modulus (GPa) = 8.68872 40.70323 24.69597
# Shear Modulus (GPa) = 14.23570 29.38818 21.81194
#
# Velocity S-wave (km/s) = 2.68747 3.86136 3.32660
# Velocity P-wave (km/s) = 3.74676 6.36638 5.22346
#
# Compressibility (1/GPa) = 0.11509175
#
# Stress axis : x y z
#
# Youngs Moduli (GPa) = 30.90852 35.01435 24.05610
#
# Poissons Ratio (x) = 0.27892 -0.55716
# Poissons Ratio (y) = 0.24622 0.21386
# Poissons Ratio (z) = -0.71586 0.31129
#
# Static dielectric constant tensor:
#      x y z
#    x 1.680380 0.000000 0.000280 
#    y 0.000000 1.654990 0.000000 
#    z 0.000280 0.000000 1.709100 
# 
# From -- ./inp_files/382382.got.cif
#   From: 2010.05.17/outbox.ucp.g08.bks.cvg/sg12_192_cif.got.tgz:382382.got - 2010.06.11 11:47:21.
