data_PCOD9225892
_publ_section_title
;
Structure prediction by ZEFSAII (Michael W. Deem and Ramdas Pophale) SiO2 
 PCOD9225892
Probable space group: C 2/M
;
_chemical_formula_sum "Si O2"
_cell_formula_units_Z 32
_cell_length_a 15.000000
_cell_length_b 9.000000
_cell_length_c 27.000000
_cell_angle_alpha 90.000000
_cell_angle_beta 70.000000
_cell_angle_gamma 90.000000
_cell_volume 3425.179603
_symmetry_space_group_name_H-M "C 2/M"
_symmetry_group_IT_number 12
_symmetry_cell_setting 'monoclinic'
loop_
_space_group_symop_operation_xyz
x,y,z
-x,y,-z
-x,-y,-z
x,-y,z
1/2+x,1/2+y,z
1/2-x,1/2+y,-z
1/2-x,1/2-y,-z
1/2+x,1/2-y,z
loop_
_atom_site_type_symbol
_atom_site_label
_atom_site_fract_x
_atom_site_fract_y
_atom_site_fract_z
Si Si1 0.855202 0.819668 0.555372
Si Si2 0.088765 0.320039 0.172313
Si Si3 0.830548 0.820778 0.361685
Si Si4 0.556908 0.679366 0.564212
Si Si5 0.885479 0.679074 0.246897
Si Si6 0.198968 0.818899 0.837308
Si Si7 0.846246 0.828894 0.045341
Si Si8 0.120704 0.328587 0.059737
O O1 0.767190 0.736832 0.596072
O O2 0.874904 0.774861 0.494409
O O3 0.950556 0.781268 0.567978
O O4 0.843008 0.000000 0.559372
O O5 0.092881 0.500000 0.166962
O O6 0.190155 0.276641 0.175507
O O7 0.075290 0.262677 0.118428
O O8 0.997512 0.283427 0.221853
O O9 0.909122 0.773095 0.387968
O O10 0.845782 0.748863 0.304971
O O11 0.831278 0.000000 0.357378
O O12 0.560124 0.500000 0.563584
O O13 0.874483 0.500000 0.249292
O O14 0.839518 0.745370 0.205393
O O15 0.147844 0.772684 0.899022
O O16 0.193153 0.000000 0.835338
O O17 0.733449 0.825221 0.052442
O O18 0.875825 0.000000 0.040095
O O19 0.895078 0.748684 0.989809
O O20 0.092703 0.500000 0.059628
#
# Coordination Sequence:
#
# PCOD9225892 Si02
#       8
#     8   8   8   8   8   8   8   8
#     4   9  17  35  60  85 111 142 176 211 253 303
#     4   8  17  35  56  74  99 136 174 214 264 314
#     4  11  22  36  53  78 110 143 176 215 261 306
#     4   8  17  34  58  84 113 144 173 209 257 307
#     4  11  23  38  54  75 101 135 182 226 259 303
#     4   9  18  36  57  75 101 137 171 212 267 318
#     4   8  14  25  45  73 101 127 158 201 257 315
#     4   8  13  25  47  72  96 126 164 205 251 308
#
# _framework density 9.3425759999999993
#
# number of rings (size 3 to 8) (size 9 to 14) (size 15 to 20)
#    0.000    3.000    0.000    3.375    0.000    1.500 
#    0.000   10.625    0.000    3.750    0.000    0.000 
#    0.000    0.000    0.000    0.000    0.000    0.000 
#
# Total GULP energy -178374.203367 kJ/mol
# GULP energy per Si atom -5574.193855 kJ/mol
# Density = 0.932131 g / cm^3
# Si number density = 9.342576 Si / 1000 Ang^3
#
#
#
# Elastic Constant Matrix: (Units=GPa)
#
#
# Indices 1 2 3 4 5 6 
#
# 1 57.2786 11.0383 36.3093 0.0000 18.1555 0.0000
# 2 11.0383 38.4653 31.3413 0.0000 9.5578 0.0000
# 3 36.3093 31.3413 118.4342 0.0000 29.5190 0.0000
# 4 0.0000 0.0000 0.0000 27.9098 0.0000 1.6340
# 5 18.1555 9.5578 29.5190 0.0000 31.6883 0.0000
# 6 0.0000 0.0000 0.0000 1.6340 0.0000 17.1413
#
#
#
# Elastic Compliance Matrix: (Units=1/GPa)
#
#
# Indices 1 2 3 4 5 6 
#
# 1 0.023409 -0.000605 -0.004844 0.000000 -0.008717 0.000000
# 2 -0.000605 0.033298 -0.008087 0.000000 -0.002163 0.000000
# 3 -0.004844 -0.008087 0.014025 0.000000 -0.007851 0.000000
# 4 0.000000 0.000000 0.000000 0.036031 0.000000 -0.003435
# 5 -0.008717 -0.002163 -0.007851 0.000000 0.044518 0.000000
# 6 0.000000 0.000000 0.000000 -0.003435 0.000000 0.058666
#
#
# Mechanical properties :
#
#
# Convention : Reuss Voigt Hill
#
# Bulk Modulus (GPa) = 22.90395 41.28399 32.09397
# Shear Modulus (GPa) = 19.87511 24.38050 22.12781
#
# Velocity S-wave (km/s) = 3.26496 3.61613 3.44502
# Velocity P-wave (km/s) = 5.14759 6.29108 5.74784
#
# Compressibility (1/GPa) = 0.04366059
#
# Stress axis : x y z
#
# Youngs Moduli (GPa) = 42.71918 30.03205 71.29946
#
# Poissons Ratio (x) = 0.01816 0.34537
# Poissons Ratio (y) = 0.02584 0.57660
# Poissons Ratio (z) = 0.20693 0.24287
#
# Static dielectric constant tensor:
#      x y z
#    x 1.672780 0.000000 -0.010710 
#    y 0.000000 1.630480 0.000000 
#    z -0.010710 0.000000 1.649910 
# 
# From -- ./inp_files/359773.got.cif
#   From: 2010.05.17/outbox.ucp.g08.bks.cvg/sg12_180_cif.got.tgz:359773.got - 2010.06.11 11:47:21.
