data_PCOD9225665
_publ_section_title
;
Structure prediction by ZEFSAII (Michael W. Deem and Ramdas Pophale) SiO2 
 PCOD9225665
Probable space group: C 2/M
;
_chemical_formula_sum "Si O2"
_cell_formula_units_Z 28
_cell_length_a 15.000000
_cell_length_b 9.000000
_cell_length_c 24.000000
_cell_angle_alpha 90.000000
_cell_angle_beta 60.000000
_cell_angle_gamma 90.000000
_cell_volume 2805.922308
_symmetry_space_group_name_H-M "C 2/M"
_symmetry_group_IT_number 12
_symmetry_cell_setting 'monoclinic'
loop_
_space_group_symop_operation_xyz
x,y,z
-x,y,-z
-x,-y,-z
x,-y,z
1/2+x,1/2+y,z
1/2-x,1/2+y,-z
1/2-x,1/2-y,-z
1/2+x,1/2-y,z
loop_
_atom_site_type_symbol
_atom_site_label
_atom_site_fract_x
_atom_site_fract_y
_atom_site_fract_z
Si Si1 0.001147 0.825436 0.658155
Si Si2 0.534526 0.828649 0.860499
Si Si3 0.356493 0.677284 0.985876
Si Si4 0.311220 0.327450 0.122082
Si Si5 0.921989 0.669101 0.784787
Si Si6 0.285040 0.177726 0.431138
Si Si7 0.413177 0.319791 0.570010
O O1 0.106790 0.736717 0.623221
O O2 0.937840 0.787230 0.732292
O O3 0.939001 0.774058 0.623675
O O4 0.022669 0.000000 0.646694
O O5 0.451138 0.733879 0.920336
O O6 0.646335 0.772334 0.842011
O O7 0.508872 0.813493 0.803924
O O8 0.520449 0.000000 0.880144
O O9 0.347718 0.500000 0.984671
O O10 0.250000 0.750000 0.000000
O O11 0.367517 0.715334 0.047520
O O12 0.333702 0.500000 0.126876
O O13 0.189350 0.313979 0.152261
O O14 0.926791 0.500000 0.760970
O O15 0.250000 0.250000 0.500000
O O16 0.198345 0.224689 0.414662
O O17 0.285864 0.000000 0.436730
O O18 0.500000 0.265773 0.500000
O O19 0.416544 0.500000 0.567102
#
# Coordination Sequence:
#
# PCOD9225665 Si02
#       7
#     8   8   8   8   8   8   8
#     4  11  23  40  62  89 118 154 203 245 291 357
#     4  11  23  40  62  90 122 160 205 249 302 366
#     4  11  21  37  62  91 123 158 200 253 310 359
#     4  10  22  41  62  87 122 161 200 251 308 357
#     4  10  23  44  61  81 122 164 198 244 303 356
#     4  11  21  37  62  90 121 155 191 238 296 351
#     4   9  18  36  60  85 118 153 185 231 291 349
#
# _framework density 9.9788940000000004
#
# number of rings (size 3 to 8) (size 9 to 14) (size 15 to 20)
#    0.000    1.571    2.857    2.143    0.000    5.714 
#    0.000    7.857    0.000    0.000    0.000    0.000 
#    0.000    0.000    0.000    0.000    0.000    0.000 
#
# Total GULP energy -156278.947131 kJ/mol
# GULP energy per Si atom -5581.390969 kJ/mol
# Density = 0.995618 g / cm^3
# Si number density = 9.978894 Si / 1000 Ang^3
#
#
#
# Elastic Constant Matrix: (Units=GPa)
#
#
# Indices 1 2 3 4 5 6 
#
# 1 107.0021 37.2690 10.4302 0.0000 19.0851 0.0000
# 2 37.2690 30.9218 24.4705 0.0000 17.5719 0.0000
# 3 10.4302 24.4705 39.1524 0.0000 0.6735 0.0000
# 4 0.0000 0.0000 0.0000 25.1565 0.0000 8.6039
# 5 19.0851 17.5719 0.6735 0.0000 3.8876 0.0000
# 6 0.0000 0.0000 0.0000 8.6039 0.0000 -0.8397
#
#
#
# Elastic Compliance Matrix: (Units=1/GPa)
#
#
# Indices 1 2 3 4 5 6 
#
# 1 0.017107 -0.015018 0.005121 0.000000 -0.016987 0.000000
# 2 -0.015018 -0.003409 0.004612 0.000000 0.088339 0.000000
# 3 0.005121 0.004612 0.022152 0.000000 -0.049826 0.000000
# 4 0.000000 0.000000 0.000000 0.008825 0.000000 0.090424
# 5 -0.016987 0.088339 -0.049826 0.000000 -0.050037 0.000000
# 6 0.000000 0.000000 0.000000 0.090424 0.000000 -0.264386
#
#
# Mechanical properties :
#
#
# Convention : Reuss Voigt Hill
#
# Bulk Modulus (GPa) = 39.55764 35.71286 37.63525
# Shear Modulus (GPa) = -19.94017 12.63464 -3.65277
#
# Velocity S-wave (km/s) = -3.16431 2.51881 -1.35433
# Velocity P-wave (km/s) = 2.55210 5.13734 4.05620
#
# Compressibility (1/GPa) = 0.02527957
#
# Stress axis : x y z
#
# Youngs Moduli (GPa) = 58.45495 -293.35837 45.14335
#
# Poissons Ratio (x) = -4.40580 -0.23120
# Poissons Ratio (y) = 0.87791 -0.20819
# Poissons Ratio (z) = -0.29938 1.35290
#
# Static dielectric constant tensor:
#      x y z
#    x 1.730770 0.000000 0.010070 
#    y 0.000000 1.678510 0.000000 
#    z 0.010070 0.000000 1.702130 
# 
# From -- ./inp_files/338461.got.cif
#   From: 2010.05.17/outbox.ucp.g08.bks.cvg/sg12_170_cif.got.tgz:338461.got - 2010.06.11 11:47:21.
