data_PCOD9225254
_publ_section_title
;
Structure prediction by ZEFSAII (Michael W. Deem and Ramdas Pophale) SiO2 
 PCOD9225254
Probable space group: C 2/M
;
_chemical_formula_sum "Si O2"
_cell_formula_units_Z 28
_cell_length_a 12.000000
_cell_length_b 15.000000
_cell_length_c 18.000000
_cell_angle_alpha 90.000000
_cell_angle_beta 120.000000
_cell_angle_gamma 90.000000
_cell_volume 2805.922308
_symmetry_space_group_name_H-M "C 2/M"
_symmetry_group_IT_number 12
_symmetry_cell_setting 'monoclinic'
loop_
_space_group_symop_operation_xyz
x,y,z
-x,y,-z
-x,-y,-z
x,-y,z
1/2+x,1/2+y,z
1/2-x,1/2+y,-z
1/2-x,1/2-y,-z
1/2+x,1/2-y,z
loop_
_atom_site_type_symbol
_atom_site_label
_atom_site_fract_x
_atom_site_fract_y
_atom_site_fract_z
Si Si1 0.025777 0.100814 0.429800
Si Si2 0.637851 0.710928 0.017481
Si Si3 0.214291 0.210056 0.208352
Si Si4 0.814775 0.896206 0.241979
Si Si5 0.804723 0.654507 0.492812
Si Si6 0.416185 0.107041 0.368596
Si Si7 0.471375 0.600844 0.146623
O O1 0.175520 0.098192 0.461542
O O2 0.000000 0.148672 0.500000
O O3 0.937198 0.132698 0.333304
O O4 0.977679 0.000000 0.422473
O O5 0.705189 0.691617 0.117628
O O6 0.500000 0.757316 0.000000
O O7 0.750000 0.750000 0.000000
O O8 0.584794 0.628695 0.951514
O O9 0.215462 0.316459 0.221325
O O10 0.339154 0.160626 0.280961
O O11 0.088694 0.166425 0.203105
O O12 0.862993 0.892115 0.173330
O O13 0.777249 0.000000 0.243873
O O14 0.750000 0.750000 0.500000
O O15 0.853864 0.642493 0.425083
O O16 0.931319 0.627645 0.581180
O O17 0.398693 0.000000 0.359578
O O18 0.520204 0.500000 0.163107
#
# Coordination Sequence:
#
# PCOD9225254 Si02
#       7
#     8   8   8   8   8   8   8
#     4  10  21  37  57  82 117 158 205 255 306 371
#     4  10  21  40  65  98 133 170 215 271 334 393
#     4  11  22  37  65  93 128 160 214 266 327 381
#     4  10  21  39  62  89 122 165 213 263 324 390
#     4  11  23  38  62  85 123 166 213 257 319 379
#     4  11  24  42  63  92 128 169 214 272 329 379
#     4  10  21  39  68  95 124 168 217 264 317 388
#
# _framework density 9.9788940000000004
#
# number of rings (size 3 to 8) (size 9 to 14) (size 15 to 20)
#    0.000    1.571    1.429    3.857    4.000    4.286 
#    0.000    0.000    0.000    8.571    0.000    0.000 
#    0.000    0.000    0.000    0.000    0.000    0.000 
#
# Total GULP energy -155980.619301 kJ/mol
# GULP energy per Si atom -5570.736404 kJ/mol
# Density = 0.995618 g / cm^3
# Si number density = 9.978894 Si / 1000 Ang^3
#
#
#
# Elastic Constant Matrix: (Units=GPa)
#
#
# Indices 1 2 3 4 5 6 
#
# 1 82.3211 35.0656 10.9788 0.0000 5.9186 0.0000
# 2 35.0656 151.9186 28.0999 0.0000 12.9051 0.0000
# 3 10.9788 28.0999 114.8490 0.0000 10.8442 0.0000
# 4 0.0000 0.0000 0.0000 19.8497 0.0000 4.8686
# 5 5.9186 12.9051 10.8442 0.0000 21.9013 0.0000
# 6 0.0000 0.0000 0.0000 4.8686 0.0000 36.7453
#
#
#
# Elastic Compliance Matrix: (Units=1/GPa)
#
#
# Indices 1 2 3 4 5 6 
#
# 1 0.013567 -0.002905 -0.000421 0.000000 -0.001746 0.000000
# 2 -0.002905 0.007765 -0.001326 0.000000 -0.003133 0.000000
# 3 -0.000421 -0.001326 0.009428 0.000000 -0.003773 0.000000
# 4 0.000000 0.000000 0.000000 0.052071 0.000000 -0.006899
# 5 -0.001746 -0.003133 -0.003773 0.000000 0.049846 0.000000
# 6 0.000000 0.000000 0.000000 -0.006899 0.000000 0.028128
#
#
# Mechanical properties :
#
#
# Convention : Reuss Voigt Hill
#
# Bulk Modulus (GPa) = 46.61108 55.26413 50.93760
# Shear Modulus (GPa) = 28.20703 34.02889 31.11796
#
# Velocity S-wave (km/s) = 3.76351 4.13370 3.95294
# Velocity P-wave (km/s) = 6.50315 7.10872 6.81266
#
# Compressibility (1/GPa) = 0.02145413
#
# Stress axis : x y z
#
# Youngs Moduli (GPa) = 73.70953 128.79089 106.06627
#
# Poissons Ratio (x) = 0.37417 0.04468
# Poissons Ratio (y) = 0.21414 0.14066
# Poissons Ratio (z) = 0.03105 0.17080
#
# Static dielectric constant tensor:
#      x y z
#    x 1.695900 0.000000 -0.004940 
#    y 0.000000 1.819690 0.000000 
#    z -0.004940 0.000000 1.757690 
# 
# From -- ./inp_files/263392.got.cif
#   From: 2010.05.17/outbox.ucp.g08.bks.cvg/sg12_132_cif.got.tgz:263392.got - 2010.06.11 11:47:21.
