data_PCOD9225128
_publ_section_title
;
Structure prediction by ZEFSAII (Michael W. Deem and Ramdas Pophale) SiO2 
 PCOD9225128
Probable space group: C 2/M
;
_chemical_formula_sum "Si O2"
_cell_formula_units_Z 28
_cell_length_a 24.000000
_cell_length_b 9.000000
_cell_length_c 15.000000
_cell_angle_alpha 90.000000
_cell_angle_beta 120.000000
_cell_angle_gamma 90.000000
_cell_volume 2805.922308
_symmetry_space_group_name_H-M "C 2/M"
_symmetry_group_IT_number 12
_symmetry_cell_setting 'monoclinic'
loop_
_space_group_symop_operation_xyz
x,y,z
-x,y,-z
-x,-y,-z
x,-y,z
1/2+x,1/2+y,z
1/2-x,1/2+y,-z
1/2-x,1/2-y,-z
1/2+x,1/2-y,z
loop_
_atom_site_type_symbol
_atom_site_label
_atom_site_fract_x
_atom_site_fract_y
_atom_site_fract_z
Si Si1 0.895434 0.825812 0.450711
Si Si2 0.511402 0.172575 0.204250
Si Si3 0.724769 0.322668 0.069603
Si Si4 0.096331 0.324293 0.020303
Si Si5 0.375450 0.324037 0.772058
Si Si6 0.266646 0.177283 0.301260
Si Si7 0.477447 0.675273 0.340975
O O1 0.828072 0.743953 0.398581
O O2 0.924242 0.808651 0.374446
O O3 0.954099 0.778787 0.560969
O O4 0.885170 0.000000 0.459048
O O5 0.574730 0.273702 0.262589
O O6 0.465355 0.221382 0.247598
O O7 0.528316 0.000000 0.222180
O O8 0.470824 0.199937 0.082453
O O9 0.730312 0.500000 0.069744
O O10 0.651112 0.272377 0.017708
O O11 0.757557 0.273229 0.190093
O O12 0.750000 0.250000 0.000000
O O13 0.110634 0.500000 0.026461
O O14 0.100115 0.269409 0.124017
O O15 0.380329 0.500000 0.792822
O O16 0.300398 0.287576 0.702505
O O17 0.272884 0.000000 0.303695
O O18 0.480327 0.500000 0.319740
#
# Coordination Sequence:
#
# PCOD9225128 Si02
#       7
#     8   8   8   8   8   8   8
#     4   9  19  37  60  83 108 141 180 223 275 330
#     4  11  23  36  55  83 112 144 185 231 276 321
#     4  10  21  35  51  77 112 147 185 226 268 321
#     4  10  21  36  53  78 113 147 183 227 272 322
#     4  10  21  38  57  80 110 148 188 226 271 327
#     4   9  20  36  55  79 108 141 179 223 273 325
#     4   9  20  38  57  82 112 140 179 227 272 329
#
# _framework density 9.9788940000000004
#
# number of rings (size 3 to 8) (size 9 to 14) (size 15 to 20)
#    0.000    2.286    0.000    3.857    2.000    8.571 
#    0.000    2.143    0.000    0.000    0.000    0.000 
#    0.000    0.000    0.000    0.000    0.000    0.000 
#
# Total GULP energy -156130.600173 kJ/mol
# GULP energy per Si atom -5576.092863 kJ/mol
# Density = 0.995618 g / cm^3
# Si number density = 9.978894 Si / 1000 Ang^3
#
#
#
# Elastic Constant Matrix: (Units=GPa)
#
#
# Indices 1 2 3 4 5 6 
#
# 1 9.7963 1.7394 4.7041 0.0000 -0.8666 0.0000
# 2 1.7394 7.8177 12.6829 0.0000 11.9220 0.0000
# 3 4.7041 12.6829 11.2056 0.0000 15.6669 0.0000
# 4 0.0000 0.0000 0.0000 18.7318 0.0000 -7.1840
# 5 -0.8666 11.9220 15.6669 0.0000 23.5963 0.0000
# 6 0.0000 0.0000 0.0000 -7.1840 0.0000 6.1994
#
#
#
# Elastic Compliance Matrix: (Units=1/GPa)
#
#
# Indices 1 2 3 4 5 6 
#
# 1 0.139980 -0.154016 -0.005967 0.000000 0.086919 0.000000
# 2 -0.154016 0.131706 0.230536 0.000000 -0.225266 0.000000
# 3 -0.005967 0.230536 -0.084035 0.000000 -0.060902 0.000000
# 4 0.000000 0.000000 0.000000 0.096092 0.000000 0.111354
# 5 0.086919 -0.225266 -0.060902 0.000000 0.199823 0.000000
# 6 0.000000 0.000000 0.000000 0.111354 0.000000 0.290346
#
#
# Mechanical properties :
#
#
# Convention : Reuss Voigt Hill
#
# Bulk Modulus (GPa) = 3.04175 7.45249 5.24712
# Shear Modulus (GPa) = 6.73498 10.35170 8.54334
#
# Velocity S-wave (km/s) = 1.83900 2.27993 2.07123
# Velocity P-wave (km/s) = 2.45696 3.26695 2.89047
#
# Compressibility (1/GPa) = 0.32875813
#
# Stress axis : x y z
#
# Youngs Moduli (GPa) = 7.14385 7.59264 -11.89979
#
# Poissons Ratio (x) = 1.16939 -0.07101
# Poissons Ratio (y) = 1.10027 2.74333
# Poissons Ratio (z) = 0.04263 -1.75038
#
# Static dielectric constant tensor:
#      x y z
#    x 1.883300 0.000000 -0.084640 
#    y 0.000000 1.663740 0.000000 
#    z -0.084640 0.000000 1.731300 
# 
# From -- ./inp_files/238379.got.cif
#   From: 2010.05.17/outbox.ucp.g08.bks.cvg/sg12_120_cif.got.tgz:238379.got - 2010.06.11 11:47:21.
