data_PCOD9225209
_publ_section_title
;
Structure prediction by ZEFSAII (Michael W. Deem and Ramdas Pophale) SiO2 
 PCOD9225209
Probable space group: C 2/M
;
_chemical_formula_sum "Si O2"
_cell_formula_units_Z 22
_cell_length_a 18.000000
_cell_length_b 18.000000
_cell_length_c 21.000000
_cell_angle_alpha 90.000000
_cell_angle_beta 20.000000
_cell_angle_gamma 90.000000
_cell_volume 2327.105055
_symmetry_space_group_name_H-M "C 2/M"
_symmetry_group_IT_number 12
_symmetry_cell_setting 'monoclinic'
loop_
_space_group_symop_operation_xyz
x,y,z
-x,y,-z
-x,-y,-z
x,-y,z
1/2+x,1/2+y,z
1/2-x,1/2+y,-z
1/2-x,1/2-y,-z
1/2+x,1/2-y,z
loop_
_atom_site_type_symbol
_atom_site_label
_atom_site_fract_x
_atom_site_fract_y
_atom_site_fract_z
Si Si1 0.259975 0.241576 0.803393
Si Si2 0.579583 0.681097 0.637219
Si Si3 0.832948 0.087764 0.938098
Si Si4 0.207236 0.918737 0.879527
Si Si5 0.000000 0.171084 0.500000
Si Si6 0.321180 0.911246 0.335459
O O1 0.357046 0.288473 0.784029
O O2 0.326852 0.155816 0.761350
O O3 0.380846 0.276854 0.646420
O O4 0.000000 0.245341 0.000000
O O5 0.750000 0.750000 0.500000
O O6 0.499485 0.640916 0.766283
O O7 0.699977 0.621430 0.495097
O O8 0.862770 0.000000 0.896803
O O9 0.859980 0.093058 0.992773
O O10 0.579002 0.107818 0.128308
O O11 0.319337 0.000000 0.786190
O O12 0.000000 0.922715 0.000000
O O13 0.816102 0.122373 0.612674
O O14 0.307738 0.000000 0.345811
#
# Coordination Sequence:
#
# PCOD9225209 Si02
#       6
#     8   8   8   8   4   8
#     4  10  21  37  57  82 117 152 190 236 287 345
#     4  11  23  36  57  90 119 149 191 241 289 340
#     4  10  21  39  61  83 114 155 192 233 288 344
#     4   9  19  36  57  79 106 145 192 238 283 336
#     4  10  21  36  57  88 118 150 190 236 289 338
#     4  10  21  38  60  85 117 155 194 234 280 342
#
# _framework density 9.4538060000000002
#
# number of rings (size 3 to 8) (size 9 to 14) (size 15 to 20)
#    0.000    2.000    0.000    3.000    0.000    8.727 
#    0.000    1.364    0.000    8.727    0.000    0.000 
#    0.000    0.000    0.000    0.000    0.000    0.000 
#
# Total GULP energy -122725.998154 kJ/mol
# GULP energy per Si atom -5578.454462 kJ/mol
# Density = 0.943229 g / cm^3
# Si number density = 9.453806 Si / 1000 Ang^3
#
#
#
# Elastic Constant Matrix: (Units=GPa)
#
#
# Indices 1 2 3 4 5 6 
#
# 1 120.0385 50.4450 46.5658 0.0537 2.4230 -0.1447
# 2 50.4450 131.7021 58.0519 -0.1299 17.5636 0.2581
# 3 46.5658 58.0519 81.5646 -0.2153 -7.1266 0.4865
# 4 0.0537 -0.1299 -0.2153 43.4524 -0.0257 -27.0857
# 5 2.4230 17.5636 -7.1266 -0.0257 13.4356 0.1422
# 6 -0.1447 0.2581 0.4865 -27.0857 0.1422 118.3158
#
#
#
# Elastic Compliance Matrix: (Units=1/GPa)
#
#
# Indices 1 2 3 4 5 6 
#
# 1 0.011175 -0.001293 -0.005755 -0.000024 -0.003377 0.000039
# 2 -0.001293 0.019993 -0.016521 -0.000001 -0.034667 0.000064
# 3 -0.005755 -0.016521 0.030706 0.000050 0.038923 -0.000133
# 4 -0.000024 -0.000001 0.000050 0.026844 0.000019 0.006145
# 5 -0.003377 -0.034667 0.038923 0.000019 0.141006 -0.000254
# 6 0.000039 0.000064 -0.000133 0.006145 -0.000254 0.009860
#
#
# Mechanical properties :
#
#
# Convention : Reuss Voigt Hill
#
# Bulk Modulus (GPa) = 67.85993 71.49230 69.67611
# Shear Modulus (GPa) = 17.14481 46.92358 32.03420
#
# Velocity S-wave (km/s) = 3.01453 4.98710 4.12059
# Velocity P-wave (km/s) = 6.93431 8.42941 7.71815
#
# Compressibility (1/GPa) = 0.01473624
#
# Stress axis : x y z
#
# Youngs Moduli (GPa) = 89.48732 50.01647 32.56714
#
# Poissons Ratio (x) = 0.06469 0.18741
# Poissons Ratio (y) = 0.11574 0.53804
# Poissons Ratio (z) = 0.51497 0.82632
#
# Static dielectric constant tensor:
#      x y z
#    x 1.681910 0.000010 -0.020770 
#    y 0.000010 1.679940 0.000020 
#    z -0.020770 0.000020 1.619750 
# 
# From -- ./inp_files/317293.got.cif
#   From: 2010.05.17/outbox.ucp.g08.bks.cvg/sg12_159_cif.got.tgz:317293.got - 2010.06.11 11:47:21.
