data_PCOD9225539
_publ_section_title
;
Structure prediction by ZEFSAII (Michael W. Deem and Ramdas Pophale) SiO2 
 PCOD9225539
Probable space group: C 2/M
;
_chemical_formula_sum "Si O2"
_cell_formula_units_Z 30
_cell_length_a 24.000000
_cell_length_b 27.000000
_cell_length_c 15.000000
_cell_angle_alpha 90.000000
_cell_angle_beta 20.000000
_cell_angle_gamma 90.000000
_cell_volume 3324.435793
_symmetry_space_group_name_H-M "C 2/M"
_symmetry_group_IT_number 12
_symmetry_cell_setting 'monoclinic'
loop_
_space_group_symop_operation_xyz
x,y,z
-x,y,-z
-x,-y,-z
x,-y,z
1/2+x,1/2+y,z
1/2-x,1/2+y,-z
1/2-x,1/2-y,-z
1/2+x,1/2-y,z
loop_
_atom_site_type_symbol
_atom_site_label
_atom_site_fract_x
_atom_site_fract_y
_atom_site_fract_z
Si Si1 0.135962 0.378987 0.221695
Si Si2 0.000000 0.346580 0.000000
Si Si3 0.941814 0.058641 0.686473
Si Si4 0.158082 0.901316 0.516042
Si Si5 0.080143 0.727207 0.720551
Si Si6 0.621906 0.676890 0.023416
Si Si7 0.651828 0.143789 0.475437
Si Si8 0.327760 0.443608 0.310342
O O1 0.000000 0.396982 0.500000
O O2 0.019199 0.365609 0.315852
O O3 0.278290 0.415670 0.972772
O O4 0.237809 0.333279 0.112988
O O5 0.839644 0.380368 0.233312
O O6 0.986722 0.310326 0.104563
O O7 0.000000 0.075755 0.500000
O O8 0.086997 0.070104 0.537830
O O9 0.912541 0.000000 0.725550
O O10 0.148339 0.933465 0.620849
O O11 0.036005 0.855040 0.713316
O O12 0.250000 0.750000 0.500000
O O13 0.130500 0.693694 0.562100
O O14 0.946908 0.768694 0.894634
O O15 0.705427 0.653070 0.810774
O O16 0.705976 0.097715 0.454911
O O17 0.270389 0.500000 0.382042
O O18 0.500000 0.438264 0.000000
#
# Coordination Sequence:
#
# PCOD9225539 Si02
#       8
#     8   4   8   8   8   8   8   8
#     4   9  22  42  64  90 123 163 210 267 314 366
#     4  12  24  36  59  90 124 162 207 250 310 376
#     4  10  23  42  66  90 123 170 213 256 316 380
#     4  11  22  41  60  90 130 163 206 258 313 380
#     4  12  23  37  62  90 121 164 207 252 313 381
#     4  10  21  41  61  86 127 163 202 259 316 371
#     4  11  22  40  64  90 126 159 205 267 310 370
#     4  11  22  38  64  94 124 164 204 255 324 379
#
# _framework density 9.0240880000000008
#
# number of rings (size 3 to 8) (size 9 to 14) (size 15 to 20)
#    0.000    1.333    4.000    1.200    1.867    1.333 
#    0.000    2.667    0.000    0.000    0.000    0.000 
#    0.000    0.000    0.000    0.000    0.000    0.000 
#
# Total GULP energy -167377.762998 kJ/mol
# GULP energy per Si atom -5579.258767 kJ/mol
# Density = 0.900355 g / cm^3
# Si number density = 9.024088 Si / 1000 Ang^3
#
#
#
# Elastic Constant Matrix: (Units=GPa)
#
#
# Indices 1 2 3 4 5 6 
#
# 1 132.2835 46.8351 47.8753 0.0036 -9.5469 -0.0026
# 2 46.8351 81.6722 35.9625 0.0165 -14.7427 -0.0103
# 3 47.8753 35.9625 124.1131 0.0094 -11.9878 0.0040
# 4 0.0036 0.0165 0.0094 31.0271 0.0033 3.3176
# 5 -9.5469 -14.7427 -11.9878 0.0033 27.2740 0.0109
# 6 -0.0026 -0.0103 0.0040 3.3176 0.0109 26.9163
#
#
#
# Elastic Compliance Matrix: (Units=1/GPa)
#
#
# Indices 1 2 3 4 5 6 
#
# 1 0.010146 -0.004713 -0.002560 0.000002 -0.000121 -0.000001
# 2 -0.004713 0.017252 -0.002548 -0.000009 0.006556 0.000005
# 3 -0.002560 -0.002548 0.009987 -0.000001 0.002117 -0.000003
# 4 0.000002 -0.000009 -0.000001 0.032660 -0.000007 -0.004026
# 5 -0.000121 0.006556 0.002117 -0.000007 0.041097 -0.000014
# 6 -0.000001 0.000005 -0.000003 -0.004026 -0.000014 0.037648
#
#
# Mechanical properties :
#
#
# Convention : Reuss Voigt Hill
#
# Bulk Modulus (GPa) = 56.35619 66.60161 61.47890
# Shear Modulus (GPa) = 28.67867 30.86987 29.77427
#
# Velocity S-wave (km/s) = 3.99056 4.14020 4.06607
# Velocity P-wave (km/s) = 7.24748 7.73546 7.49544
#
# Compressibility (1/GPa) = 0.01774428
#
# Stress axis : x y z
#
# Youngs Moduli (GPa) = 98.56312 57.96462 100.12815
#
# Poissons Ratio (x) = 0.27318 0.25630
# Poissons Ratio (y) = 0.46452 0.25509
# Poissons Ratio (z) = 0.25230 0.14768
#
# Static dielectric constant tensor:
#      x y z
#    x 1.659290 0.000000 0.060880 
#    y 0.000000 1.600290 0.000030 
#    z 0.060880 0.000030 1.714660 
# 
# From -- ./inp_files/242339.got.cif
#   From: 2010.05.17/outbox.ucp.g08.bks.cvg/sg12_122_cif.got.tgz:242339.got - 2010.06.11 11:47:21.
