data_PCOD9225743
_publ_section_title
;
Structure prediction by ZEFSAII (Michael W. Deem and Ramdas Pophale) SiO2 
 PCOD9225743
Probable space group: C 2/M
;
_chemical_formula_sum "Si O2"
_cell_formula_units_Z 28
_cell_length_a 12.000000
_cell_length_b 27.000000
_cell_length_c 15.000000
_cell_angle_alpha 90.000000
_cell_angle_beta 40.000000
_cell_angle_gamma 90.000000
_cell_volume 3123.947783
_symmetry_space_group_name_H-M "C 2/M"
_symmetry_group_IT_number 12
_symmetry_cell_setting 'monoclinic'
loop_
_space_group_symop_operation_xyz
x,y,z
-x,y,-z
-x,-y,-z
x,-y,z
1/2+x,1/2+y,z
1/2-x,1/2+y,-z
1/2-x,1/2-y,-z
1/2+x,1/2-y,z
loop_
_atom_site_type_symbol
_atom_site_label
_atom_site_fract_x
_atom_site_fract_y
_atom_site_fract_z
Si Si1 0.805851 0.306473 0.946307
Si Si2 0.724214 0.629569 0.571070
Si Si3 0.798227 0.059726 0.589626
Si Si4 0.551209 0.308922 0.367431
Si Si5 0.078380 0.308362 0.324042
Si Si6 0.900587 0.371408 0.144230
Si Si7 0.442308 0.638315 0.138604
O O1 0.910422 0.308803 0.789388
O O2 0.945664 0.333316 0.922941
O O3 0.750000 0.250000 0.000000
O O4 0.623090 0.335977 0.055389
O O5 0.723239 0.586567 0.494652
O O6 0.596324 0.671578 0.609169
O O7 0.636879 0.612315 0.720330
O O8 0.917109 0.656392 0.456046
O O9 0.670664 0.089393 0.737273
O O10 0.000000 0.064342 0.500000
O O11 0.761781 0.000000 0.608018
O O12 0.500000 0.323239 0.500000
O O13 0.560165 0.249239 0.361213
O O14 0.730325 0.336822 0.232262
O O15 0.273832 0.326607 0.227936
O O16 0.000000 0.397636 0.000000
O O17 0.500000 0.618754 0.000000
#
# Coordination Sequence:
#
# PCOD9225743 Si02
#       7
#     8   8   8   8   8   8   8
#     4  11  21  36  53  86 128 173 207 243 302 372
#     4  12  20  40  61  87 118 163 209 259 311 369
#     4  11  24  45  69  94 122 159 209 268 324 371
#     4  12  21  35  55  91 129 165 207 249 308 379
#     4  11  22  35  56  86 126 171 212 249 296 371
#     4  12  22  38  61  90 129 164 201 258 307 378
#     4  10  23  37  55  85 121 165 204 251 300 360
#
# _framework density 8.9630179999999999
#
# number of rings (size 3 to 8) (size 9 to 14) (size 15 to 20)
#    0.000    0.714    4.286    5.143    0.000    1.429 
#    0.000    0.000    0.000    2.143    0.000    0.000 
#    0.000    0.000    0.000    0.000    0.000    0.000 
#
# Total GULP energy -155872.245290 kJ/mol
# GULP energy per Si atom -5566.865903 kJ/mol
# Density = 0.894262 g / cm^3
# Si number density = 8.963018 Si / 1000 Ang^3
#
#
#
# Elastic Constant Matrix: (Units=GPa)
#
#
# Indices 1 2 3 4 5 6 
#
# 1 72.1823 21.9229 35.1155 0.0000 -15.7755 0.0000
# 2 21.9229 99.5091 36.1768 0.0000 -3.1824 0.0000
# 3 35.1155 36.1768 176.6372 0.0000 8.8753 0.0000
# 4 0.0000 0.0000 0.0000 27.8614 0.0000 0.3813
# 5 -15.7755 -3.1824 8.8753 0.0000 48.5990 0.0000
# 6 0.0000 0.0000 0.0000 0.3813 0.0000 22.9353
#
#
#
# Elastic Compliance Matrix: (Units=1/GPa)
#
#
# Indices 1 2 3 4 5 6 
#
# 1 0.017546 -0.002473 -0.003290 0.000000 0.006134 0.000000
# 2 -0.002473 0.011268 -0.001830 0.000000 0.000269 0.000000
# 3 -0.003290 -0.001830 0.006812 0.000000 -0.002432 0.000000
# 4 0.000000 0.000000 0.000000 0.035900 0.000000 -0.000597
# 5 0.006134 0.000269 -0.002432 0.000000 0.023030 0.000000
# 6 0.000000 0.000000 0.000000 -0.000597 0.000000 0.043611
#
#
# Mechanical properties :
#
#
# Convention : Reuss Voigt Hill
#
# Bulk Modulus (GPa) = 48.92183 59.41768 54.16975
# Shear Modulus (GPa) = 31.21759 36.88670 34.05215
#
# Velocity S-wave (km/s) = 4.17762 4.54113 4.36316
# Velocity P-wave (km/s) = 7.11478 7.79190 7.46103
#
# Compressibility (1/GPa) = 0.02044077
#
# Stress axis : x y z
#
# Youngs Moduli (GPa) = 56.99252 88.74687 146.79440
#
# Poissons Ratio (x) = 0.21950 0.48293
# Poissons Ratio (y) = 0.14096 0.26857
# Poissons Ratio (z) = 0.18750 0.16237
#
# Static dielectric constant tensor:
#      x y z
#    x 1.708590 0.000000 0.077540 
#    y 0.000000 1.603690 0.000000 
#    z 0.077540 0.000000 1.655830 
# 
# From -- ./inp_files/209115.got.cif
#   From: 2010.05.17/outbox.ucp.g08.bks.cvg/sg12_105_cif.got.tgz:209115.got - 2010.06.11 11:47:21.
