data_PCOD9225327
_publ_section_title
;
Structure prediction by ZEFSAII (Michael W. Deem and Ramdas Pophale) SiO2 
 PCOD9225327
Probable space group: C 2/M
;
_chemical_formula_sum "Si O2"
_cell_formula_units_Z 28
_cell_length_a 21.000000
_cell_length_b 21.000000
_cell_length_c 18.000000
_cell_angle_alpha 90.000000
_cell_angle_beta 20.000000
_cell_angle_gamma 90.000000
_cell_volume 2714.955898
_symmetry_space_group_name_H-M "C 2/M"
_symmetry_group_IT_number 12
_symmetry_cell_setting 'monoclinic'
loop_
_space_group_symop_operation_xyz
x,y,z
-x,y,-z
-x,-y,-z
x,-y,z
1/2+x,1/2+y,z
1/2-x,1/2+y,-z
1/2-x,1/2-y,-z
1/2+x,1/2-y,z
loop_
_atom_site_type_symbol
_atom_site_label
_atom_site_fract_x
_atom_site_fract_y
_atom_site_fract_z
Si Si1 0.184070 0.827736 0.890521
Si Si2 0.251403 0.332053 0.353119
Si Si3 0.902995 0.753337 0.766868
Si Si4 0.428449 0.924757 0.707548
Si Si5 0.377997 0.927747 0.928058
Si Si6 0.990364 0.886319 0.598898
Si Si7 0.099927 0.575110 0.817358
O O1 0.218902 0.813995 0.765804
O O2 0.288239 0.774144 0.823015
O O3 0.297839 0.890678 0.790414
O O4 0.963240 0.832992 0.150838
O O5 0.097594 0.286082 0.560173
O O6 0.140226 0.399051 0.473314
O O7 0.963157 0.823558 0.677747
O O8 0.750000 0.750000 0.000000
O O9 0.355099 0.902752 0.869826
O O10 0.418495 0.000000 0.709513
O O11 0.525894 0.895562 0.821375
O O12 0.442060 0.000000 0.844093
O O13 0.188986 0.927227 0.182217
O O14 0.000000 0.874088 0.500000
O O15 0.182001 0.918560 0.411949
O O16 0.049981 0.500000 0.869893
O O17 0.000000 0.603143 0.000000
#
# Coordination Sequence:
#
# PCOD9225327 Si02
#       7
#     8   8   8   8   8   8   8
#     4  10  22  42  64  86 120 159 199 246 307 360
#     4  10  22  42  64  87 118 163 197 246 309 361
#     4  11  24  41  60  86 120 156 199 253 305 358
#     4  10  21  38  62  92 124 154 197 248 297 364
#     4  10  22  38  56  85 123 160 193 239 301 354
#     4  12  22  35  61  89 111 153 207 250 287 351
#     4  10  21  38  57  84 123 159 193 242 298 351
#
# _framework density 10.313243
#
# number of rings (size 3 to 8) (size 9 to 14) (size 15 to 20)
#    0.000    1.571    1.429    4.714    0.000    6.286 
#    2.571    4.286    0.000    0.000    0.000    0.000 
#    0.000    0.000    0.000    0.000    0.000    0.000 
#
# Total GULP energy -156158.460105 kJ/mol
# GULP energy per Si atom -5577.087861 kJ/mol
# Density = 1.028977 g / cm^3
# Si number density = 10.313243 Si / 1000 Ang^3
#
#
#
# Elastic Constant Matrix: (Units=GPa)
#
#
# Indices 1 2 3 4 5 6 
#
# 1 16.9127 -7.6585 0.6197 -0.0080 -6.9644 0.0033
# 2 -7.6585 50.4061 -8.9377 -0.0166 0.7780 0.0011
# 3 0.6197 -8.9377 110.2330 0.0050 -10.6534 -0.0032
# 4 -0.0080 -0.0166 0.0050 22.7638 0.0057 7.3559
# 5 -6.9644 0.7780 -10.6534 0.0057 45.4651 -0.0049
# 6 0.0033 0.0011 -0.0032 7.3559 -0.0049 9.3494
#
#
#
# Elastic Compliance Matrix: (Units=1/GPa)
#
#
# Indices 1 2 3 4 5 6 
#
# 1 0.068180 0.010459 0.001491 0.000047 0.010614 -0.000056
# 2 0.010459 0.021733 0.001864 0.000027 0.001667 -0.000026
# 3 0.001491 0.001864 0.009447 -0.000003 0.002410 0.000006
# 4 0.000047 0.000027 -0.000003 0.058906 -0.000006 -0.046346
# 5 0.010614 0.001667 0.002410 -0.000006 0.024157 0.000015
# 6 -0.000056 -0.000026 0.000006 -0.046346 0.000015 0.143422
#
#
# Mechanical properties :
#
#
# Convention : Reuss Voigt Hill
#
# Bulk Modulus (GPa) = 7.87470 16.17764 12.02617
# Shear Modulus (GPa) = 14.68232 28.41755 21.54993
#
# Velocity S-wave (km/s) = 2.67089 3.71579 3.23580
# Velocity P-wave (km/s) = 3.65206 5.12539 4.45013
#
# Compressibility (1/GPa) = 0.12698894
#
# Stress axis : x y z
#
# Youngs Moduli (GPa) = 14.66711 46.01316 105.84914
#
# Poissons Ratio (x) = -0.48127 -0.15778
# Poissons Ratio (y) = -0.15341 -0.19735
# Poissons Ratio (z) = -0.02186 -0.08579
#
# Static dielectric constant tensor:
#      x y z
#    x 1.786780 -0.000010 0.029410 
#    y -0.000010 1.795720 -0.000010 
#    z 0.029410 -0.000010 1.709960 
# 
# From -- ./inp_files/285987.got.cif
#   From: 2010.05.17/outbox.ucp.g08.bks.cvg/sg12_143_cif.got.tgz:285987.got - 2010.06.11 11:47:21.
