data_PCOD9225216
_publ_section_title
;
Structure prediction by ZEFSAII (Michael W. Deem and Ramdas Pophale) SiO2 
 PCOD9225216
Probable space group: C 2/M
;
_chemical_formula_sum "Si O2"
_cell_formula_units_Z 32
_cell_length_a 24.000000
_cell_length_b 9.000000
_cell_length_c 15.000000
_cell_angle_alpha 90.000000
_cell_angle_beta 90.000000
_cell_angle_gamma 90.000000
_cell_volume 3240.000000
_symmetry_space_group_name_H-M "C 2/M"
_symmetry_group_IT_number 12
_symmetry_cell_setting 'monoclinic'
loop_
_space_group_symop_operation_xyz
x,y,z
-x,y,-z
-x,-y,-z
x,-y,z
1/2+x,1/2+y,z
1/2-x,1/2+y,-z
1/2-x,1/2-y,-z
1/2+x,1/2-y,z
loop_
_atom_site_type_symbol
_atom_site_label
_atom_site_fract_x
_atom_site_fract_y
_atom_site_fract_z
Si Si1 0.782960 0.174787 0.629918
Si Si2 0.809181 0.329671 0.806952
Si Si3 0.710246 0.671688 0.929397
Si Si4 0.589443 0.675304 0.120760
Si Si5 0.168808 0.677754 0.545723
Si Si6 0.415802 0.678770 0.080309
Si Si7 0.959158 0.319331 0.420957
Si Si8 0.504373 0.822386 0.774617
O O1 0.810570 0.267486 0.708240
O O2 0.810273 0.228888 0.538321
O O3 0.716293 0.201035 0.620630
O O4 0.791672 0.000000 0.644141
O O5 0.827908 0.500000 0.813571
O O6 0.745628 0.322907 0.839168
O O7 0.847406 0.229149 0.870003
O O8 0.703872 0.500000 0.957348
O O9 0.648395 0.730539 0.915364
O O10 0.750000 0.750000 0.000000
O O11 0.585283 0.500000 0.134489
O O12 0.555036 0.762419 0.194380
O O13 0.566933 0.708428 0.021872
O O14 0.169899 0.500000 0.525290
O O15 0.105736 0.720763 0.568458
O O16 0.418677 0.500000 0.093731
O O17 0.452377 0.758032 0.153856
O O18 0.960762 0.500000 0.422273
O O19 0.980900 0.271016 0.324646
O O20 0.000000 0.267444 0.500000
O O21 0.505390 0.000000 0.776875
#
# Coordination Sequence:
#
# PCOD9225216 Si02
#       8
#     8   8   8   8   8   8   8   8
#     4  10  21  36  58  89 121 153 194 243 299 358
#     4  11  23  37  59  89 120 157 200 244 297 357
#     4  10  21  38  59  86 119 156 197 240 295 352
#     4  11  23  41  63  86 121 162 202 250 306 357
#     4   9  19  38  62  85 115 155 198 242 296 357
#     4  10  22  41  62  86 121 164 199 242 306 363
#     4   9  20  39  61  86 117 156 197 244 301 353
#     4  11  24  39  62  93 119 155 207 253 297 354
#
# _framework density 9.8765429999999999
#
# number of rings (size 3 to 8) (size 9 to 14) (size 15 to 20)
#    0.000    1.875    1.250    1.875    3.500    4.000 
#    0.000    1.250    0.000    1.875    0.000    0.000 
#    0.000    0.000    0.000    0.000    0.000    0.000 
#
# Total GULP energy -178600.420500 kJ/mol
# GULP energy per Si atom -5581.263141 kJ/mol
# Density = 0.985406 g / cm^3
# Si number density = 9.876543 Si / 1000 Ang^3
#
#
#
# Elastic Constant Matrix: (Units=GPa)
#
#
# Indices 1 2 3 4 5 6 
#
# 1 97.3446 8.6031 25.8374 0.0000 -16.9836 0.0000
# 2 8.6031 10.6350 23.0676 0.0000 -6.5868 0.0000
# 3 25.8374 23.0676 86.5060 0.0000 -3.6302 0.0000
# 4 0.0000 0.0000 0.0000 20.3015 0.0000 1.4440
# 5 -16.9836 -6.5868 -3.6302 0.0000 18.4544 0.0000
# 6 0.0000 0.0000 0.0000 1.4440 0.0000 28.1028
#
#
#
# Elastic Compliance Matrix: (Units=1/GPa)
#
#
# Indices 1 2 3 4 5 6 
#
# 1 0.013855 0.015909 -0.007670 0.000000 0.016920 0.000000
# 2 0.015909 0.380745 -0.100796 0.000000 0.130710 0.000000
# 3 -0.007670 -0.100796 0.039247 0.000000 -0.035315 0.000000
# 4 0.000000 0.000000 0.000000 0.049438 0.000000 -0.002540
# 5 0.016920 0.130710 -0.035315 0.000000 0.109466 0.000000
# 6 0.000000 0.000000 0.000000 -0.002540 0.000000 0.035714
#
#
# Mechanical properties :
#
#
# Convention : Reuss Voigt Hill
#
# Bulk Modulus (GPa) = 4.02038 34.38912 19.20475
# Shear Modulus (GPa) = 5.57731 22.50356 14.04044
#
# Velocity S-wave (km/s) = 1.68215 3.37893 2.66897
# Velocity P-wave (km/s) = 2.41093 5.71578 4.38650
#
# Compressibility (1/GPa) = 0.24873251
#
# Stress axis : x y z
#
# Youngs Moduli (GPa) = 72.17807 2.62643 25.47972
#
# Poissons Ratio (x) = -0.04178 0.19544
# Poissons Ratio (y) = -1.14825 2.56824
# Poissons Ratio (z) = 0.55362 0.26473
#
# Static dielectric constant tensor:
#      x y z
#    x 1.710510 0.000000 -0.013710 
#    y 0.000000 1.666880 0.000000 
#    z -0.013710 0.000000 1.689840 
# 
# From -- ./inp_files/238804.got.cif
#   From: 2010.05.17/outbox.ucp.g08.bks.cvg/sg12_120_cif.got.tgz:238804.got - 2010.06.11 11:47:21.
