data_PCOD9225737
_publ_section_title
;
Structure prediction by ZEFSAII (Michael W. Deem and Ramdas Pophale) SiO2 
 PCOD9225737
Probable space group: C 2/M
;
_chemical_formula_sum "Si O2"
_cell_formula_units_Z 28
_cell_length_a 18.000000
_cell_length_b 21.000000
_cell_length_c 9.000000
_cell_angle_alpha 90.000000
_cell_angle_beta 60.000000
_cell_angle_gamma 90.000000
_cell_volume 2946.218424
_symmetry_space_group_name_H-M "C 2/M"
_symmetry_group_IT_number 12
_symmetry_cell_setting 'monoclinic'
loop_
_space_group_symop_operation_xyz
x,y,z
-x,y,-z
-x,-y,-z
x,-y,z
1/2+x,1/2+y,z
1/2-x,1/2+y,-z
1/2-x,1/2-y,-z
1/2+x,1/2-y,z
loop_
_atom_site_type_symbol
_atom_site_label
_atom_site_fract_x
_atom_site_fract_y
_atom_site_fract_z
Si Si1 0.193750 0.810796 0.609910
Si Si2 0.756909 0.188340 0.106084
Si Si3 0.917083 0.426744 0.977862
Si Si4 0.640951 0.577365 0.161646
Si Si5 0.436737 0.179335 0.703513
Si Si6 0.251550 0.574797 0.652826
Si Si7 0.999512 0.817880 0.321989
O O1 0.250000 0.750000 0.500000
O O2 0.190550 0.805592 0.792797
O O3 0.235818 0.874744 0.493316
O O4 0.096353 0.812803 0.645621
O O5 0.659838 0.180821 0.259323
O O6 0.750000 0.250000 0.000000
O O7 0.790200 0.123630 0.991693
O O8 0.903902 0.500000 0.935833
O O9 0.934985 0.376143 0.829329
O O10 0.834118 0.411149 0.163552
O O11 0.000000 0.426682 0.000000
O O12 0.638684 0.500000 0.126756
O O13 0.670521 0.580313 0.305258
O O14 0.553469 0.618592 0.222984
O O15 0.500000 0.169178 0.500000
O O16 0.456137 0.249155 0.755719
O O17 0.246933 0.500000 0.610219
O O18 0.000000 0.819989 0.500000
#
# Coordination Sequence:
#
# PCOD9225737 Si02
#       7
#     8   8   8   8   8   8   8
#     4  12  26  41  70 100 133 178 234 284 347 411
#     4  12  25  45  67  95 140 181 226 287 348 420
#     4  10  23  41  65  96 132 175 228 284 344 415
#     4  11  23  44  72  98 134 187 227 278 357 430
#     4  11  24  40  66  96 135 175 222 282 342 409
#     4  10  22  43  69  99 136 183 230 280 350 420
#     4  11  23  42  65 101 135 171 230 287 341 413
#
# _framework density 9.5037079999999996
#
# number of rings (size 3 to 8) (size 9 to 14) (size 15 to 20)
#    0.000    1.000    4.286    2.571    4.000    2.286 
#    0.000    0.714    0.000    0.000    0.000    0.000 
#    0.000    0.000    0.000    0.000    0.000    0.000 
#
# Total GULP energy -156206.214939 kJ/mol
# GULP energy per Si atom -5578.793391 kJ/mol
# Density = 0.948208 g / cm^3
# Si number density = 9.503708 Si / 1000 Ang^3
#
#
#
# Elastic Constant Matrix: (Units=GPa)
#
#
# Indices 1 2 3 4 5 6 
#
# 1 133.2156 38.4309 38.0250 0.0000 -8.7175 0.0000
# 2 38.4309 177.0862 61.2425 0.0000 -0.0776 0.0000
# 3 38.0250 61.2425 88.2529 0.0000 1.6922 0.0000
# 4 0.0000 0.0000 0.0000 47.1669 0.0000 -1.9416
# 5 -8.7175 -0.0776 1.6922 0.0000 41.6548 0.0000
# 6 0.0000 0.0000 0.0000 -1.9416 0.0000 31.5143
#
#
#
# Elastic Compliance Matrix: (Units=1/GPa)
#
#
# Indices 1 2 3 4 5 6 
#
# 1 0.008798 -0.000769 -0.003295 0.000000 0.001974 0.000000
# 2 -0.000769 0.007499 -0.004874 0.000000 0.000051 0.000000
# 3 -0.003295 -0.004874 0.016159 0.000000 -0.001355 0.000000
# 4 0.000000 0.000000 0.000000 0.021255 0.000000 0.001310
# 5 0.001974 0.000051 -0.001355 0.000000 0.024475 0.000000
# 6 0.000000 0.000000 0.000000 0.001310 0.000000 0.031812
#
#
# Mechanical properties :
#
#
# Convention : Reuss Voigt Hill
#
# Bulk Modulus (GPa) = 68.58314 74.88351 71.73332
# Shear Modulus (GPa) = 37.66904 41.45762 39.56333
#
# Velocity S-wave (km/s) = 4.45658 4.67532 4.56726
# Velocity P-wave (km/s) = 7.91468 8.28416 8.10153
#
# Compressibility (1/GPa) = 0.01458084
#
# Stress axis : x y z
#
# Youngs Moduli (GPa) = 113.66019 133.34402 61.88528
#
# Poissons Ratio (x) = 0.10253 0.20392
# Poissons Ratio (y) = 0.08740 0.30162
# Poissons Ratio (z) = 0.37452 0.64989
#
# Static dielectric constant tensor:
#      x y z
#    x 1.692090 0.000000 -0.024170 
#    y 0.000000 1.675120 0.000000 
#    z -0.024170 0.000000 1.670410 
# 
# From -- ./inp_files/77364.got.cif
#   From: 2010.05.17/outbox.ucp.g08.bks.cvg/sg12_39_cif.got.tgz:77364.got - 2010.06.11 11:47:21.
