data_PCOD9225051
_publ_section_title
;
Structure prediction by ZEFSAII (Michael W. Deem and Ramdas Pophale) SiO2 
 PCOD9225051
Probable space group: C 2/M
;
_chemical_formula_sum "Si O2"
_cell_formula_units_Z 32
_cell_length_a 15.000000
_cell_length_b 18.000000
_cell_length_c 15.000000
_cell_angle_alpha 90.000000
_cell_angle_beta 50.000000
_cell_angle_gamma 90.000000
_cell_volume 3102.479995
_symmetry_space_group_name_H-M "C 2/M"
_symmetry_group_IT_number 12
_symmetry_cell_setting 'monoclinic'
loop_
_space_group_symop_operation_xyz
x,y,z
-x,y,-z
-x,-y,-z
x,-y,z
1/2+x,1/2+y,z
1/2-x,1/2+y,-z
1/2-x,1/2-y,-z
1/2+x,1/2-y,z
loop_
_atom_site_type_symbol
_atom_site_label
_atom_site_fract_x
_atom_site_fract_y
_atom_site_fract_z
Si Si1 0.776872 0.780936 0.257377
Si Si2 0.388273 0.305971 0.740006
Si Si3 0.870007 0.274457 0.468061
Si Si4 0.517850 0.154198 0.881806
Si Si5 0.137913 0.917885 0.397082
Si Si6 0.138648 0.913356 0.898864
Si Si7 0.745635 0.661621 0.005304
Si Si8 0.855989 0.415409 0.362840
O O1 0.702240 0.760823 0.217307
O O2 0.677375 0.776946 0.399336
O O3 0.822643 0.863490 0.210141
O O4 0.893666 0.727249 0.188500
O O5 0.519345 0.277631 0.631664
O O6 0.342421 0.359934 0.692165
O O7 0.353953 0.347672 0.853015
O O8 0.750000 0.250000 0.500000
O O9 0.898133 0.354904 0.407030
O O10 0.584260 0.098066 0.772160
O O11 0.500000 0.144102 0.000000
O O12 0.382985 0.147806 0.936601
O O13 0.217992 0.902540 0.431072
O O14 0.000000 0.917024 0.500000
O O15 0.171809 0.000000 0.345383
O O16 0.164861 0.000000 0.869676
O O17 0.200593 0.882887 0.948636
O O18 0.000000 0.903999 0.000000
O O19 0.750000 0.750000 0.000000
O O20 0.873298 0.500000 0.380367
#
# Coordination Sequence:
#
# PCOD9225051 Si02
#       8
#     8   8   8   8   8   8   8   8
#     4  12  23  42  72  97 137 183 225 289 345 411
#     4  12  23  41  68 102 133 171 235 283 343 413
#     4  12  25  40  67 102 134 178 235 286 337 414
#     4  12  22  42  69 106 136 176 230 283 353 414
#     4  10  20  39  63  92 134 173 213 278 350 409
#     4  11  27  48  68 100 143 186 236 289 343 411
#     4  12  23  41  72  99 133 179 228 284 338 408
#     4  11  24  42  63  97 142 180 222 287 354 414
#
# _framework density 10.314329000000001
#
# number of rings (size 3 to 8) (size 9 to 14) (size 15 to 20)
#    0.000    0.500    5.000    3.750    1.750    1.750 
#    0.000    0.000    0.000    1.500    0.000    0.000 
#    0.000    0.000    0.000    0.000    0.000    0.000 
#
# Total GULP energy -178210.042402 kJ/mol
# GULP energy per Si atom -5569.063825 kJ/mol
# Density = 1.029085 g / cm^3
# Si number density = 10.314329 Si / 1000 Ang^3
#
#
#
# Elastic Constant Matrix: (Units=GPa)
#
#
# Indices 1 2 3 4 5 6 
#
# 1 100.0562 19.2650 21.2490 0.0000 -23.1734 0.0000
# 2 19.2650 89.6642 23.9110 0.0000 -1.4626 0.0000
# 3 21.2490 23.9110 117.3519 0.0000 -8.8035 0.0000
# 4 0.0000 0.0000 0.0000 25.8085 0.0000 -1.0912
# 5 -23.1734 -1.4626 -8.8035 0.0000 38.6074 0.0000
# 6 0.0000 0.0000 0.0000 -1.0912 0.0000 31.3296
#
#
#
# Elastic Compliance Matrix: (Units=1/GPa)
#
#
# Indices 1 2 3 4 5 6 
#
# 1 0.012309 -0.002196 -0.001255 0.000000 0.007019 0.000000
# 2 -0.002196 0.012186 -0.002187 0.000000 -0.001355 0.000000
# 3 -0.001255 -0.002187 0.009290 0.000000 0.001282 0.000000
# 4 0.000000 0.000000 0.000000 0.038804 0.000000 0.001352
# 5 0.007019 -0.001355 0.001282 0.000000 0.030356 0.000000
# 6 0.000000 0.000000 0.000000 0.001352 0.000000 0.031966
#
#
# Mechanical properties :
#
#
# Convention : Reuss Voigt Hill
#
# Bulk Modulus (GPa) = 44.42409 48.43583 46.42996
# Shear Modulus (GPa) = 32.53315 35.32559 33.92937
#
# Velocity S-wave (km/s) = 3.97556 4.14267 4.05997
# Velocity P-wave (km/s) = 6.53110 6.81272 6.67340
#
# Compressibility (1/GPa) = 0.02251031
#
# Stress axis : x y z
#
# Youngs Moduli (GPa) = 81.23944 82.06434 107.63782
#
# Poissons Ratio (x) = 0.18018 0.13508
# Poissons Ratio (y) = 0.17837 0.23540
# Poissons Ratio (z) = 0.10195 0.17947
#
# Static dielectric constant tensor:
#      x y z
#    x 1.754430 0.000000 0.083930 
#    y 0.000000 1.903750 0.000000 
#    z 0.083930 0.000000 1.782630 
# 
# From -- ./inp_files/216783.got.cif
#   From: 2010.05.17/outbox.ucp.g08.bks.cvg/sg12_109_cif.got.tgz:216783.got - 2010.06.11 11:47:21.
