data_PCOD9225019
_publ_section_title
;
Structure prediction by ZEFSAII (Michael W. Deem and Ramdas Pophale) SiO2 
 PCOD9225019
Probable space group: C 2/M
;
_chemical_formula_sum "Si O2"
_cell_formula_units_Z 32
_cell_length_a 21.000000
_cell_length_b 18.000000
_cell_length_c 24.000000
_cell_angle_alpha 90.000000
_cell_angle_beta 20.000000
_cell_angle_gamma 90.000000
_cell_volume 3102.806740
_symmetry_space_group_name_H-M "C 2/M"
_symmetry_group_IT_number 12
_symmetry_cell_setting 'monoclinic'
loop_
_space_group_symop_operation_xyz
x,y,z
-x,y,-z
-x,-y,-z
x,-y,z
1/2+x,1/2+y,z
1/2-x,1/2+y,-z
1/2-x,1/2-y,-z
1/2+x,1/2-y,z
loop_
_atom_site_type_symbol
_atom_site_label
_atom_site_fract_x
_atom_site_fract_y
_atom_site_fract_z
Si Si1 0.581998 0.650280 0.103886
Si Si2 0.896134 0.671406 0.930534
Si Si3 0.091299 0.688588 0.368071
Si Si4 0.295353 0.160562 0.524666
Si Si5 0.812639 0.683041 0.128113
Si Si6 0.047167 0.087123 0.398304
Si Si7 0.574305 0.584134 0.875821
Si Si8 0.754816 0.339611 0.429147
O O1 0.596462 0.738990 0.082265
O O2 0.394922 0.631751 0.291594
O O3 0.567853 0.613142 0.054752
O O4 0.749504 0.635168 0.008468
O O5 0.092773 0.645272 0.744220
O O6 0.839413 0.662487 0.041575
O O7 0.169186 0.752442 0.263429
O O8 0.250447 0.638012 0.264094
O O9 0.000000 0.720596 0.500000
O O10 0.956706 0.643298 0.436785
O O11 0.276015 0.250728 0.541790
O O12 0.312109 0.138255 0.445567
O O13 0.754145 0.612164 0.212509
O O14 0.000000 0.714337 0.000000
O O15 0.000000 0.112300 0.500000
O O16 0.926464 0.121701 0.447044
O O17 0.020577 0.000000 0.418894
O O18 0.626496 0.500000 0.818156
O O19 0.500000 0.584144 0.000000
#
# Coordination Sequence:
#
# PCOD9225019 Si02
#       8
#     8   8   8   8   8   8   8   8
#     4  10  20  39  57  92 127 163 207 259 312 365
#     4  10  22  35  65  94 125 157 209 263 313 368
#     4  12  23  39  65  97 126 164 215 263 304 366
#     4  10  21  36  64  92 127 161 207 260 307 362
#     4  12  24  38  65  98 127 163 203 259 318 378
#     4  11  24  43  66  91 126 166 208 258 315 377
#     4  11  25  43  62  88 131 173 210 257 316 376
#     4  10  21  40  62  94 127 161 203 260 312 368
#
# _framework density 10.313243
#
# number of rings (size 3 to 8) (size 9 to 14) (size 15 to 20)
#    0.000    1.250    2.500    3.750    8.750    0.500 
#    0.000    4.375    0.000    0.000    0.000    0.000 
#    0.000    0.000    0.000    0.000    0.000    0.000 
#
# Total GULP energy -178415.295779 kJ/mol
# GULP energy per Si atom -5575.477993 kJ/mol
# Density = 1.028977 g / cm^3
# Si number density = 10.313243 Si / 1000 Ang^3
#
#
#
# Elastic Constant Matrix: (Units=GPa)
#
#
# Indices 1 2 3 4 5 6 
#
# 1 122.1990 20.3722 36.8085 0.0026 19.3921 -0.0076
# 2 20.3722 51.0412 15.1937 -0.0253 -0.1208 0.0492
# 3 36.8085 15.1937 77.2286 -0.0192 15.5097 0.0268
# 4 0.0026 -0.0253 -0.0192 2.8381 -0.0029 16.5463
# 5 19.3921 -0.1208 15.5097 -0.0029 43.3635 0.0057
# 6 -0.0076 0.0492 0.0268 16.5463 0.0057 -13.5058
#
#
#
# Elastic Compliance Matrix: (Units=1/GPa)
#
#
# Indices 1 2 3 4 5 6 
#
# 1 0.010316 -0.003038 -0.003654 0.000010 -0.003315 -0.000013
# 2 -0.003038 0.021814 -0.003371 -0.000032 0.002625 0.000036
# 3 -0.003654 -0.003371 0.016190 -0.000005 -0.004166 0.000014
# 4 0.000010 -0.000032 -0.000005 0.043273 -0.000007 0.053014
# 5 -0.003315 0.002625 -0.004166 -0.000007 0.026041 0.000005
# 6 -0.000013 0.000036 0.000014 0.053014 0.000005 -0.009093
#
#
# Mechanical properties :
#
#
# Convention : Reuss Voigt Hill
#
# Bulk Modulus (GPa) = 35.46648 43.91306 39.68977
# Shear Modulus (GPa) = 36.21507 18.41209 27.31358
#
# Velocity S-wave (km/s) = 4.19472 2.99095 3.64290
# Velocity P-wave (km/s) = 6.37910 5.76746 6.08097
#
# Compressibility (1/GPa) = 0.02819564
#
# Stress axis : x y z
#
# Youngs Moduli (GPa) = 96.93265 45.84182 61.76740
#
# Poissons Ratio (x) = 0.13926 0.22567
# Poissons Ratio (y) = 0.29447 0.20821
# Poissons Ratio (z) = 0.35415 0.15453
#
# Static dielectric constant tensor:
#      x y z
#    x 1.805050 0.000020 -0.128920 
#    y 0.000020 1.743640 0.000000 
#    z -0.128920 0.000000 1.946460 
# 
# From -- ./inp_files/347870.got.cif
#   From: 2010.05.17/outbox.ucp.g08.bks.cvg/sg12_174_cif.got.tgz:347870.got - 2010.06.11 11:47:21.
