data_PCOD9225502
_publ_section_title
;
Structure prediction by ZEFSAII (Michael W. Deem and Ramdas Pophale) SiO2 
 PCOD9225502
Probable space group: C 2/M
;
_chemical_formula_sum "Si O2"
_cell_formula_units_Z 28
_cell_length_a 18.000000
_cell_length_b 9.000000
_cell_length_c 18.000000
_cell_angle_alpha 90.000000
_cell_angle_beta 110.000000
_cell_angle_gamma 90.000000
_cell_volume 2740.143682
_symmetry_space_group_name_H-M "C 2/M"
_symmetry_group_IT_number 12
_symmetry_cell_setting 'monoclinic'
loop_
_space_group_symop_operation_xyz
x,y,z
-x,y,-z
-x,-y,-z
x,-y,z
1/2+x,1/2+y,z
1/2-x,1/2+y,-z
1/2-x,1/2-y,-z
1/2+x,1/2-y,z
loop_
_atom_site_type_symbol
_atom_site_label
_atom_site_fract_x
_atom_site_fract_y
_atom_site_fract_z
Si Si1 0.830091 0.169790 0.005477
Si Si2 0.249661 0.828065 0.718225
Si Si3 0.890503 0.332013 0.883400
Si Si4 0.092426 0.333149 0.700194
Si Si5 0.469200 0.327248 0.569070
Si Si6 0.812848 0.677039 0.576095
Si Si7 0.554535 0.167450 0.859113
O O1 0.888890 0.205892 0.092039
O O2 0.812051 0.000000 0.989460
O O3 0.750000 0.250000 0.000000
O O4 0.873030 0.229301 0.946793
O O5 0.317198 0.826116 0.802927
O O6 0.182665 0.713911 0.720152
O O7 0.287724 0.787891 0.651871
O O8 0.220391 0.000000 0.702424
O O9 0.898409 0.500000 0.915022
O O10 0.968295 0.301349 0.862129
O O11 0.078957 0.500000 0.664391
O O12 0.062548 0.337024 0.774043
O O13 0.043644 0.203085 0.645596
O O14 0.500000 0.272758 0.500000
O O15 0.447412 0.500000 0.554906
O O16 0.397197 0.238787 0.580058
O O17 0.812488 0.500000 0.568691
O O18 0.750000 0.750000 0.500000
O O19 0.577811 0.000000 0.893291
#
# Coordination Sequence:
#
# PCOD9225502 Si02
#       7
#     8   8   8   8   8   8   8
#     4  12  25  40  60  88 120 155 198 245 293 348
#     4  10  22  40  61  87 120 157 196 240 293 352
#     4  10  21  40  64  87 117 157 195 238 295 351
#     4  11  23  39  62  91 120 154 198 245 292 347
#     4  11  24  41  61  87 120 158 199 244 296 353
#     4  11  23  40  62  89 121 157 200 246 294 352
#     4  10  22  41  63  89 121 156 195 240 294 354
#
# _framework density 10.218442
#
# number of rings (size 3 to 8) (size 9 to 14) (size 15 to 20)
#    0.000    1.286    0.000    5.571    0.000   14.286 
#    0.000    1.429    0.000    0.000    0.000    0.000 
#    0.000    0.000    0.000    0.000    0.000    0.000 
#
# Total GULP energy -156348.140471 kJ/mol
# GULP energy per Si atom -5583.862160 kJ/mol
# Density = 1.019518 g / cm^3
# Si number density = 10.218442 Si / 1000 Ang^3
#
#
#
# Elastic Constant Matrix: (Units=GPa)
#
#
# Indices 1 2 3 4 5 6 
#
# 1 80.7194 27.1362 -12.2091 0.0000 -2.3015 0.0000
# 2 27.1362 44.3146 -1.4644 0.0000 -10.3410 0.0000
# 3 -12.2091 -1.4644 42.6229 0.0000 -11.3922 0.0000
# 4 0.0000 0.0000 0.0000 207.0708 0.0000 -241.1121
# 5 -2.3015 -10.3410 -11.3922 0.0000 27.8451 0.0000
# 6 0.0000 0.0000 0.0000 -241.1121 0.0000 354.2731
#
#
#
# Elastic Compliance Matrix: (Units=1/GPa)
#
#
# Indices 1 2 3 4 5 6 
#
# 1 0.016378 -0.010048 0.004166 0.000000 -0.000674 0.000000
# 2 -0.010048 0.031405 0.001231 0.000000 0.011336 0.000000
# 3 0.004166 0.001231 0.027970 0.000000 0.012245 0.000000
# 4 0.000000 0.000000 0.000000 0.023270 0.000000 0.015837
# 5 -0.000674 0.011336 0.012245 0.000000 0.045077 0.000000
# 6 0.000000 0.000000 0.000000 0.015837 0.000000 0.013601
#
#
# Mechanical properties :
#
#
# Convention : Reuss Voigt Hill
#
# Bulk Modulus (GPa) = 15.04915 21.62024 18.33470
# Shear Modulus (GPa) = 26.43356 128.11742 77.27549
#
# Velocity S-wave (km/s) = 3.60032 7.92625 6.15580
# Velocity P-wave (km/s) = 4.96617 9.71438 7.71466
#
# Compressibility (1/GPa) = 0.06644893
#
# Stress axis : x y z
#
# Youngs Moduli (GPa) = 61.05920 31.84202 35.75275
#
# Poissons Ratio (x) = 0.31996 -0.14895
# Poissons Ratio (y) = 0.61354 -0.04400
# Poissons Ratio (z) = -0.25437 -0.03918
#
# Static dielectric constant tensor:
#      x y z
#    x 1.634520 0.000000 0.052000 
#    y 0.000000 1.680420 0.000000 
#    z 0.052000 0.000000 1.728700 
# 
# From -- ./inp_files/275608.got.cif
#   From: 2010.05.17/outbox.ucp.g08.bks.cvg/sg12_138_cif.got.tgz:275608.got - 2010.06.11 11:47:21.
