data_PCOD9225008
_publ_section_title
;
Structure prediction by ZEFSAII (Michael W. Deem and Ramdas Pophale) SiO2 
 PCOD9225008
Probable space group: C 2/M
;
_chemical_formula_sum "Si O2"
_cell_formula_units_Z 32
_cell_length_a 12.000000
_cell_length_b 15.000000
_cell_length_c 18.000000
_cell_angle_alpha 90.000000
_cell_angle_beta 90.000000
_cell_angle_gamma 90.000000
_cell_volume 3240.000000
_symmetry_space_group_name_H-M "C 2/M"
_symmetry_group_IT_number 12
_symmetry_cell_setting 'monoclinic'
loop_
_space_group_symop_operation_xyz
x,y,z
-x,y,-z
-x,-y,-z
x,-y,z
1/2+x,1/2+y,z
1/2-x,1/2+y,-z
1/2-x,1/2-y,-z
1/2+x,1/2-y,z
loop_
_atom_site_type_symbol
_atom_site_label
_atom_site_fract_x
_atom_site_fract_y
_atom_site_fract_z
Si Si1 0.655067 0.353469 0.597838
Si Si2 0.317186 0.404569 0.568792
Si Si3 0.785729 0.603010 0.884443
Si Si4 0.874406 0.729454 0.660168
Si Si5 0.895675 0.774295 0.829114
Si Si6 0.412848 0.398762 0.234130
Si Si7 0.373077 0.606836 0.972109
Si Si8 0.432364 0.841461 0.425391
O O1 0.658399 0.405445 0.519855
O O2 0.779327 0.332013 0.625080
O O3 0.599975 0.384582 0.676325
O O4 0.607640 0.260088 0.568436
O O5 0.355478 0.500000 0.599664
O O6 0.372190 0.320304 0.610600
O O7 0.183158 0.394851 0.580701
O O8 0.824813 0.500000 0.891555
O O9 0.880484 0.676832 0.867413
O O10 0.701672 0.605070 0.813326
O O11 0.713006 0.624651 0.959282
O O12 0.847342 0.757862 0.745001
O O13 0.985869 0.670563 0.645832
O O14 0.849920 0.839829 0.895016
O O15 0.010332 0.823007 0.803685
O O16 0.457226 0.500000 0.222488
O O17 0.370112 0.500000 0.958552
O O18 0.500000 0.628364 0.000000
O O19 0.500000 0.867345 0.500000
#
# Coordination Sequence:
#
# PCOD9225008 Si02
#       8
#     8   8   8   8   8   8   8   8
#     4  11  20  38  60  82 116 158 202 250 298 353
#     4  11  24  38  57  86 119 152 203 261 301 347
#     4  10  22  41  63  92 125 155 199 251 292 353
#     4  11  22  38  59  84 121 158 200 243 307 363
#     4  12  22  37  66  92 122 165 200 238 312 365
#     4  11  22  36  60  93 121 150 202 257 298 352
#     4  10  20  38  65  98 126 152 198 252 292 349
#     4  11  19  38  59  78 107 161 201 241 293 361
#
# _framework density 9.8765429999999999
#
# number of rings (size 3 to 8) (size 9 to 14) (size 15 to 20)
#    0.000    1.125    6.250    1.875    0.000    1.250 
#    0.000    1.250    0.000    1.875    0.000    0.000 
#    0.000    0.000    0.000    0.000    0.000    0.000 
#
# Total GULP energy -178269.103527 kJ/mol
# GULP energy per Si atom -5570.909485 kJ/mol
# Density = 0.985406 g / cm^3
# Si number density = 9.876543 Si / 1000 Ang^3
#
#
#
# Elastic Constant Matrix: (Units=GPa)
#
#
# Indices 1 2 3 4 5 6 
#
# 1 46.7075 22.3217 1.2327 0.0000 -20.3602 0.0000
# 2 22.3217 105.4730 29.9882 0.0000 -26.3685 0.0000
# 3 1.2327 29.9882 143.1511 0.0000 -23.1636 0.0000
# 4 0.0000 0.0000 0.0000 27.1708 0.0000 2.8907
# 5 -20.3602 -26.3685 -23.1636 0.0000 29.1009 0.0000
# 6 0.0000 0.0000 0.0000 2.8907 0.0000 5.8194
#
#
#
# Elastic Compliance Matrix: (Units=1/GPa)
#
#
# Indices 1 2 3 4 5 6 
#
# 1 0.032936 -0.002016 0.004100 0.000000 0.024480 0.000000
# 2 -0.002016 0.012480 -0.001143 0.000000 0.008988 0.000000
# 3 0.004100 -0.001143 0.008593 0.000000 0.008673 0.000000
# 4 0.000000 0.000000 0.000000 0.038858 0.000000 -0.019302
# 5 0.024480 0.008988 0.008673 0.000000 0.066538 0.000000
# 6 0.000000 0.000000 0.000000 -0.019302 0.000000 0.181428
#
#
# Mechanical properties :
#
#
# Convention : Reuss Voigt Hill
#
# Bulk Modulus (GPa) = 17.89183 44.71298 31.30241
# Shear Modulus (GPa) = 13.98287 28.53748 21.26018
#
# Velocity S-wave (km/s) = 2.66349 3.80506 3.28425
# Velocity P-wave (km/s) = 4.30538 6.47995 5.50118
#
# Compressibility (1/GPa) = 0.05589142
#
# Stress axis : x y z
#
# Youngs Moduli (GPa) = 30.36174 80.13071 116.37276
#
# Poissons Ratio (x) = 0.16154 -0.47712
# Poissons Ratio (y) = 0.06121 0.13297
# Poissons Ratio (z) = -0.12448 0.09156
#
# Static dielectric constant tensor:
#      x y z
#    x 1.758590 0.000000 -0.026070 
#    y 0.000000 1.725980 0.000000 
#    z -0.026070 0.000000 1.698560 
# 
# From -- ./inp_files/263356.got.cif
#   From: 2010.05.17/outbox.ucp.g08.bks.cvg/sg12_132_cif.got.tgz:263356.got - 2010.06.11 11:47:21.
