data_PCOD9225890
_publ_section_title
;
Structure prediction by ZEFSAII (Michael W. Deem and Ramdas Pophale) SiO2 
 PCOD9225890
Probable space group: C 2/M
;
_chemical_formula_sum "Si O2"
_cell_formula_units_Z 28
_cell_length_a 27.000000
_cell_length_b 9.000000
_cell_length_c 18.000000
_cell_angle_alpha 90.000000
_cell_angle_beta 40.000000
_cell_angle_gamma 90.000000
_cell_volume 2811.553005
_symmetry_space_group_name_H-M "C 2/M"
_symmetry_group_IT_number 12
_symmetry_cell_setting 'monoclinic'
loop_
_space_group_symop_operation_xyz
x,y,z
-x,y,-z
-x,-y,-z
x,-y,z
1/2+x,1/2+y,z
1/2-x,1/2+y,-z
1/2-x,1/2-y,-z
1/2+x,1/2-y,z
loop_
_atom_site_type_symbol
_atom_site_label
_atom_site_fract_x
_atom_site_fract_y
_atom_site_fract_z
Si Si1 0.005676 0.324614 0.336858
Si Si2 0.659000 0.673884 0.209854
Si Si3 0.797833 0.167762 0.240458
Si Si4 0.511710 0.325533 0.187241
Si Si5 0.314274 0.671469 0.042538
Si Si6 0.060430 0.667297 0.862926
Si Si7 0.869613 0.324794 0.602341
O O1 0.013994 0.500000 0.325294
O O2 0.088665 0.250771 0.249382
O O3 0.972560 0.262054 0.298831
O O4 0.947783 0.288796 0.470142
O O5 0.655902 0.500000 0.202491
O O6 0.743212 0.735017 0.093962
O O7 0.643069 0.720221 0.313220
O O8 0.807153 0.172800 0.140301
O O9 0.854826 0.288186 0.207915
O O10 0.707138 0.189542 0.359304
O O11 0.819543 0.000000 0.238891
O O12 0.512681 0.500000 0.201084
O O13 0.467929 0.286988 0.162963
O O14 0.600468 0.274985 0.074736
O O15 0.306182 0.500000 0.027827
O O16 0.058421 0.500000 0.834477
O O17 0.000000 0.672257 0.000000
O O18 0.872302 0.500000 0.623228
#
# Coordination Sequence:
#
# PCOD9225890 Si02
#       7
#     8   8   8   8   8   8   8
#     4  11  23  40  59  80 114 154 190 232 284 336
#     4  11  22  35  58  88 115 146 190 237 279 330
#     4   9  17  34  59  85 110 142 188 233 278 329
#     4  11  23  39  59  83 114 150 191 234 281 336
#     4   9  19  36  57  82 113 149 187 231 284 336
#     4  11  22  35  56  87 119 147 182 226 279 340
#     4   9  20  39  61  84 112 150 191 233 281 332
#
# _framework density 9.9589090000000002
#
# number of rings (size 3 to 8) (size 9 to 14) (size 15 to 20)
#    0.000    1.857    1.429    3.857    0.000    7.429 
#    0.000    0.714    0.000    0.000    0.000    0.000 
#    0.000    0.000    0.000    0.000    0.000    0.000 
#
# Total GULP energy -156288.147333 kJ/mol
# GULP energy per Si atom -5581.719548 kJ/mol
# Density = 0.993624 g / cm^3
# Si number density = 9.958909 Si / 1000 Ang^3
#
#
#
# Elastic Constant Matrix: (Units=GPa)
#
#
# Indices 1 2 3 4 5 6 
#
# 1 55.5373 29.2440 41.9809 0.0004 -7.3212 0.0008
# 2 29.2440 22.7437 1.3530 0.0086 3.2741 -0.0057
# 3 41.9809 1.3530 -33.8403 0.0012 12.8360 -0.0050
# 4 0.0004 0.0086 0.0012 13.8773 -0.0004 2.0665
# 5 -7.3212 3.2741 12.8360 -0.0004 14.5432 0.0013
# 6 0.0008 -0.0057 -0.0050 2.0665 0.0013 16.0312
#
#
#
# Elastic Compliance Matrix: (Units=1/GPa)
#
#
# Indices 1 2 3 4 5 6 
#
# 1 0.015376 -0.020385 0.017184 0.000011 -0.002837 -0.000004
# 2 -0.020385 0.072358 -0.024324 -0.000046 -0.005083 0.000026
# 3 0.017184 -0.024324 -0.002882 0.000017 0.016670 -0.000014
# 4 0.000011 -0.000046 0.000017 0.073470 0.000004 -0.009471
# 5 -0.002837 -0.005083 0.016670 0.000004 0.053763 -0.000001
# 6 -0.000004 0.000026 -0.000014 -0.009471 -0.000001 0.063599
#
#
# Mechanical properties :
#
#
# Convention : Reuss Voigt Hill
#
# Bulk Modulus (GPa) = 33.55332 21.06626 27.30979
# Shear Modulus (GPa) = 14.67699 7.01453 10.84576
#
# Velocity S-wave (km/s) = 2.71749 1.87867 2.33604
# Velocity P-wave (km/s) = 5.16999 3.91221 4.58444
#
# Compressibility (1/GPa) = 0.02980331
#
# Stress axis : x y z
#
# Youngs Moduli (GPa) = 65.03480 13.82014 -346.99030
#
# Poissons Ratio (x) = 0.28172 5.96273
# Poissons Ratio (y) = 1.32573 -8.44014
# Poissons Ratio (z) = -1.11757 0.33616
#
# Static dielectric constant tensor:
#      x y z
#    x 1.813710 0.000000 0.070600 
#    y 0.000000 1.665130 0.000000 
#    z 0.070600 0.000000 1.723930 
# 
# From -- ./inp_files/288465.got.cif
#   From: 2010.05.17/outbox.ucp.g08.bks.cvg/sg12_145_cif.got.tgz:288465.got - 2010.06.11 11:47:21.
