data_PCOD9225973
_publ_section_title
;
Structure prediction by ZEFSAII (Michael W. Deem and Ramdas Pophale) SiO2 
 PCOD9225973
Probable space group: C 2/M
;
_chemical_formula_sum "Si O2"
_cell_formula_units_Z 24
_cell_length_a 15.000000
_cell_length_b 15.000000
_cell_length_c 30.000000
_cell_angle_alpha 90.000000
_cell_angle_beta 20.000000
_cell_angle_gamma 90.000000
_cell_volume 2308.635967
_symmetry_space_group_name_H-M "C 2/M"
_symmetry_group_IT_number 12
_symmetry_cell_setting 'monoclinic'
loop_
_space_group_symop_operation_xyz
x,y,z
-x,y,-z
-x,-y,-z
x,-y,z
1/2+x,1/2+y,z
1/2-x,1/2+y,-z
1/2-x,1/2-y,-z
1/2+x,1/2-y,z
loop_
_atom_site_type_symbol
_atom_site_label
_atom_site_fract_x
_atom_site_fract_y
_atom_site_fract_z
Si Si1 0.799153 0.646107 0.972900
Si Si2 0.770853 0.896717 0.891631
Si Si3 0.660783 0.603657 0.881244
Si Si4 0.280604 0.652907 0.566805
Si Si5 0.089350 0.102080 0.331422
Si Si6 0.721077 0.642612 0.614485
O O1 0.108094 0.637273 0.813998
O O2 0.750000 0.750000 0.000000
O O3 0.751408 0.607207 0.044730
O O4 0.563915 0.611841 0.051453
O O5 0.021842 0.854470 0.749981
O O6 0.785063 0.000000 0.870763
O O7 0.500000 0.858404 0.000000
O O8 0.701419 0.500000 0.872361
O O9 0.964985 0.632287 0.724788
O O10 0.500000 0.643150 0.000000
O O11 0.500000 0.616926 0.500000
O O12 0.398432 0.633982 0.461699
O O13 0.289180 0.758333 0.567788
O O14 0.939368 0.107521 0.353773
O O15 0.134033 0.000000 0.320922
O O16 0.000000 0.601776 0.500000
#
# Coordination Sequence:
#
# PCOD9225973 Si02
#       6
#     8   8   8   8   8   8
#     4  12  27  42  73 102 138 179 227 285 345 409
#     4  11  24  45  71 100 135 178 226 279 344 411
#     4  11  25  44  68  99 135 176 232 287 334 400
#     4  11  26  45  71  97 138 182 231 279 345 407
#     4  12  25  46  71 100 141 183 226 279 346 413
#     4  11  26  43  70 100 140 176 225 281 338 407
#
# _framework density 10.395749
#
# number of rings (size 3 to 8) (size 9 to 14) (size 15 to 20)
#    0.000    0.667    1.667    5.000    9.333    4.000 
#    0.000    0.000    0.000    0.000    0.000    0.000 
#    0.000    0.000    0.000    0.000    0.000    0.000 
#
# Total GULP energy -133632.623677 kJ/mol
# GULP energy per Si atom -5568.025987 kJ/mol
# Density = 1.037209 g / cm^3
# Si number density = 10.395749 Si / 1000 Ang^3
#
#
#
# Elastic Constant Matrix: (Units=GPa)
#
#
# Indices 1 2 3 4 5 6 
#
# 1 150.4785 -9.5926 83.8925 -0.0265 -1.3375 -0.0210
# 2 -9.5926 102.5510 29.8193 0.0170 4.2386 -0.0821
# 3 83.8925 29.8193 236.9812 0.1080 -4.6301 -0.0687
# 4 -0.0265 0.0170 0.1080 50.4919 -0.0208 0.7231
# 5 -1.3375 4.2386 -4.6301 -0.0208 52.1035 -0.0403
# 6 -0.0210 -0.0821 -0.0687 0.7231 -0.0403 23.4180
#
#
#
# Elastic Compliance Matrix: (Units=1/GPa)
#
#
# Indices 1 2 3 4 5 6 
#
# 1 0.008573 0.001759 -0.003261 0.000011 -0.000213 0.000004
# 2 0.001759 0.010528 -0.001967 0.000001 -0.000986 0.000031
# 3 -0.003261 -0.001967 0.005633 -0.000013 0.000577 0.000008
# 4 0.000011 0.000001 -0.000013 0.019814 0.000006 -0.000612
# 5 -0.000213 -0.000986 0.000577 0.000006 0.019319 0.000031
# 6 0.000004 0.000031 0.000008 -0.000612 0.000031 0.042721
#
#
# Mechanical properties :
#
#
# Convention : Reuss Voigt Hill
#
# Bulk Modulus (GPa) = 56.18653 77.58323 66.88488
# Shear Modulus (GPa) = 41.85575 50.92876 46.39225
#
# Velocity S-wave (km/s) = 4.49165 4.95461 4.72880
# Velocity P-wave (km/s) = 7.34727 8.37417 7.87747
#
# Compressibility (1/GPa) = 0.01779786
#
# Stress axis : x y z
#
# Youngs Moduli (GPa) = 116.63904 94.98112 177.53377
#
# Poissons Ratio (x) = -0.16706 0.57885
# Poissons Ratio (y) = -0.20515 0.34915
# Poissons Ratio (z) = 0.38030 0.18680
#
# Static dielectric constant tensor:
#      x y z
#    x 1.856220 -0.000030 0.012890 
#    y -0.000030 1.776260 -0.000030 
#    z 0.012890 -0.000030 1.807020 
# 
# From -- ./inp_files/376565.got.cif
#   From: 2010.05.17/outbox.ucp.g08.bks.cvg/sg12_189_cif.got.tgz:376565.got - 2010.06.11 11:47:21.
