data_PCOD9225521
_publ_section_title
;
Structure prediction by ZEFSAII (Michael W. Deem and Ramdas Pophale) SiO2 
 PCOD9225521
Probable space group: C 2/M
;
_chemical_formula_sum "Si O2"
_cell_formula_units_Z 28
_cell_length_a 24.000000
_cell_length_b 15.000000
_cell_length_c 15.000000
_cell_angle_alpha 90.000000
_cell_angle_beta 30.000000
_cell_angle_gamma 90.000000
_cell_volume 2700.000000
_symmetry_space_group_name_H-M "C 2/M"
_symmetry_group_IT_number 12
_symmetry_cell_setting 'monoclinic'
loop_
_space_group_symop_operation_xyz
x,y,z
-x,y,-z
-x,-y,-z
x,-y,z
1/2+x,1/2+y,z
1/2-x,1/2+y,-z
1/2-x,1/2-y,-z
1/2+x,1/2-y,z
loop_
_atom_site_type_symbol
_atom_site_label
_atom_site_fract_x
_atom_site_fract_y
_atom_site_fract_z
Si Si1 0.879804 0.396970 0.172436
Si Si2 0.999619 0.211526 0.709237
Si Si3 0.620259 0.596339 0.830706
Si Si4 0.379783 0.235305 0.711443
Si Si5 0.671228 0.608609 0.344335
Si Si6 0.817883 0.901223 0.051758
Si Si7 0.179087 0.670593 0.558735
O O1 0.890222 0.500000 0.131254
O O2 0.784958 0.362790 0.237535
O O3 0.848654 0.390791 0.318944
O O4 0.000000 0.352441 0.000000
O O5 0.907136 0.259054 0.777026
O O6 0.076002 0.149057 0.540442
O O7 0.073948 0.285314 0.655486
O O8 0.931532 0.145206 0.864416
O O9 0.594371 0.500000 0.823837
O O10 0.663549 0.589630 0.869942
O O11 0.729811 0.628669 0.630455
O O12 0.500000 0.644702 0.000000
O O13 0.500000 0.213954 0.500000
O O14 0.342330 0.332656 0.726098
O O15 0.287188 0.162331 0.819599
O O16 0.664508 0.500000 0.344165
O O17 0.803282 0.000000 0.031711
O O18 0.250000 0.750000 0.500000
#
# Coordination Sequence:
#
# PCOD9225521 Si02
#       7
#     8   8   8   8   8   8   8
#     4  10  23  41  62  93 128 167 215 268 324 386
#     4  11  23  40  61  95 126 163 212 262 320 384
#     4  10  22  39  60  89 125 166 212 262 313 377
#     4  10  23  42  63  92 126 160 217 267 316 385
#     4  10  21  40  66  92 127 168 210 266 323 377
#     4  11  24  42  64  89 126 169 212 262 316 381
#     4  12  23  38  63  93 124 170 207 262 324 379
#
# _framework density 10.370369999999999
#
# number of rings (size 3 to 8) (size 9 to 14) (size 15 to 20)
#    0.000    1.429    1.429    3.857    2.000    4.000 
#    0.000    1.429    0.000    0.000    0.000    0.000 
#    0.000    0.000    0.000    0.000    0.000    0.000 
#
# Total GULP energy -156023.238527 kJ/mol
# GULP energy per Si atom -5572.258519 kJ/mol
# Density = 1.034677 g / cm^3
# Si number density = 10.370370 Si / 1000 Ang^3
#
#
#
# Elastic Constant Matrix: (Units=GPa)
#
#
# Indices 1 2 3 4 5 6 
#
# 1 107.6272 5.3729 26.6962 0.0000 -33.2346 0.0000
# 2 5.3729 34.1913 7.2563 0.0000 -32.0122 0.0000
# 3 26.6962 7.2563 81.7457 0.0000 -27.0598 0.0000
# 4 0.0000 0.0000 0.0000 49.5171 0.0000 5.6853
# 5 -33.2346 -32.0122 -27.0598 0.0000 29.7397 0.0000
# 6 0.0000 0.0000 0.0000 5.6853 0.0000 27.6817
#
#
#
# Elastic Compliance Matrix: (Units=1/GPa)
#
#
# Indices 1 2 3 4 5 6 
#
# 1 0.005348 -0.019655 -0.007194 0.000000 -0.021726 0.000000
# 2 -0.019655 -0.043489 -0.017870 0.000000 -0.085038 0.000000
# 3 -0.007194 -0.017870 0.010218 0.000000 -0.017978 0.000000
# 4 0.000000 0.000000 0.000000 0.020683 0.000000 -0.004248
# 5 -0.021726 -0.085038 -0.017978 0.000000 -0.098548 0.000000
# 6 0.000000 0.000000 0.000000 -0.004248 0.000000 0.036997
#
#
# Mechanical properties :
#
#
# Convention : Reuss Voigt Hill
#
# Bulk Modulus (GPa) = -8.52063 33.57944 12.52941
# Shear Modulus (GPa) = -270.65260 33.67027 -118.49116
#
# Velocity S-wave (km/s) = -11.43576 4.03350 -7.56662
# Velocity P-wave (km/s) = 13.35986 6.15771 8.38357
#
# Compressibility (1/GPa) = -0.11736221
#
# Stress axis : x y z
#
# Youngs Moduli (GPa) = 186.98864 -22.99409 97.87051
#
# Poissons Ratio (x) = -0.45196 0.70405
# Poissons Ratio (y) = 3.67535 1.74894
# Poissons Ratio (z) = 1.34514 -0.41090
#
# Static dielectric constant tensor:
#      x y z
#    x 1.772890 0.000000 0.024070 
#    y 0.000000 1.750340 0.000000 
#    z 0.024070 0.000000 1.725800 
# 
# From -- ./inp_files/240857.got.cif
#   From: 2010.05.17/outbox.ucp.g08.bks.cvg/sg12_121_cif.got.tgz:240857.got - 2010.06.11 11:47:21.
