data_PCOD9225574
_publ_section_title
;
Structure prediction by ZEFSAII (Michael W. Deem and Ramdas Pophale) SiO2 
 PCOD9225574
Probable space group: C 2/M
;
_chemical_formula_sum "Si O2"
_cell_formula_units_Z 18
_cell_length_a 15.000000
_cell_length_b 9.000000
_cell_length_c 21.000000
_cell_angle_alpha 90.000000
_cell_angle_beta 140.000000
_cell_angle_gamma 90.000000
_cell_volume 1822.302873
_symmetry_space_group_name_H-M "C 2/M"
_symmetry_group_IT_number 12
_symmetry_cell_setting 'monoclinic'
loop_
_space_group_symop_operation_xyz
x,y,z
-x,y,-z
-x,-y,-z
x,-y,z
1/2+x,1/2+y,z
1/2-x,1/2+y,-z
1/2-x,1/2-y,-z
1/2+x,1/2-y,z
loop_
_atom_site_type_symbol
_atom_site_label
_atom_site_fract_x
_atom_site_fract_y
_atom_site_fract_z
Si Si1 0.800147 0.273124 0.240099
Si Si2 0.619210 0.824353 0.393483
Si Si3 0.336762 0.000000 0.897074
Si Si4 0.867715 0.000000 0.093905
Si Si5 0.132181 0.839089 0.273684
Si Si6 0.665976 0.500000 0.072461
O O1 0.739205 0.327354 0.274155
O O2 0.747921 0.369562 0.151909
O O3 0.966892 0.262771 0.330672
O O4 0.713942 0.130347 0.175573
O O5 0.750000 0.750000 0.500000
O O6 0.637399 0.787457 0.328707
O O7 0.616692 0.000000 0.403571
O O8 0.248360 0.000000 0.914906
O O9 0.500000 0.000000 0.000000
O O10 0.975054 0.861653 0.161635
O O11 0.818205 0.000000 0.994486
O O12 0.158684 0.000000 0.321207
O O13 0.500000 0.500000 0.000000
#
# Coordination Sequence:
#
# PCOD9225574 Si02
#       6
#     8   8   4   4   8   4
#     4  12  24  45  69 101 143 183 238 286 337 428
#     4  12  27  47  74 103 137 183 233 296 360 412
#     4  12  28  40  63 104 149 186 219 289 348 397
#     4  10  22  42  73  93 147 188 227 287 333 419
#     4  10  21  44  72  99 134 184 227 288 347 410
#     4  12  20  40  72 102 131 184 242 271 343 412
#
# _framework density 9.8776119999999992
#
# number of rings (size 3 to 8) (size 9 to 14) (size 15 to 20)
#    0.667    0.000    6.667    1.333    3.111    3.556 
#    0.000    3.333    0.000    0.000    0.000    0.000 
#    0.000    0.000    0.000    0.000    0.000    0.000 
#
# Total GULP energy -100283.702163 kJ/mol
# GULP energy per Si atom -5571.316787 kJ/mol
# Density = 0.985513 g / cm^3
# Si number density = 9.877612 Si / 1000 Ang^3
#
#
#
# Elastic Constant Matrix: (Units=GPa)
#
#
# Indices 1 2 3 4 5 6 
#
# 1 126.1230 -22.1634 50.6533 0.0000 15.7898 0.0000
# 2 -22.1634 78.5695 30.7237 0.0000 9.1799 0.0000
# 3 50.6533 30.7237 134.8714 0.0000 31.2216 0.0000
# 4 0.0000 0.0000 0.0000 45.3758 0.0000 -15.2867
# 5 15.7898 9.1799 31.2216 0.0000 42.3762 0.0000
# 6 0.0000 0.0000 0.0000 -15.2867 0.0000 40.5674
#
#
#
# Elastic Compliance Matrix: (Units=1/GPa)
#
#
# Indices 1 2 3 4 5 6 
#
# 1 0.011049 0.005249 -0.004978 0.000000 -0.001586 0.000000
# 2 0.005249 0.016489 -0.005362 0.000000 -0.001577 0.000000
# 3 -0.004978 -0.005362 0.011824 0.000000 -0.005695 0.000000
# 4 0.000000 0.000000 0.000000 0.025243 0.000000 0.009512
# 5 -0.001586 -0.001577 -0.005695 0.000000 0.028727 0.000000
# 6 0.000000 0.000000 0.000000 0.009512 0.000000 0.028235
#
#
# Mechanical properties :
#
#
# Convention : Reuss Voigt Hill
#
# Bulk Modulus (GPa) = 34.27160 50.88791 42.57976
# Shear Modulus (GPa) = 35.34157 44.35390 39.84773
#
# Velocity S-wave (km/s) = 4.23421 4.74347 4.49606
# Velocity P-wave (km/s) = 6.42577 7.47100 6.96801
#
# Compressibility (1/GPa) = 0.02917868
#
# Stress axis : x y z
#
# Youngs Moduli (GPa) = 90.50592 60.64513 84.57370
#
# Poissons Ratio (x) = -0.31831 0.42102
# Poissons Ratio (y) = -0.47504 0.45353
# Poissons Ratio (z) = 0.45055 0.32521
#
# Static dielectric constant tensor:
#      x y z
#    x 1.658660 0.000000 0.011600 
#    y 0.000000 1.666820 0.000000 
#    z 0.011600 0.000000 1.657630 
# 
# From -- ./inp_files/309131.got.cif
#   From: 2010.05.17/outbox.ucp.g08.bks.cvg/sg12_155_cif.got.tgz:309131.got - 2010.06.11 11:47:21.
