data_PCOD9225612
_publ_section_title
;
Structure prediction by ZEFSAII (Michael W. Deem and Ramdas Pophale) SiO2 
 PCOD9225612
Probable space group: C 2/M
;
_chemical_formula_sum "Si O2"
_cell_formula_units_Z 32
_cell_length_a 30.000000
_cell_length_b 9.000000
_cell_length_c 15.000000
_cell_angle_alpha 90.000000
_cell_angle_beta 50.000000
_cell_angle_gamma 90.000000
_cell_volume 3102.479995
_symmetry_space_group_name_H-M "C 2/M"
_symmetry_group_IT_number 12
_symmetry_cell_setting 'monoclinic'
loop_
_space_group_symop_operation_xyz
x,y,z
-x,y,-z
-x,-y,-z
x,-y,z
1/2+x,1/2+y,z
1/2-x,1/2+y,-z
1/2-x,1/2-y,-z
1/2+x,1/2-y,z
loop_
_atom_site_type_symbol
_atom_site_label
_atom_site_fract_x
_atom_site_fract_y
_atom_site_fract_z
Si Si1 0.495539 0.677129 0.901513
Si Si2 0.287402 0.327396 0.375004
Si Si3 0.795989 0.324832 0.002625
Si Si4 0.481906 0.833718 0.421091
Si Si5 0.754226 0.170187 0.740252
Si Si6 0.127207 0.166591 0.484564
Si Si7 0.076667 0.676740 0.146169
Si Si8 0.109088 0.674502 0.685766
O O1 0.501306 0.500000 0.886979
O O2 0.439066 0.735232 0.923106
O O3 0.545760 0.758783 0.781104
O O4 0.500000 0.717540 0.000000
O O5 0.289702 0.500000 0.390135
O O6 0.250000 0.250000 0.500000
O O7 0.261671 0.287817 0.313445
O O8 0.350679 0.255137 0.294907
O O9 0.794772 0.500000 0.987967
O O10 0.777936 0.300561 0.127561
O O11 0.750000 0.250000 0.000000
O O12 0.860694 0.271527 0.902358
O O13 0.500000 0.839307 0.500000
O O14 0.434892 0.706224 0.472984
O O15 0.532243 0.805258 0.284907
O O16 0.457899 0.000000 0.429455
O O17 0.824043 0.178353 0.653517
O O18 0.740198 0.000000 0.728710
O O19 0.134408 0.278395 0.557550
O O20 0.130134 0.000000 0.518112
O O21 0.078266 0.500000 0.122970
O O22 0.109282 0.500000 0.696231
#
# Coordination Sequence:
#
# PCOD9225612 Si02
#       8
#     8   8   8   8   8   8   8   8
#     4  11  25  43  64  94 130 168 213 265 320 380
#     4  12  24  39  61  92 128 167 209 256 314 379
#     4  10  24  45  67  93 126 170 221 272 323 380
#     4  10  22  39  62  92 125 161 204 258 320 385
#     4  10  23  42  62  90 128 169 215 265 317 380
#     4  11  22  38  62  91 126 164 208 264 321 378
#     4  10  22  42  65  93 128 169 215 263 319 384
#     4  12  24  40  63  90 126 169 210 258 319 381
#
# _framework density 10.314329000000001
#
# number of rings (size 3 to 8) (size 9 to 14) (size 15 to 20)
#    0.000    1.250    2.500    3.000    3.500    2.750 
#    0.000    0.000    0.000    0.000    0.000    0.000 
#    0.000    0.000    0.000    0.000    0.000    0.000 
#
# Total GULP energy -178565.120621 kJ/mol
# GULP energy per Si atom -5580.160019 kJ/mol
# Density = 1.029085 g / cm^3
# Si number density = 10.314329 Si / 1000 Ang^3
#
#
#
# Elastic Constant Matrix: (Units=GPa)
#
#
# Indices 1 2 3 4 5 6 
#
# 1 95.9659 44.8474 27.3095 0.0000 -2.0458 0.0000
# 2 44.8474 40.0417 24.8986 0.0000 8.0070 0.0000
# 3 27.3095 24.8986 -5.9190 0.0000 -13.5038 0.0000
# 4 0.0000 0.0000 0.0000 9.8135 0.0000 7.9404
# 5 -2.0458 8.0070 -13.5038 0.0000 13.0792 0.0000
# 6 0.0000 0.0000 0.0000 7.9404 0.0000 27.5801
#
#
#
# Elastic Compliance Matrix: (Units=1/GPa)
#
#
# Indices 1 2 3 4 5 6 
#
# 1 0.023968 -0.023347 -0.008579 0.000000 0.009185 0.000000
# 2 -0.023347 0.033789 0.026804 0.000000 0.003336 0.000000
# 3 -0.008579 0.026804 -0.016475 0.000000 -0.034760 0.000000
# 4 0.000000 0.000000 0.000000 0.132849 0.000000 -0.038248
# 5 0.009185 0.003336 -0.034760 0.000000 0.039963 0.000000
# 6 0.000000 0.000000 0.000000 -0.038248 0.000000 0.047270
#
#
# Mechanical properties :
#
#
# Convention : Reuss Voigt Hill
#
# Bulk Modulus (GPa) = 32.21854 36.02217 34.12036
# Shear Modulus (GPa) = 17.73343 12.29676 15.01509
#
# Velocity S-wave (km/s) = 2.93516 2.44417 2.70084
# Velocity P-wave (km/s) = 5.20952 5.04632 5.12857
#
# Compressibility (1/GPa) = 0.03103803
#
# Stress axis : x y z
#
# Youngs Moduli (GPa) = 41.72219 29.59557 -60.69906
#
# Poissons Ratio (x) = 0.69096 -0.52072
# Poissons Ratio (y) = 0.97408 1.62695
# Poissons Ratio (z) = 0.35792 -0.79327
#
# Static dielectric constant tensor:
#      x y z
#    x 1.977900 0.000000 -0.060380 
#    y 0.000000 1.721330 0.000000 
#    z -0.060380 0.000000 1.697780 
# 
# From -- ./inp_files/249737.got.cif
#   From: 2010.05.17/outbox.ucp.g08.bks.cvg/sg12_125_cif.got.tgz:249737.got - 2010.06.11 11:47:21.
