data_PCOD9225830
_publ_section_title
;
Structure prediction by ZEFSAII (Michael W. Deem and Ramdas Pophale) SiO2 
 PCOD9225830
Probable space group: C 2/M
;
_chemical_formula_sum "Si O2"
_cell_formula_units_Z 28
_cell_length_a 27.000000
_cell_length_b 18.000000
_cell_length_c 9.000000
_cell_angle_alpha 90.000000
_cell_angle_beta 40.000000
_cell_angle_gamma 90.000000
_cell_volume 2811.553005
_symmetry_space_group_name_H-M "C 2/M"
_symmetry_group_IT_number 12
_symmetry_cell_setting 'monoclinic'
loop_
_space_group_symop_operation_xyz
x,y,z
-x,y,-z
-x,-y,-z
x,-y,z
1/2+x,1/2+y,z
1/2-x,1/2+y,-z
1/2-x,1/2-y,-z
1/2+x,1/2-y,z
loop_
_atom_site_type_symbol
_atom_site_label
_atom_site_fract_x
_atom_site_fract_y
_atom_site_fract_z
Si Si1 0.214550 0.411118 0.888511
Si Si2 0.144627 0.184444 0.865187
Si Si3 0.998553 0.086201 0.823770
Si Si4 0.090636 0.290895 0.238657
Si Si5 0.090484 0.288301 0.746831
Si Si6 0.634409 0.688331 0.390794
Si Si7 0.293096 0.088246 0.453978
O O1 0.220313 0.500000 0.917485
O O2 0.286583 0.357506 0.767636
O O3 0.215019 0.410266 0.706882
O O4 0.138454 0.368652 0.128610
O O5 0.136165 0.220409 0.721936
O O6 0.226911 0.142021 0.679086
O O7 0.110985 0.256676 0.030077
O O8 0.082296 0.120690 0.037741
O O9 0.066537 0.131837 0.591337
O O10 0.005345 0.000000 0.772377
O O11 0.000000 0.094024 0.000000
O O12 0.129420 0.222528 0.239563
O O13 0.000000 0.296886 0.500000
O O14 0.110616 0.263808 0.534042
O O15 0.127458 0.368505 0.693323
O O16 0.000000 0.284818 0.000000
O O17 0.289256 0.000000 0.506412
#
# Coordination Sequence:
#
# PCOD9225830 Si02
#       7
#     8   8   8   8   8   8   8
#     4  11  24  43  67  94 127 169 217 267 316 373
#     4  12  20  42  64  96 125 164 213 259 316 378
#     4  11  20  34  62  96 128 163 206 260 318 376
#     4  12  25  42  66  95 131 173 216 255 315 389
#     4  12  21  39  67  93 126 167 216 258 313 375
#     4  12  22  41  62  98 127 167 213 261 316 382
#     4  11  24  41  67  98 127 164 214 273 320 367
#
# _framework density 9.9589090000000002
#
# number of rings (size 3 to 8) (size 9 to 14) (size 15 to 20)
#    0.000    0.429    7.143    2.571    0.000    2.857 
#    0.000    5.714    0.000    0.000    0.000    0.000 
#    0.000    0.000    0.000    0.000    0.000    0.000 
#
# Total GULP energy -156008.574152 kJ/mol
# GULP energy per Si atom -5571.734791 kJ/mol
# Density = 0.993624 g / cm^3
# Si number density = 9.958909 Si / 1000 Ang^3
#
#
#
# Elastic Constant Matrix: (Units=GPa)
#
#
# Indices 1 2 3 4 5 6 
#
# 1 30.8928 27.1338 11.6586 0.0000 -23.1625 0.0000
# 2 27.1338 136.6575 39.1741 0.0000 -30.9613 0.0000
# 3 11.6586 39.1741 91.2850 0.0000 -36.7751 0.0000
# 4 0.0000 0.0000 0.0000 22.1792 0.0000 -10.3465
# 5 -23.1625 -30.9613 -36.7751 0.0000 28.9982 0.0000
# 6 0.0000 0.0000 0.0000 -10.3465 0.0000 28.1298
#
#
#
# Elastic Compliance Matrix: (Units=1/GPa)
#
#
# Indices 1 2 3 4 5 6 
#
# 1 0.188397 -0.004305 0.074746 0.000000 0.240680 0.000000
# 2 -0.004305 0.009751 -0.001688 0.000000 0.004832 0.000000
# 3 0.074746 -0.001688 0.052053 0.000000 0.123915 0.000000
# 4 0.000000 0.000000 0.000000 0.054426 0.000000 0.020018
# 5 0.240680 0.004832 0.123915 0.000000 0.389036 0.000000
# 6 0.000000 0.000000 0.000000 0.020018 0.000000 0.042913
#
#
# Mechanical properties :
#
#
# Convention : Reuss Voigt Hill
#
# Bulk Modulus (GPa) = 2.57926 46.08535 24.33231
# Shear Modulus (GPa) = 6.86526 27.91934 17.39230
#
# Velocity S-wave (km/s) = 1.85857 3.74803 2.95821
# Velocity P-wave (km/s) = 2.42970 6.47443 4.88987
#
# Compressibility (1/GPa) = 0.38770784
#
# Stress axis : x y z
#
# Youngs Moduli (GPa) = 5.30793 102.55488 19.21112
#
# Poissons Ratio (x) = 0.44146 -1.43596
# Poissons Ratio (y) = 0.02285 0.03243
# Poissons Ratio (z) = -0.39675 0.17314
#
# Static dielectric constant tensor:
#      x y z
#    x 1.778750 0.000000 0.010870 
#    y 0.000000 1.671520 0.000000 
#    z 0.010870 0.000000 1.673440 
# 
# From -- ./inp_files/98086.got.cif
#   From: 2010.05.17/outbox.ucp.g08.bks.cvg/sg12_50_cif.got.tgz:98086.got - 2010.06.11 11:47:21.
