data_PCOD9225741
_publ_section_title
;
Structure prediction by ZEFSAII (Michael W. Deem and Ramdas Pophale) SiO2 
 PCOD9225741
Probable space group: C 2/M
;
_chemical_formula_sum "Si O2"
_cell_formula_units_Z 22
_cell_length_a 9.000000
_cell_length_b 21.000000
_cell_length_c 12.000000
_cell_angle_alpha 90.000000
_cell_angle_beta 70.000000
_cell_angle_gamma 90.000000
_cell_volume 2131.222864
_symmetry_space_group_name_H-M "C 2/M"
_symmetry_group_IT_number 12
_symmetry_cell_setting 'monoclinic'
loop_
_space_group_symop_operation_xyz
x,y,z
-x,y,-z
-x,-y,-z
x,-y,z
1/2+x,1/2+y,z
1/2-x,1/2+y,-z
1/2-x,1/2-y,-z
1/2+x,1/2-y,z
loop_
_atom_site_type_symbol
_atom_site_label
_atom_site_fract_x
_atom_site_fract_y
_atom_site_fract_z
Si Si1 0.815290 0.317273 0.525534
Si Si2 0.500000 0.265210 0.000000
Si Si3 0.634775 0.860800 0.045086
Si Si4 0.179318 0.926936 0.408016
Si Si5 0.381086 0.572276 0.836633
Si Si6 0.806253 0.861602 0.205496
O O1 0.750000 0.250000 0.500000
O O2 0.776746 0.373303 0.447549
O O3 0.738365 0.334869 0.663557
O O4 0.000000 0.311801 0.500000
O O5 0.404415 0.214118 0.949130
O O6 0.606980 0.307483 0.891126
O O7 0.658583 0.881961 0.165904
O O8 0.500000 0.890858 0.000000
O O9 0.793295 0.878838 0.939404
O O10 0.167891 0.915496 0.278420
O O11 0.000000 0.923456 0.500000
O O12 0.235067 0.000000 0.412184
O O13 0.338283 0.500000 0.876579
O O14 0.567009 0.582997 0.806588
#
# Coordination Sequence:
#
# PCOD9225741 Si02
#       6
#     8   4   8   8   8   8
#     4  12  30  43  70 106 142 180 231 296 341 410
#     4  10  24  40  66  96 130 176 216 270 348 402
#     4  10  25  40  66  97 136 174 218 283 340 403
#     4  10  22  46  70  96 136 184 229 278 346 416
#     4  11  24  44  71  98 134 182 229 275 336 414
#     4  12  24  43  68 100 133 183 227 275 342 412
#
# _framework density 10.322711999999999
#
# number of rings (size 3 to 8) (size 9 to 14) (size 15 to 20)
#    0.545    0.545    3.636    1.091    7.636    2.182 
#    0.000    0.000    0.000    0.000    0.000    0.000 
#    0.000    0.000    0.000    0.000    0.000    0.000 
#
# Total GULP energy -122809.329137 kJ/mol
# GULP energy per Si atom -5582.242234 kJ/mol
# Density = 1.029922 g / cm^3
# Si number density = 10.322712 Si / 1000 Ang^3
#
#
#
# Elastic Constant Matrix: (Units=GPa)
#
#
# Indices 1 2 3 4 5 6 
#
# 1 119.2655 53.4196 9.2280 0.0000 33.6652 0.0000
# 2 53.4196 102.8448 31.4428 0.0000 22.4647 0.0000
# 3 9.2280 31.4428 64.1118 0.0000 25.0436 0.0000
# 4 0.0000 0.0000 0.0000 82.1637 0.0000 4.9994
# 5 33.6652 22.4647 25.0436 0.0000 39.2055 0.0000
# 6 0.0000 0.0000 0.0000 4.9994 0.0000 33.7174
#
#
#
# Elastic Compliance Matrix: (Units=1/GPa)
#
#
# Indices 1 2 3 4 5 6 
#
# 1 0.014375 -0.006595 0.006011 0.000000 -0.012404 0.000000
# 2 -0.006595 0.014944 -0.006992 0.000000 0.001566 0.000000
# 3 0.006011 -0.006992 0.024801 0.000000 -0.016997 0.000000
# 4 0.000000 0.000000 0.000000 0.012282 0.000000 -0.001821
# 5 -0.012404 0.001566 -0.016997 0.000000 0.046118 0.000000
# 6 0.000000 0.000000 0.000000 -0.001821 0.000000 0.029928
#
#
# Mechanical properties :
#
#
# Convention : Reuss Voigt Hill
#
# Bulk Modulus (GPa) = 25.66169 52.71142 39.18655
# Shear Modulus (GPa) = 29.31016 43.82610 36.56813
#
# Velocity S-wave (km/s) = 3.77197 4.61238 4.21318
# Velocity P-wave (km/s) = 5.60598 7.34525 6.53375
#
# Compressibility (1/GPa) = 0.03896860
#
# Stress axis : x y z
#
# Youngs Moduli (GPa) = 69.56695 66.91506 40.32063
#
# Poissons Ratio (x) = 0.44128 -0.24235
# Poissons Ratio (y) = 0.45877 0.28191
# Poissons Ratio (z) = -0.41813 0.46785
#
# Static dielectric constant tensor:
#      x y z
#    x 1.643460 0.000000 0.280420 
#    y 0.000000 1.690980 0.000000 
#    z 0.280420 0.000000 1.343450 
# 
# From -- ./inp_files/120636.got.cif
#   From: 2010.05.17/outbox.ucp.g08.bks.cvg/sg12_61_cif.got.tgz:120636.got - 2010.06.11 11:47:21.
