data_PCOD9225349
_publ_section_title
;
Structure prediction by ZEFSAII (Michael W. Deem and Ramdas Pophale) SiO2 
 PCOD9225349
Probable space group: C 2/M
;
_chemical_formula_sum "Si O2"
_cell_formula_units_Z 32
_cell_length_a 18.000000
_cell_length_b 9.000000
_cell_length_c 30.000000
_cell_angle_alpha 90.000000
_cell_angle_beta 40.000000
_cell_angle_gamma 90.000000
_cell_volume 3123.947783
_symmetry_space_group_name_H-M "C 2/M"
_symmetry_group_IT_number 12
_symmetry_cell_setting 'monoclinic'
loop_
_space_group_symop_operation_xyz
x,y,z
-x,y,-z
-x,-y,-z
x,-y,z
1/2+x,1/2+y,z
1/2-x,1/2+y,-z
1/2-x,1/2-y,-z
1/2+x,1/2-y,z
loop_
_atom_site_type_symbol
_atom_site_label
_atom_site_fract_x
_atom_site_fract_y
_atom_site_fract_z
Si Si1 0.565471 0.330562 0.783762
Si Si2 0.707359 0.822739 0.564940
Si Si3 0.478759 0.331189 0.295899
Si Si4 0.196905 0.675794 0.210561
Si Si5 0.045901 0.180953 0.931519
Si Si6 0.627278 0.319233 0.430157
Si Si7 0.870619 0.824306 0.935865
Si Si8 0.714962 0.674446 0.293169
O O1 0.592956 0.500000 0.787702
O O2 0.584949 0.329486 0.722200
O O3 0.435353 0.300325 0.859326
O O4 0.649377 0.209283 0.765674
O O5 0.750000 0.750000 0.500000
O O6 0.583745 0.765724 0.638153
O O7 0.789830 0.774628 0.567805
O O8 0.709380 0.000000 0.560038
O O9 0.487951 0.500000 0.307247
O O10 0.601123 0.262147 0.227623
O O11 0.187017 0.500000 0.210057
O O12 0.323930 0.725756 0.138255
O O13 0.173172 0.726593 0.271853
O O14 0.961184 0.228421 0.931397
O O15 0.045884 0.000000 0.931809
O O16 0.000000 0.232901 0.000000
O O17 0.500000 0.267019 0.500000
O O18 0.628881 0.500000 0.429116
O O19 0.662743 0.275649 0.364282
O O20 0.854974 0.000000 0.948310
O O21 0.750000 0.750000 0.000000
O O22 0.692505 0.500000 0.296541
#
# Coordination Sequence:
#
# PCOD9225349 Si02
#       8
#     8   8   8   8   8   8   8   8
#     4  10  21  40  62  84 120 160 200 254 309 354
#     4  11  23  41  63  90 125 163 202 246 302 361
#     4  11  24  41  62  88 121 161 205 254 306 359
#     4  11  23  40  62  88 122 159 201 252 307 364
#     4   9  19  37  59  83 116 158 199 242 297 362
#     4   9  20  38  60  87 119 156 196 242 293 349
#     4  10  21  38  59  86 119 155 197 247 304 361
#     4  11  21  37  64  91 118 154 203 251 299 359
#
# _framework density 10.243449
#
# number of rings (size 3 to 8) (size 9 to 14) (size 15 to 20)
#    0.000    1.750    2.500    1.500    3.500    1.000 
#    0.000    0.000    0.000    4.875    0.000    0.000 
#    0.000    0.000    0.000    0.000    0.000    0.000 
#
# Total GULP energy -178450.808140 kJ/mol
# GULP energy per Si atom -5576.587754 kJ/mol
# Density = 1.022013 g / cm^3
# Si number density = 10.243449 Si / 1000 Ang^3
#
#
#
# Elastic Constant Matrix: (Units=GPa)
#
#
# Indices 1 2 3 4 5 6 
#
# 1 65.7976 15.1005 48.6698 0.0000 -1.0736 0.0001
# 2 15.1005 1.1857 15.2351 -0.0001 3.7911 -0.0012
# 3 48.6698 15.2351 133.2161 0.0000 4.7341 -0.0001
# 4 0.0000 -0.0001 0.0000 24.3837 0.0000 -0.4521
# 5 -1.0736 3.7911 4.7341 0.0000 37.6257 0.0000
# 6 0.0001 -0.0012 -0.0001 -0.4521 0.0000 16.4841
#
#
#
# Elastic Compliance Matrix: (Units=1/GPa)
#
#
# Indices 1 2 3 4 5 6 
#
# 1 0.006180 0.072057 -0.010293 0.000000 -0.005789 0.000005
# 2 0.072057 -0.352312 0.012688 -0.000002 0.035958 -0.000026
# 3 -0.010293 0.012688 0.009916 0.000000 -0.002820 0.000001
# 4 0.000000 -0.000002 0.000000 0.041032 0.000000 0.001125
# 5 -0.005789 0.035958 -0.002820 0.000000 0.023144 0.000003
# 6 0.000005 -0.000026 0.000001 0.001125 0.000003 0.060695
#
#
# Mechanical properties :
#
#
# Convention : Reuss Voigt Hill
#
# Bulk Modulus (GPa) = -5.33872 39.80115 17.23122
# Shear Modulus (GPa) = -11.82914 23.77830 5.97458
#
# Velocity S-wave (km/s) = -2.40552 3.41054 1.70957
# Velocity P-wave (km/s) = 3.21356 5.91429 3.51083
#
# Compressibility (1/GPa) = -0.18731081
#
# Stress axis : x y z
#
# Youngs Moduli (GPa) = 161.80607 -2.83840 100.84561
#
# Poissons Ratio (x) = 0.20453 1.03799
# Poissons Ratio (y) = -11.65919 -1.27958
# Poissons Ratio (z) = 1.66545 0.03601
#
# Static dielectric constant tensor:
#      x y z
#    x 1.885790 0.000000 -0.024210 
#    y 0.000000 1.714880 0.000000 
#    z -0.024210 0.000000 1.737610 
# 
# From -- ./inp_files/377993.got.cif
#   From: 2010.05.17/outbox.ucp.g08.bks.cvg/sg12_189_cif.got.tgz:377993.got - 2010.06.11 11:47:21.
