data_PCOD9225150
_publ_section_title
;
Structure prediction by ZEFSAII (Michael W. Deem and Ramdas Pophale) SiO2 
 PCOD9225150
Probable space group: C 2/M
;
_chemical_formula_sum "Si O2"
_cell_formula_units_Z 20
_cell_length_a 27.000000
_cell_length_b 18.000000
_cell_length_c 24.000000
_cell_angle_alpha 90.000000
_cell_angle_beta 170.000000
_cell_angle_gamma 90.000000
_cell_volume 2025.432344
_symmetry_space_group_name_H-M "C 2/M"
_symmetry_group_IT_number 12
_symmetry_cell_setting 'monoclinic'
loop_
_space_group_symop_operation_xyz
x,y,z
-x,y,-z
-x,-y,-z
x,-y,z
1/2+x,1/2+y,z
1/2-x,1/2+y,-z
1/2-x,1/2-y,-z
1/2+x,1/2-y,z
loop_
_atom_site_type_symbol
_atom_site_label
_atom_site_fract_x
_atom_site_fract_y
_atom_site_fract_z
Si Si1 0.691258 0.214038 0.314768
Si Si2 0.756532 0.084862 0.922961
Si Si3 0.105574 0.719058 0.677344
Si Si4 0.174000 0.585809 0.371498
Si Si5 0.020077 0.316097 0.752774
O O1 0.758712 0.130331 0.409549
O O2 0.877453 0.244240 0.468535
O O3 0.751974 0.268155 0.435485
O O4 0.354143 0.223433 0.935310
O O5 0.726404 0.145222 0.841328
O O6 0.550803 0.117367 0.742752
O O7 0.693584 0.000000 0.837360
O O8 0.060671 0.085907 0.291422
O O9 0.000000 0.694137 0.500000
O O10 0.086324 0.500000 0.266428
O O11 0.961848 0.642114 0.168604
O O12 0.250000 0.250000 0.000000
#
# Coordination Sequence:
#
# PCOD9225150 Si02
#       5
#     8   8   8   8   8
#     4  11  22  39  63  88 120 157 202 255 300 356
#     4  10  21  35  56  89 127 159 193 246 309 366
#     4  11  24  42  63  84 116 165 217 253 288 347
#     4  11  21  35  58  93 127 154 188 247 321 376
#     4  11  19  34  56  88 127 164 191 239 299 371
#
# _framework density 9.8744350000000001
#
# number of rings (size 3 to 8) (size 9 to 14) (size 15 to 20)
#    0.000    1.200    4.000    4.200    0.000    0.400 
#    0.000    0.000    0.000    7.200    0.000    0.000 
#    0.000    0.000    0.000    0.000    0.000    0.000 
#
# Total GULP energy -111363.683080 kJ/mol
# GULP energy per Si atom -5568.184154 kJ/mol
# Density = 0.985196 g / cm^3
# Si number density = 9.874435 Si / 1000 Ang^3
#
#
#
# Elastic Constant Matrix: (Units=GPa)
#
#
# Indices 1 2 3 4 5 6 
#
# 1 90.9404 61.4039 26.1685 -0.0694 -0.3926 0.0252
# 2 61.4039 156.3047 27.2567 -0.0498 15.5538 0.1073
# 3 26.1685 27.2567 38.1830 -0.0385 11.2105 0.0510
# 4 -0.0694 -0.0498 -0.0385 23.0179 0.0014 2.6160
# 5 -0.3926 15.5538 11.2105 0.0014 24.3555 0.0724
# 6 0.0252 0.1073 0.0510 2.6160 0.0724 15.5911
#
#
#
# Elastic Compliance Matrix: (Units=1/GPa)
#
#
# Indices 1 2 3 4 5 6 
#
# 1 0.018384 -0.006252 -0.010864 0.000023 0.009289 0.000002
# 2 -0.006252 0.009581 -0.000842 0.000004 -0.005832 -0.000027
# 3 -0.010864 -0.000842 0.039463 0.000036 -0.017801 -0.000029
# 4 0.000023 0.000004 0.000036 0.044289 0.000001 -0.007431
# 5 0.009289 -0.005832 -0.017801 0.000001 0.053126 -0.000164
# 6 0.000002 -0.000027 -0.000029 -0.007431 -0.000164 0.065387
#
#
# Mechanical properties :
#
#
# Convention : Reuss Voigt Hill
#
# Bulk Modulus (GPa) = 31.73435 57.23182 44.48309
# Shear Modulus (GPa) = 18.07336 23.96615 21.01976
#
# Velocity S-wave (km/s) = 3.02844 3.48738 3.26598
# Velocity P-wave (km/s) = 5.32282 6.72744 6.06592
#
# Compressibility (1/GPa) = 0.03151160
#
# Stress axis : x y z
#
# Youngs Moduli (GPa) = 54.39579 104.37264 25.34034
#
# Poissons Ratio (x) = 0.65253 0.27529
# Poissons Ratio (y) = 0.34008 0.02135
# Poissons Ratio (z) = 0.59093 0.08793
#
# Static dielectric constant tensor:
#      x y z
#    x 1.754790 -0.000290 0.035130 
#    y -0.000290 1.680340 -0.000190 
#    z 0.035130 -0.000190 1.909610 
# 
# From -- ./inp_files/15152.got.cif
#   From: 2010.05.17/outbox.ucp.g08.bks.cvg/sg12_8_cif.got.tgz:15152.got - 2010.06.11 11:47:21.
