data_PCOD9225313
_publ_section_title
;
Structure prediction by ZEFSAII (Michael W. Deem and Ramdas Pophale) SiO2 
 PCOD9225313
Probable space group: C 2/M
;
_chemical_formula_sum "Si O2"
_cell_formula_units_Z 28
_cell_length_a 15.000000
_cell_length_b 9.000000
_cell_length_c 21.000000
_cell_angle_alpha 90.000000
_cell_angle_beta 90.000000
_cell_angle_gamma 90.000000
_cell_volume 2835.000000
_symmetry_space_group_name_H-M "C 2/M"
_symmetry_group_IT_number 12
_symmetry_cell_setting 'monoclinic'
loop_
_space_group_symop_operation_xyz
x,y,z
-x,y,-z
-x,-y,-z
x,-y,z
1/2+x,1/2+y,z
1/2-x,1/2+y,-z
1/2-x,1/2-y,-z
1/2+x,1/2-y,z
loop_
_atom_site_type_symbol
_atom_site_label
_atom_site_fract_x
_atom_site_fract_y
_atom_site_fract_z
Si Si1 0.737838 0.177209 0.405278
Si Si2 0.861889 0.667647 0.177819
Si Si3 0.092980 0.723792 0.030749
Si Si4 0.603726 0.679190 0.506709
Si Si5 0.709191 0.348265 0.931831
Si Si6 0.546711 0.323001 0.173209
Si Si7 0.697937 0.326658 0.272498
O O1 0.665584 0.251342 0.452063
O O2 0.838669 0.216278 0.429440
O O3 0.713984 0.233531 0.335510
O O4 0.730203 0.000000 0.409456
O O5 0.895560 0.500000 0.171859
O O6 0.808835 0.710709 0.113720
O O7 0.789154 0.677435 0.232687
O O8 0.946920 0.770826 0.187690
O O9 0.192388 0.650534 0.037257
O O10 0.070602 0.764957 0.102864
O O11 0.127206 0.847242 0.981307
O O12 0.000000 0.663363 0.000000
O O13 0.500000 0.727314 0.500000
O O14 0.603789 0.500000 0.500822
O O15 0.702792 0.500000 0.892185
O O16 0.552276 0.500000 0.171078
O O17 0.618158 0.272486 0.226327
O O18 0.679528 0.500000 0.288879
#
# Coordination Sequence:
#
# PCOD9225313 Si02
#       7
#     8   8   8   8   8   8   8
#     4  10  21  37  62  95 126 159 204 252 291 342
#     4  11  24  42  61  86 119 154 199 254 308 364
#     4  11  23  40  60  91 116 150 193 258 316 373
#     4   9  19  38  64  94 129 166 202 239 291 351
#     4  11  24  40  62  88 114 151 197 248 308 376
#     4  11  23  42  63  85 114 157 205 248 309 379
#     4  10  23  43  62  81 121 169 202 243 301 365
#
# _framework density 9.8765429999999999
#
# number of rings (size 3 to 8) (size 9 to 14) (size 15 to 20)
#    0.000    1.571    2.857    1.286    0.000    7.429 
#    0.000    4.286    0.000    0.000    0.000    0.000 
#    0.000    0.000    0.000    0.000    0.000    0.000 
#
# Total GULP energy -155976.076856 kJ/mol
# GULP energy per Si atom -5570.574173 kJ/mol
# Density = 0.985406 g / cm^3
# Si number density = 9.876543 Si / 1000 Ang^3
#
#
#
# Elastic Constant Matrix: (Units=GPa)
#
#
# Indices 1 2 3 4 5 6 
#
# 1 162.3372 27.8340 49.6559 0.0000 29.8994 0.0000
# 2 27.8340 29.7265 30.5967 0.0000 8.7236 0.0000
# 3 49.6559 30.5967 110.1035 0.0000 32.0316 0.0000
# 4 0.0000 0.0000 0.0000 -254.1257 0.0000 122.2442
# 5 29.8994 8.7236 32.0316 0.0000 24.7326 0.0000
# 6 0.0000 0.0000 0.0000 122.2442 0.0000 -45.0553
#
#
#
# Elastic Compliance Matrix: (Units=1/GPa)
#
#
# Indices 1 2 3 4 5 6 
#
# 1 0.008701 -0.005827 0.000253 0.000000 -0.008790 0.000000
# 2 -0.005827 0.051024 -0.013422 0.000000 0.006430 0.000000
# 3 0.000253 -0.013422 0.018308 0.000000 -0.019282 0.000000
# 4 0.000000 0.000000 0.000000 0.012895 0.000000 0.034988
# 5 -0.008790 0.006430 -0.019282 0.000000 0.073764 0.000000
# 6 0.000000 0.000000 0.000000 0.034988 0.000000 0.072733
#
#
# Mechanical properties :
#
#
# Convention : Reuss Voigt Hill
#
# Bulk Modulus (GPa) = 24.97521 57.59337 41.28429
# Shear Modulus (GPa) = 17.31518 -41.95097 -12.31790
#
# Velocity S-wave (km/s) = 2.96392 -4.61344 -2.49989
# Velocity P-wave (km/s) = 4.93804 0.91737 3.55147
#
# Compressibility (1/GPa) = 0.04003970
#
# Stress axis : x y z
#
# Youngs Moduli (GPa) = 114.93057 19.59873 54.62174
#
# Poissons Ratio (x) = 0.11421 -0.01380
# Poissons Ratio (y) = 0.66974 0.73311
# Poissons Ratio (z) = -0.02903 0.26305
#
# Static dielectric constant tensor:
#      x y z
#    x 1.677510 0.000000 0.011810 
#    y 0.000000 1.796130 0.000000 
#    z 0.011810 0.000000 1.689900 
# 
# From -- ./inp_files/309052.got.cif
#   From: 2010.05.17/outbox.ucp.g08.bks.cvg/sg12_155_cif.got.tgz:309052.got - 2010.06.11 11:47:21.
