data_PCOD9225498
_publ_section_title
;
Structure prediction by ZEFSAII (Michael W. Deem and Ramdas Pophale) SiO2 
 PCOD9225498
Probable space group: C 2/M
;
_chemical_formula_sum "Si O2"
_cell_formula_units_Z 28
_cell_length_a 9.000000
_cell_length_b 18.000000
_cell_length_c 18.000000
_cell_angle_alpha 90.000000
_cell_angle_beta 110.000000
_cell_angle_gamma 90.000000
_cell_volume 2740.143682
_symmetry_space_group_name_H-M "C 2/M"
_symmetry_group_IT_number 12
_symmetry_cell_setting 'monoclinic'
loop_
_space_group_symop_operation_xyz
x,y,z
-x,y,-z
-x,-y,-z
x,-y,z
1/2+x,1/2+y,z
1/2-x,1/2+y,-z
1/2-x,1/2-y,-z
1/2+x,1/2-y,z
loop_
_atom_site_type_symbol
_atom_site_label
_atom_site_fract_x
_atom_site_fract_y
_atom_site_fract_z
Si Si1 0.317979 0.307553 0.451360
Si Si2 0.367017 0.211251 0.080006
Si Si3 0.030641 0.411894 0.416333
Si Si4 0.985149 0.086800 0.230038
Si Si5 0.742776 0.192536 0.688429
Si Si6 0.627461 0.414274 0.086327
Si Si7 0.774002 0.694719 0.828761
O O1 0.500000 0.324974 0.500000
O O2 0.250000 0.250000 0.500000
O O3 0.203690 0.378527 0.430082
O O4 0.298516 0.258287 0.374990
O O5 0.273661 0.140415 0.096798
O O6 0.361289 0.274853 0.140253
O O7 0.553005 0.191919 0.101997
O O8 0.250000 0.250000 0.000000
O O9 0.017689 0.500000 0.399855
O O10 0.000000 0.399682 0.500000
O O11 0.904502 0.364733 0.345709
O O12 0.102237 0.140947 0.296425
O O13 0.050157 0.090316 0.155231
O O14 0.804971 0.116772 0.207877
O O15 0.996919 0.000000 0.253740
O O16 0.775294 0.240965 0.767381
O O17 0.675505 0.500000 0.083673
O O18 0.500000 0.396074 0.000000
#
# Coordination Sequence:
#
# PCOD9225498 Si02
#       7
#     8   8   8   8   8   8   8
#     4  12  23  42  69  96 127 170 215 261 316 381
#     4  12  23  40  64  92 127 167 220 269 316 380
#     4  11  24  43  68  98 129 167 214 262 318 383
#     4  11  24  42  64  95 132 169 210 266 326 375
#     4  12  22  42  69  91 129 172 215 261 312 389
#     4  10  21  40  63  88 124 168 211 259 321 383
#     4  12  24  39  64  96 124 166 219 264 320 383
#
# _framework density 10.218442
#
# number of rings (size 3 to 8) (size 9 to 14) (size 15 to 20)
#    0.000    0.571    5.714    3.429    0.000    0.857 
#    0.000    0.714    0.000    4.286    0.000    0.000 
#    0.000    0.000    0.000    0.000    0.000    0.000 
#
# Total GULP energy -156192.875414 kJ/mol
# GULP energy per Si atom -5578.316979 kJ/mol
# Density = 1.019518 g / cm^3
# Si number density = 10.218442 Si / 1000 Ang^3
#
#
#
# Elastic Constant Matrix: (Units=GPa)
#
#
# Indices 1 2 3 4 5 6 
#
# 1 127.4156 56.2655 28.5320 0.0000 42.4224 0.0000
# 2 56.2655 133.3003 27.3388 0.0000 13.9623 0.0000
# 3 28.5320 27.3388 68.8595 0.0000 29.4760 0.0000
# 4 0.0000 0.0000 0.0000 13.7280 0.0000 12.4520
# 5 42.4224 13.9623 29.4760 0.0000 29.0285 0.0000
# 6 0.0000 0.0000 0.0000 12.4520 0.0000 39.8543
#
#
#
# Elastic Compliance Matrix: (Units=1/GPa)
#
#
# Indices 1 2 3 4 5 6 
#
# 1 0.021566 -0.007200 0.010492 0.000000 -0.038706 0.000000
# 2 -0.007200 0.010592 -0.006271 0.000000 0.011796 0.000000
# 3 0.010492 -0.006271 0.031728 0.000000 -0.044533 0.000000
# 4 0.000000 0.000000 0.000000 0.101652 0.000000 -0.031760
# 5 -0.038706 0.011796 -0.044533 0.000000 0.130561 0.000000
# 6 0.000000 0.000000 0.000000 -0.031760 0.000000 0.035014
#
#
# Mechanical properties :
#
#
# Convention : Reuss Voigt Hill
#
# Bulk Modulus (GPa) = 17.26353 61.53865 39.40109
# Shear Modulus (GPa) = 14.02998 31.01810 22.52404
#
# Velocity S-wave (km/s) = 2.62296 3.90006 3.32343
# Velocity P-wave (km/s) = 4.19986 7.10335 5.83508
#
# Compressibility (1/GPa) = 0.05792559
#
# Stress axis : x y z
#
# Youngs Moduli (GPa) = 46.37020 94.41386 31.51814
#
# Poissons Ratio (x) = 0.67980 -0.33067
# Poissons Ratio (y) = 0.33388 0.19765
# Poissons Ratio (z) = -0.48650 0.59207
#
# Static dielectric constant tensor:
#      x y z
#    x 1.761140 0.000000 -0.168880 
#    y 0.000000 1.708660 0.000000 
#    z -0.168880 0.000000 2.260950 
# 
# From -- ./inp_files/257215.got.cif
#   From: 2010.05.17/outbox.ucp.g08.bks.cvg/sg12_129_cif.got.tgz:257215.got - 2010.06.11 11:47:21.
