data_PCOD9225230
_publ_section_title
;
Structure prediction by ZEFSAII (Michael W. Deem and Ramdas Pophale) SiO2 
 PCOD9225230
Probable space group: C 2/M
;
_chemical_formula_sum "Si O2"
_cell_formula_units_Z 20
_cell_length_a 21.000000
_cell_length_b 9.000000
_cell_length_c 18.000000
_cell_angle_alpha 90.000000
_cell_angle_beta 40.000000
_cell_angle_gamma 90.000000
_cell_volume 2186.763448
_symmetry_space_group_name_H-M "C 2/M"
_symmetry_group_IT_number 12
_symmetry_cell_setting 'monoclinic'
loop_
_space_group_symop_operation_xyz
x,y,z
-x,y,-z
-x,-y,-z
x,-y,z
1/2+x,1/2+y,z
1/2-x,1/2+y,-z
1/2-x,1/2-y,-z
1/2+x,1/2-y,z
loop_
_atom_site_type_symbol
_atom_site_label
_atom_site_fract_x
_atom_site_fract_y
_atom_site_fract_z
Si Si1 0.660428 0.326690 0.312740
Si Si2 0.143627 0.177934 0.907829
Si Si3 0.034487 0.679674 0.863309
Si Si4 0.646325 0.825227 0.612633
Si Si5 0.561298 0.673327 0.553023
O O1 0.692063 0.500000 0.282340
O O2 0.742403 0.228873 0.198736
O O3 0.551011 0.317474 0.375553
O O4 0.639073 0.287135 0.418006
O O5 0.095153 0.247469 0.876702
O O6 0.134562 0.000000 0.917301
O O7 0.075976 0.251764 0.032545
O O8 0.030402 0.500000 0.874592
O O9 0.093914 0.719571 0.735984
O O10 0.750000 0.750000 0.500000
O O11 0.575037 0.779244 0.609630
O O12 0.662282 0.000000 0.602065
O O13 0.579874 0.500000 0.555575
#
# Coordination Sequence:
#
# PCOD9225230 Si02
#       5
#     8   8   8   8   8
#     4   9  18  35  56  78 105 140 175 208 255 314
#     4  11  21  33  54  82 105 132 173 221 262 299
#     4  10  21  37  54  74 104 142 176 209 255 314
#     4  11  23  36  54  79 107 138 172 211 260 310
#     4   9  19  35  56  79 105 138 176 213 253 305
#
# _framework density 9.145937
#
# number of rings (size 3 to 8) (size 9 to 14) (size 15 to 20)
#    0.000    2.000    0.000    6.600    0.000    9.600 
#    0.000    3.000    0.000    0.000    0.000    0.000 
#    0.000    0.000    0.000    0.000    0.000    0.000 
#
# Total GULP energy -111586.866352 kJ/mol
# GULP energy per Si atom -5579.343318 kJ/mol
# Density = 0.912512 g / cm^3
# Si number density = 9.145937 Si / 1000 Ang^3
#
#
#
# Elastic Constant Matrix: (Units=GPa)
#
#
# Indices 1 2 3 4 5 6 
#
# 1 29.4998 17.2320 33.4181 0.0000 7.8590 0.0000
# 2 17.2320 77.7907 72.2076 0.0002 2.0022 -0.0002
# 3 33.4181 72.2076 169.5323 0.0000 2.9572 -0.0001
# 4 0.0000 0.0002 0.0000 31.5025 0.0000 -4.4085
# 5 7.8590 2.0022 2.9572 0.0000 27.3869 0.0000
# 6 0.0000 -0.0002 -0.0001 -4.4085 0.0000 27.2420
#
#
#
# Elastic Compliance Matrix: (Units=1/GPa)
#
#
# Indices 1 2 3 4 5 6 
#
# 1 0.048057 -0.002863 -0.008032 0.000000 -0.012714 0.000000
# 2 -0.002863 0.021440 -0.008571 0.000000 0.000179 0.000000
# 3 -0.008032 -0.008571 0.011102 0.000000 0.001733 0.000000
# 4 0.000000 0.000000 0.000000 0.032479 0.000000 0.005256
# 5 -0.012714 0.000179 0.001733 0.000000 0.039962 0.000000
# 6 0.000000 0.000000 0.000000 0.005256 0.000000 0.037559
#
#
# Mechanical properties :
#
#
# Convention : Reuss Voigt Hill
#
# Bulk Modulus (GPa) = 23.99910 58.05980 41.02945
# Shear Modulus (GPa) = 20.54081 27.49062 24.01571
#
# Velocity S-wave (km/s) = 3.35468 3.88091 3.62735
# Velocity P-wave (km/s) = 5.30601 7.20359 6.32635
#
# Compressibility (1/GPa) = 0.04166823
#
# Stress axis : x y z
#
# Youngs Moduli (GPa) = 20.80882 46.64173 90.07391
#
# Poissons Ratio (x) = 0.13352 0.72345
# Poissons Ratio (y) = 0.05957 0.77199
# Poissons Ratio (z) = 0.16713 0.39975
#
# Static dielectric constant tensor:
#      x y z
#    x 1.673310 0.000000 -0.003050 
#    y 0.000000 1.611530 0.000000 
#    z -0.003050 0.000000 1.647850 
# 
# From -- ./inp_files/229481.got.cif
#   From: 2010.05.17/outbox.ucp.g08.bks.cvg/sg12_115_cif.got.tgz:229481.got - 2010.06.11 11:47:21.
