data_PCOD9225099
_publ_section_title
;
Structure prediction by ZEFSAII (Michael W. Deem and Ramdas Pophale) SiO2 
 PCOD9225099
Probable space group: C 2/M
;
_chemical_formula_sum "Si O2"
_cell_formula_units_Z 30
_cell_length_a 15.000000
_cell_length_b 24.000000
_cell_length_c 9.000000
_cell_angle_alpha 90.000000
_cell_angle_beta 70.000000
_cell_angle_gamma 90.000000
_cell_volume 3044.604091
_symmetry_space_group_name_H-M "C 2/M"
_symmetry_group_IT_number 12
_symmetry_cell_setting 'monoclinic'
loop_
_space_group_symop_operation_xyz
x,y,z
-x,y,-z
-x,-y,-z
x,-y,z
1/2+x,1/2+y,z
1/2-x,1/2+y,-z
1/2-x,1/2-y,-z
1/2+x,1/2-y,z
loop_
_atom_site_type_symbol
_atom_site_label
_atom_site_fract_x
_atom_site_fract_y
_atom_site_fract_z
Si Si1 0.819473 0.656746 0.218132
Si Si2 0.883380 0.245515 0.806933
Si Si3 0.552941 0.934932 0.714865
Si Si4 0.189154 0.435618 0.368941
Si Si5 0.826664 0.860047 0.435997
Si Si6 0.134033 0.631215 0.129893
Si Si7 0.500000 0.325069 0.500000
Si Si8 0.334486 0.726691 0.158848
O O1 0.879367 0.603435 0.228384
O O2 0.739477 0.661916 0.390493
O O3 0.877127 0.714598 0.190524
O O4 0.803407 0.643618 0.052075
O O5 0.914617 0.309667 0.806791
O O6 0.942823 0.213325 0.649710
O O7 0.774176 0.254724 0.815948
O O8 0.881107 0.215780 0.970548
O O9 0.594375 0.926426 0.523178
O O10 0.449041 0.914547 0.820616
O O11 0.562479 0.000000 0.738165
O O12 0.190170 0.500000 0.323144
O O13 0.278589 0.417867 0.416958
O O14 0.194382 0.392314 0.231340
O O15 0.833908 0.817647 0.291680
O O16 0.929511 0.862854 0.446491
#
# Coordination Sequence:
#
# PCOD9225099 Si02
#       8
#     8   8   8   8   8   8   4   8
#     4  10  22  36  57  84 121 164 202 241 303 354
#     4  10  23  36  58  92 123 152 201 246 305 370
#     4  10  22  37  55  86 127 166 205 244 293 365
#     4  10  22  40  62  85 114 164 213 252 310 369
#     4  11  23  40  62  84 121 161 201 258 304 363
#     4  11  21  35  57  89 122 157 199 250 296 368
#     4  12  26  36  59  94 119 160 208 256 310 366
#     4  10  20  41  60  83 122 163 197 247 304 372
#
# _framework density 9.8534980000000001
#
# number of rings (size 3 to 8) (size 9 to 14) (size 15 to 20)
#    0.000    1.600    2.667    1.600    3.733    3.200 
#    0.000    0.333    0.000    0.000    0.000    4.667 
#    0.000    0.000    0.000    0.000    0.000    0.000 
#
# Total GULP energy -167102.342163 kJ/mol
# GULP energy per Si atom -5570.078072 kJ/mol
# Density = 0.983107 g / cm^3
# Si number density = 9.853498 Si / 1000 Ang^3
#
#
#
# Elastic Constant Matrix: (Units=GPa)
#
#
# Indices 1 2 3 4 5 6 
#
# 1 79.2323 29.1887 11.4316 0.0000 2.1499 0.0000
# 2 29.1887 72.6070 23.1276 0.0000 2.2920 0.0000
# 3 11.4316 23.1276 77.8535 0.0000 -18.2528 0.0000
# 4 0.0000 0.0000 0.0000 52.8098 0.0000 9.5662
# 5 2.1499 2.2920 -18.2528 0.0000 10.6719 0.0000
# 6 0.0000 0.0000 0.0000 9.5662 0.0000 29.5684
#
#
#
# Elastic Compliance Matrix: (Units=1/GPa)
#
#
# Indices 1 2 3 4 5 6 
#
# 1 0.014961 -0.005293 -0.001777 0.000000 -0.004916 0.000000
# 2 -0.005293 0.019595 -0.009650 0.000000 -0.019647 0.000000
# 3 -0.001777 -0.009650 0.027616 0.000000 0.049664 0.000000
# 4 0.000000 0.000000 0.000000 0.020115 0.000000 -0.006508
# 5 -0.004916 -0.019647 0.049664 0.000000 0.183858 0.000000
# 6 0.000000 0.000000 0.000000 -0.006508 0.000000 0.035925
#
#
# Mechanical properties :
#
#
# Convention : Reuss Voigt Hill
#
# Bulk Modulus (GPa) = 34.80526 39.68762 37.24644
# Shear Modulus (GPa) = 14.48912 29.67302 22.08107
#
# Velocity S-wave (km/s) = 2.71445 3.88456 3.35097
# Velocity P-wave (km/s) = 5.24633 6.34841 5.82350
#
# Compressibility (1/GPa) = 0.02873129
#
# Stress axis : x y z
#
# Youngs Moduli (GPa) = 66.84106 51.03416 36.21090
#
# Poissons Ratio (x) = 0.27013 0.06435
# Poissons Ratio (y) = 0.35380 0.34943
# Poissons Ratio (z) = 0.11878 0.49248
#
# Static dielectric constant tensor:
#      x y z
#    x 1.920570 0.000000 0.055940 
#    y 0.000000 1.683670 0.000000 
#    z 0.055940 0.000000 1.718790 
# 
# From -- ./inp_files/65848.got.cif
#   From: 2010.05.17/outbox.ucp.g08.bks.cvg/sg12_33_cif.got.tgz:65848.got - 2010.06.11 11:47:21.
