data_PCOD9225954
_publ_section_title
;
Structure prediction by ZEFSAII (Michael W. Deem and Ramdas Pophale) SiO2 
 PCOD9225954
Probable space group: C 2/M
;
_chemical_formula_sum "Si O2"
_cell_formula_units_Z 29
_cell_length_a 24.000000
_cell_length_b 27.000000
_cell_length_c 9.000000
_cell_angle_alpha 90.000000
_cell_angle_beta 30.000000
_cell_angle_gamma 90.000000
_cell_volume 2916.000000
_symmetry_space_group_name_H-M "C 2/M"
_symmetry_group_IT_number 12
_symmetry_cell_setting 'monoclinic'
loop_
_space_group_symop_operation_xyz
x,y,z
-x,y,-z
-x,-y,-z
x,-y,z
1/2+x,1/2+y,z
1/2-x,1/2+y,-z
1/2-x,1/2-y,-z
1/2+x,1/2-y,z
loop_
_atom_site_type_symbol
_atom_site_label
_atom_site_fract_x
_atom_site_fract_y
_atom_site_fract_z
Si Si1 0.198988 0.667057 0.789880
Si Si2 0.660668 0.711674 0.267516
Si Si3 0.555405 0.924942 0.142751
Si Si4 0.102930 0.134256 0.866104
Si Si5 0.039909 0.752074 0.069080
Si Si6 0.500000 0.000000 0.000000
Si Si7 0.820669 0.443851 0.845373
Si Si8 0.119310 0.117373 0.171292
O O1 0.276436 0.678147 0.753739
O O2 0.281326 0.637833 0.489078
O O3 0.090688 0.632194 0.048755
O O4 0.146633 0.719969 0.868043
O O5 0.559872 0.741923 0.579949
O O6 0.624804 0.674266 0.218778
O O7 0.750000 0.750000 0.000000
O O8 0.434483 0.929844 0.497728
O O9 0.646794 0.942438 0.055108
O O10 0.546138 0.956604 0.012931
O O11 0.073746 0.191421 0.963802
O O12 0.120080 0.112129 0.990808
O O13 0.000000 0.114707 0.000000
O O14 0.000000 0.732484 0.000000
O O15 0.792872 0.500000 0.868928
O O16 0.721264 0.409832 0.016811
O O17 0.000000 0.097476 0.500000
#
# Coordination Sequence:
#
# PCOD9225954 Si02
#       8
#     8   8   8   8   8   2   8   8
#     4  12  25  41  64 100 134 178 231 283 335 408
#     4  12  26  41  64  97 138 183 234 283 333 403
#     4  11  25  44  71 102 138 171 221 282 349 415
#     4  11  23  44  65  91 136 186 227 281 336 399
#     4  11  24  41  62  92 137 182 225 275 336 391
#     4  12  24  46  72 104 138 174 214 282 368 412
#     4  11  24  48  71  99 137 172 218 287 350 413
#     4  12  25  44  71  97 131 184 235 275 342 410
#
# _framework density 9.9451300000000007
#
# number of rings (size 3 to 8) (size 9 to 14) (size 15 to 20)
#    0.000    0.552    6.897    1.655    6.759    0.276 
#    0.000    0.000    0.000    0.414    0.000    0.000 
#    0.000    0.000    0.000    0.000    0.000    0.000 
#
# Total GULP energy -161579.939628 kJ/mol
# GULP energy per Si atom -5571.722056 kJ/mol
# Density = 0.992249 g / cm^3
# Si number density = 9.945130 Si / 1000 Ang^3
#
#
#
# Elastic Constant Matrix: (Units=GPa)
#
#
# Indices 1 2 3 4 5 6 
#
# 1 168.3199 25.4152 47.0468 0.0005 -1.5140 -0.0005
# 2 25.4152 35.2044 45.6621 0.0000 -8.6194 0.0000
# 3 47.0468 45.6621 37.2925 0.0020 6.3659 -0.0017
# 4 0.0005 0.0000 0.0020 -67.0619 -0.0006 65.3086
# 5 -1.5140 -8.6194 6.3659 -0.0006 33.2836 0.0005
# 6 -0.0005 0.0000 -0.0017 65.3086 0.0005 -40.0643
#
#
#
# Elastic Compliance Matrix: (Units=1/GPa)
#
#
# Indices 1 2 3 4 5 6 
#
# 1 0.006520 -0.008311 0.002343 0.000000 -0.002304 0.000000
# 2 -0.008311 -0.023803 0.042122 0.000001 -0.014599 -0.000001
# 3 0.002343 0.042122 -0.030595 -0.000001 0.016866 0.000000
# 4 0.000000 0.000001 -0.000001 0.025382 0.000000 0.041376
# 5 -0.002304 -0.014599 0.016866 0.000000 0.022934 0.000000
# 6 0.000000 -0.000001 0.000000 0.041376 0.000000 0.042487
#
#
# Mechanical properties :
#
#
# Convention : Reuss Voigt Hill
#
# Bulk Modulus (GPa) = 40.93252 53.00724 46.96988
# Shear Modulus (GPa) = -235.39657 -6.58901 -120.99279
#
# Velocity S-wave (km/s) = -10.89057 -1.82205 -7.80783
# Velocity P-wave (km/s) = 11.72670 4.72030 7.59060
#
# Compressibility (1/GPa) = 0.02443045
#
# Stress axis : x y z
#
# Youngs Moduli (GPa) = 153.36883 -42.01108 -32.68482
#
# Poissons Ratio (x) = -0.34913 0.07659
# Poissons Ratio (y) = 1.27458 1.37674
# Poissons Ratio (z) = -0.35938 1.76958
#
# Static dielectric constant tensor:
#      x y z
#    x 1.739220 0.000000 0.029080 
#    y 0.000000 1.727050 0.000000 
#    z 0.029080 0.000000 1.756680 
# 
# From -- ./inp_files/100075.got.cif
#   From: 2010.05.17/outbox.ucp.g08.bks.cvg/sg12_51_cif.got.tgz:100075.got - 2010.06.11 11:47:21.
