data_PCOD9225761
_publ_section_title
;
Structure prediction by ZEFSAII (Michael W. Deem and Ramdas Pophale) SiO2 
 PCOD9225761
Probable space group: C 2/M
;
_chemical_formula_sum "Si O2"
_cell_formula_units_Z 28
_cell_length_a 30.000000
_cell_length_b 9.000000
_cell_length_c 12.000000
_cell_angle_alpha 90.000000
_cell_angle_beta 120.000000
_cell_angle_gamma 90.000000
_cell_volume 2805.922308
_symmetry_space_group_name_H-M "C 2/M"
_symmetry_group_IT_number 12
_symmetry_cell_setting 'monoclinic'
loop_
_space_group_symop_operation_xyz
x,y,z
-x,y,-z
-x,-y,-z
x,-y,z
1/2+x,1/2+y,z
1/2-x,1/2+y,-z
1/2-x,1/2-y,-z
1/2+x,1/2-y,z
loop_
_atom_site_type_symbol
_atom_site_label
_atom_site_fract_x
_atom_site_fract_y
_atom_site_fract_z
Si Si1 0.857369 0.321908 0.113337
Si Si2 0.794708 0.320850 0.805514
Si Si3 0.453463 0.832611 0.022321
Si Si4 0.412208 0.679063 0.552247
Si Si5 0.470270 0.677284 0.268083
Si Si6 0.316518 0.179152 0.297750
Si Si7 0.625274 0.322246 0.241769
O O1 0.862701 0.500000 0.120178
O O2 0.913604 0.251700 0.215808
O O3 0.821770 0.284576 0.173277
O O4 0.829134 0.279140 0.960619
O O5 0.793606 0.500000 0.801424
O O6 0.737125 0.255092 0.735001
O O7 0.821766 0.255455 0.728572
O O8 0.412015 0.746230 0.898063
O O9 0.436135 0.000000 0.036818
O O10 0.500000 0.855838 0.000000
O O11 0.474631 0.728373 0.145880
O O12 0.409423 0.500000 0.531819
O O13 0.473258 0.720645 0.609040
O O14 0.368125 0.758247 0.423286
O O15 0.396342 0.709909 0.661493
O O16 0.465584 0.500000 0.276970
O O17 0.314436 0.000000 0.310403
O O18 0.628966 0.500000 0.235745
#
# Coordination Sequence:
#
# PCOD9225761 Si02
#       7
#     8   8   8   8   8   8   8
#     4  10  23  42  64  94 125 157 204 259 313 366
#     4  11  23  41  66  94 124 158 202 258 317 369
#     4  11  21  33  55  89 127 163 200 249 309 366
#     4  10  24  43  61  89 128 167 207 251 301 365
#     4  11  22  37  62  93 125 163 205 252 306 365
#     4  11  25  44  65  88 120 165 213 257 306 367
#     4  11  22  38  62  92 126 161 205 253 304 366
#
# _framework density 9.9788940000000004
#
# number of rings (size 3 to 8) (size 9 to 14) (size 15 to 20)
#    0.000    1.286    2.857    2.571    0.000    5.714 
#    0.000    2.857    0.000    0.000    0.000    0.000 
#    0.000    0.000    0.000    0.000    0.000    0.000 
#
# Total GULP energy -156045.848335 kJ/mol
# GULP energy per Si atom -5573.066012 kJ/mol
# Density = 0.995618 g / cm^3
# Si number density = 9.978894 Si / 1000 Ang^3
#
#
#
# Elastic Constant Matrix: (Units=GPa)
#
#
# Indices 1 2 3 4 5 6 
#
# 1 75.0188 -7.2848 -3.1846 0.0000 25.2649 0.0000
# 2 -7.2848 20.2019 10.8044 0.0000 26.6230 0.0000
# 3 -3.1846 10.8044 63.1295 0.0000 23.8644 0.0000
# 4 0.0000 0.0000 0.0000 32.4486 0.0000 8.5489
# 5 25.2649 26.6230 23.8644 0.0000 27.5828 0.0000
# 6 0.0000 0.0000 0.0000 8.5489 0.0000 33.2439
#
#
#
# Elastic Compliance Matrix: (Units=1/GPa)
#
#
# Indices 1 2 3 4 5 6 
#
# 1 0.004883 -0.021059 -0.003184 0.000000 0.018608 0.000000
# 2 -0.021059 -0.020102 -0.018201 0.000000 0.054439 0.000000
# 3 -0.003184 -0.018201 0.016423 0.000000 0.006275 0.000000
# 4 0.000000 0.000000 0.000000 0.033058 0.000000 -0.008501
# 5 0.018608 0.054439 0.006275 0.000000 -0.038765 0.000000
# 6 0.000000 0.000000 0.000000 -0.008501 0.000000 0.032267
#
#
# Mechanical properties :
#
#
# Convention : Reuss Voigt Hill
#
# Bulk Modulus (GPa) = -11.94969 17.66890 2.85961
# Shear Modulus (GPa) = 58.99226 29.18940 44.09083
#
# Velocity S-wave (km/s) = 5.44267 3.82849 4.70532
# Velocity P-wave (km/s) = 5.78761 5.33061 5.56381
#
# Compressibility (1/GPa) = -0.08368417
#
# Stress axis : x y z
#
# Youngs Moduli (GPa) = 204.78982 -49.74626 60.89134
#
# Poissons Ratio (x) = -1.04760 0.19386
# Poissons Ratio (y) = 4.31265 1.10830
# Poissons Ratio (z) = 0.65200 -0.90545
#
# Static dielectric constant tensor:
#      x y z
#    x 1.785890 0.000000 -0.026210 
#    y 0.000000 1.677390 0.000000 
#    z -0.026210 0.000000 1.697400 
# 
# From -- ./inp_files/187758.got.cif
#   From: 2010.05.17/outbox.ucp.g08.bks.cvg/sg12_94_cif.got.tgz:187758.got - 2010.06.11 11:47:21.
