data_PCOD9225159
_publ_section_title
;
Structure prediction by ZEFSAII (Michael W. Deem and Ramdas Pophale) SiO2 
 PCOD9225159
Probable space group: C 2/M
;
_chemical_formula_sum "Si O2"
_cell_formula_units_Z 24
_cell_length_a 21.000000
_cell_length_b 18.000000
_cell_length_c 18.000000
_cell_angle_alpha 90.000000
_cell_angle_beta 20.000000
_cell_angle_gamma 90.000000
_cell_volume 2327.105055
_symmetry_space_group_name_H-M "C 2/M"
_symmetry_group_IT_number 12
_symmetry_cell_setting 'monoclinic'
loop_
_space_group_symop_operation_xyz
x,y,z
-x,y,-z
-x,-y,-z
x,-y,z
1/2+x,1/2+y,z
1/2-x,1/2+y,-z
1/2-x,1/2-y,-z
1/2+x,1/2-y,z
loop_
_atom_site_type_symbol
_atom_site_label
_atom_site_fract_x
_atom_site_fract_y
_atom_site_fract_z
Si Si1 0.272539 0.266331 0.747071
Si Si2 0.630134 0.083607 0.962565
Si Si3 0.273957 0.142931 0.432006
Si Si4 0.388063 0.584960 0.823910
Si Si5 0.198910 0.698597 0.126233
Si Si6 0.744132 0.203442 0.394544
O O1 0.500000 0.274173 0.500000
O O2 0.180729 0.348544 0.852165
O O3 0.226821 0.225099 0.875367
O O4 0.206659 0.219734 0.746380
O O5 0.775747 0.091242 0.870787
O O6 0.644675 0.000000 0.914831
O O7 0.434003 0.093192 0.220551
O O8 0.232911 0.139781 0.566003
O O9 0.325495 0.226086 0.350014
O O10 0.079946 0.127649 0.605211
O O11 0.430466 0.500000 0.792280
O O12 0.274702 0.619574 0.016555
O O13 0.978095 0.700855 0.369659
O O14 0.250000 0.750000 0.000000
#
# Coordination Sequence:
#
# PCOD9225159 Si02
#       6
#     8   8   8   8   8   8
#     4  10  21  37  61  91 123 159 202 252 306 355
#     4  11  23  40  62  90 128 166 200 246 306 375
#     4  11  21  39  61  89 120 158 209 249 295 354
#     4  11  22  37  62  90 120 158 200 251 305 360
#     4  11  17  38  63  86 117 156 205 255 294 359
#     4  10  21  35  60  90 118 155 205 258 292 348
#
# _framework density 10.313243
#
# number of rings (size 3 to 8) (size 9 to 14) (size 15 to 20)
#    0.000    1.333    5.000    1.500    2.333    1.000 
#    0.000    2.500    0.000    7.500    0.000    0.000 
#    0.000    0.000    0.000    0.000    0.000    0.000 
#
# Total GULP energy -133813.387757 kJ/mol
# GULP energy per Si atom -5575.557823 kJ/mol
# Density = 1.028977 g / cm^3
# Si number density = 10.313243 Si / 1000 Ang^3
#
#
#
# Elastic Constant Matrix: (Units=GPa)
#
#
# Indices 1 2 3 4 5 6 
#
# 1 78.9173 -26.5131 8.3166 0.0168 9.2538 -0.0221
# 2 -26.5131 14.2144 1.8504 0.0273 2.3435 -0.0456
# 3 8.3166 1.8504 87.5318 0.0186 -5.3634 -0.0497
# 4 0.0168 0.0273 0.0186 11.0095 -0.0275 11.3399
# 5 9.2538 2.3435 -5.3634 -0.0275 34.8110 0.0201
# 6 -0.0221 -0.0456 -0.0497 11.3399 0.0201 3.8527
#
#
#
# Elastic Compliance Matrix: (Units=1/GPa)
#
#
# Indices 1 2 3 4 5 6 
#
# 1 0.045866 0.089709 -0.007442 0.000835 -0.019377 -0.001129
# 2 0.089709 0.246885 -0.016379 0.002155 -0.042988 -0.002896
# 3 -0.007442 -0.016379 0.012787 -0.000071 0.005051 0.000110
# 4 0.000835 0.002155 -0.000071 -0.044686 -0.000489 0.131560
# 5 -0.019377 -0.042988 0.005051 -0.000489 0.037549 0.000690
# 6 -0.001129 -0.002896 0.000110 0.131560 0.000690 -0.127717
#
#
# Mechanical properties :
#
#
# Convention : Reuss Voigt Hill
#
# Bulk Modulus (GPa) = 2.28669 16.44125 9.36397
# Shear Modulus (GPa) = 27.07382 23.06859 25.07120
#
# Velocity S-wave (km/s) = 3.62688 3.34787 3.49016
# Velocity P-wave (km/s) = 4.31857 4.78880 4.55975
#
# Compressibility (1/GPa) = 0.43731416
#
# Stress axis : x y z
#
# Youngs Moduli (GPa) = 21.80258 4.05047 78.20220
#
# Poissons Ratio (x) = -0.36336 0.58201
# Poissons Ratio (y) = -1.95589 1.28085
# Poissons Ratio (z) = 0.16226 0.06634
#
# Static dielectric constant tensor:
#      x y z
#    x 1.773650 0.000000 0.009990 
#    y 0.000000 1.810190 0.000030 
#    z 0.009990 0.000030 1.795930 
# 
# From -- ./inp_files/285337.got.cif
#   From: 2010.05.17/outbox.ucp.g08.bks.cvg/sg12_143_cif.got.tgz:285337.got - 2010.06.11 11:47:21.
