data_PCOD9225217
_publ_section_title
;
Structure prediction by ZEFSAII (Michael W. Deem and Ramdas Pophale) SiO2 
 PCOD9225217
Probable space group: C 2/M
;
_chemical_formula_sum "Si O2"
_cell_formula_units_Z 28
_cell_length_a 9.000000
_cell_length_b 30.000000
_cell_length_c 21.000000
_cell_angle_alpha 90.000000
_cell_angle_beta 150.000000
_cell_angle_gamma 90.000000
_cell_volume 2835.000000
_symmetry_space_group_name_H-M "C 2/M"
_symmetry_group_IT_number 12
_symmetry_cell_setting 'monoclinic'
loop_
_space_group_symop_operation_xyz
x,y,z
-x,y,-z
-x,-y,-z
x,-y,z
1/2+x,1/2+y,z
1/2-x,1/2+y,-z
1/2-x,1/2-y,-z
1/2+x,1/2-y,z
loop_
_atom_site_type_symbol
_atom_site_label
_atom_site_fract_x
_atom_site_fract_y
_atom_site_fract_z
Si Si1 0.332129 0.051544 0.266348
Si Si2 0.142044 0.449419 0.982647
Si Si3 0.230891 0.883653 0.760770
Si Si4 0.811187 0.794363 0.331919
Si Si5 0.525878 0.203148 0.360830
Si Si6 0.344840 0.448237 0.374036
Si Si7 0.330098 0.878816 0.369550
O O1 0.512098 0.065536 0.270654
O O2 0.410391 0.077302 0.359690
O O3 0.410523 0.000000 0.305602
O O4 0.989568 0.055461 0.122964
O O5 0.079714 0.500000 0.935106
O O6 0.011669 0.411937 0.888214
O O7 0.000000 0.446379 0.000000
O O8 0.263001 0.835052 0.742239
O O9 0.064584 0.914407 0.646632
O O10 0.013203 0.880443 0.739536
O O11 0.592785 0.796837 0.310944
O O12 0.147528 0.797781 0.484636
O O13 0.832129 0.746373 0.306507
O O14 0.377980 0.160435 0.337145
O O15 0.500000 0.442869 0.500000
O O16 0.367336 0.500000 0.363241
O O17 0.500000 0.871740 0.500000
#
# Coordination Sequence:
#
# PCOD9225217 Si02
#       7
#     8   8   8   8   8   8   8
#     4  10  22  40  60  83 119 166 207 254 304 355
#     4  10  21  40  61  85 118 161 216 263 294 343
#     4  12  22  34  60  87 115 159 203 252 301 358
#     4  10  21  36  59  85 119 154 196 245 305 363
#     4  10  21  37  57  86 122 155 191 246 303 375
#     4  10  22  38  55  84 125 160 194 248 312 369
#     4  12  22  34  56  89 122 156 199 245 306 372
#
# _framework density 9.8765429999999999
#
# number of rings (size 3 to 8) (size 9 to 14) (size 15 to 20)
#    0.000    1.429    2.857    3.000    4.000    1.429 
#    0.000    2.143    0.000    0.857    0.000    0.000 
#    0.000    0.000    0.000    0.000    0.000    0.000 
#
# Total GULP energy -156216.673988 kJ/mol
# GULP energy per Si atom -5579.166928 kJ/mol
# Density = 0.985406 g / cm^3
# Si number density = 9.876543 Si / 1000 Ang^3
#
#
#
# Elastic Constant Matrix: (Units=GPa)
#
#
# Indices 1 2 3 4 5 6 
#
# 1 120.3995 59.3505 21.2139 0.0011 6.5614 -0.0002
# 2 59.3505 96.1141 33.3560 0.0006 -10.0151 0.0002
# 3 21.2139 33.3560 49.1567 0.0166 1.8558 0.0005
# 4 0.0011 0.0006 0.0166 18.3275 -0.0026 -12.3865
# 5 6.5614 -10.0151 1.8558 -0.0026 23.7546 -0.0001
# 6 -0.0002 0.0002 0.0005 -12.3865 -0.0001 20.7489
#
#
#
# Elastic Compliance Matrix: (Units=1/GPa)
#
#
# Indices 1 2 3 4 5 6 
#
# 1 0.013082 -0.009161 0.000855 -0.000004 -0.007542 -0.000002
# 2 -0.009161 0.021097 -0.010825 0.000019 0.012271 0.000011
# 3 0.000855 -0.010825 0.027582 -0.000044 -0.006955 -0.000027
# 4 -0.000004 0.000019 -0.000044 0.091466 0.000023 0.054602
# 5 -0.007542 0.012271 -0.006955 0.000023 0.049897 0.000014
# 6 -0.000002 0.000011 -0.000027 0.054602 0.000014 0.080791
#
#
# Mechanical properties :
#
#
# Convention : Reuss Voigt Hill
#
# Bulk Modulus (GPa) = 42.55449 54.83456 48.69452
# Shear Modulus (GPa) = 15.15109 22.68285 18.91697
#
# Velocity S-wave (km/s) = 2.77252 3.39236 3.09798
# Velocity P-wave (km/s) = 5.64262 6.56996 6.12387
#
# Compressibility (1/GPa) = 0.02349928
#
# Stress axis : x y z
#
# Youngs Moduli (GPa) = 76.44208 47.40100 36.25526
#
# Poissons Ratio (x) = 0.43423 -0.03101
# Poissons Ratio (y) = 0.70027 0.39247
# Poissons Ratio (z) = -0.06539 0.51313
#
# Static dielectric constant tensor:
#      x y z
#    x 1.711550 0.000000 0.044390 
#    y 0.000000 1.687400 0.000000 
#    z 0.044390 0.000000 1.716620 
# 
# From -- ./inp_files/303058.got.cif
#   From: 2010.05.17/outbox.ucp.g08.bks.cvg/sg12_152_cif.got.tgz:303058.got - 2010.06.11 11:47:21.
