data_PCOD9225415
_publ_section_title
;
Structure prediction by ZEFSAII (Michael W. Deem and Ramdas Pophale) SiO2 
 PCOD9225415
Probable space group: C 2/M
;
_chemical_formula_sum "Si O2"
_cell_formula_units_Z 26
_cell_length_a 21.000000
_cell_length_b 24.000000
_cell_length_c 18.000000
_cell_angle_alpha 90.000000
_cell_angle_beta 20.000000
_cell_angle_gamma 90.000000
_cell_volume 3102.806740
_symmetry_space_group_name_H-M "C 2/M"
_symmetry_group_IT_number 12
_symmetry_cell_setting 'monoclinic'
loop_
_space_group_symop_operation_xyz
x,y,z
-x,y,-z
-x,-y,-z
x,-y,z
1/2+x,1/2+y,z
1/2-x,1/2+y,-z
1/2-x,1/2-y,-z
1/2+x,1/2-y,z
loop_
_atom_site_type_symbol
_atom_site_label
_atom_site_fract_x
_atom_site_fract_y
_atom_site_fract_z
Si Si1 0.400097 0.125105 0.372454
Si Si2 0.371925 0.681411 0.563975
Si Si3 0.000000 0.243118 0.000000
Si Si4 0.837432 0.931056 0.501598
Si Si5 0.027379 0.245415 0.246079
Si Si6 0.514982 0.340728 0.842671
Si Si7 0.284903 0.567425 0.010326
O O1 0.314109 0.093843 0.392759
O O2 0.455035 0.191468 0.306967
O O3 0.216829 0.128645 0.626721
O O4 0.585882 0.092125 0.197994
O O5 0.500000 0.679445 0.500000
O O6 0.340625 0.617626 0.563906
O O7 0.462234 0.718499 0.396835
O O8 0.180043 0.715637 0.793017
O O9 0.980171 0.200704 0.950792
O O10 0.804710 0.000000 0.552393
O O11 0.044360 0.929022 0.237015
O O12 0.972972 0.200972 0.241813
O O13 0.250000 0.250000 0.000000
O O14 0.361976 0.389081 0.989785
O O15 0.267763 0.500000 0.047278
#
# Coordination Sequence:
#
# PCOD9225415 Si02
#       7
#     8   8   4   8   8   8   8
#     4  11  19  36  64  90 121 158 208 263 312 369
#     4  12  25  41  60  94 133 171 210 259 316 376
#     4  12  26  40  62  96 132 168 208 260 320 380
#     4  10  22  41  63  92 127 166 215 260 308 373
#     4  12  20  39  64  92 123 162 210 265 320 370
#     4  11  22  39  62  92 125 162 208 261 317 375
#     4  10  21  38  64  95 120 158 211 260 316 377
#
# _framework density 8.3795099999999998
#
# number of rings (size 3 to 8) (size 9 to 14) (size 15 to 20)
#    0.000    0.923    6.154    2.769    0.000    2.154 
#    0.000    0.769    0.000    0.923    0.000    0.000 
#    0.000    0.000    0.000    0.000    0.000    0.000 
#
# Total GULP energy -144737.820675 kJ/mol
# GULP energy per Si atom -5566.839257 kJ/mol
# Density = 0.836044 g / cm^3
# Si number density = 8.379510 Si / 1000 Ang^3
#
#
#
# Elastic Constant Matrix: (Units=GPa)
#
#
# Indices 1 2 3 4 5 6 
#
# 1 126.0589 66.1688 55.4315 -0.0440 -6.2728 0.0114
# 2 66.1688 182.3916 47.5810 -0.1082 -8.4847 0.0446
# 3 55.4315 47.5810 121.9062 -0.0750 -22.1638 0.0397
# 4 -0.0440 -0.1082 -0.0750 42.6861 0.0425 -3.4546
# 5 -6.2728 -8.4847 -22.1638 0.0425 39.4315 -0.0144
# 6 0.0114 0.0446 0.0397 -3.4546 -0.0144 42.7343
#
#
#
# Elastic Compliance Matrix: (Units=1/GPa)
#
#
# Indices 1 2 3 4 5 6 
#
# 1 0.011319 -0.003076 -0.004165 -0.000002 -0.001202 0.000004
# 2 -0.003076 0.006940 -0.001256 0.000012 0.000298 -0.000004
# 3 -0.004165 -0.001256 0.011603 0.000007 0.005589 -0.000006
# 4 -0.000002 0.000012 0.000007 0.023581 -0.000019 0.001906
# 5 -0.001202 0.000298 0.005589 -0.000019 0.028375 0.000003
# 6 0.000004 -0.000004 -0.000006 0.001906 0.000003 0.023555
#
#
# Mechanical properties :
#
#
# Convention : Reuss Voigt Hill
#
# Bulk Modulus (GPa) = 77.70644 85.41326 81.55985
# Shear Modulus (GPa) = 39.47717 42.38207 40.92962
#
# Velocity S-wave (km/s) = 4.85869 5.03428 4.94727
# Velocity P-wave (km/s) = 8.82856 9.21239 9.02252
#
# Compressibility (1/GPa) = 0.01286895
#
# Stress axis : x y z
#
# Youngs Moduli (GPa) = 88.34838 144.09080 86.18310
#
# Poissons Ratio (x) = 0.44318 0.35894
# Poissons Ratio (y) = 0.27174 0.10825
# Poissons Ratio (z) = 0.36796 0.18098
#
# Static dielectric constant tensor:
#      x y z
#    x 1.592330 -0.000020 -0.009360 
#    y -0.000020 1.600910 0.000060 
#    z -0.009360 0.000060 1.596150 
# 
# From -- ./inp_files/286258.got.cif
#   From: 2010.05.17/outbox.ucp.g08.bks.cvg/sg12_144_cif.got.tgz:286258.got - 2010.06.11 11:47:21.
