data_PCOD9225943
_publ_section_title
;
Structure prediction by ZEFSAII (Michael W. Deem and Ramdas Pophale) SiO2 
 PCOD9225943
Probable space group: C 2/M
;
_chemical_formula_sum "Si O2"
_cell_formula_units_Z 32
_cell_length_a 18.000000
_cell_length_b 15.000000
_cell_length_c 12.000000
_cell_angle_alpha 90.000000
_cell_angle_beta 90.000000
_cell_angle_gamma 90.000000
_cell_volume 3240.000000
_symmetry_space_group_name_H-M "C 2/M"
_symmetry_group_IT_number 12
_symmetry_cell_setting 'monoclinic'
loop_
_space_group_symop_operation_xyz
x,y,z
-x,y,-z
-x,-y,-z
x,-y,z
1/2+x,1/2+y,z
1/2-x,1/2+y,-z
1/2-x,1/2-y,-z
1/2+x,1/2-y,z
loop_
_atom_site_type_symbol
_atom_site_label
_atom_site_fract_x
_atom_site_fract_y
_atom_site_fract_z
Si Si1 0.707736 0.895292 0.733192
Si Si2 0.176256 0.397481 0.211486
Si Si3 0.879032 0.900040 0.771737
Si Si4 0.434270 0.769233 0.656468
Si Si5 0.678952 0.814201 0.975708
Si Si6 0.399673 0.768910 0.397414
Si Si7 0.848754 0.898811 0.258621
Si Si8 0.913202 0.854339 0.018067
O O1 0.796601 0.884492 0.723759
O O2 0.687370 0.860129 0.856626
O O3 0.662749 0.837291 0.644395
O O4 0.690833 0.000000 0.723419
O O5 0.160527 0.500000 0.237161
O O6 0.118463 0.334303 0.273729
O O7 0.261015 0.377778 0.247337
O O8 0.173535 0.380507 0.079190
O O9 0.931454 0.825010 0.720753
O O10 0.903833 0.000000 0.745199
O O11 0.874610 0.890941 0.905927
O O12 0.403900 0.760208 0.530567
O O13 0.519289 0.800130 0.645439
O O14 0.607762 0.749717 0.976011
O O15 0.750000 0.750000 0.000000
O O16 0.383714 0.674340 0.339042
O O17 0.883305 0.893068 0.134139
O O18 0.857462 0.000000 0.299180
O O19 0.000000 0.870310 0.000000
#
# Coordination Sequence:
#
# PCOD9225943 Si02
#       8
#     8   8   8   8   8   8   8   8
#     4  11  23  40  65  95 126 163 209 258 309 369
#     4  11  23  40  65  95 126 163 209 258 309 369
#     4  11  23  40  64  95 127 163 207 257 313 376
#     4  11  25  44  64  88 123 167 212 262 320 376
#     4  12  19  37  65  92 128 167 200 249 306 368
#     4  11  25  44  64  88 123 167 212 262 320 376
#     4  11  23  40  64  95 127 163 207 257 313 376
#     4  12  23  36  61  95 131 166 199 242 306 377
#
# _framework density 9.8765429999999999
#
# number of rings (size 3 to 8) (size 9 to 14) (size 15 to 20)
#    0.000    0.750    5.000    2.250    0.000    8.000 
#    0.000    5.000    0.000    2.250    0.000    0.000 
#    0.000    0.000    0.000    0.000    0.000    0.000 
#
# Total GULP energy -178984.692387 kJ/mol
# GULP energy per Si atom -5593.271637 kJ/mol
# Density = 0.985406 g / cm^3
# Si number density = 9.876543 Si / 1000 Ang^3
#
#
#
# Elastic Constant Matrix: (Units=GPa)
#
#
# Indices 1 2 3 4 5 6 
#
# 1 34.5044 15.0610 -24.0452 0.0000 0.1006 0.0000
# 2 15.0610 59.0397 -8.3178 0.0000 2.3348 0.0000
# 3 -24.0452 -8.3178 29.1693 0.0000 5.1254 0.0000
# 4 0.0000 0.0000 0.0000 -0.9692 0.0000 -0.3283
# 5 0.1006 2.3348 5.1254 0.0000 32.5627 0.0000
# 6 0.0000 0.0000 0.0000 -0.3283 0.0000 -11.0497
#
#
#
# Elastic Compliance Matrix: (Units=1/GPa)
#
#
# Indices 1 2 3 4 5 6 
#
# 1 0.076679 -0.010484 0.061839 0.000000 -0.009219 0.000000
# 2 -0.010484 0.019223 -0.003007 0.000000 -0.000873 0.000000
# 3 0.061839 -0.003007 0.086798 0.000000 -0.013637 0.000000
# 4 0.000000 0.000000 0.000000 -1.042254 0.000000 0.030962
# 5 -0.009219 -0.000873 -0.013637 0.000000 0.032948 0.000000
# 6 0.000000 0.000000 0.000000 0.030962 0.000000 -0.091420
#
#
# Mechanical properties :
#
#
# Convention : Reuss Voigt Hill
#
# Bulk Modulus (GPa) = 3.57915 9.78992 6.68453
# Shear Modulus (GPa) = -5.42540 13.44311 4.00885
#
# Velocity S-wave (km/s) = -1.65909 2.61158 1.42614
# Velocity P-wave (km/s) = 1.36170 3.74976 2.47047
#
# Compressibility (1/GPa) = 0.27939601
#
# Stress axis : x y z
#
# Youngs Moduli (GPa) = 13.04135 52.02097 11.52106
#
# Poissons Ratio (x) = 0.54539 -0.71246
# Poissons Ratio (y) = 0.13673 0.03465
# Poissons Ratio (z) = -0.80647 0.15645
#
# Static dielectric constant tensor:
#      x y z
#    x 1.702390 0.000000 0.013170 
#    y 0.000000 1.691210 0.000000 
#    z 0.013170 0.000000 1.665010 
# 
# From -- ./inp_files/156618.got.cif
#   From: 2010.05.17/outbox.ucp.g08.bks.cvg/sg12_79_cif.got.tgz:156618.got - 2010.06.11 11:47:21.
