data_PCOD9225425
_publ_section_title
;
Structure prediction by ZEFSAII (Michael W. Deem and Ramdas Pophale) SiO2 
 PCOD9225425
Probable space group: C 2/M
;
_chemical_formula_sum "Si O2"
_cell_formula_units_Z 32
_cell_length_a 18.000000
_cell_length_b 9.000000
_cell_length_c 30.000000
_cell_angle_alpha 90.000000
_cell_angle_beta 40.000000
_cell_angle_gamma 90.000000
_cell_volume 3123.947783
_symmetry_space_group_name_H-M "C 2/M"
_symmetry_group_IT_number 12
_symmetry_cell_setting 'monoclinic'
loop_
_space_group_symop_operation_xyz
x,y,z
-x,y,-z
-x,-y,-z
x,-y,z
1/2+x,1/2+y,z
1/2-x,1/2+y,-z
1/2-x,1/2-y,-z
1/2+x,1/2-y,z
loop_
_atom_site_type_symbol
_atom_site_label
_atom_site_fract_x
_atom_site_fract_y
_atom_site_fract_z
Si Si1 0.445270 0.176290 0.572754
Si Si2 0.538877 0.828577 0.931055
Si Si3 0.129141 0.677531 0.566557
Si Si4 0.126821 0.175039 0.062519
Si Si5 0.213447 0.168852 0.291398
Si Si6 0.026953 0.321378 0.705509
Si Si7 0.467070 0.828677 0.202962
Si Si8 0.775647 0.326545 0.801813
O O1 0.500000 0.214700 0.500000
O O2 0.540305 0.203142 0.567336
O O3 0.338778 0.275460 0.638139
O O4 0.416146 0.000000 0.585631
O O5 0.456267 0.728729 0.938933
O O6 0.669139 0.771939 0.865737
O O7 0.528876 0.000000 0.921072
O O8 0.500000 0.818926 0.000000
O O9 0.143608 0.500000 0.563420
O O10 0.250000 0.750000 0.500000
O O11 0.079907 0.739363 0.635924
O O12 0.064328 0.230947 0.135917
O O13 0.138822 0.000000 0.057029
O O14 0.250000 0.250000 0.000000
O O15 0.351909 0.168906 0.226729
O O16 0.183746 0.286621 0.266909
O O17 0.174336 0.000000 0.299994
O O18 0.038698 0.500000 0.696242
O O19 0.078491 0.272932 0.728430
O O20 0.891488 0.293018 0.775230
O O21 0.507558 0.000000 0.188426
O O22 0.745853 0.500000 0.818503
#
# Coordination Sequence:
#
# PCOD9225425 Si02
#       8
#     8   8   8   8   8   8   8   8
#     4  10  22  40  61  85 119 160 203 252 308 367
#     4  11  25  44  65  94 130 163 204 260 312 364
#     4  10  21  39  59  84 118 156 196 244 299 359
#     4  12  26  44  66  92 126 168 209 254 310 373
#     4  11  22  37  62  90 121 158 202 256 309 361
#     4   9  20  39  62  87 119 160 201 245 303 365
#     4  10  22  41  63  90 123 161 202 253 310 365
#     4  11  21  39  66  91 120 160 207 253 303 367
#
# _framework density 10.243449
#
# number of rings (size 3 to 8) (size 9 to 14) (size 15 to 20)
#    0.000    1.500    2.500    2.250    3.500    2.250 
#    0.000    1.250    0.000    0.000    0.000    0.000 
#    0.000    0.000    0.000    0.000    0.000    0.000 
#
# Total GULP energy -178545.741262 kJ/mol
# GULP energy per Si atom -5579.554414 kJ/mol
# Density = 1.022013 g / cm^3
# Si number density = 10.243449 Si / 1000 Ang^3
#
#
#
# Elastic Constant Matrix: (Units=GPa)
#
#
# Indices 1 2 3 4 5 6 
#
# 1 59.2934 25.0685 39.4548 0.0000 9.6615 0.0001
# 2 25.0685 79.0214 47.1709 0.0001 -8.5549 -0.0003
# 3 39.4548 47.1709 132.0775 0.0000 -6.0986 -0.0001
# 4 0.0000 0.0001 0.0000 36.5091 0.0001 -5.3288
# 5 9.6615 -8.5549 -6.0986 0.0001 -0.0322 0.0003
# 6 0.0001 -0.0003 -0.0001 -5.3288 0.0003 12.9355
#
#
#
# Elastic Compliance Matrix: (Units=1/GPa)
#
#
# Indices 1 2 3 4 5 6 
#
# 1 0.004765 0.005526 -0.000530 0.000000 0.062086 -0.000001
# 2 0.005526 0.011624 -0.007371 0.000000 -0.033974 0.000001
# 3 -0.000530 -0.007371 0.009588 0.000000 -0.016773 0.000000
# 4 0.000000 0.000000 0.000000 0.029143 0.000001 0.012005
# 5 0.062086 -0.033974 -0.016773 0.000001 -0.224375 0.000004
# 6 -0.000001 0.000001 0.000000 0.012005 0.000004 0.082252
#
#
# Mechanical properties :
#
#
# Convention : Reuss Voigt Hill
#
# Bulk Modulus (GPa) = 47.11072 54.86453 50.98763
# Shear Modulus (GPa) = -66.50852 20.46235 -23.02308
#
# Velocity S-wave (km/s) = -5.70389 3.16381 -3.35594
# Velocity P-wave (km/s) = 4.50930 6.33914 3.15047
#
# Compressibility (1/GPa) = 0.02122659
#
# Stress axis : x y z
#
# Youngs Moduli (GPa) = 209.85190 86.03246 104.29945
#
# Poissons Ratio (x) = -0.47545 0.05533
# Poissons Ratio (y) = -1.15972 0.76878
# Poissons Ratio (z) = 0.11132 0.63414
#
# Static dielectric constant tensor:
#      x y z
#    x 1.784230 0.000000 0.024130 
#    y 0.000000 1.714450 0.000000 
#    z 0.024130 0.000000 1.713560 
# 
# From -- ./inp_files/378171.got.cif
#   From: 2010.05.17/outbox.ucp.g08.bks.cvg/sg12_190_cif.got.tgz:378171.got - 2010.06.11 11:47:21.
