data_PCOD9225286
_publ_section_title
;
Structure prediction by ZEFSAII (Michael W. Deem and Ramdas Pophale) SiO2 
 PCOD9225286
Probable space group: C 2/M
;
_chemical_formula_sum "Si O2"
_cell_formula_units_Z 28
_cell_length_a 21.000000
_cell_length_b 15.000000
_cell_length_c 9.000000
_cell_angle_alpha 90.000000
_cell_angle_beta 90.000000
_cell_angle_gamma 90.000000
_cell_volume 2835.000000
_symmetry_space_group_name_H-M "C 2/M"
_symmetry_group_IT_number 12
_symmetry_cell_setting 'monoclinic'
loop_
_space_group_symop_operation_xyz
x,y,z
-x,y,-z
-x,-y,-z
x,-y,z
1/2+x,1/2+y,z
1/2-x,1/2+y,-z
1/2-x,1/2-y,-z
1/2+x,1/2-y,z
loop_
_atom_site_type_symbol
_atom_site_label
_atom_site_fract_x
_atom_site_fract_y
_atom_site_fract_z
Si Si1 0.674800 0.691922 0.177054
Si Si2 0.857729 0.702747 0.533641
Si Si3 0.879512 0.321944 0.034085
Si Si4 0.703474 0.098557 0.729436
Si Si5 0.546927 0.256385 0.702836
Si Si6 0.448731 0.103426 0.745161
Si Si7 0.037619 0.102776 0.156632
O O1 0.672402 0.737812 0.338546
O O2 0.675387 0.769949 0.055038
O O3 0.733629 0.626733 0.183263
O O4 0.608467 0.641805 0.147869
O O5 0.812415 0.662870 0.407735
O O6 0.908882 0.759572 0.439975
O O7 0.894145 0.625017 0.624481
O O8 0.924931 0.361409 0.906438
O O9 0.852093 0.393634 0.148094
O O10 0.913349 0.252734 0.144776
O O11 0.709055 0.000000 0.669772
O O12 0.507462 0.164568 0.697851
O O13 0.499520 0.337444 0.724581
O O14 0.463812 0.000000 0.751329
O O15 0.039524 0.000000 0.198868
O O16 0.000000 0.109701 0.000000
#
# Coordination Sequence:
#
# PCOD9225286 Si02
#       7
#     8   8   8   8   8   8   8
#     4  11  21  40  61  85 111 159 197 241 291 350
#     4  10  23  37  60  79 122 156 198 231 299 344
#     4  10  21  37  60  83 118 153 196 237 303 341
#     4  11  23  39  58  86 116 153 202 247 287 347
#     4  11  20  38  57  86 120 158 186 244 291 354
#     4  11  21  34  58  89 120 158 197 236 287 350
#     4  11  21  37  63  90 116 150 194 246 298 346
#
# _framework density 9.8765429999999999
#
# number of rings (size 3 to 8) (size 9 to 14) (size 15 to 20)
#    0.000    1.286    4.286    3.000    0.000    4.571 
#    0.000    2.143    0.000    0.000    0.000    0.000 
#    0.000    0.000    0.000    0.000    0.000    0.000 
#
# Total GULP energy -156263.913256 kJ/mol
# GULP energy per Si atom -5580.854045 kJ/mol
# Density = 0.985406 g / cm^3
# Si number density = 9.876543 Si / 1000 Ang^3
#
#
#
# Elastic Constant Matrix: (Units=GPa)
#
#
# Indices 1 2 3 4 5 6 
#
# 1 46.9176 13.6861 22.3513 0.0000 11.7095 0.0000
# 2 13.6861 58.0555 27.5946 0.0000 -21.2353 0.0000
# 3 22.3513 27.5946 64.9953 0.0000 23.4432 0.0000
# 4 0.0000 0.0000 0.0000 12.1229 0.0000 11.2838
# 5 11.7095 -21.2353 23.4432 0.0000 7.0078 0.0000
# 6 0.0000 0.0000 0.0000 11.2838 0.0000 -10.6081
#
#
#
# Elastic Compliance Matrix: (Units=1/GPa)
#
#
# Indices 1 2 3 4 5 6 
#
# 1 0.024559 0.002543 -0.012081 0.000000 0.007084 0.000000
# 2 0.002543 0.001656 0.008976 0.000000 -0.029261 0.000000
# 3 -0.012081 0.008976 0.006595 0.000000 0.025324 0.000000
# 4 0.000000 0.000000 0.000000 0.041450 0.000000 0.044090
# 5 0.007084 -0.029261 0.025324 0.000000 -0.042522 0.000000
# 6 0.000000 0.000000 0.000000 0.044090 0.000000 -0.047369
#
#
# Mechanical properties :
#
#
# Convention : Reuss Voigt Hill
#
# Bulk Modulus (GPa) = 31.55729 33.02582 32.29156
# Shear Modulus (GPa) = -1266.72233 8.79363 -628.96435
#
# Velocity S-wave (km/s) = -25.35094 2.11221 -17.86349
# Velocity P-wave (km/s) = 28.99799 4.76489 20.22596
#
# Compressibility (1/GPa) = 0.03168840
#
# Stress axis : x y z
#
# Youngs Moduli (GPa) = 40.71795 603.91691 151.63378
#
# Poissons Ratio (x) = -1.53604 1.83182
# Poissons Ratio (y) = -0.10356 -1.36112
# Poissons Ratio (z) = 0.49190 -5.42096
#
# Static dielectric constant tensor:
#      x y z
#    x 1.727150 0.000000 0.018530 
#    y 0.000000 1.689020 0.000000 
#    z 0.018530 0.000000 1.683550 
# 
# From -- ./inp_files/86340.got.cif
#   From: 2010.05.17/outbox.ucp.g08.bks.cvg/sg12_44_cif.got.tgz:86340.got - 2010.06.11 11:47:21.
