data_PCOD9225186
_publ_section_title
;
Structure prediction by ZEFSAII (Michael W. Deem and Ramdas Pophale) SiO2 
 PCOD9225186
Probable space group: C 2/M
;
_chemical_formula_sum "Si O2"
_cell_formula_units_Z 32
_cell_length_a 30.000000
_cell_length_b 9.000000
_cell_length_c 24.000000
_cell_angle_alpha 90.000000
_cell_angle_beta 30.000000
_cell_angle_gamma 90.000000
_cell_volume 3240.000000
_symmetry_space_group_name_H-M "C 2/M"
_symmetry_group_IT_number 12
_symmetry_cell_setting 'monoclinic'
loop_
_space_group_symop_operation_xyz
x,y,z
-x,y,-z
-x,-y,-z
x,-y,z
1/2+x,1/2+y,z
1/2-x,1/2+y,-z
1/2-x,1/2-y,-z
1/2+x,1/2-y,z
loop_
_atom_site_type_symbol
_atom_site_label
_atom_site_fract_x
_atom_site_fract_y
_atom_site_fract_z
Si Si1 0.530279 0.828439 0.220465
Si Si2 0.024400 0.170906 0.344194
Si Si3 0.060457 0.673687 0.984431
Si Si4 0.724990 0.666231 0.762254
Si Si5 0.831403 0.323772 0.443317
Si Si6 0.329667 0.327990 0.562703
Si Si7 0.821267 0.668465 0.768029
Si Si8 0.878196 0.174696 0.975713
O O1 0.531051 0.775719 0.283188
O O2 0.428221 0.812731 0.309768
O O3 0.595002 0.731294 0.113344
O O4 0.555657 0.000000 0.189023
O O5 0.105721 0.214085 0.294662
O O6 0.929857 0.190560 0.477052
O O7 0.027426 0.000000 0.322166
O O8 0.042465 0.500000 0.010312
O O9 0.158353 0.709247 0.855949
O O10 0.059048 0.749451 0.045930
O O11 0.000000 0.734932 0.000000
O O12 0.685091 0.500000 0.806440
O O13 0.761402 0.716164 0.664292
O O14 0.804613 0.664828 0.720309
O O15 0.817487 0.500000 0.469833
O O16 0.750000 0.250000 0.500000
O O17 0.838972 0.223000 0.489626
O O18 0.302769 0.500000 0.597298
O O19 0.845419 0.500000 0.759801
O O20 0.725181 0.706335 0.898763
O O21 0.889151 0.000000 0.969103
#
# Coordination Sequence:
#
# PCOD9225186 Si02
#       8
#     8   8   8   8   8   8   8   8
#     4  10  21  37  57  80 108 142 179 221 269 319
#     4  10  21  36  56  81 108 141 180 222 268 318
#     4  10  21  37  57  81 110 143 179 221 269 319
#     4  10  21  37  57  81 109 143 182 222 267 318
#     4  10  21  37  57  81 109 142 180 222 270 321
#     4  10  21  37  56  80 110 142 180 224 268 318
#     4   9  20  37  55  78 108 141 178 220 266 319
#     4  10  21  37  57  81 109 142 181 222 266 318
#
# _framework density 9.8765429999999999
#
# number of rings (size 3 to 8) (size 9 to 14) (size 15 to 20)
#    0.000    2.125    0.000    3.375    0.000    9.000 
#    0.000    3.750    0.000    0.000    0.000    0.000 
#    0.000    0.000    0.000    0.000    0.000    0.000 
#
# Total GULP energy -178245.848939 kJ/mol
# GULP energy per Si atom -5570.182779 kJ/mol
# Density = 0.985406 g / cm^3
# Si number density = 9.876543 Si / 1000 Ang^3
#
#
#
# Elastic Constant Matrix: (Units=GPa)
#
#
# Indices 1 2 3 4 5 6 
#
# 1 13.6246 -3.3136 -6.6818 0.0070 -14.2807 -0.0026
# 2 -3.3136 -2.4302 3.0167 0.0131 -24.8947 -0.0103
# 3 -6.6818 3.0167 5.7765 0.0085 12.6507 -0.0091
# 4 0.0070 0.0131 0.0085 4.6341 -0.0011 10.4234
# 5 -14.2807 -24.8947 12.6507 -0.0011 12.9839 0.0011
# 6 -0.0026 -0.0103 -0.0091 10.4234 0.0011 58.5886
#
#
#
# Elastic Compliance Matrix: (Units=1/GPa)
#
#
# Indices 1 2 3 4 5 6 
#
# 1 0.169527 0.001548 0.193646 -0.001164 0.000749 0.000245
# 2 0.001548 0.015787 0.067446 -0.000349 -0.033744 0.000076
# 3 0.193646 0.067446 0.341998 -0.002116 0.009083 0.000450
# 4 -0.001164 -0.000349 -0.002116 0.359762 0.000148 -0.064005
# 5 0.000749 -0.033744 0.009083 0.000148 0.004295 -0.000031
# 6 0.000245 0.000076 0.000450 -0.064005 -0.000031 0.028455
#
#
# Mechanical properties :
#
#
# Convention : Reuss Voigt Hill
#
# Bulk Modulus (GPa) = 0.95004 0.33486 0.64245
# Shear Modulus (GPa) = 6.70775 16.83796 11.77286
#
# Velocity S-wave (km/s) = 1.84477 2.92279 2.44396
# Velocity P-wave (km/s) = 2.24044 3.40003 2.87921
#
# Compressibility (1/GPa) = 1.05259242
#
# Stress axis : x y z
#
# Youngs Moduli (GPa) = 5.89878 63.34326 2.92400
#
# Poissons Ratio (x) = -0.09807 -0.56622
# Poissons Ratio (y) = -0.00913 -0.19721
# Poissons Ratio (z) = -1.14228 -4.27228
#
# Static dielectric constant tensor:
#      x y z
#    x 1.738180 0.000000 -0.040790 
#    y 0.000000 1.665160 0.000000 
#    z -0.040790 0.000000 1.714340 
# 
# From -- ./inp_files/353265.got.cif
#   From: 2010.05.17/outbox.ucp.g08.bks.cvg/sg12_177_cif.got.tgz:353265.got - 2010.06.11 11:47:21.
