data_PCOD9225597
_publ_section_title
;
Structure prediction by ZEFSAII (Michael W. Deem and Ramdas Pophale) SiO2 
 PCOD9225597
Probable space group: C 2/M
;
_chemical_formula_sum "Si O2"
_cell_formula_units_Z 32
_cell_length_a 9.000000
_cell_length_b 24.000000
_cell_length_c 30.000000
_cell_angle_alpha 90.000000
_cell_angle_beta 30.000000
_cell_angle_gamma 90.000000
_cell_volume 3240.000000
_symmetry_space_group_name_H-M "C 2/M"
_symmetry_group_IT_number 12
_symmetry_cell_setting 'monoclinic'
loop_
_space_group_symop_operation_xyz
x,y,z
-x,y,-z
-x,-y,-z
x,-y,z
1/2+x,1/2+y,z
1/2-x,1/2+y,-z
1/2-x,1/2-y,-z
1/2+x,1/2-y,z
loop_
_atom_site_type_symbol
_atom_site_label
_atom_site_fract_x
_atom_site_fract_y
_atom_site_fract_z
Si Si1 0.772050 0.622565 0.509175
Si Si2 0.903105 0.167289 0.140998
Si Si3 0.333676 0.822683 0.344820
Si Si4 0.200079 0.726431 0.105645
Si Si5 0.759732 0.130942 0.807012
Si Si6 0.149356 0.431836 0.009867
Si Si7 0.145576 0.704330 0.354829
Si Si8 0.341051 0.565565 0.365585
O O1 0.444197 0.635945 0.576048
O O2 0.690618 0.603418 0.581247
O O3 0.968878 0.676950 0.442980
O O4 0.008729 0.575598 0.431016
O O5 0.612415 0.150385 0.245417
O O6 0.788878 0.209971 0.132606
O O7 0.092578 0.209929 0.123666
O O8 0.083032 0.115017 0.070545
O O9 0.229297 0.767833 0.344416
O O10 0.440465 0.800203 0.364757
O O11 0.967122 0.678508 0.151490
O O12 0.500000 0.719540 0.000000
O O13 0.579504 0.096640 0.893538
O O14 0.063352 0.167520 0.734403
O O15 0.890552 0.087816 0.735525
O O16 0.215736 0.500000 0.003651
O O17 0.000000 0.434390 0.000000
O O18 0.378078 0.500000 0.365850
#
# Coordination Sequence:
#
# PCOD9225597 Si02
#       8
#     8   8   8   8   8   8   8   8
#     4  10  22  38  64  93 132 165 222 271 339 399
#     4  12  25  41  67 100 142 185 230 281 349 417
#     4  12  24  40  62  99 142 180 221 280 344 418
#     4  12  24  40  65 103 137 180 225 289 352 411
#     4  11  23  44  68 100 136 177 232 290 350 411
#     4  11  25  45  68  95 135 187 236 282 340 413
#     4  11  25  39  65  98 141 176 223 277 353 417
#     4  10  22  43  73  99 128 180 234 284 340 411
#
# _framework density 9.8765429999999999
#
# number of rings (size 3 to 8) (size 9 to 14) (size 15 to 20)
#    0.000    0.875    2.500    4.875    7.000    0.000 
#    0.000    4.375    0.000   16.500    0.000    0.000 
#    0.000    0.000    0.000    0.000    0.000    0.000 
#
# Total GULP energy -178272.894148 kJ/mol
# GULP energy per Si atom -5571.027942 kJ/mol
# Density = 0.985406 g / cm^3
# Si number density = 9.876543 Si / 1000 Ang^3
#
#
#
# Elastic Constant Matrix: (Units=GPa)
#
#
# Indices 1 2 3 4 5 6 
#
# 1 74.6327 26.3949 24.4263 0.0902 -4.8186 0.0084
# 2 26.3949 102.5841 48.4809 0.2691 -1.6343 -0.1127
# 3 24.4263 48.4809 178.4898 0.0923 5.1158 -0.0842
# 4 0.0902 0.2691 0.0923 40.8247 -0.0275 2.6619
# 5 -4.8186 -1.6343 5.1158 -0.0275 36.7583 -0.0306
# 6 0.0084 -0.1127 -0.0842 2.6619 -0.0306 27.2236
#
#
#
# Elastic Compliance Matrix: (Units=1/GPa)
#
#
# Indices 1 2 3 4 5 6 
#
# 1 0.015088 -0.003267 -0.001235 -0.000006 0.002004 -0.000019
# 2 -0.003267 0.011922 -0.002805 -0.000068 0.000492 0.000049
# 3 -0.001235 -0.002805 0.006568 0.000005 -0.001201 0.000007
# 4 -0.000006 -0.000068 0.000005 0.024653 0.000012 -0.002411
# 5 0.002004 0.000492 -0.001201 0.000012 0.027657 0.000028
# 6 -0.000019 0.000049 0.000007 -0.002411 0.000028 0.036969
#
#
# Mechanical properties :
#
#
# Convention : Reuss Voigt Hill
#
# Bulk Modulus (GPa) = 52.73009 61.59009 57.16009
# Shear Modulus (GPa) = 34.77258 38.05496 36.41377
#
# Velocity S-wave (km/s) = 4.20022 4.39399 4.29820
# Velocity P-wave (km/s) = 7.09049 7.54921 7.32344
#
# Compressibility (1/GPa) = 0.01896450
#
# Stress axis : x y z
#
# Youngs Moduli (GPa) = 66.27869 83.87535 152.25403
#
# Poissons Ratio (x) = 0.27398 0.18803
# Poissons Ratio (y) = 0.21650 0.42713
# Poissons Ratio (z) = 0.08185 0.23530
#
# Static dielectric constant tensor:
#      x y z
#    x 1.792510 0.000030 -0.008200 
#    y 0.000030 1.701060 0.000060 
#    z -0.008200 0.000060 1.724210 
# 
# From -- ./inp_files/373259.got.cif
#   From: 2010.05.17/outbox.ucp.g08.bks.cvg/sg12_187_cif.got.tgz:373259.got - 2010.06.11 11:47:21.
