data_PCOD9225905
_publ_section_title
;
Structure prediction by ZEFSAII (Michael W. Deem and Ramdas Pophale) SiO2 
 PCOD9225905
Probable space group: C 2/M
;
_chemical_formula_sum "Si O2"
_cell_formula_units_Z 29
_cell_length_a 15.000000
_cell_length_b 21.000000
_cell_length_c 27.000000
_cell_angle_alpha 90.000000
_cell_angle_beta 160.000000
_cell_angle_gamma 90.000000
_cell_volume 2908.881319
_symmetry_space_group_name_H-M "C 2/M"
_symmetry_group_IT_number 12
_symmetry_cell_setting 'monoclinic'
loop_
_space_group_symop_operation_xyz
x,y,z
-x,y,-z
-x,-y,-z
x,-y,z
1/2+x,1/2+y,z
1/2-x,1/2+y,-z
1/2-x,1/2-y,-z
1/2+x,1/2-y,z
loop_
_atom_site_type_symbol
_atom_site_label
_atom_site_fract_x
_atom_site_fract_y
_atom_site_fract_z
Si Si1 0.810550 0.427990 0.670376
Si Si2 0.426728 0.863395 0.630395
Si Si3 0.343507 0.843247 0.871091
Si Si4 0.000000 0.500000 0.500000
Si Si5 0.747731 0.387841 0.435859
Si Si6 0.550447 0.302983 0.081003
Si Si7 0.480825 0.255144 0.548031
Si Si8 0.000058 0.677360 0.845417
O O1 0.500000 0.425751 0.500000
O O2 0.885979 0.500000 0.721532
O O3 0.930710 0.403425 0.682260
O O4 0.899470 0.379607 0.758629
O O5 0.320555 0.904647 0.530096
O O6 0.230899 0.802806 0.537252
O O7 0.719586 0.840873 0.772606
O O8 0.328245 0.766428 0.867305
O O9 0.497213 0.849257 0.899674
O O10 0.059482 0.873502 0.724523
O O11 0.500000 0.867352 0.000000
O O12 0.158374 0.442775 0.551773
O O13 0.887746 0.318214 0.501624
O O14 0.500000 0.331521 0.000000
O O15 0.280029 0.300077 0.970416
O O16 0.500000 0.272271 0.500000
O O17 0.768369 0.269832 0.720302
#
# Coordination Sequence:
#
# PCOD9225905 Si02
#       8
#     8   8   8   2   8   8   8   8
#     4  11  22  38  66 101 135 175 228 278 346 421
#     4  12  21  42  71 102 134 179 225 293 352 413
#     4  11  25  42  69 100 135 180 228 288 354 417
#     4  12  32  48  70 100 140 200 244 304 326 420
#     4  12  26  47  70  97 138 184 245 283 350 414
#     4  11  22  37  66 109 148 166 218 293 365 421
#     4  12  20  39  73 103 134 173 224 296 359 417
#     4  12  22  42  65 107 141 179 227 288 362 424
#
# _framework density 9.9694680000000009
#
# number of rings (size 3 to 8) (size 9 to 14) (size 15 to 20)
#    0.000    0.414    7.586    1.655    2.897    1.103 
#    1.241    1.724    3.034    0.000    0.000    0.000 
#    0.000    0.000    0.000    0.000    0.000    0.000 
#
# Total GULP energy -161768.061109 kJ/mol
# GULP energy per Si atom -5578.209004 kJ/mol
# Density = 0.994678 g / cm^3
# Si number density = 9.969468 Si / 1000 Ang^3
#
#
#
# Elastic Constant Matrix: (Units=GPa)
#
#
# Indices 1 2 3 4 5 6 
#
# 1 128.8552 17.1528 57.5083 0.0073 1.3244 0.0014
# 2 17.1528 84.9940 16.2706 0.0259 13.5612 0.0099
# 3 57.5083 16.2706 127.6911 0.0562 11.7930 0.0705
# 4 0.0073 0.0259 0.0562 12.1199 -0.0023 5.2861
# 5 1.3244 13.5612 11.7930 -0.0023 40.9597 -0.0187
# 6 0.0014 0.0099 0.0705 5.2861 -0.0187 11.3152
#
#
#
# Elastic Compliance Matrix: (Units=1/GPa)
#
#
# Indices 1 2 3 4 5 6 
#
# 1 0.009899 -0.001377 -0.004413 0.000006 0.001406 0.000027
# 2 -0.001377 0.012806 -0.000641 -0.000023 -0.004011 -0.000003
# 3 -0.004413 -0.000641 0.010137 -0.000018 -0.002564 -0.000058
# 4 0.000006 -0.000023 -0.000018 0.103623 -0.000003 -0.048410
# 5 0.001406 -0.004011 -0.002564 -0.000003 0.026435 0.000065
# 6 0.000027 -0.000003 -0.000058 -0.048410 0.000065 0.110993
#
#
# Mechanical properties :
#
#
# Convention : Reuss Voigt Hill
#
# Bulk Modulus (GPa) = 50.04927 58.15595 54.10261
# Shear Modulus (GPa) = 17.04069 29.58621 23.31345
#
# Velocity S-wave (km/s) = 2.92660 3.85624 3.42313
# Velocity P-wave (km/s) = 6.04779 7.00413 6.54345
#
# Compressibility (1/GPa) = 0.01998031
#
# Stress axis : x y z
#
# Youngs Moduli (GPa) = 101.02153 78.08727 98.64672
#
# Poissons Ratio (x) = 0.10756 0.43528
# Poissons Ratio (y) = 0.13915 0.06323
# Poissons Ratio (z) = 0.44576 0.05005
#
# Static dielectric constant tensor:
#      x y z
#    x 1.753620 0.000000 -0.029720 
#    y 0.000000 1.690180 -0.000020 
#    z -0.029720 -0.000020 1.716850 
# 
# From -- ./inp_files/362103.got.cif
#   From: 2010.05.17/outbox.ucp.g08.bks.cvg/sg12_182_cif.got.tgz:362103.got - 2010.06.11 11:47:21.
