data_PCOD9225616
_publ_section_title
;
Structure prediction by ZEFSAII (Michael W. Deem and Ramdas Pophale) SiO2 
 PCOD9225616
Probable space group: C 2/M
;
_chemical_formula_sum "Si O2"
_cell_formula_units_Z 24
_cell_length_a 18.000000
_cell_length_b 15.000000
_cell_length_c 18.000000
_cell_angle_alpha 90.000000
_cell_angle_beta 30.000000
_cell_angle_gamma 90.000000
_cell_volume 2430.000000
_symmetry_space_group_name_H-M "C 2/M"
_symmetry_group_IT_number 12
_symmetry_cell_setting 'monoclinic'
loop_
_space_group_symop_operation_xyz
x,y,z
-x,y,-z
-x,-y,-z
x,-y,z
1/2+x,1/2+y,z
1/2-x,1/2+y,-z
1/2-x,1/2-y,-z
1/2+x,1/2-y,z
loop_
_atom_site_type_symbol
_atom_site_label
_atom_site_fract_x
_atom_site_fract_y
_atom_site_fract_z
Si Si1 0.688534 0.395841 0.741108
Si Si2 0.539614 0.099820 0.232281
Si Si3 0.445671 0.282241 0.702761
Si Si4 0.500000 0.746872 0.000000
Si Si5 0.686504 0.398941 0.566706
Si Si6 0.337837 0.103868 0.040471
Si Si7 0.500000 0.194235 0.500000
O O1 0.663162 0.500000 0.785263
O O2 0.596292 0.321178 0.866037
O O3 0.657543 0.389398 0.679811
O O4 0.860095 0.368372 0.603218
O O5 0.601669 0.188375 0.218169
O O6 0.362542 0.105190 0.398358
O O7 0.583518 0.104470 0.107977
O O8 0.587164 0.000000 0.218436
O O9 0.600749 0.320886 0.598726
O O10 0.461906 0.256794 0.602761
O O11 0.330429 0.361168 0.820019
O O12 0.591299 0.817362 0.971162
O O13 0.639097 0.500000 0.585767
O O14 0.346048 0.000000 0.060627
#
# Coordination Sequence:
#
# PCOD9225616 Si02
#       7
#     8   8   8   4   8   8   4
#     4  11  24  44  68  99 134 170 214 265 325 388
#     4  10  22  39  64  94 123 168 216 263 321 381
#     4  12  23  42  65  97 130 169 217 268 326 384
#     4  12  24  44  64  96 128 176 214 260 332 382
#     4  10  22  41  68  96 128 169 219 272 318 379
#     4  11  25  43  63  91 130 172 219 268 320 381
#     4  12  25  40  67 100 132 172 209 264 331 386
#
# _framework density 9.8765429999999999
#
# number of rings (size 3 to 8) (size 9 to 14) (size 15 to 20)
#    0.000    1.000    3.333    3.250    2.333    0.667 
#    0.000    3.333    0.000    0.000    0.000    0.000 
#    0.000    0.000    0.000    0.000    0.000    0.000 
#
# Total GULP energy -134039.235567 kJ/mol
# GULP energy per Si atom -5584.968149 kJ/mol
# Density = 0.985406 g / cm^3
# Si number density = 9.876543 Si / 1000 Ang^3
#
#
#
# Elastic Constant Matrix: (Units=GPa)
#
#
# Indices 1 2 3 4 5 6 
#
# 1 51.8031 34.8033 13.7635 -0.0001 16.3491 0.0001
# 2 34.8033 166.4507 42.6050 0.0001 16.9360 0.0000
# 3 13.7635 42.6050 77.8958 0.0009 13.5166 -0.0004
# 4 -0.0001 0.0001 0.0009 24.2572 -0.0001 3.1937
# 5 16.3491 16.9360 13.5166 -0.0001 24.6115 -0.0001
# 6 0.0001 0.0000 -0.0004 3.1937 -0.0001 35.8241
#
#
#
# Elastic Compliance Matrix: (Units=1/GPa)
#
#
# Indices 1 2 3 4 5 6 
#
# 1 0.026768 -0.004099 0.000120 0.000000 -0.015027 0.000000
# 2 -0.004099 0.007819 -0.003417 0.000000 -0.000781 0.000000
# 3 0.000120 -0.003417 0.015796 -0.000001 -0.006404 0.000000
# 4 0.000000 0.000000 -0.000001 0.041714 0.000000 -0.003719
# 5 -0.015027 -0.000781 -0.006404 0.000000 0.054668 0.000000
# 6 0.000000 0.000000 0.000000 -0.003719 0.000000 0.028246
#
#
# Mechanical properties :
#
#
# Convention : Reuss Voigt Hill
#
# Bulk Modulus (GPa) = 28.09623 53.16592 40.63107
# Shear Modulus (GPa) = 24.79327 30.60375 27.69851
#
# Velocity S-wave (km/s) = 3.54667 3.94040 3.74871
# Velocity P-wave (km/s) = 5.57013 6.90478 6.27305
#
# Compressibility (1/GPa) = 0.03559197
#
# Stress axis : x y z
#
# Youngs Moduli (GPa) = 37.35766 127.89667 63.30520
#
# Poissons Ratio (x) = 0.52420 -0.00757
# Poissons Ratio (y) = 0.15311 0.21630
# Poissons Ratio (z) = -0.00447 0.43699
#
# Static dielectric constant tensor:
#      x y z
#    x 1.729260 0.000000 -0.038940 
#    y 0.000000 1.680340 0.000000 
#    z -0.038940 0.000000 1.694720 
# 
# From -- ./inp_files/278060.got.cif
#   From: 2010.05.17/outbox.ucp.g08.bks.cvg/sg12_140_cif.got.tgz:278060.got - 2010.06.11 11:47:21.
