data_PCOD9225746
_publ_section_title
;
Structure prediction by ZEFSAII (Michael W. Deem and Ramdas Pophale) SiO2 
 PCOD9225746
Probable space group: C 2/M
;
_chemical_formula_sum "Si O2"
_cell_formula_units_Z 28
_cell_length_a 9.000000
_cell_length_b 18.000000
_cell_length_c 27.000000
_cell_angle_alpha 90.000000
_cell_angle_beta 40.000000
_cell_angle_gamma 90.000000
_cell_volume 2811.553005
_symmetry_space_group_name_H-M "C 2/M"
_symmetry_group_IT_number 12
_symmetry_cell_setting 'monoclinic'
loop_
_space_group_symop_operation_xyz
x,y,z
-x,y,-z
-x,-y,-z
x,-y,z
1/2+x,1/2+y,z
1/2-x,1/2+y,-z
1/2-x,1/2-y,-z
1/2+x,1/2-y,z
loop_
_atom_site_type_symbol
_atom_site_label
_atom_site_fract_x
_atom_site_fract_y
_atom_site_fract_z
Si Si1 0.520406 0.700430 0.551345
Si Si2 0.041335 0.587046 0.044932
Si Si3 0.422011 0.587821 0.665802
Si Si4 0.164987 0.791162 0.790774
Si Si5 0.073924 0.083858 0.894796
Si Si6 0.503596 0.139542 0.159345
Si Si7 0.124064 0.808076 0.688575
O O1 0.500000 0.673156 0.500000
O O2 0.750000 0.750000 0.500000
O O3 0.486135 0.635302 0.600651
O O4 0.315925 0.758131 0.613974
O O5 0.973545 0.500000 0.061602
O O6 0.925268 0.622494 0.123038
O O7 0.316179 0.593358 0.980438
O O8 0.000000 0.617484 0.000000
O O9 0.428958 0.500000 0.656073
O O10 0.174083 0.611793 0.752726
O O11 0.590590 0.617145 0.666079
O O12 0.124656 0.856173 0.839511
O O13 0.967332 0.727960 0.843330
O O14 0.182620 0.820655 0.730643
O O15 0.392005 0.741989 0.744407
O O16 0.262047 0.096810 0.888984
O O17 0.092833 0.000000 0.870330
#
# Coordination Sequence:
#
# PCOD9225746 Si02
#       7
#     8   8   8   8   8   8   8
#     4  12  22  41  69  95 127 173 206 249 315 385
#     4  10  23  39  58  90 130 169 211 263 325 374
#     4  11  24  40  68 101 127 161 215 263 312 372
#     4  11  22  39  64  93 126 164 210 267 305 377
#     4  11  23  39  62  92 125 165 216 263 315 370
#     4  11  22  41  67  88 125 169 212 261 315 374
#     4  11  21  42  64  94 128 167 208 251 316 378
#
# _framework density 9.9589090000000002
#
# number of rings (size 3 to 8) (size 9 to 14) (size 15 to 20)
#    0.000    1.000    5.714    1.714    4.000    2.571 
#    0.000    1.429    0.000    3.429    0.000    0.000 
#    0.000    0.000    0.000    0.000    0.000    0.000 
#
# Total GULP energy -156340.646800 kJ/mol
# GULP energy per Si atom -5583.594529 kJ/mol
# Density = 0.993624 g / cm^3
# Si number density = 9.958909 Si / 1000 Ang^3
#
#
#
# Elastic Constant Matrix: (Units=GPa)
#
#
# Indices 1 2 3 4 5 6 
#
# 1 83.2875 36.7013 53.3845 -0.0017 34.7200 0.0070
# 2 36.7013 115.3369 57.4158 -0.0022 7.1172 -0.0029
# 3 53.3845 57.4158 87.8187 -0.0059 27.6945 0.0000
# 4 -0.0017 -0.0022 -0.0059 13.7550 0.0019 -1.1708
# 5 34.7200 7.1172 27.6945 0.0019 47.1735 -0.0058
# 6 0.0070 -0.0029 0.0000 -1.1708 -0.0058 15.4063
#
#
#
# Elastic Compliance Matrix: (Units=1/GPa)
#
#
# Indices 1 2 3 4 5 6 
#
# 1 0.023881 -0.002211 -0.009368 -0.000001 -0.011743 -0.000016
# 2 -0.002211 0.013599 -0.009098 -0.000002 0.004917 0.000005
# 3 -0.009368 -0.009098 0.025063 0.000009 -0.006446 0.000001
# 4 -0.000001 -0.000002 0.000009 0.073174 -0.000006 0.005561
# 5 -0.011743 0.004917 -0.006446 -0.000006 0.032884 0.000018
# 6 -0.000016 0.000005 0.000001 0.005561 0.000018 0.065331
#
#
# Mechanical properties :
#
#
# Convention : Reuss Voigt Hill
#
# Bulk Modulus (GPa) = 47.19341 64.60514 55.89928
# Shear Modulus (GPa) = 17.70853 24.52972 21.11912
#
# Velocity S-wave (km/s) = 2.98498 3.51315 3.25978
# Velocity P-wave (km/s) = 5.96872 6.99732 6.50339
#
# Compressibility (1/GPa) = 0.02118940
#
# Stress axis : x y z
#
# Youngs Moduli (GPa) = 41.87437 73.53315 39.89944
#
# Poissons Ratio (x) = 0.16257 0.37379
# Poissons Ratio (y) = 0.09258 0.36299
# Poissons Ratio (z) = 0.39229 0.66898
#
# Static dielectric constant tensor:
#      x y z
#    x 1.787980 0.000000 -0.037290 
#    y 0.000000 1.723830 -0.000010 
#    z -0.037290 -0.000010 1.715910 
# 
# From -- ./inp_files/356659.got.cif
#   From: 2010.05.17/outbox.ucp.g08.bks.cvg/sg12_179_cif.got.tgz:356659.got - 2010.06.11 11:47:21.
