data_PCOD9225373
_publ_section_title
;
Structure prediction by ZEFSAII (Michael W. Deem and Ramdas Pophale) SiO2 
 PCOD9225373
Probable space group: C 2/M
;
_chemical_formula_sum "Si O2"
_cell_formula_units_Z 24
_cell_length_a 15.000000
_cell_length_b 15.000000
_cell_length_c 12.000000
_cell_angle_alpha 90.000000
_cell_angle_beta 110.000000
_cell_angle_gamma 90.000000
_cell_volume 2537.170076
_symmetry_space_group_name_H-M "C 2/M"
_symmetry_group_IT_number 12
_symmetry_cell_setting 'monoclinic'
loop_
_space_group_symop_operation_xyz
x,y,z
-x,y,-z
-x,-y,-z
x,-y,z
1/2+x,1/2+y,z
1/2-x,1/2+y,-z
1/2-x,1/2-y,-z
1/2+x,1/2-y,z
loop_
_atom_site_type_symbol
_atom_site_label
_atom_site_fract_x
_atom_site_fract_y
_atom_site_fract_z
Si Si1 0.759209 0.605652 0.830563
Si Si2 0.410112 0.744121 0.881422
Si Si3 0.908464 0.607430 0.317082
Si Si4 0.738774 0.602564 0.084641
Si Si5 0.093054 0.730242 0.364836
Si Si6 0.685307 0.277247 0.609800
O O1 0.765621 0.500000 0.806611
O O2 0.859097 0.658784 0.861566
O O3 0.686511 0.658949 0.718513
O O4 0.733201 0.614613 0.949579
O O5 0.330283 0.673516 0.886457
O O6 0.438132 0.726422 0.765124
O O7 0.500000 0.740898 0.000000
O O8 0.913001 0.500000 0.348334
O O9 0.846982 0.612818 0.176132
O O10 0.844679 0.675000 0.367600
O O11 0.013871 0.652768 0.354819
O O12 0.711405 0.500000 0.099712
O O13 0.205801 0.707703 0.388385
O O14 0.108966 0.793229 0.479040
#
# Coordination Sequence:
#
# PCOD9225373 Si02
#       6
#     8   8   8   8   8   8
#     4  10  21  38  61  87 122 166 209 257 313 376
#     4  11  22  37  64  92 128 165 206 264 332 378
#     4  11  22  40  69 101 129 164 216 272 323 375
#     4  10  21  39  63  93 124 163 216 266 317 382
#     4  10  22  38  59  95 128 168 208 258 312 387
#     4  10  22  41  61  88 137 172 206 256 324 382
#
# _framework density 9.4593579999999999
#
# number of rings (size 3 to 8) (size 9 to 14) (size 15 to 20)
#    0.000    1.667    3.333    2.000    2.333    4.667 
#    0.000    5.000    0.000    3.000    0.000    0.000 
#    0.000    0.000    0.000    0.000    0.000    0.000 
#
# Total GULP energy -133656.244716 kJ/mol
# GULP energy per Si atom -5569.010196 kJ/mol
# Density = 0.943783 g / cm^3
# Si number density = 9.459358 Si / 1000 Ang^3
#
#
#
# Elastic Constant Matrix: (Units=GPa)
#
#
# Indices 1 2 3 4 5 6 
#
# 1 93.7527 53.2203 30.0149 0.0000 13.5267 0.0000
# 2 53.2203 118.6961 45.2043 0.0000 10.7486 0.0000
# 3 30.0149 45.2043 157.9955 0.0000 26.6603 0.0000
# 4 0.0000 0.0000 0.0000 28.3417 0.0000 7.1749
# 5 13.5267 10.7486 26.6603 0.0000 30.8382 0.0000
# 6 0.0000 0.0000 0.0000 7.1749 0.0000 29.3623
#
#
#
# Elastic Compliance Matrix: (Units=1/GPa)
#
#
# Indices 1 2 3 4 5 6 
#
# 1 0.014865 -0.006154 -0.000380 0.000000 -0.004047 0.000000
# 2 -0.006154 0.012036 -0.002367 0.000000 0.000551 0.000000
# 3 -0.000380 -0.002367 0.008092 0.000000 -0.006004 0.000000
# 4 0.000000 0.000000 0.000000 0.037610 0.000000 -0.009190
# 5 -0.004047 0.000551 -0.006004 0.000000 0.039201 0.000000
# 6 0.000000 0.000000 0.000000 -0.009190 0.000000 0.036303
#
#
# Mechanical properties :
#
#
# Convention : Reuss Voigt Hill
#
# Bulk Modulus (GPa) = 58.17516 69.70257 63.93887
# Shear Modulus (GPa) = 29.13062 33.84210 31.48636
#
# Velocity S-wave (km/s) = 3.92826 4.23403 4.08401
# Velocity P-wave (km/s) = 7.16880 7.79909 7.49058
#
# Compressibility (1/GPa) = 0.01718947
#
# Stress axis : x y z
#
# Youngs Moduli (GPa) = 67.27032 83.08500 123.57881
#
# Poissons Ratio (x) = 0.51130 0.04702
# Poissons Ratio (y) = 0.41398 0.29257
# Poissons Ratio (z) = 0.02560 0.19670
#
# Static dielectric constant tensor:
#      x y z
#    x 1.679070 0.000000 -0.040410 
#    y 0.000000 1.647190 0.000000 
#    z -0.040410 0.000000 1.751330 
# 
# From -- ./inp_files/143162.got.cif
#   From: 2010.05.17/outbox.ucp.g08.bks.cvg/sg12_72_cif.got.tgz:143162.got - 2010.06.11 11:47:21.
