data_PCOD9225132
_publ_section_title
;
Structure prediction by ZEFSAII (Michael W. Deem and Ramdas Pophale) SiO2 
 PCOD9225132
Probable space group: C 2/M
;
_chemical_formula_sum "Si O2"
_cell_formula_units_Z 28
_cell_length_a 18.000000
_cell_length_b 9.000000
_cell_length_c 18.000000
_cell_angle_alpha 90.000000
_cell_angle_beta 70.000000
_cell_angle_gamma 90.000000
_cell_volume 2740.143682
_symmetry_space_group_name_H-M "C 2/M"
_symmetry_group_IT_number 12
_symmetry_cell_setting 'monoclinic'
loop_
_space_group_symop_operation_xyz
x,y,z
-x,y,-z
-x,-y,-z
x,-y,z
1/2+x,1/2+y,z
1/2-x,1/2+y,-z
1/2-x,1/2-y,-z
1/2+x,1/2-y,z
loop_
_atom_site_type_symbol
_atom_site_label
_atom_site_fract_x
_atom_site_fract_y
_atom_site_fract_z
Si Si1 0.133358 0.335476 0.635847
Si Si2 0.971114 0.835780 0.926133
Si Si3 0.819678 0.324935 0.929841
Si Si4 0.056566 0.168423 0.539233
Si Si5 0.784859 0.678428 0.774953
Si Si6 0.299414 0.672018 0.620147
Si Si7 0.883591 0.333534 0.185351
O O1 0.142239 0.500000 0.599104
O O2 0.070237 0.246951 0.611184
O O3 0.219595 0.261396 0.612350
O O4 0.110313 0.348497 0.728625
O O5 0.900238 0.723023 0.940384
O O6 0.046610 0.774547 0.859052
O O7 0.945959 0.000000 0.909749
O O8 0.000000 0.844138 0.000000
O O9 0.807288 0.500000 0.936589
O O10 0.823109 0.283349 0.841226
O O11 0.750000 0.250000 0.000000
O O12 0.137971 0.165920 0.466387
O O13 0.000000 0.246855 0.500000
O O14 0.027719 0.000000 0.561924
O O15 0.778163 0.500000 0.771667
O O16 0.824060 0.742085 0.686211
O O17 0.699147 0.756503 0.805588
O O18 0.281575 0.500000 0.648782
O O19 0.889075 0.500000 0.150514
#
# Coordination Sequence:
#
# PCOD9225132 Si02
#       7
#     8   8   8   8   8   8   8
#     4   9  19  35  55  79 106 140 182 224 268 326
#     4  11  24  40  59  85 115 148 189 233 276 329
#     4  11  24  40  59  85 116 150 189 232 278 331
#     4  10  21  35  52  78 110 142 180 227 276 328
#     4  10  21  37  58  85 113 143 186 233 276 330
#     4   9  19  36  56  79 108 143 184 226 273 331
#     4  10  21  38  60  86 115 146 183 228 280 336
#
# _framework density 10.218442
#
# number of rings (size 3 to 8) (size 9 to 14) (size 15 to 20)
#    0.000    2.000    0.000    3.857    0.000   11.714 
#    0.000    2.857    0.000    0.000    0.000    0.000 
#    0.000    0.000    0.000    0.000    0.000    0.000 
#
# Total GULP energy -156037.517722 kJ/mol
# GULP energy per Si atom -5572.768490 kJ/mol
# Density = 1.019518 g / cm^3
# Si number density = 10.218442 Si / 1000 Ang^3
#
#
#
# Elastic Constant Matrix: (Units=GPa)
#
#
# Indices 1 2 3 4 5 6 
#
# 1 38.0439 9.8958 20.5048 0.0000 29.6062 0.0000
# 2 9.8958 36.7737 7.8357 0.0000 25.3464 -0.0001
# 3 20.5048 7.8357 6.6894 0.0000 5.6009 0.0000
# 4 0.0000 0.0000 0.0000 35.5857 0.0000 4.1792
# 5 29.6062 25.3464 5.6009 0.0000 25.9549 0.0000
# 6 0.0000 -0.0001 0.0000 4.1792 0.0000 30.9138
#
#
#
# Elastic Compliance Matrix: (Units=1/GPa)
#
#
# Indices 1 2 3 4 5 6 
#
# 1 -0.011185 -0.025533 0.039831 0.000000 0.029098 0.000000
# 2 -0.025533 0.032624 0.051677 0.000000 -0.013886 0.000000
# 3 0.039831 0.051677 0.057561 0.000000 -0.108322 0.000000
# 4 0.000000 0.000000 0.000000 0.028555 0.000000 -0.003860
# 5 0.029098 -0.013886 -0.108322 0.000000 0.042273 0.000000
# 6 0.000000 0.000000 0.000000 -0.003860 0.000000 0.032870
#
#
# Mechanical properties :
#
#
# Convention : Reuss Voigt Hill
#
# Bulk Modulus (GPa) = 4.74044 17.55327 11.14686
# Shear Modulus (GPa) = 41.30109 21.37559 31.33834
#
# Velocity S-wave (km/s) = 4.50033 3.23760 3.92014
# Velocity P-wave (km/s) = 5.41558 4.75223 5.09471
#
# Compressibility (1/GPa) = 0.21095090
#
# Stress axis : x y z
#
# Youngs Moduli (GPa) = -89.40356 30.65254 17.37285
#
# Poissons Ratio (x) = 0.78265 -0.69198
# Poissons Ratio (y) = -2.28273 -0.89779
# Poissons Ratio (z) = 3.56103 -1.58405
#
# Static dielectric constant tensor:
#      x y z
#    x 1.893680 0.000000 -0.096150 
#    y 0.000000 1.751120 0.000000 
#    z -0.096150 0.000000 1.783060 
# 
# From -- ./inp_files/275166.got.cif
#   From: 2010.05.17/outbox.ucp.g08.bks.cvg/sg12_138_cif.got.tgz:275166.got - 2010.06.11 11:47:21.
