data_PCOD9225131
_publ_section_title
;
Structure prediction by ZEFSAII (Michael W. Deem and Ramdas Pophale) SiO2 
 PCOD9225131
Probable space group: C 2/M
;
_chemical_formula_sum "Si O2"
_cell_formula_units_Z 24
_cell_length_a 30.000000
_cell_length_b 9.000000
_cell_length_c 18.000000
_cell_angle_alpha 90.000000
_cell_angle_beta 30.000000
_cell_angle_gamma 90.000000
_cell_volume 2430.000000
_symmetry_space_group_name_H-M "C 2/M"
_symmetry_group_IT_number 12
_symmetry_cell_setting 'monoclinic'
loop_
_space_group_symop_operation_xyz
x,y,z
-x,y,-z
-x,-y,-z
x,-y,z
1/2+x,1/2+y,z
1/2-x,1/2+y,-z
1/2-x,1/2-y,-z
1/2+x,1/2-y,z
loop_
_atom_site_type_symbol
_atom_site_label
_atom_site_fract_x
_atom_site_fract_y
_atom_site_fract_z
Si Si1 0.564775 0.178652 0.841785
Si Si2 0.255544 0.323934 0.368222
Si Si3 0.995317 0.823472 0.383040
Si Si4 0.809756 0.322635 0.697418
Si Si5 0.049349 0.322521 0.700451
Si Si6 0.305847 0.323074 0.854038
O O1 0.664020 0.240060 0.709253
O O2 0.524301 0.216292 0.820183
O O3 0.570281 0.000000 0.837070
O O4 0.500000 0.233076 0.000000
O O5 0.269548 0.500000 0.356422
O O6 0.248833 0.286995 0.290466
O O7 0.155750 0.291931 0.541109
O O8 0.909863 0.737358 0.538148
O O9 0.999960 0.771137 0.290927
O O10 0.088902 0.789096 0.286966
O O11 0.979481 0.000000 0.411820
O O12 0.812938 0.500000 0.700854
O O13 0.775117 0.244241 0.820674
O O14 0.037586 0.500000 0.703782
O O15 0.295945 0.500000 0.869497
O O16 0.250000 0.250000 0.000000
#
# Coordination Sequence:
#
# PCOD9225131 Si02
#       6
#     8   8   8   8   8   8
#     4  10  21  35  52  78 110 142 178 221 270 326
#     4   9  19  35  55  79 105 137 179 223 266 319
#     4  10  21  37  58  84 110 140 185 233 274 324
#     4  10  21  38  60  85 112 143 182 227 276 330
#     4   9  19  36  56  79 107 140 181 225 271 325
#     4  11  24  39  56  82 115 149 186 227 272 326
#
# _framework density 9.8765429999999999
#
# number of rings (size 3 to 8) (size 9 to 14) (size 15 to 20)
#    0.000    2.167    0.000    3.500    0.000   10.333 
#    0.000    3.333    0.000    0.000    0.000    0.000 
#    0.000    0.000    0.000    0.000    0.000    0.000 
#
# Total GULP energy -134040.142149 kJ/mol
# GULP energy per Si atom -5585.005923 kJ/mol
# Density = 0.985406 g / cm^3
# Si number density = 9.876543 Si / 1000 Ang^3
#
#
#
# Elastic Constant Matrix: (Units=GPa)
#
#
# Indices 1 2 3 4 5 6 
#
# 1 73.6569 24.7894 6.6116 0.0000 24.3394 0.0002
# 2 24.7894 19.8341 -1.0752 0.0006 4.8793 0.0005
# 3 6.6116 -1.0752 3.3543 -0.0003 24.9240 0.0005
# 4 0.0000 0.0006 -0.0003 22.4262 0.0005 -0.7777
# 5 24.3394 4.8793 24.9240 0.0005 33.2967 -0.0003
# 6 0.0002 0.0005 0.0005 -0.7777 -0.0003 31.2773
#
#
#
# Elastic Compliance Matrix: (Units=1/GPa)
#
#
# Indices 1 2 3 4 5 6 
#
# 1 0.028766 -0.034678 -0.011107 0.000001 -0.007632 0.000001
# 2 -0.034678 0.090396 -0.001623 -0.000003 0.013317 -0.000001
# 3 -0.011107 -0.001623 -0.056423 -0.000002 0.050592 0.000001
# 4 0.000001 -0.000003 -0.000002 0.044629 0.000000 0.001110
# 5 -0.007632 0.013317 0.050592 0.000000 -0.004210 -0.000001
# 6 0.000001 -0.000001 0.000001 0.001110 -0.000001 0.032000
#
#
# Mechanical properties :
#
#
# Convention : Reuss Voigt Hill
#
# Bulk Modulus (GPa) = -31.17632 17.49966 -6.83833
# Shear Modulus (GPa) = 22.80174 21.83467 22.31820
#
# Velocity S-wave (km/s) = 3.40124 3.32833 3.36498
# Velocity P-wave (km/s) = 0.62665 4.86301 3.41000
#
# Compressibility (1/GPa) = -0.03207562
#
# Stress axis : x y z
#
# Youngs Moduli (GPa) = 34.76283 11.06241 -17.72318
#
# Poissons Ratio (x) = 0.38362 -0.19685
# Poissons Ratio (y) = 1.20550 -0.02876
# Poissons Ratio (z) = 0.38611 0.01795
#
# Static dielectric constant tensor:
#      x y z
#    x 1.702330 0.000000 0.062640 
#    y 0.000000 1.650510 0.000000 
#    z 0.062640 0.000000 1.718010 
# 
# From -- ./inp_files/274066.got.cif
#   From: 2010.05.17/outbox.ucp.g08.bks.cvg/sg12_138_cif.got.tgz:274066.got - 2010.06.11 11:47:21.
