data_PCOD9225435
_publ_section_title
;
Structure prediction by ZEFSAII (Michael W. Deem and Ramdas Pophale) SiO2 
 PCOD9225435
Probable space group: C 2/M
;
_chemical_formula_sum "Si O2"
_cell_formula_units_Z 32
_cell_length_a 21.000000
_cell_length_b 9.000000
_cell_length_c 21.000000
_cell_angle_alpha 90.000000
_cell_angle_beta 60.000000
_cell_angle_gamma 90.000000
_cell_volume 3437.254828
_symmetry_space_group_name_H-M "C 2/M"
_symmetry_group_IT_number 12
_symmetry_cell_setting 'monoclinic'
loop_
_space_group_symop_operation_xyz
x,y,z
-x,y,-z
-x,-y,-z
x,-y,z
1/2+x,1/2+y,z
1/2-x,1/2+y,-z
1/2-x,1/2-y,-z
1/2+x,1/2-y,z
loop_
_atom_site_type_symbol
_atom_site_label
_atom_site_fract_x
_atom_site_fract_y
_atom_site_fract_z
Si Si1 0.192201 0.321237 0.813796
Si Si2 0.225702 0.179528 0.444401
Si Si3 0.932960 0.678265 0.484665
Si Si4 0.672192 0.179133 0.058517
Si Si5 0.852894 0.821445 0.295123
Si Si6 0.482733 0.322964 0.328309
Si Si7 0.579958 0.820354 0.983753
Si Si8 0.151019 0.177803 0.206147
O O1 0.188938 0.500000 0.804698
O O2 0.155750 0.237950 0.772347
O O3 0.143350 0.286333 0.900558
O O4 0.277927 0.282645 0.785661
O O5 0.250000 0.250000 0.500000
O O6 0.145193 0.240450 0.464210
O O7 0.287805 0.238101 0.365323
O O8 0.224422 0.000000 0.448797
O O9 0.922268 0.500000 0.492276
O O10 0.955885 0.730595 0.402526
O O11 0.000000 0.715534 0.500000
O O12 0.655571 0.236199 0.137368
O O13 0.677411 0.000000 0.054225
O O14 0.750000 0.250000 0.000000
O O15 0.609982 0.226622 0.038054
O O16 0.930031 0.789876 0.293675
O O17 0.842539 0.000000 0.302192
O O18 0.473713 0.500000 0.345800
O O19 0.569487 0.294786 0.274475
O O20 0.574498 0.000000 0.989095
O O21 0.500000 0.764888 0.000000
O O22 0.157340 0.000000 0.191232
#
# Coordination Sequence:
#
# PCOD9225435 Si02
#       8
#     8   8   8   8   8   8   8   8
#     4  10  21  39  61  86 120 162 204 251 304 363
#     4  12  24  42  68  94 122 163 207 253 311 369
#     4  11  25  43  65  96 129 161 206 261 307 361
#     4  11  21  37  62  88 115 156 199 249 306 360
#     4  11  24  41  61  90 126 162 204 254 305 364
#     4  10  23  42  63  87 123 168 205 249 306 366
#     4   9  19  36  58  86 119 154 199 248 296 356
#     4  10  22  41  61  87 121 159 206 252 303 367
#
# _framework density 9.3097549999999991
#
# number of rings (size 3 to 8) (size 9 to 14) (size 15 to 20)
#    0.000    1.500    2.500    2.250    3.500    2.500 
#    0.000    0.000    0.000    1.875    0.000    0.000 
#    0.000    0.000    0.000    0.000    0.000    0.000 
#
# Total GULP energy -178722.478499 kJ/mol
# GULP energy per Si atom -5585.077453 kJ/mol
# Density = 0.928857 g / cm^3
# Si number density = 9.309755 Si / 1000 Ang^3
#
#
#
# Elastic Constant Matrix: (Units=GPa)
#
#
# Indices 1 2 3 4 5 6 
#
# 1 171.8812 39.2479 26.5002 0.0000 0.2572 -0.0003
# 2 39.2479 65.7099 19.1970 -0.0001 -0.4752 -0.0009
# 3 26.5002 19.1970 43.8600 0.0000 4.0935 0.0000
# 4 0.0000 -0.0001 0.0000 31.9438 0.0000 4.9375
# 5 0.2572 -0.4752 4.0935 0.0000 41.6465 0.0000
# 6 -0.0003 -0.0009 0.0000 4.9375 0.0000 33.1155
#
#
#
# Elastic Compliance Matrix: (Units=1/GPa)
#
#
# Indices 1 2 3 4 5 6 
#
# 1 0.007018 -0.003378 -0.002779 0.000000 0.000191 0.000000
# 2 -0.003378 0.019114 -0.006406 0.000000 0.000869 0.000001
# 3 -0.002779 -0.006406 0.027541 0.000000 -0.002763 0.000000
# 4 0.000000 0.000000 0.000000 0.032043 0.000000 -0.004778
# 5 0.000191 0.000869 -0.002763 0.000000 0.024292 0.000000
# 6 0.000000 0.000001 0.000000 -0.004778 0.000000 0.030910
#
#
# Mechanical properties :
#
#
# Convention : Reuss Voigt Hill
#
# Bulk Modulus (GPa) = 35.03182 50.14903 42.59043
# Shear Modulus (GPa) = 28.48044 34.44157 31.46100
#
# Velocity S-wave (km/s) = 3.91526 4.30555 4.11503
# Velocity P-wave (km/s) = 6.26852 7.19090 6.74550
#
# Compressibility (1/GPa) = 0.02854547
#
# Stress axis : x y z
#
# Youngs Moduli (GPa) = 142.49942 52.31789 36.30989
#
# Poissons Ratio (x) = 0.17674 0.10092
# Poissons Ratio (y) = 0.48139 0.23260
# Poissons Ratio (z) = 0.39605 0.33514
#
# Static dielectric constant tensor:
#      x y z
#    x 1.642220 0.000000 -0.001720 
#    y 0.000000 1.622540 0.000000 
#    z -0.001720 0.000000 1.656320 
# 
# From -- ./inp_files/319982.got.cif
#   From: 2010.05.17/outbox.ucp.g08.bks.cvg/sg12_160_cif.got.tgz:319982.got - 2010.06.11 11:47:21.
