data_PCOD9225101
_publ_section_title
;
Structure prediction by ZEFSAII (Michael W. Deem and Ramdas Pophale) SiO2 
 PCOD9225101
Probable space group: C 2/M
;
_chemical_formula_sum "Si O2"
_cell_formula_units_Z 23
_cell_length_a 30.000000
_cell_length_b 15.000000
_cell_length_c 30.000000
_cell_angle_alpha 90.000000
_cell_angle_beta 10.000000
_cell_angle_gamma 90.000000
_cell_volume 2344.250399
_symmetry_space_group_name_H-M "C 2/M"
_symmetry_group_IT_number 12
_symmetry_cell_setting 'monoclinic'
loop_
_space_group_symop_operation_xyz
x,y,z
-x,y,-z
-x,-y,-z
x,-y,z
1/2+x,1/2+y,z
1/2-x,1/2+y,-z
1/2-x,1/2-y,-z
1/2+x,1/2-y,z
loop_
_atom_site_type_symbol
_atom_site_label
_atom_site_fract_x
_atom_site_fract_y
_atom_site_fract_z
Si Si1 0.229216 0.000000 0.738562
Si Si2 0.627117 0.330283 0.773952
Si Si3 0.015799 0.103304 0.676092
Si Si4 0.455889 0.102641 0.790658
Si Si5 0.747984 0.316451 0.279076
Si Si6 0.500000 0.500000 0.500000
Si Si7 0.914690 0.292784 0.739989
O O1 0.500000 0.000000 0.500000
O O2 0.185834 0.087617 0.749887
O O3 0.000000 0.000000 0.000000
O O4 0.835183 0.333534 0.529840
O O5 0.682758 0.238313 0.745491
O O6 0.340726 0.323170 0.035299
O O7 0.949900 0.184965 0.707809
O O8 0.288421 0.121880 0.432025
O O9 0.023132 0.000000 0.651300
O O10 0.789968 0.105835 0.935086
O O11 0.412876 0.169179 0.792044
O O12 0.482188 0.000000 0.748270
O O13 0.500000 0.270838 0.500000
O O14 0.657429 0.419358 0.371725
O O15 0.000000 0.314320 0.000000
#
# Coordination Sequence:
#
# PCOD9225101 Si02
#       7
#     4   8   8   8   8   2   8
#     4  12  26  48  72  90 124 172 210 260 320 402
#     4  12  26  40  64  95 127 156 204 255 331 361
#     4  10  21  41  61  91 123 173 216 245 303 374
#     4  10  21  37  66  86 121 171 217 253 298 369
#     4  10  20  41  62  90 117 157 203 245 292 373
#     4   8  22  36  74  82 118 148 214 236 278 346
#     4  12  24  40  61  95 131 160 200 271 308 369
#
# _framework density 9.8112390000000005
#
# number of rings (size 3 to 8) (size 9 to 14) (size 15 to 20)
#    0.522    0.696    0.000    6.522    2.435    0.000 
#    3.130    0.000    0.000    0.000    0.000    0.000 
#    0.000    0.000    0.000    0.000    0.000    0.000 
#
# Total GULP energy -128213.079007 kJ/mol
# GULP energy per Si atom -5574.481696 kJ/mol
# Density = 0.978891 g / cm^3
# Si number density = 9.811239 Si / 1000 Ang^3
#
#
#
# Elastic Constant Matrix: (Units=GPa)
#
#
# Indices 1 2 3 4 5 6 
#
# 1 53.4975 36.5993 23.1338 0.2520 -15.4576 0.2326
# 2 36.5993 113.5354 14.8643 -0.3723 -10.4107 -0.0604
# 3 23.1338 14.8643 111.0427 -0.2579 -25.0134 0.4864
# 4 0.2520 -0.3723 -0.2579 11.3268 0.1469 -4.8737
# 5 -15.4576 -10.4107 -25.0134 0.1469 45.0953 -0.0529
# 6 0.2326 -0.0604 0.4864 -4.8737 -0.0529 34.3761
#
#
#
# Elastic Compliance Matrix: (Units=1/GPa)
#
#
# Indices 1 2 3 4 5 6 
#
# 1 0.027098 -0.007785 -0.003333 -0.001138 0.005646 -0.000303
# 2 -0.007785 0.011305 0.000109 0.000615 0.000000 0.000158
# 3 -0.003333 0.000109 0.010781 0.000221 0.004862 -0.000091
# 4 -0.001138 0.000615 0.000221 0.094084 -0.000416 0.013344
# 5 0.005646 0.000000 0.004862 -0.000416 0.026809 -0.000125
# 6 -0.000303 0.000158 -0.000091 0.013344 -0.000125 0.030985
#
#
# Mechanical properties :
#
#
# Convention : Reuss Voigt Hill
#
# Bulk Modulus (GPa) = 36.80887 47.47450 42.14168
# Shear Modulus (GPa) = 21.53917 31.72484 26.63201
#
# Velocity S-wave (km/s) = 3.31672 4.02526 3.68804
# Velocity P-wave (km/s) = 5.78504 6.77127 6.29749
#
# Compressibility (1/GPa) = 0.02716737
#
# Stress axis : x y z
#
# Youngs Moduli (GPa) = 36.90356 88.45462 92.75232
#
# Poissons Ratio (x) = 0.68863 0.30912
# Poissons Ratio (y) = 0.28730 -0.01014
# Poissons Ratio (z) = 0.12299 -0.00967
#
# Static dielectric constant tensor:
#      x y z
#    x 1.680080 -0.000390 0.015310 
#    y -0.000390 1.716520 0.000620 
#    z 0.015310 0.000620 1.681420 
# 
# From -- ./inp_files/385365.got.cif
#   From: 2010.05.17/outbox.ucp.g08.bks.cvg/sg12_193_cif.got.tgz:385365.got - 2010.06.11 11:47:21.
