data_PCOD9225478
_publ_section_title
;
Structure prediction by ZEFSAII (Michael W. Deem and Ramdas Pophale) SiO2 
 PCOD9225478
Probable space group: C 2/M
;
_chemical_formula_sum "Si O2"
_cell_formula_units_Z 28
_cell_length_a 18.000000
_cell_length_b 18.000000
_cell_length_c 9.000000
_cell_angle_alpha 90.000000
_cell_angle_beta 70.000000
_cell_angle_gamma 90.000000
_cell_volume 2740.143682
_symmetry_space_group_name_H-M "C 2/M"
_symmetry_group_IT_number 12
_symmetry_cell_setting 'monoclinic'
loop_
_space_group_symop_operation_xyz
x,y,z
-x,y,-z
-x,-y,-z
x,-y,z
1/2+x,1/2+y,z
1/2-x,1/2+y,-z
1/2-x,1/2-y,-z
1/2+x,1/2-y,z
loop_
_atom_site_type_symbol
_atom_site_label
_atom_site_fract_x
_atom_site_fract_y
_atom_site_fract_z
Si Si1 0.981967 0.084053 0.347801
Si Si2 0.925989 0.707354 0.658349
Si Si3 0.941650 0.412985 0.904028
Si Si4 0.789442 0.329480 0.514251
Si Si5 0.212976 0.412474 0.791785
Si Si6 0.636188 0.645106 0.131743
Si Si7 0.153745 0.090489 0.786253
O O1 0.918918 0.115019 0.272599
O O2 0.000000 0.115840 0.500000
O O3 0.065485 0.087714 0.209999
O O4 0.953765 0.000000 0.394654
O O5 0.946346 0.640172 0.758152
O O6 0.858156 0.685833 0.586439
O O7 0.896827 0.775728 0.784187
O O8 0.000000 0.724194 0.500000
O O9 0.957185 0.500000 0.855457
O O10 0.855305 0.407706 0.037684
O O11 0.000000 0.392162 0.000000
O O12 0.750000 0.250000 0.500000
O O13 0.810338 0.369218 0.343240
O O14 0.729229 0.384406 0.640068
O O15 0.226285 0.500000 0.749641
O O16 0.290383 0.376930 0.814322
O O17 0.654359 0.634215 0.943842
O O18 0.150897 0.000000 0.812194
#
# Coordination Sequence:
#
# PCOD9225478 Si02
#       7
#     8   8   8   8   8   8   8
#     4  10  21  39  64  95 135 177 220 269 328 402
#     4  12  28  46  69 101 138 183 229 278 350 412
#     4  10  24  47  74 102 133 178 237 295 348 401
#     4  12  26  44  67  97 139 179 227 284 338 405
#     4  11  23  43  73 101 134 180 225 279 347 413
#     4  12  24  40  65 100 142 175 224 276 339 412
#     4  11  25  43  68 101 134 181 231 278 335 408
#
# _framework density 10.218442
#
# number of rings (size 3 to 8) (size 9 to 14) (size 15 to 20)
#    0.000    0.857    1.429    5.143    4.000    7.143 
#    0.000    0.000    0.000    0.000    0.000    0.000 
#    0.000    0.000    0.000    0.000    0.000    0.000 
#
# Total GULP energy -156435.218600 kJ/mol
# GULP energy per Si atom -5586.972093 kJ/mol
# Density = 1.019518 g / cm^3
# Si number density = 10.218442 Si / 1000 Ang^3
#
#
#
# Elastic Constant Matrix: (Units=GPa)
#
#
# Indices 1 2 3 4 5 6 
#
# 1 127.8858 35.3456 21.7715 0.0000 24.4011 0.0000
# 2 35.3456 118.5937 51.4278 0.0000 22.1738 0.0000
# 3 21.7715 51.4278 120.3055 0.0000 26.1366 0.0000
# 4 0.0000 0.0000 0.0000 -1.3776 0.0000 -3.8798
# 5 24.4011 22.1738 26.1366 0.0000 46.0099 0.0000
# 6 0.0000 0.0000 0.0000 -3.8798 0.0000 19.1787
#
#
#
# Elastic Compliance Matrix: (Units=1/GPa)
#
#
# Indices 1 2 3 4 5 6 
#
# 1 0.009109 -0.002012 0.000058 0.000000 -0.003894 0.000000
# 2 -0.002012 0.011127 -0.003946 0.000000 -0.002054 0.000000
# 3 0.000058 -0.003946 0.010931 0.000000 -0.004338 0.000000
# 4 0.000000 0.000000 0.000000 -0.462434 0.000000 -0.093550
# 5 -0.003894 -0.002054 -0.004338 0.000000 0.027254 0.000000
# 6 0.000000 0.000000 0.000000 -0.093550 0.000000 0.033216
#
#
# Mechanical properties :
#
#
# Convention : Reuss Voigt Hill
#
# Bulk Modulus (GPa) = 51.63668 64.87498 58.25583
# Shear Modulus (GPa) = -14.18275 29.97821 7.89773
#
# Velocity S-wave (km/s) = -2.63720 3.83413 1.96795
# Velocity P-wave (km/s) = 4.00601 7.17033 5.80783
#
# Compressibility (1/GPa) = 0.01936608
#
# Stress axis : x y z
#
# Youngs Moduli (GPa) = 109.78593 89.87142 91.48122
#
# Poissons Ratio (x) = 0.18079 -0.00526
# Poissons Ratio (y) = 0.22085 0.36101
# Poissons Ratio (z) = -0.00631 0.35466
#
# Static dielectric constant tensor:
#      x y z
#    x 1.760950 0.000000 -0.009880 
#    y 0.000000 1.744320 0.000000 
#    z -0.009880 0.000000 1.726470 
# 
# From -- ./inp_files/75889.got.cif
#   From: 2010.05.17/outbox.ucp.g08.bks.cvg/sg12_38_cif.got.tgz:75889.got - 2010.06.11 11:47:21.
