data_PCOD9225901
_publ_section_title
;
Structure prediction by ZEFSAII (Michael W. Deem and Ramdas Pophale) SiO2 
 PCOD9225901
Probable space group: C 2/M
;
_chemical_formula_sum "Si O2"
_cell_formula_units_Z 32
_cell_length_a 15.000000
_cell_length_b 9.000000
_cell_length_c 27.000000
_cell_angle_alpha 90.000000
_cell_angle_beta 70.000000
_cell_angle_gamma 90.000000
_cell_volume 3425.179603
_symmetry_space_group_name_H-M "C 2/M"
_symmetry_group_IT_number 12
_symmetry_cell_setting 'monoclinic'
loop_
_space_group_symop_operation_xyz
x,y,z
-x,y,-z
-x,-y,-z
x,-y,z
1/2+x,1/2+y,z
1/2-x,1/2+y,-z
1/2-x,1/2-y,-z
1/2+x,1/2-y,z
loop_
_atom_site_type_symbol
_atom_site_label
_atom_site_fract_x
_atom_site_fract_y
_atom_site_fract_z
Si Si1 0.887055 0.319064 0.781603
Si Si2 0.816673 0.178947 0.137887
Si Si3 0.400173 0.819941 0.669520
Si Si4 0.598339 0.822339 0.589948
Si Si5 0.988998 0.320524 0.861077
Si Si6 0.113540 0.174127 0.484993
Si Si7 0.285657 0.178454 0.943367
Si Si8 0.747270 0.177591 0.379442
O O1 0.888823 0.500000 0.781973
O O2 0.777876 0.278371 0.813481
O O3 0.913031 0.264544 0.722462
O O4 0.958838 0.272680 0.811217
O O5 0.784893 0.219754 0.088164
O O6 0.913800 0.251232 0.137838
O O7 0.826190 0.000000 0.138623
O O8 0.489672 0.776749 0.619438
O O9 0.301075 0.779711 0.663260
O O10 0.401888 0.000000 0.670548
O O11 0.636027 0.736326 0.535028
O O12 0.659385 0.768574 0.624901
O O13 0.604313 0.000000 0.582150
O O14 0.997267 0.500000 0.860394
O O15 0.894497 0.279585 0.910239
O O16 0.169623 0.272841 0.434938
O O17 0.000000 0.187393 0.500000
O O18 0.139502 0.000000 0.475116
O O19 0.284318 0.000000 0.946626
O O20 0.250000 0.250000 0.000000
O O21 0.762657 0.000000 0.378561
#
# Coordination Sequence:
#
# PCOD9225901 Si02
#       8
#     8   8   8   8   8   8   8   8
#     4   8  16  34  55  75 102 138 174 212 258 312
#     4   9  18  33  54  77 104 137 177 217 259 307
#     4   9  19  35  56  78 104 138 173 209 259 316
#     4  11  22  37  56  80 107 137 173 211 256 312
#     4   9  18  33  54  77 104 137 177 217 259 307
#     4  11  22  37  58  80 104 136 172 213 259 307
#     4   9  19  34  50  74 107 144 177 214 259 307
#     4  11  22  37  56  80 107 137 173 211 256 312
#
# _framework density 9.3425759999999993
#
# number of rings (size 3 to 8) (size 9 to 14) (size 15 to 20)
#    0.000    2.375    1.250    3.000    0.000    3.000 
#    0.000    4.375    0.000    4.500    0.000    0.000 
#    0.000    0.000    0.000    0.000    0.000    0.000 
#
# Total GULP energy -178440.172716 kJ/mol
# GULP energy per Si atom -5576.255397 kJ/mol
# Density = 0.932131 g / cm^3
# Si number density = 9.342576 Si / 1000 Ang^3
#
#
#
# Elastic Constant Matrix: (Units=GPa)
#
#
# Indices 1 2 3 4 5 6 
#
# 1 126.3496 13.6808 21.0692 0.0000 10.1486 0.0000
# 2 13.6808 18.8705 1.4386 0.0000 1.9129 0.0000
# 3 21.0692 1.4386 73.4902 0.0000 13.6053 0.0000
# 4 0.0000 0.0000 0.0000 14.7029 0.0000 2.3193
# 5 10.1486 1.9129 13.6053 0.0000 7.0182 0.0000
# 6 0.0000 0.0000 0.0000 2.3193 0.0000 36.1145
#
#
#
# Elastic Compliance Matrix: (Units=1/GPa)
#
#
# Indices 1 2 3 4 5 6 
#
# 1 0.009522 -0.005733 -0.000558 0.000000 -0.011125 0.000000
# 2 -0.005733 0.058277 0.002977 0.000000 -0.013365 0.000000
# 3 -0.000558 0.002977 0.021385 0.000000 -0.041460 0.000000
# 4 0.000000 0.000000 0.000000 0.068710 0.000000 -0.004413
# 5 -0.011125 -0.013365 -0.041460 0.000000 0.242592 0.000000
# 6 0.000000 0.000000 0.000000 -0.004413 0.000000 0.027973
#
#
# Mechanical properties :
#
#
# Convention : Reuss Voigt Hill
#
# Bulk Modulus (GPa) = 12.11304 32.34305 22.22805
# Shear Modulus (GPa) = 10.80836 23.73524 17.27180
#
# Velocity S-wave (km/s) = 2.40770 3.56796 3.04363
# Velocity P-wave (km/s) = 3.77176 5.85840 4.92681
#
# Compressibility (1/GPa) = 0.08255566
#
# Stress axis : x y z
#
# Youngs Moduli (GPa) = 105.02085 17.15942 46.76259
#
# Poissons Ratio (x) = 0.09837 0.02610
# Poissons Ratio (y) = 0.60208 -0.13922
# Poissons Ratio (z) = 0.05862 -0.05109
#
# Static dielectric constant tensor:
#      x y z
#    x 1.655730 0.000000 0.016450 
#    y 0.000000 1.618110 0.000000 
#    z 0.016450 0.000000 1.673160 
# 
# From -- ./inp_files/359705.got.cif
#   From: 2010.05.17/outbox.ucp.g08.bks.cvg/sg12_180_cif.got.tgz:359705.got - 2010.06.11 11:47:21.
