data_PCOD9225392
_publ_section_title
;
Structure prediction by ZEFSAII (Michael W. Deem and Ramdas Pophale) SiO2 
 PCOD9225392
Probable space group: C 2/M
;
_chemical_formula_sum "Si O2"
_cell_formula_units_Z 28
_cell_length_a 15.000000
_cell_length_b 18.000000
_cell_length_c 21.000000
_cell_angle_alpha 90.000000
_cell_angle_beta 150.000000
_cell_angle_gamma 90.000000
_cell_volume 2835.000000
_symmetry_space_group_name_H-M "C 2/M"
_symmetry_group_IT_number 12
_symmetry_cell_setting 'monoclinic'
loop_
_space_group_symop_operation_xyz
x,y,z
-x,y,-z
-x,-y,-z
x,-y,z
1/2+x,1/2+y,z
1/2-x,1/2+y,-z
1/2-x,1/2-y,-z
1/2+x,1/2-y,z
loop_
_atom_site_type_symbol
_atom_site_label
_atom_site_fract_x
_atom_site_fract_y
_atom_site_fract_z
Si Si1 0.481542 0.087276 0.563459
Si Si2 0.437264 0.584069 0.706087
Si Si3 0.726919 0.699375 0.922664
Si Si4 0.173021 0.586267 0.363053
Si Si5 0.943522 0.412442 0.852638
Si Si6 0.542540 0.633727 0.637714
Si Si7 0.438405 0.793476 0.292828
O O1 0.500000 0.098521 0.500000
O O2 0.268633 0.101720 0.438613
O O3 0.604669 0.144136 0.679668
O O4 0.519129 0.000000 0.600647
O O5 0.443848 0.500000 0.737424
O O6 0.548789 0.646462 0.813675
O O7 0.526975 0.586497 0.692638
O O8 0.694971 0.755848 0.842423
O O9 0.750000 0.750000 0.000000
O O10 0.896150 0.641760 0.024107
O O11 0.156795 0.500000 0.378008
O O12 0.068866 0.585692 0.231803
O O13 0.385162 0.604433 0.494117
O O14 0.082934 0.655545 0.344697
O O15 0.960383 0.500000 0.884163
O O16 0.748442 0.377837 0.746815
O O17 0.502868 0.719686 0.632090
#
# Coordination Sequence:
#
# PCOD9225392 Si02
#       7
#     8   8   8   8   8   8   8
#     4  10  22  41  66  96 126 165 225 286 338 395
#     4  10  21  38  62  86 121 170 215 271 336 395
#     4  11  24  41  62  90 133 175 223 262 313 398
#     4  11  21  38  65  95 130 170 219 274 331 400
#     4  11  24  42  65  96 134 179 221 265 325 400
#     4  11  23  37  63  98 132 163 216 279 339 398
#     4  11  23  39  63  94 128 174 216 265 339 394
#
# _framework density 9.8765429999999999
#
# number of rings (size 3 to 8) (size 9 to 14) (size 15 to 20)
#    0.000    1.286    2.857    3.000    2.000    5.714 
#    0.000    3.571    0.000    0.000    0.000    7.000 
#    0.000    0.000    0.000    0.000    0.000    0.000 
#
# Total GULP energy -155963.627046 kJ/mol
# GULP energy per Si atom -5570.129537 kJ/mol
# Density = 0.985406 g / cm^3
# Si number density = 9.876543 Si / 1000 Ang^3
#
#
#
# Elastic Constant Matrix: (Units=GPa)
#
#
# Indices 1 2 3 4 5 6 
#
# 1 58.8612 33.3210 16.3845 -0.0033 -4.6491 0.0002
# 2 33.3210 177.6320 64.8062 0.0023 -4.1488 -0.0002
# 3 16.3845 64.8062 120.1007 -0.0001 -11.9532 -0.0003
# 4 -0.0033 0.0023 -0.0001 33.4768 -0.0007 -9.4091
# 5 -4.6491 -4.1488 -11.9532 -0.0007 34.4605 0.0001
# 6 0.0002 -0.0002 -0.0003 -9.4091 0.0001 28.0632
#
#
#
# Elastic Compliance Matrix: (Units=1/GPa)
#
#
# Indices 1 2 3 4 5 6 
#
# 1 0.019203 -0.003327 -0.000628 0.000002 0.001972 0.000001
# 2 -0.003327 0.007594 -0.003726 -0.000001 -0.000827 0.000000
# 3 -0.000628 -0.003726 0.010740 0.000000 0.003192 0.000000
# 4 0.000002 -0.000001 0.000000 0.032979 0.000001 0.011057
# 5 0.001972 -0.000827 0.003192 0.000001 0.030292 0.000000
# 6 0.000001 0.000000 0.000000 0.011057 0.000000 0.039341
#
#
# Mechanical properties :
#
#
# Convention : Reuss Voigt Hill
#
# Bulk Modulus (GPa) = 45.09625 65.06859 55.08242
# Shear Modulus (GPa) = 30.69291 35.33893 33.01592
#
# Velocity S-wave (km/s) = 3.94614 4.23429 4.09275
# Velocity P-wave (km/s) = 6.60623 7.54440 7.09085
#
# Compressibility (1/GPa) = 0.02217480
#
# Stress axis : x y z
#
# Youngs Moduli (GPa) = 52.07478 131.68696 93.10718
#
# Poissons Ratio (x) = 0.43812 0.05849
# Poissons Ratio (y) = 0.17325 0.34692
# Poissons Ratio (z) = 0.03272 0.49067
#
# Static dielectric constant tensor:
#      x y z
#    x 1.873230 0.000000 0.017670 
#    y 0.000000 1.704820 0.000000 
#    z 0.017670 0.000000 1.691120 
# 
# From -- ./inp_files/311738.got.cif
#   From: 2010.05.17/outbox.ucp.g08.bks.cvg/sg12_156_cif.got.tgz:311738.got - 2010.06.11 11:47:21.
