data_PCOD9225956
_publ_section_title
;
Structure prediction by ZEFSAII (Michael W. Deem and Ramdas Pophale) SiO2 
 PCOD9225956
Probable space group: C 2/M
;
_chemical_formula_sum "Si O2"
_cell_formula_units_Z 20
_cell_length_a 9.000000
_cell_length_b 18.000000
_cell_length_c 24.000000
_cell_angle_alpha 90.000000
_cell_angle_beta 30.000000
_cell_angle_gamma 90.000000
_cell_volume 1944.000000
_symmetry_space_group_name_H-M "C 2/M"
_symmetry_group_IT_number 12
_symmetry_cell_setting 'monoclinic'
loop_
_space_group_symop_operation_xyz
x,y,z
-x,y,-z
-x,-y,-z
x,-y,z
1/2+x,1/2+y,z
1/2-x,1/2+y,-z
1/2-x,1/2-y,-z
1/2+x,1/2-y,z
loop_
_atom_site_type_symbol
_atom_site_label
_atom_site_fract_x
_atom_site_fract_y
_atom_site_fract_z
Si Si1 0.711100 0.328828 0.845437
Si Si2 0.864063 0.411020 0.384549
Si Si3 0.809317 0.410838 0.236443
Si Si4 0.502620 0.158392 0.065639
Si Si5 0.278757 0.169263 0.520755
O O1 0.662234 0.238779 0.867688
O O2 0.915766 0.360542 0.726555
O O3 0.899898 0.367565 0.833590
O O4 0.360088 0.349379 0.960621
O O5 0.500000 0.396859 0.500000
O O6 0.907881 0.500000 0.359903
O O7 0.922332 0.386634 0.428972
O O8 0.805256 0.500000 0.250405
O O9 0.527482 0.368399 0.356581
O O10 0.832301 0.397412 0.162525
O O11 0.500000 0.147445 0.000000
O O12 0.500000 0.179542 0.500000
O O13 0.250000 0.250000 0.500000
#
# Coordination Sequence:
#
# PCOD9225956 Si02
#       5
#     8   8   8   8   8
#     4  11  23  46  75 106 146 196 249 302 362 451
#     4  11  23  44  74 111 150 190 241 306 381 454
#     4  12  27  47  76 111 148 195 251 310 381 449
#     4  11  26  46  72 106 147 194 256 312 367 431
#     4  12  28  47  73 110 151 199 250 305 373 460
#
# _framework density 10.288066000000001
#
# number of rings (size 3 to 8) (size 9 to 14) (size 15 to 20)
#    0.000    0.600    2.000    6.000    5.600    4.400 
#    0.000    0.000    0.000    0.000    0.000    0.000 
#    0.000    0.000    0.000    0.000    0.000    0.000 
#
# Total GULP energy -111600.803897 kJ/mol
# GULP energy per Si atom -5580.040195 kJ/mol
# Density = 1.026465 g / cm^3
# Si number density = 10.288066 Si / 1000 Ang^3
#
#
#
# Elastic Constant Matrix: (Units=GPa)
#
#
# Indices 1 2 3 4 5 6 
#
# 1 126.2950 49.4941 62.5803 -0.0011 12.2803 0.0189
# 2 49.4941 138.6609 65.2673 0.0446 -6.6125 -0.0213
# 3 62.5803 65.2673 172.1556 0.0385 18.7174 -0.0093
# 4 -0.0011 0.0446 0.0385 45.9763 0.0121 2.5680
# 5 12.2803 -6.6125 18.7174 0.0121 53.7996 -0.0102
# 6 0.0189 -0.0213 -0.0093 2.5680 -0.0102 32.1147
#
#
#
# Elastic Compliance Matrix: (Units=1/GPa)
#
#
# Indices 1 2 3 4 5 6 
#
# 1 0.010390 -0.002564 -0.002611 0.000006 -0.001778 -0.000010
# 2 -0.002564 0.009700 -0.003054 -0.000008 0.002840 0.000009
# 3 -0.002611 -0.003054 0.008202 -0.000003 -0.002633 0.000001
# 4 0.000006 -0.000008 -0.000003 0.021848 -0.000006 -0.001747
# 5 -0.001778 0.002840 -0.002633 -0.000006 0.020259 0.000009
# 6 -0.000010 0.000009 0.000001 -0.001747 0.000009 0.031278
#
#
# Mechanical properties :
#
#
# Convention : Reuss Voigt Hill
#
# Bulk Modulus (GPa) = 84.51239 87.97720 86.24480
# Shear Modulus (GPa) = 40.95675 43.69610 42.32642
#
# Velocity S-wave (km/s) = 4.46634 4.61329 4.54041
# Velocity P-wave (km/s) = 8.23163 8.43957 8.33625
#
# Compressibility (1/GPa) = 0.01183258
#
# Stress axis : x y z
#
# Youngs Moduli (GPa) = 96.24937 103.09118 121.92027
#
# Poissons Ratio (x) = 0.26435 0.31837
# Poissons Ratio (y) = 0.24680 0.37237
# Poissons Ratio (z) = 0.25133 0.31486
#
# Static dielectric constant tensor:
#      x y z
#    x 1.840450 0.000030 0.018530 
#    y 0.000030 1.728540 -0.000020 
#    z 0.018530 -0.000020 1.718530 
# 
# From -- ./inp_files/333459.got.cif
#   From: 2010.05.17/outbox.ucp.g08.bks.cvg/sg12_167_cif.got.tgz:333459.got - 2010.06.11 11:47:21.
