data_PCOD9225744
_publ_section_title
;
Structure prediction by ZEFSAII (Michael W. Deem and Ramdas Pophale) SiO2 
 PCOD9225744
Probable space group: C 2/M
;
_chemical_formula_sum "Si O2"
_cell_formula_units_Z 32
_cell_length_a 12.000000
_cell_length_b 15.000000
_cell_length_c 27.000000
_cell_angle_alpha 90.000000
_cell_angle_beta 140.000000
_cell_angle_gamma 90.000000
_cell_volume 3123.947783
_symmetry_space_group_name_H-M "C 2/M"
_symmetry_group_IT_number 12
_symmetry_cell_setting 'monoclinic'
loop_
_space_group_symop_operation_xyz
x,y,z
-x,y,-z
-x,-y,-z
x,-y,z
1/2+x,1/2+y,z
1/2-x,1/2+y,-z
1/2-x,1/2-y,-z
1/2+x,1/2-y,z
loop_
_atom_site_type_symbol
_atom_site_label
_atom_site_fract_x
_atom_site_fract_y
_atom_site_fract_z
Si Si1 0.316015 0.606198 0.190995
Si Si2 0.203646 0.188047 0.326614
Si Si3 0.829683 0.603069 0.193019
Si Si4 0.306316 0.722411 0.460846
Si Si5 0.585870 0.819979 0.204394
Si Si6 0.512491 0.104995 0.647602
Si Si7 0.284399 0.318648 0.072462
Si Si8 0.031348 0.838332 0.957491
O O1 0.311040 0.500000 0.193596
O O2 0.517443 0.638784 0.260126
O O3 0.204555 0.645045 0.199610
O O4 0.251332 0.633233 0.113480
O O5 0.231244 0.209286 0.393973
O O6 0.189268 0.273541 0.284992
O O7 0.369539 0.139414 0.358005
O O8 0.773414 0.500000 0.178535
O O9 0.907568 0.633307 0.272100
O O10 0.665163 0.665516 0.127931
O O11 0.963495 0.611040 0.192989
O O12 0.500000 0.708463 0.500000
O O13 0.250000 0.750000 0.500000
O O14 0.186242 0.635361 0.417533
O O15 0.448748 0.747150 0.137467
O O16 0.522227 0.000000 0.649051
O O17 0.348503 0.375697 0.046346
O O18 0.126365 0.254754 0.002788
O O19 0.000000 0.886079 0.000000
#
# Coordination Sequence:
#
# PCOD9225744 Si02
#       8
#     8   8   8   8   8   8   8   8
#     4  11  24  42  67  98 135 174 224 285 345 396
#     4  11  23  41  72 100 134 181 237 272 328 407
#     4  11  23  39  63  97 133 169 222 288 341 391
#     4  12  25  45  74 108 143 185 227 275 336 421
#     4  11  21  38  65  95 128 174 226 273 330 401
#     4  11  24  45  70 103 140 177 225 288 342 394
#     4  10  23  38  64  90 125 167 228 272 335 401
#     4  11  21  39  61  92 119 171 221 273 329 404
#
# _framework density 10.243449
#
# number of rings (size 3 to 8) (size 9 to 14) (size 15 to 20)
#    0.000    1.000    3.750    3.750    3.500    2.000 
#    0.000    1.875    0.000    3.375    0.000    0.000 
#    0.000    0.000    0.000    0.000    0.000    0.000 
#
# Total GULP energy -178316.928729 kJ/mol
# GULP energy per Si atom -5572.404023 kJ/mol
# Density = 1.022013 g / cm^3
# Si number density = 10.243449 Si / 1000 Ang^3
#
#
#
# Elastic Constant Matrix: (Units=GPa)
#
#
# Indices 1 2 3 4 5 6 
#
# 1 216.6640 50.7447 50.8276 0.0000 -16.5167 0.0000
# 2 50.7447 69.9409 32.8005 0.0000 -1.4473 0.0000
# 3 50.8276 32.8005 91.3487 0.0000 -7.1670 0.0000
# 4 0.0000 0.0000 0.0000 15.9977 0.0000 -3.1586
# 5 -16.5167 -1.4473 -7.1670 0.0000 52.2095 0.0000
# 6 0.0000 0.0000 0.0000 -3.1586 0.0000 28.9054
#
#
#
# Elastic Compliance Matrix: (Units=1/GPa)
#
#
# Indices 1 2 3 4 5 6 
#
# 1 0.005992 -0.003377 -0.002002 0.000000 0.001527 0.000000
# 2 -0.003377 0.019104 -0.005077 0.000000 -0.001236 0.000000
# 3 -0.002002 -0.005077 0.013974 0.000000 0.001144 0.000000
# 4 0.000000 0.000000 0.000000 0.063887 0.000000 0.006981
# 5 0.001527 -0.001236 0.001144 0.000000 0.019760 0.000000
# 6 0.000000 0.000000 0.000000 0.006981 0.000000 0.035358
#
#
# Mechanical properties :
#
#
# Convention : Reuss Voigt Hill
#
# Bulk Modulus (GPa) = 55.07492 71.85546 63.46519
# Shear Modulus (GPa) = 27.02110 35.66124 31.34117
#
# Velocity S-wave (km/s) = 3.63567 4.17668 3.91553
# Velocity P-wave (km/s) = 6.67574 7.64261 7.17548
#
# Compressibility (1/GPa) = 0.01815708
#
# Stress axis : x y z
#
# Youngs Moduli (GPa) = 166.87573 52.34571 71.56284
#
# Poissons Ratio (x) = 0.17679 0.14325
# Poissons Ratio (y) = 0.56360 0.36335
# Poissons Ratio (z) = 0.33404 0.26578
#
# Static dielectric constant tensor:
#      x y z
#    x 1.767590 0.000000 -0.024930 
#    y 0.000000 1.738650 0.000000 
#    z -0.024930 0.000000 1.812540 
# 
# From -- ./inp_files/358470.got.cif
#   From: 2010.05.17/outbox.ucp.g08.bks.cvg/sg12_180_cif.got.tgz:358470.got - 2010.06.11 11:47:21.
