data_PCOD9225520
_publ_section_title
;
Structure prediction by ZEFSAII (Michael W. Deem and Ramdas Pophale) SiO2 
 PCOD9225520
Probable space group: C 2/M
;
_chemical_formula_sum "Si O2"
_cell_formula_units_Z 24
_cell_length_a 18.000000
_cell_length_b 15.000000
_cell_length_c 18.000000
_cell_angle_alpha 90.000000
_cell_angle_beta 150.000000
_cell_angle_gamma 90.000000
_cell_volume 2430.000000
_symmetry_space_group_name_H-M "C 2/M"
_symmetry_group_IT_number 12
_symmetry_cell_setting 'monoclinic'
loop_
_space_group_symop_operation_xyz
x,y,z
-x,y,-z
-x,-y,-z
x,-y,z
1/2+x,1/2+y,z
1/2-x,1/2+y,-z
1/2-x,1/2-y,-z
1/2+x,1/2-y,z
loop_
_atom_site_type_symbol
_atom_site_label
_atom_site_fract_x
_atom_site_fract_y
_atom_site_fract_z
Si Si1 0.566707 0.101822 0.740236
Si Si2 0.170635 0.785776 0.763516
Si Si3 0.280513 0.603300 0.608100
Si Si4 0.163016 0.281563 0.249099
Si Si5 0.610886 0.895092 0.956259
Si Si6 0.386306 0.395009 0.533581
O O1 0.651139 0.185347 0.777061
O O2 0.393559 0.111007 0.566125
O O3 0.588660 0.108569 0.848141
O O4 0.612438 0.000000 0.758471
O O5 0.261726 0.782350 0.766159
O O6 0.012415 0.830995 0.610922
O O7 0.235467 0.854193 0.881315
O O8 0.302984 0.500000 0.653866
O O9 0.323166 0.683632 0.700821
O O10 0.370579 0.614349 0.609014
O O11 0.240347 0.354369 0.369818
O O12 0.000361 0.323647 0.103343
O O13 0.593211 0.000000 0.962634
O O14 0.404992 0.500000 0.532898
#
# Coordination Sequence:
#
# PCOD9225520 Si02
#       6
#     8   8   8   8   8   8
#     4  10  21  41  66  89 118 160 207 250 297 354
#     4  12  25  38  59  94 126 156 196 253 306 354
#     4  10  21  40  66  91 118 158 206 252 297 354
#     4  12  23  39  62  89 124 161 198 245 308 362
#     4  11  24  43  64  86 121 168 205 240 297 366
#     4  11  22  38  61  88 119 158 206 252 293 349
#
# _framework density 9.8765429999999999
#
# number of rings (size 3 to 8) (size 9 to 14) (size 15 to 20)
#    0.000    1.000    3.333    4.000    0.000    4.667 
#    0.000    4.167    0.000    2.000    0.000    0.000 
#    0.000    0.000    0.000    0.000    0.000    0.000 
#
# Total GULP energy -134012.362576 kJ/mol
# GULP energy per Si atom -5583.848441 kJ/mol
# Density = 0.985406 g / cm^3
# Si number density = 9.876543 Si / 1000 Ang^3
#
#
#
# Elastic Constant Matrix: (Units=GPa)
#
#
# Indices 1 2 3 4 5 6 
#
# 1 69.2190 46.1346 -6.3147 -0.0002 -11.2847 -0.0002
# 2 46.1346 149.0132 0.3942 -0.0007 -29.1444 -0.0008
# 3 -6.3147 0.3942 34.9172 -0.0018 -8.6102 -0.0010
# 4 -0.0002 -0.0007 -0.0018 28.2369 -0.0006 8.6844
# 5 -11.2847 -29.1444 -8.6102 -0.0006 8.8079 -0.0008
# 6 -0.0002 -0.0008 -0.0010 8.6844 -0.0008 17.7283
#
#
#
# Elastic Compliance Matrix: (Units=1/GPa)
#
#
# Indices 1 2 3 4 5 6 
#
# 1 0.025402 0.010696 0.027968 0.000002 0.095278 0.000005
# 2 0.010696 0.048384 0.058299 0.000006 0.230790 0.000013
# 3 0.027968 0.058299 0.117852 0.000010 0.343943 0.000020
# 4 0.000002 0.000006 0.000010 0.041697 0.000033 -0.020426
# 5 0.095278 0.230790 0.343943 0.000033 1.335486 0.000075
# 6 0.000005 0.000013 0.000020 -0.020426 0.000075 0.066413
#
#
# Mechanical properties :
#
#
# Convention : Reuss Voigt Hill
#
# Bulk Modulus (GPa) = 2.59361 37.06417 19.82889
# Shear Modulus (GPa) = 3.18506 25.15032 14.16769
#
# Velocity S-wave (km/s) = 1.27120 3.57211 2.68104
# Velocity P-wave (km/s) = 1.86291 5.98480 4.43217
#
# Compressibility (1/GPa) = 0.38556316
#
# Stress axis : x y z
#
# Youngs Moduli (GPa) = 39.36641 20.66811 8.48523
#
# Poissons Ratio (x) = -0.22107 -0.23731
# Poissons Ratio (y) = -0.42107 -0.49468
# Poissons Ratio (z) = -1.10099 -1.20493
#
# Static dielectric constant tensor:
#      x y z
#    x 1.675990 0.000000 0.034550 
#    y 0.000000 1.657010 0.000000 
#    z 0.034550 0.000000 1.707690 
# 
# From -- ./inp_files/104920.got.cif
#   From: 2010.05.17/outbox.ucp.g08.bks.cvg/sg12_53_cif.got.tgz:104920.got - 2010.06.11 11:47:21.
