data_PCOD9225414
_publ_section_title
;
Structure prediction by ZEFSAII (Michael W. Deem and Ramdas Pophale) SiO2 
 PCOD9225414
Probable space group: C 2/M
;
_chemical_formula_sum "Si O2"
_cell_formula_units_Z 32
_cell_length_a 27.000000
_cell_length_b 15.000000
_cell_length_c 12.000000
_cell_angle_alpha 90.000000
_cell_angle_beta 140.000000
_cell_angle_gamma 90.000000
_cell_volume 3123.947783
_symmetry_space_group_name_H-M "C 2/M"
_symmetry_group_IT_number 12
_symmetry_cell_setting 'monoclinic'
loop_
_space_group_symop_operation_xyz
x,y,z
-x,y,-z
-x,-y,-z
x,-y,z
1/2+x,1/2+y,z
1/2-x,1/2+y,-z
1/2-x,1/2-y,-z
1/2+x,1/2-y,z
loop_
_atom_site_type_symbol
_atom_site_label
_atom_site_fract_x
_atom_site_fract_y
_atom_site_fract_z
Si Si1 0.860930 0.785928 0.980288
Si Si2 0.850125 0.394782 0.232425
Si Si3 0.726661 0.768989 0.584958
Si Si4 0.146147 0.896674 0.552338
Si Si5 0.678149 0.392727 0.865971
Si Si6 0.602998 0.105565 0.442796
Si Si7 0.424116 0.102693 0.137311
Si Si8 0.002806 0.100025 0.869416
O O1 0.790928 0.811093 0.777729
O O2 0.854934 0.830899 0.092378
O O3 0.870450 0.679337 0.996628
O O4 0.938357 0.825236 0.064213
O O5 0.841356 0.500000 0.235970
O O6 0.873629 0.358621 0.393136
O O7 0.917006 0.384024 0.258127
O O8 0.769541 0.368926 0.034675
O O9 0.750000 0.750000 0.500000
O O10 0.702556 0.676738 0.600712
O O11 0.655392 0.836267 0.454329
O O12 0.142484 0.877936 0.680691
O O13 0.071900 0.890391 0.340816
O O14 0.172118 0.000000 0.590347
O O15 0.669382 0.500000 0.873410
O O16 0.513142 0.116014 0.262537
O O17 0.619502 0.000000 0.464533
O O18 0.401295 0.000000 0.073764
O O19 0.032824 0.000000 0.896340
O O20 0.000000 0.104561 0.000000
#
# Coordination Sequence:
#
# PCOD9225414 Si02
#       8
#     8   8   8   8   8   8   8   8
#     4  12  24  38  64  93 127 166 210 262 323 388
#     4   9  17  34  59  88 123 159 201 251 309 375
#     4  12  26  41  64  94 125 165 216 267 316 379
#     4  10  23  43  64  89 127 167 206 260 321 384
#     4  10  21  38  63  97 131 163 204 263 333 397
#     4  10  21  40  63  89 124 163 213 266 310 366
#     4  10  22  38  60  91 126 169 209 250 310 383
#     4  10  22  43  68  91 121 165 215 265 316 375
#
# _framework density 10.243449
#
# number of rings (size 3 to 8) (size 9 to 14) (size 15 to 20)
#    0.000    1.625    1.250    3.000    1.750    5.500 
#    2.250    1.875    0.000    1.875    0.000    0.000 
#    0.000    0.000    0.000    0.000    0.000    0.000 
#
# Total GULP energy -178408.985469 kJ/mol
# GULP energy per Si atom -5575.280796 kJ/mol
# Density = 1.022013 g / cm^3
# Si number density = 10.243449 Si / 1000 Ang^3
#
#
#
# Elastic Constant Matrix: (Units=GPa)
#
#
# Indices 1 2 3 4 5 6 
#
# 1 84.0798 53.1177 21.0567 0.0000 -7.2279 0.0000
# 2 53.1177 90.5812 25.2069 0.0000 5.4482 0.0000
# 3 21.0567 25.2069 51.5881 0.0000 -11.3787 0.0000
# 4 0.0000 0.0000 0.0000 14.9225 0.0000 -23.7453
# 5 -7.2279 5.4482 -11.3787 0.0000 25.2265 0.0000
# 6 0.0000 0.0000 0.0000 -23.7453 0.0000 -39.3904
#
#
#
# Elastic Compliance Matrix: (Units=1/GPa)
#
#
# Indices 1 2 3 4 5 6 
#
# 1 0.020598 -0.012450 -0.000477 0.000000 0.008376 0.000000
# 2 -0.012450 0.021237 -0.007877 0.000000 -0.011707 0.000000
# 3 -0.000477 -0.007877 0.026399 0.000000 0.013472 0.000000
# 4 0.000000 0.000000 0.000000 0.034204 0.000000 -0.020619
# 5 0.008376 -0.011707 0.013472 0.000000 0.050646 0.000000
# 6 0.000000 0.000000 0.000000 -0.020619 0.000000 -0.012958
#
#
# Mechanical properties :
#
#
# Convention : Reuss Voigt Hill
#
# Bulk Modulus (GPa) = 37.55667 47.22351 42.39009
# Shear Modulus (GPa) = 26.23154 8.60956 17.42055
#
# Velocity S-wave (km/s) = 3.58216 2.05222 2.91920
# Velocity P-wave (km/s) = 5.95659 5.35874 5.66556
#
# Compressibility (1/GPa) = 0.02662643
#
# Stress axis : x y z
#
# Youngs Moduli (GPa) = 48.54762 47.08788 37.87961
#
# Poissons Ratio (x) = 0.58625 0.01806
# Poissons Ratio (y) = 0.60443 0.29838
# Poissons Ratio (z) = 0.02315 0.37092
#
# Static dielectric constant tensor:
#      x y z
#    x 1.763860 0.000000 -0.006950 
#    y 0.000000 1.741700 0.000000 
#    z -0.006950 0.000000 1.738350 
# 
# From -- ./inp_files/183858.got.cif
#   From: 2010.05.17/outbox.ucp.g08.bks.cvg/sg12_92_cif.got.tgz:183858.got - 2010.06.11 11:47:21.
