data_PCOD9225674
_publ_section_title
;
Structure prediction by ZEFSAII (Michael W. Deem and Ramdas Pophale) SiO2 
 PCOD9225674
Probable space group: C 2/M
;
_chemical_formula_sum "Si O2"
_cell_formula_units_Z 28
_cell_length_a 9.000000
_cell_length_b 15.000000
_cell_length_c 21.000000
_cell_angle_alpha 90.000000
_cell_angle_beta 90.000000
_cell_angle_gamma 90.000000
_cell_volume 2835.000000
_symmetry_space_group_name_H-M "C 2/M"
_symmetry_group_IT_number 12
_symmetry_cell_setting 'monoclinic'
loop_
_space_group_symop_operation_xyz
x,y,z
-x,y,-z
-x,-y,-z
x,-y,z
1/2+x,1/2+y,z
1/2-x,1/2+y,-z
1/2-x,1/2-y,-z
1/2+x,1/2-y,z
loop_
_atom_site_type_symbol
_atom_site_label
_atom_site_fract_x
_atom_site_fract_y
_atom_site_fract_z
Si Si1 0.071653 0.603769 0.866451
Si Si2 0.148153 0.320345 0.461198
Si Si3 0.289633 0.785419 0.244451
Si Si4 0.225024 0.895100 0.833270
Si Si5 0.526429 0.264833 0.334554
Si Si6 0.426633 0.402965 0.435441
Si Si7 0.879064 0.223464 0.047987
O O1 0.108590 0.500000 0.883891
O O2 0.178552 0.645501 0.812137
O O3 0.073502 0.681868 0.919854
O O4 0.903608 0.602488 0.840225
O O5 0.250000 0.250000 0.500000
O O6 0.113189 0.283985 0.391048
O O7 0.253830 0.403816 0.451051
O O8 0.000000 0.338407 0.500000
O O9 0.306436 0.682609 0.219187
O O10 0.406507 0.797760 0.301231
O O11 0.131420 0.795423 0.277326
O O12 0.161859 0.848395 0.897734
O O13 0.177524 0.000000 0.824061
O O14 0.452168 0.344956 0.373252
O O15 0.500000 0.365071 0.500000
O O16 0.492152 0.500000 0.425877
O O17 0.750000 0.250000 0.000000
O O18 0.000000 0.184899 0.000000
#
# Coordination Sequence:
#
# PCOD9225674 Si02
#       7
#     8   8   8   8   8   8   8
#     4  10  22  41  64  90 124 167 205 251 306 360
#     4  12  20  38  65  88 115 161 203 248 311 383
#     4  11  23  39  62  92 120 161 210 259 301 366
#     4  10  22  41  63  89 128 167 201 252 309 355
#     4  12  21  38  63  88 116 160 205 248 307 370
#     4  11  24  40  59  90 125 152 195 260 319 370
#     4  11  22  39  64  97 127 159 204 253 300 361
#
# _framework density 9.8765429999999999
#
# number of rings (size 3 to 8) (size 9 to 14) (size 15 to 20)
#    0.000    1.000    7.143    0.000    0.000    2.571 
#    0.000    2.143    0.000    0.000    0.000    0.000 
#    0.000    0.000    0.000    0.000    0.000    0.000 
#
# Total GULP energy -155968.576507 kJ/mol
# GULP energy per Si atom -5570.306304 kJ/mol
# Density = 0.985406 g / cm^3
# Si number density = 9.876543 Si / 1000 Ang^3
#
#
#
# Elastic Constant Matrix: (Units=GPa)
#
#
# Indices 1 2 3 4 5 6 
#
# 1 87.2734 12.2468 22.1708 0.0000 -22.1141 0.0000
# 2 12.2468 109.3195 23.5650 0.0000 -8.4959 0.0000
# 3 22.1708 23.5650 83.3244 0.0000 -17.8827 0.0000
# 4 0.0000 0.0000 0.0000 -5.0824 0.0000 7.5810
# 5 -22.1141 -8.4959 -17.8827 0.0000 47.5280 0.0000
# 6 0.0000 0.0000 0.0000 7.5810 0.0000 12.8660
#
#
#
# Elastic Compliance Matrix: (Units=1/GPa)
#
#
# Indices 1 2 3 4 5 6 
#
# 1 0.013464 -0.000606 -0.002273 0.000000 0.005301 0.000000
# 2 -0.000606 0.009794 -0.002495 0.000000 0.000530 0.000000
# 3 -0.002273 -0.002495 0.014130 0.000000 0.003813 0.000000
# 4 0.000000 0.000000 0.000000 -0.104719 0.000000 0.061703
# 5 0.005301 0.000530 0.003813 0.000000 0.025036 0.000000
# 6 0.000000 0.000000 0.000000 0.061703 0.000000 0.041367
#
#
# Mechanical properties :
#
#
# Convention : Reuss Voigt Hill
#
# Bulk Modulus (GPa) = 37.53848 43.98693 40.76271
# Shear Modulus (GPa) = 267.36963 25.85798 146.61381
#
# Velocity S-wave (km/s) = 11.64688 3.62202 8.62464
# Velocity P-wave (km/s) = 14.13900 6.30942 10.94806
#
# Compressibility (1/GPa) = 0.02663933
#
# Stress axis : x y z
#
# Youngs Moduli (GPa) = 74.27196 102.09903 70.77122
#
# Poissons Ratio (x) = 0.06191 0.16089
# Poissons Ratio (y) = 0.04503 0.17657
# Poissons Ratio (z) = 0.16885 0.25473
#
# Static dielectric constant tensor:
#      x y z
#    x 1.737240 0.000000 0.013890 
#    y 0.000000 1.691730 0.000000 
#    z 0.013890 0.000000 1.656780 
# 
# From -- ./inp_files/300147.got.cif
#   From: 2010.05.17/outbox.ucp.g08.bks.cvg/sg12_151_cif.got.tgz:300147.got - 2010.06.11 11:47:21.
