data_PCOD9225458
_publ_section_title
;
Structure prediction by ZEFSAII (Michael W. Deem and Ramdas Pophale) SiO2 
 PCOD9225458
Probable space group: C 2/M
;
_chemical_formula_sum "Si O2"
_cell_formula_units_Z 32
_cell_length_a 30.000000
_cell_length_b 9.000000
_cell_length_c 15.000000
_cell_angle_alpha 90.000000
_cell_angle_beta 50.000000
_cell_angle_gamma 90.000000
_cell_volume 3102.479995
_symmetry_space_group_name_H-M "C 2/M"
_symmetry_group_IT_number 12
_symmetry_cell_setting 'monoclinic'
loop_
_space_group_symop_operation_xyz
x,y,z
-x,y,-z
-x,-y,-z
x,-y,z
1/2+x,1/2+y,z
1/2-x,1/2+y,-z
1/2-x,1/2-y,-z
1/2+x,1/2-y,z
loop_
_atom_site_type_symbol
_atom_site_label
_atom_site_fract_x
_atom_site_fract_y
_atom_site_fract_z
Si Si1 0.387383 0.172740 0.575638
Si Si2 0.354220 0.324219 0.090031
Si Si3 0.304323 0.822144 0.981280
Si Si4 0.009177 0.825468 0.091595
Si Si5 0.592406 0.323228 0.263109
Si Si6 0.487210 0.172515 0.298367
Si Si7 0.672844 0.672145 0.678383
Si Si8 0.688318 0.826920 0.477933
O O1 0.406109 0.268606 0.636198
O O2 0.433043 0.176282 0.435446
O O3 0.330029 0.227587 0.596766
O O4 0.381077 0.000000 0.613136
O O5 0.337899 0.500000 0.111584
O O6 0.351019 0.268832 0.196690
O O7 0.315414 0.239875 0.067121
O O8 0.421937 0.313924 0.976665
O O9 0.358389 0.766056 0.853166
O O10 0.299895 0.000000 0.988627
O O11 0.250000 0.750000 0.000000
O O12 0.978193 0.733557 0.209753
O O13 0.992517 0.000000 0.117896
O O14 0.000000 0.778926 0.000000
O O15 0.601507 0.500000 0.246029
O O16 0.533754 0.275887 0.288560
O O17 0.506894 0.000000 0.267818
O O18 0.655096 0.500000 0.694488
O O19 0.660698 0.748843 0.599651
O O20 0.742505 0.681208 0.600821
O O21 0.671691 0.000000 0.502482
#
# Coordination Sequence:
#
# PCOD9225458 Si02
#       8
#     8   8   8   8   8   8   8   8
#     4  10  23  40  61  89 121 159 205 255 310 370
#     4  10  21  39  62  92 126 164 208 256 312 373
#     4  12  26  44  67  95 128 166 208 257 312 372
#     4  10  22  39  61  90 126 166 209 259 315 375
#     4  12  25  43  65  92 122 158 205 255 311 373
#     4  11  23  41  63  89 122 162 206 257 315 372
#     4   9  19  35  58  85 118 158 199 245 300 357
#     4   9  19  37  57  84 119 158 198 246 302 358
#
# _framework density 10.314329000000001
#
# number of rings (size 3 to 8) (size 9 to 14) (size 15 to 20)
#    0.000    1.625    1.250    3.000    3.500    3.750 
#    0.000    0.000    0.000    0.000    0.000    0.000 
#    0.000    0.000    0.000    0.000    0.000    0.000 
#
# Total GULP energy -178727.095206 kJ/mol
# GULP energy per Si atom -5585.221725 kJ/mol
# Density = 1.029085 g / cm^3
# Si number density = 10.314329 Si / 1000 Ang^3
#
#
#
# Elastic Constant Matrix: (Units=GPa)
#
#
# Indices 1 2 3 4 5 6 
#
# 1 85.1186 22.0149 4.1057 0.0000 17.3259 0.0000
# 2 22.0149 86.4638 15.7668 0.0000 15.5757 -0.0001
# 3 4.1057 15.7668 70.9592 0.0000 23.7924 0.0000
# 4 0.0000 0.0000 0.0000 31.7943 0.0000 12.6131
# 5 17.3259 15.5757 23.7924 0.0000 44.6790 0.0000
# 6 0.0000 -0.0001 0.0000 12.6131 0.0000 30.9744
#
#
#
# Elastic Compliance Matrix: (Units=1/GPa)
#
#
# Indices 1 2 3 4 5 6 
#
# 1 0.013424 -0.002788 0.001537 0.000000 -0.005052 0.000000
# 2 -0.002788 0.013067 -0.001920 0.000000 -0.002452 0.000000
# 3 0.001537 -0.001920 0.017537 0.000000 -0.009265 0.000000
# 4 0.000000 0.000000 0.000000 0.037512 0.000000 -0.015275
# 5 -0.005052 -0.002452 -0.009265 0.000000 0.030130 0.000000
# 6 0.000000 0.000000 0.000000 -0.015275 0.000000 0.038505
#
#
# Mechanical properties :
#
#
# Convention : Reuss Voigt Hill
#
# Bulk Modulus (GPa) = 26.53588 36.25738 31.39663
# Shear Modulus (GPa) = 29.57205 34.86650 32.21928
#
# Velocity S-wave (km/s) = 3.79032 4.11566 3.95634
# Velocity P-wave (km/s) = 5.66100 6.34029 6.01025
#
# Compressibility (1/GPa) = 0.03768483
#
# Stress axis : x y z
#
# Youngs Moduli (GPa) = 74.49584 76.52754 57.02253
#
# Poissons Ratio (x) = 0.21336 -0.08762
# Poissons Ratio (y) = 0.20769 0.10949
# Poissons Ratio (z) = -0.11447 0.14694
#
# Static dielectric constant tensor:
#      x y z
#    x 1.802200 0.000000 -0.052980 
#    y 0.000000 1.705310 0.000000 
#    z -0.052980 0.000000 1.772250 
# 
# From -- ./inp_files/249712.got.cif
#   From: 2010.05.17/outbox.ucp.g08.bks.cvg/sg12_125_cif.got.tgz:249712.got - 2010.06.11 11:47:21.
