data_PCOD9225075
_publ_section_title
;
Structure prediction by ZEFSAII (Michael W. Deem and Ramdas Pophale) SiO2 
 PCOD9225075
Probable space group: C 2/M
;
_chemical_formula_sum "Si O2"
_cell_formula_units_Z 32
_cell_length_a 18.000000
_cell_length_b 21.000000
_cell_length_c 24.000000
_cell_angle_alpha 90.000000
_cell_angle_beta 160.000000
_cell_angle_gamma 90.000000
_cell_volume 3102.806740
_symmetry_space_group_name_H-M "C 2/M"
_symmetry_group_IT_number 12
_symmetry_cell_setting 'monoclinic'
loop_
_space_group_symop_operation_xyz
x,y,z
-x,y,-z
-x,-y,-z
x,-y,z
1/2+x,1/2+y,z
1/2-x,1/2+y,-z
1/2-x,1/2-y,-z
1/2+x,1/2-y,z
loop_
_atom_site_type_symbol
_atom_site_label
_atom_site_fract_x
_atom_site_fract_y
_atom_site_fract_z
Si Si1 0.754111 0.141928 0.445423
Si Si2 0.887655 0.815200 0.881136
Si Si3 0.190752 0.926933 0.399755
Si Si4 0.359352 0.303873 0.347219
Si Si5 0.664473 0.648141 0.916182
Si Si6 0.134821 0.570866 0.652255
Si Si7 0.118827 0.423294 0.235278
Si Si8 0.692740 0.218700 0.871851
O O1 0.820329 0.105571 0.547763
O O2 0.697424 0.094934 0.353524
O O3 0.542690 0.187456 0.303579
O O4 0.960570 0.183277 0.572616
O O5 0.806065 0.749214 0.791643
O O6 0.770626 0.865629 0.757465
O O7 0.000000 0.872734 0.000000
O O8 0.163908 0.788373 0.083965
O O9 0.444391 0.927056 0.563982
O O10 0.050957 0.888274 0.255403
O O11 0.113634 0.000000 0.346580
O O12 0.500000 0.281726 0.500000
O O13 0.249307 0.371753 0.288251
O O14 0.683070 0.710018 0.888658
O O15 0.687173 0.677400 0.994856
O O16 0.869088 0.600294 0.054060
O O17 0.240829 0.500000 0.727702
O O18 0.000000 0.574247 0.500000
O O19 0.145378 0.500000 0.243698
#
# Coordination Sequence:
#
# PCOD9225075 Si02
#       8
#     8   8   8   8   8   8   8   8
#     4  10  23  38  61  91 121 162 201 256 304 359
#     4  12  24  39  62  91 125 159 199 257 307 362
#     4  11  23  39  61  93 126 157 198 252 310 366
#     4  10  23  39  60  90 121 165 213 248 299 359
#     4  10  21  37  61  87 118 159 203 248 299 362
#     4  10  23  43  66  91 121 161 205 248 305 372
#     4  10  20  40  63  87 123 167 210 251 297 359
#     4  10  22  40  60  86 119 156 204 247 299 361
#
# _framework density 10.313243
#
# number of rings (size 3 to 8) (size 9 to 14) (size 15 to 20)
#    0.000    1.625    1.250    2.625    5.250    3.500 
#    0.000    3.125    0.000    1.875    0.000    0.000 
#    0.000    0.000    0.000    0.000    0.000    0.000 
#
# Total GULP energy -178171.492932 kJ/mol
# GULP energy per Si atom -5567.859154 kJ/mol
# Density = 1.028977 g / cm^3
# Si number density = 10.313243 Si / 1000 Ang^3
#
#
#
# Elastic Constant Matrix: (Units=GPa)
#
#
# Indices 1 2 3 4 5 6 
#
# 1 78.1505 24.4092 7.0600 0.0618 2.8358 0.0677
# 2 24.4092 158.1522 57.8869 -0.0209 -8.7888 -0.0513
# 3 7.0600 57.8869 80.4530 0.1679 3.1516 0.2387
# 4 0.0618 -0.0209 0.1679 72.1980 0.0047 52.6488
# 5 2.8358 -8.7888 3.1516 0.0047 38.4069 -0.0318
# 6 0.0677 -0.0513 0.2387 52.6488 -0.0318 100.6954
#
#
#
# Elastic Compliance Matrix: (Units=1/GPa)
#
#
# Indices 1 2 3 4 5 6 
#
# 1 0.013549 -0.002400 0.000600 -0.000008 -0.001599 -0.000008
# 2 -0.002400 0.009251 -0.006556 0.000005 0.002832 0.000020
# 3 0.000600 -0.006556 0.017210 -0.000015 -0.002957 -0.000038
# 4 -0.000008 0.000005 -0.000015 0.022386 -0.000009 -0.011705
# 5 -0.001599 0.002832 -0.002957 -0.000009 0.027046 0.000023
# 6 -0.000008 0.000020 -0.000038 -0.011705 0.000023 0.016051
#
#
# Mechanical properties :
#
#
# Convention : Reuss Voigt Hill
#
# Bulk Modulus (GPa) = 42.92123 55.05198 48.98661
# Shear Modulus (GPa) = 38.47035 57.42004 47.94519
#
# Velocity S-wave (km/s) = 4.32336 5.28190 4.82648
# Velocity P-wave (km/s) = 6.76579 7.99661 7.40681
#
# Compressibility (1/GPa) = 0.02329849
#
# Stress axis : x y z
#
# Youngs Moduli (GPa) = 73.80536 108.10197 58.10498
#
# Poissons Ratio (x) = 0.25942 -0.03488
# Poissons Ratio (y) = 0.17712 0.38095
# Poissons Ratio (z) = -0.04431 0.70875
#
# Static dielectric constant tensor:
#      x y z
#    x 1.907000 -0.000040 0.055600 
#    y -0.000040 1.693310 -0.000070 
#    z 0.055600 -0.000070 1.753420 
# 
# From -- ./inp_files/344904.got.cif
#   From: 2010.05.17/outbox.ucp.g08.bks.cvg/sg12_173_cif.got.tgz:344904.got - 2010.06.11 11:47:21.
