data_PCOD9225135
_publ_section_title
;
Structure prediction by ZEFSAII (Michael W. Deem and Ramdas Pophale) SiO2 
 PCOD9225135
Probable space group: C 2/M
;
_chemical_formula_sum "Si O2"
_cell_formula_units_Z 24
_cell_length_a 24.000000
_cell_length_b 9.000000
_cell_length_c 12.000000
_cell_angle_alpha 90.000000
_cell_angle_beta 90.000000
_cell_angle_gamma 90.000000
_cell_volume 2592.000000
_symmetry_space_group_name_H-M "C 2/M"
_symmetry_group_IT_number 12
_symmetry_cell_setting 'monoclinic'
loop_
_space_group_symop_operation_xyz
x,y,z
-x,y,-z
-x,-y,-z
x,-y,z
1/2+x,1/2+y,z
1/2-x,1/2+y,-z
1/2-x,1/2-y,-z
1/2+x,1/2-y,z
loop_
_atom_site_type_symbol
_atom_site_label
_atom_site_fract_x
_atom_site_fract_y
_atom_site_fract_z
Si Si1 0.481609 0.173089 0.378655
Si Si2 0.194914 0.329780 0.637191
Si Si3 0.933882 0.177456 0.989519
Si Si4 0.825586 0.171258 0.588609
Si Si5 0.594992 0.171823 0.238962
Si Si6 0.889358 0.823767 0.228405
O O1 0.500000 0.231113 0.500000
O O2 0.534746 0.180330 0.297788
O O3 0.432161 0.258412 0.318545
O O4 0.465625 0.000000 0.393337
O O5 0.178938 0.500000 0.654563
O O6 0.169371 0.270018 0.521731
O O7 0.261182 0.320277 0.625124
O O8 0.171109 0.231210 0.735939
O O9 0.910292 0.263623 0.884198
O O10 0.925548 0.000000 0.974481
O O11 0.906324 0.226087 0.105192
O O12 0.000000 0.202733 0.000000
O O13 0.863795 0.232488 0.685869
O O14 0.838650 0.000000 0.561964
O O15 0.612509 0.000000 0.238293
O O16 0.893137 0.000000 0.231050
#
# Coordination Sequence:
#
# PCOD9225135 Si02
#       6
#     8   8   8   8   8   8
#     4  10  21  35  52  79 115 148 179 227 287 342
#     4  10  21  38  60  86 117 150 186 234 286 337
#     4  10  21  39  58  79 113 154 194 237 284 337
#     4  10  21  38  61  86 115 152 189 229 283 343
#     4  11  22  35  57  86 115 150 191 236 285 337
#     4  11  22  36  58  84 110 149 193 234 283 338
#
# _framework density 9.2592590000000001
#
# number of rings (size 3 to 8) (size 9 to 14) (size 15 to 20)
#    0.000    1.667    1.667    3.000    0.000    6.000 
#    0.000    0.833    0.000    0.000    0.000    0.000 
#    0.000    0.000    0.000    0.000    0.000    0.000 
#
# Total GULP energy -134060.742005 kJ/mol
# GULP energy per Si atom -5585.864250 kJ/mol
# Density = 0.923818 g / cm^3
# Si number density = 9.259259 Si / 1000 Ang^3
#
#
#
# Elastic Constant Matrix: (Units=GPa)
#
#
# Indices 1 2 3 4 5 6 
#
# 1 25.0309 15.2795 22.2451 0.0000 4.9650 0.0000
# 2 15.2795 25.1790 -8.6975 0.0000 -3.4800 0.0000
# 3 22.2451 -8.6975 9.1500 0.0000 -37.9305 0.0000
# 4 0.0000 0.0000 0.0000 26.8892 0.0000 1.4838
# 5 4.9650 -3.4800 -37.9305 0.0000 15.7920 0.0000
# 6 0.0000 0.0000 0.0000 1.4838 0.0000 24.8322
#
#
#
# Elastic Compliance Matrix: (Units=1/GPa)
#
#
# Indices 1 2 3 4 5 6 
#
# 1 0.028861 -0.009560 0.014023 0.000000 0.022501 0.000000
# 2 -0.009560 0.038930 -0.012088 0.000000 -0.017449 0.000000
# 3 0.014023 -0.012088 -0.003839 0.000000 -0.016294 0.000000
# 4 0.000000 0.000000 0.000000 0.037313 0.000000 -0.002230
# 5 0.022501 -0.017449 -0.016294 0.000000 0.013267 0.000000
# 6 0.000000 0.000000 0.000000 -0.002230 0.000000 0.040404
#
#
# Mechanical properties :
#
#
# Convention : Reuss Voigt Hill
#
# Bulk Modulus (GPa) = 20.53332 13.00157 16.76745
# Shear Modulus (GPa) = 26.82146 15.53818 21.17982
#
# Velocity S-wave (km/s) = 3.80986 2.89980 3.38555
# Velocity P-wave (km/s) = 5.51955 4.27175 4.93525
#
# Compressibility (1/GPa) = 0.04870134
#
# Stress axis : x y z
#
# Youngs Moduli (GPa) = 34.64907 25.68721 -260.45643
#
# Poissons Ratio (x) = 0.24557 3.65237
# Poissons Ratio (y) = 0.33125 -3.14837
# Poissons Ratio (z) = -0.48588 0.31050
#
# Static dielectric constant tensor:
#      x y z
#    x 1.639770 0.000000 -0.028590 
#    y 0.000000 1.626010 0.000000 
#    z -0.028590 0.000000 1.609620 
# 
# From -- ./inp_files/172262.got.cif
#   From: 2010.05.17/outbox.ucp.g08.bks.cvg/sg12_87_cif.got.tgz:172262.got - 2010.06.11 11:47:21.
