data_PCOD9225756
_publ_section_title
;
Structure prediction by ZEFSAII (Michael W. Deem and Ramdas Pophale) SiO2 
 PCOD9225756
Probable space group: C 2/M
;
_chemical_formula_sum "Si O2"
_cell_formula_units_Z 22
_cell_length_a 24.000000
_cell_length_b 15.000000
_cell_length_c 18.000000
_cell_angle_alpha 90.000000
_cell_angle_beta 20.000000
_cell_angle_gamma 90.000000
_cell_volume 2216.290529
_symmetry_space_group_name_H-M "C 2/M"
_symmetry_group_IT_number 12
_symmetry_cell_setting 'monoclinic'
loop_
_space_group_symop_operation_xyz
x,y,z
-x,y,-z
-x,-y,-z
x,-y,z
1/2+x,1/2+y,z
1/2-x,1/2+y,-z
1/2-x,1/2-y,-z
1/2+x,1/2-y,z
loop_
_atom_site_type_symbol
_atom_site_label
_atom_site_fract_x
_atom_site_fract_y
_atom_site_fract_z
Si Si1 0.028432 0.604488 0.796406
Si Si2 0.000000 0.663523 0.000000
Si Si3 0.722636 0.604351 0.882758
Si Si4 0.228326 0.310824 0.334997
Si Si5 0.377960 0.172355 0.836702
Si Si6 0.139842 0.894352 0.685772
O O1 0.036766 0.500000 0.771496
O O2 0.997912 0.616536 0.922151
O O3 0.207470 0.642645 0.551779
O O4 0.904165 0.637452 0.888113
O O5 0.159951 0.724524 0.803061
O O6 0.719211 0.500000 0.867986
O O7 0.793933 0.653296 0.720783
O O8 0.811709 0.612779 0.850551
O O9 0.536106 0.641048 0.118568
O O10 0.321669 0.377066 0.275549
O O11 0.053567 0.295544 0.589442
O O12 0.250000 0.250000 0.000000
O O13 0.132290 0.000000 0.682880
#
# Coordination Sequence:
#
# PCOD9225756 Si02
#       6
#     8   4   8   8   8   8
#     4  10  23  42  62  85 114 159 205 244 286 343
#     4  12  23  38  67  86 114 152 206 256 289 334
#     4  11  21  37  61  91 124 157 191 237 298 361
#     4  11  22  37  60  91 123 151 196 241 296 348
#     4  11  25  39  61  87 125 159 192 238 296 359
#     4   9  19  36  61  88 120 155 197 242 288 349
#
# _framework density 9.9264960000000002
#
# number of rings (size 3 to 8) (size 9 to 14) (size 15 to 20)
#    0.000    1.455    1.818    3.000    2.545    5.818 
#    0.000    0.000    0.000    1.091    0.000    0.000 
#    0.000    0.000    0.000    0.000    0.000    0.000 
#
# Total GULP energy -122631.020575 kJ/mol
# GULP energy per Si atom -5574.137299 kJ/mol
# Density = 0.990390 g / cm^3
# Si number density = 9.926496 Si / 1000 Ang^3
#
#
#
# Elastic Constant Matrix: (Units=GPa)
#
#
# Indices 1 2 3 4 5 6 
#
# 1 135.6961 22.8340 50.1552 -0.0021 15.7992 0.0007
# 2 22.8340 48.7797 30.0705 -0.0008 -4.9965 0.0007
# 3 50.1552 30.0705 92.3431 -0.0006 -11.4439 0.0005
# 4 -0.0021 -0.0008 -0.0006 50.8321 0.0010 6.8650
# 5 15.7992 -4.9965 -11.4439 0.0010 27.2433 -0.0003
# 6 0.0007 0.0007 0.0005 6.8650 -0.0003 27.8561
#
#
#
# Elastic Compliance Matrix: (Units=1/GPa)
#
#
# Indices 1 2 3 4 5 6 
#
# 1 0.011337 -0.002209 -0.006649 0.000001 -0.009773 0.000000
# 2 -0.002209 0.026121 -0.006914 0.000000 0.003167 -0.000001
# 3 -0.006649 -0.006914 0.017947 0.000000 0.010127 0.000000
# 4 0.000001 0.000000 0.000000 0.020350 -0.000001 -0.005015
# 5 -0.009773 0.003167 0.010127 -0.000001 0.047209 0.000001
# 6 0.000000 -0.000001 0.000000 -0.005015 0.000001 0.037135
#
#
# Mechanical properties :
#
#
# Convention : Reuss Voigt Hill
#
# Bulk Modulus (GPa) = 41.90954 53.65981 47.78467
# Shear Modulus (GPa) = 25.05080 32.77024 28.91052
#
# Velocity S-wave (km/s) = 3.55606 4.06722 3.82020
# Velocity P-wave (km/s) = 6.16575 7.01025 6.60152
#
# Compressibility (1/GPa) = 0.02386092
#
# Stress axis : x y z
#
# Youngs Moduli (GPa) = 88.21031 38.28383 55.71968
#
# Poissons Ratio (x) = 0.08456 0.37049
# Poissons Ratio (y) = 0.19484 0.38523
# Poissons Ratio (z) = 0.58652 0.26468
#
# Static dielectric constant tensor:
#      x y z
#    x 1.788420 0.000000 0.014700 
#    y 0.000000 1.723450 0.000000 
#    z 0.014700 0.000000 1.748510 
# 
# From -- ./inp_files/61075.got.cif
#   From: 2010.05.17/outbox.ucp.g08.bks.cvg/sg12_31_cif.got.tgz:61075.got - 2010.06.11 11:47:21.
