data_PCOD9225576
_publ_section_title
;
Structure prediction by ZEFSAII (Michael W. Deem and Ramdas Pophale) SiO2 
 PCOD9225576
Probable space group: C 2/M
;
_chemical_formula_sum "Si O2"
_cell_formula_units_Z 28
_cell_length_a 18.000000
_cell_length_b 21.000000
_cell_length_c 24.000000
_cell_angle_alpha 90.000000
_cell_angle_beta 160.000000
_cell_angle_gamma 90.000000
_cell_volume 3102.806740
_symmetry_space_group_name_H-M "C 2/M"
_symmetry_group_IT_number 12
_symmetry_cell_setting 'monoclinic'
loop_
_space_group_symop_operation_xyz
x,y,z
-x,y,-z
-x,-y,-z
x,-y,z
1/2+x,1/2+y,z
1/2-x,1/2+y,-z
1/2-x,1/2-y,-z
1/2+x,1/2-y,z
loop_
_atom_site_type_symbol
_atom_site_label
_atom_site_fract_x
_atom_site_fract_y
_atom_site_fract_z
Si Si1 0.347807 0.425390 0.344486
Si Si2 0.765080 0.193320 0.668823
Si Si3 0.047752 0.925710 0.271961
Si Si4 0.093365 0.771439 0.004740
Si Si5 0.384434 0.785032 0.646929
Si Si6 0.791770 0.073570 0.491070
Si Si7 0.088118 0.619475 0.001079
O O1 0.500000 0.398391 0.500000
O O2 0.315275 0.500000 0.332529
O O3 0.475102 0.420243 0.375726
O O4 0.115991 0.393925 0.181895
O O5 0.500000 0.192210 0.500000
O O6 0.852466 0.126391 0.701352
O O7 0.924321 0.208196 0.835191
O O8 0.813867 0.245944 0.653688
O O9 0.187273 0.923954 0.427442
O O10 0.045526 0.000000 0.250522
O O11 0.806353 0.907776 0.126089
O O12 0.105609 0.695016 0.017621
O O13 0.000000 0.794068 0.000000
O O14 0.351405 0.786170 0.175792
O O15 0.250000 0.750000 0.500000
O O16 0.324278 0.860382 0.607837
O O17 0.716177 0.000000 0.423153
O O18 0.000000 0.594577 0.000000
#
# Coordination Sequence:
#
# PCOD9225576 Si02
#       7
#     8   8   8   8   8   8   8
#     4  10  22  35  53  91 136 170 203 249 317 397
#     4  12  27  44  69 100 129 176 226 275 332 385
#     4  11  23  42  67  96 130 174 225 273 327 394
#     4  11  26  43  67  99 134 167 221 279 333 400
#     4  12  23  43  69  98 136 175 219 275 331 393
#     4  10  22  39  64  97 135 175 214 264 330 398
#     4  11  21  37  63  95 128 171 208 259 327 395
#
# _framework density 9.0240880000000008
#
# number of rings (size 3 to 8) (size 9 to 14) (size 15 to 20)
#    0.000    1.000    4.286    1.714    6.000    0.857 
#    0.000    2.143    0.000    0.857    0.000    0.000 
#    0.000    0.000    0.000    0.000    0.000    0.000 
#
# Total GULP energy -155952.532857 kJ/mol
# GULP energy per Si atom -5569.733316 kJ/mol
# Density = 0.900355 g / cm^3
# Si number density = 9.024088 Si / 1000 Ang^3
#
#
#
# Elastic Constant Matrix: (Units=GPa)
#
#
# Indices 1 2 3 4 5 6 
#
# 1 124.6793 42.4766 52.8425 0.0591 8.1101 0.0662
# 2 42.4766 137.7594 46.6667 0.1641 15.6204 0.2037
# 3 52.8425 46.6667 134.6684 0.0974 19.5112 0.0576
# 4 0.0591 0.1641 0.0974 18.8555 0.0501 -13.2341
# 5 8.1101 15.6204 19.5112 0.0501 42.3396 0.0103
# 6 0.0662 0.2037 0.0576 -13.2341 0.0103 15.7772
#
#
#
# Elastic Compliance Matrix: (Units=1/GPa)
#
#
# Indices 1 2 3 4 5 6 
#
# 1 0.010091 -0.002030 -0.003305 -0.000002 0.000339 -0.000006
# 2 -0.002030 0.008770 -0.001961 -0.000297 -0.001943 -0.000346
# 3 -0.003305 -0.001961 0.009864 -0.000028 -0.003189 -0.000018
# 4 -0.000002 -0.000297 -0.000028 0.128968 -0.000056 0.108184
# 5 0.000339 -0.001943 -0.003189 -0.000056 0.025740 -0.000029
# 6 -0.000006 -0.000346 -0.000018 0.108184 -0.000029 0.154133
#
#
# Mechanical properties :
#
#
# Convention : Reuss Voigt Hill
#
# Bulk Modulus (GPa) = 70.75559 75.67543 73.21551
# Shear Modulus (GPa) = 14.01071 32.40256 23.20663
#
# Velocity S-wave (km/s) = 2.78923 4.24174 3.58972
# Velocity P-wave (km/s) = 7.04712 8.12468 7.60501
#
# Compressibility (1/GPa) = 0.01413316
#
# Stress axis : x y z
#
# Youngs Moduli (GPa) = 99.09782 114.01988 101.37771
#
# Poissons Ratio (x) = 0.23149 0.33508
# Poissons Ratio (y) = 0.20119 0.19877
# Poissons Ratio (z) = 0.32754 0.22356
#
# Static dielectric constant tensor:
#      x y z
#    x 1.649470 0.000010 -0.027670 
#    y 0.000010 1.684940 -0.000080 
#    z -0.027670 -0.000080 1.661320 
# 
# From -- ./inp_files/344798.got.cif
#   From: 2010.05.17/outbox.ucp.g08.bks.cvg/sg12_173_cif.got.tgz:344798.got - 2010.06.11 11:47:21.
