data_PCOD9225352
_publ_section_title
;
Structure prediction by ZEFSAII (Michael W. Deem and Ramdas Pophale) SiO2 
 PCOD9225352
Probable space group: C 2/M
;
_chemical_formula_sum "Si O2"
_cell_formula_units_Z 28
_cell_length_a 18.000000
_cell_length_b 21.000000
_cell_length_c 21.000000
_cell_angle_alpha 90.000000
_cell_angle_beta 20.000000
_cell_angle_gamma 90.000000
_cell_volume 2714.955898
_symmetry_space_group_name_H-M "C 2/M"
_symmetry_group_IT_number 12
_symmetry_cell_setting 'monoclinic'
loop_
_space_group_symop_operation_xyz
x,y,z
-x,y,-z
-x,-y,-z
x,-y,z
1/2+x,1/2+y,z
1/2-x,1/2+y,-z
1/2-x,1/2-y,-z
1/2+x,1/2-y,z
loop_
_atom_site_type_symbol
_atom_site_label
_atom_site_fract_x
_atom_site_fract_y
_atom_site_fract_z
Si Si1 0.965049 0.200513 0.595805
Si Si2 0.021706 0.429669 0.392855
Si Si3 0.569865 0.930426 0.204045
Si Si4 0.944066 0.302005 0.250958
Si Si5 0.171744 0.821081 0.804457
Si Si6 0.850912 0.196378 0.831012
Si Si7 0.464247 0.386782 0.209617
O O1 0.812119 0.257818 0.696491
O O2 0.858191 0.180697 0.750214
O O3 0.000000 0.162483 0.500000
O O4 0.205297 0.220669 0.425316
O O5 0.091854 0.500000 0.356152
O O6 0.763457 0.422417 0.607088
O O7 0.071463 0.421414 0.278299
O O8 0.160350 0.378059 0.318081
O O9 0.434861 0.875015 0.280039
O O10 0.480787 0.000000 0.261382
O O11 0.819248 0.925481 0.980521
O O12 0.041643 0.263091 0.232480
O O13 0.113521 0.301260 0.055453
O O14 0.057072 0.834399 0.829532
O O15 0.000000 0.821015 0.000000
O O16 0.990954 0.145899 0.758799
#
# Coordination Sequence:
#
# PCOD9225352 Si02
#       7
#     8   8   8   8   8   8   8
#     4  12  25  38  61  87 119 153 194 250 306 360
#     4  11  22  36  58  85 120 167 209 242 278 340
#     4  10  21  38  62  90 122 157 198 247 292 345
#     4  10  21  38  59  89 118 156 197 243 295 357
#     4  12  25  39  57  83 126 165 199 245 295 347
#     4  10  22  37  62  85 119 155 198 242 300 356
#     4  11  22  41  60  88 121 161 199 243 293 350
#
# _framework density 10.313243
#
# number of rings (size 3 to 8) (size 9 to 14) (size 15 to 20)
#    0.000    1.143    1.429    5.571    6.000    2.000 
#    0.000    0.000    0.000    0.429    0.000    4.000 
#    0.000    0.000    0.000    0.000    0.000    0.000 
#
# Total GULP energy -156406.591593 kJ/mol
# GULP energy per Si atom -5585.949700 kJ/mol
# Density = 1.028977 g / cm^3
# Si number density = 10.313243 Si / 1000 Ang^3
#
#
#
# Elastic Constant Matrix: (Units=GPa)
#
#
# Indices 1 2 3 4 5 6 
#
# 1 111.5601 31.7486 13.2829 0.0014 33.9275 -0.0128
# 2 31.7486 49.7935 5.8614 0.1122 11.4318 0.0029
# 3 13.2829 5.8614 68.6929 -0.0930 13.1247 -0.0375
# 4 0.0014 0.1122 -0.0930 12.1063 -0.0208 -7.3130
# 5 33.9275 11.4318 13.1247 -0.0208 40.3191 0.0138
# 6 -0.0128 0.0029 -0.0375 -7.3130 0.0138 -0.3807
#
#
#
# Elastic Compliance Matrix: (Units=1/GPa)
#
#
# Indices 1 2 3 4 5 6 
#
# 1 0.013799 -0.006547 -0.000262 -0.000037 -0.009670 -0.000128
# 2 -0.006547 0.024621 -0.000590 0.000002 -0.001279 0.000390
# 3 -0.000262 -0.000590 0.015551 -0.000072 -0.004674 -0.000313
# 4 -0.000037 0.000002 -0.000072 0.006554 0.000100 -0.125892
# 5 -0.009670 -0.001279 -0.004674 0.000100 0.034823 0.000105
# 6 -0.000128 0.000390 -0.000313 -0.125892 0.000105 -0.208400
#
#
# Mechanical properties :
#
#
# Convention : Reuss Voigt Hill
#
# Bulk Modulus (GPa) = 25.52854 36.87026 31.19940
# Shear Modulus (GPa) = -58.68897 22.35252 -18.16822
#
# Velocity S-wave (km/s) = -5.33994 3.29550 -2.97108
# Velocity P-wave (km/s) = 5.06128 5.69161 1.84091
#
# Compressibility (1/GPa) = 0.03917184
#
# Stress axis : x y z
#
# Youngs Moduli (GPa) = 72.46886 40.61616 64.30285
#
# Poissons Ratio (x) = 0.26593 0.01686
# Poissons Ratio (y) = 0.47448 0.03795
# Poissons Ratio (z) = 0.01900 0.02397
#
# Static dielectric constant tensor:
#      x y z
#    x 1.741020 0.000000 0.057070 
#    y 0.000000 1.772840 0.000080 
#    z 0.057070 0.000080 1.766110 
# 
# From -- ./inp_files/318014.got.cif
#   From: 2010.05.17/outbox.ucp.g08.bks.cvg/sg12_160_cif.got.tgz:318014.got - 2010.06.11 11:47:21.
