data_PCOD9225061
_publ_section_title
;
Structure prediction by ZEFSAII (Michael W. Deem and Ramdas Pophale) SiO2 
 PCOD9225061
Probable space group: C 2/M
;
_chemical_formula_sum "Si O2"
_cell_formula_units_Z 24
_cell_length_a 18.000000
_cell_length_b 12.000000
_cell_length_c 12.000000
_cell_angle_alpha 90.000000
_cell_angle_beta 110.000000
_cell_angle_gamma 90.000000
_cell_volume 2435.683273
_symmetry_space_group_name_H-M "C 2/M"
_symmetry_group_IT_number 12
_symmetry_cell_setting 'monoclinic'
loop_
_space_group_symop_operation_xyz
x,y,z
-x,y,-z
-x,-y,-z
x,-y,z
1/2+x,1/2+y,z
1/2-x,1/2+y,-z
1/2-x,1/2-y,-z
1/2+x,1/2-y,z
loop_
_atom_site_type_symbol
_atom_site_label
_atom_site_fract_x
_atom_site_fract_y
_atom_site_fract_z
Si Si1 0.424558 0.130296 0.389185
Si Si2 0.616914 0.125683 0.213501
Si Si3 0.958607 0.756876 0.185224
Si Si4 0.292128 0.871622 0.506648
Si Si5 0.989376 0.000000 0.175648
Si Si6 0.683197 0.265143 0.058330
Si Si7 0.135072 0.000000 0.094945
O O1 0.500000 0.170323 0.500000
O O2 0.422572 0.192990 0.271550
O O3 0.347280 0.139271 0.425983
O O4 0.438631 0.000000 0.372258
O O5 0.539710 0.202044 0.184903
O O6 0.654703 0.121970 0.355128
O O7 0.677803 0.177028 0.155414
O O8 0.595136 0.000000 0.169045
O O9 0.974702 0.884234 0.228810
O O10 0.898657 0.755200 0.051500
O O11 0.250000 0.750000 0.500000
O O12 0.254423 0.000000 0.480047
O O13 0.077569 0.000000 0.171204
O O14 0.926367 0.000000 0.040892
O O15 0.685759 0.388413 0.112082
O O16 0.750000 0.250000 0.000000
#
# Coordination Sequence:
#
# PCOD9225061 Si02
#       7
#     8   8   8   8   4   8   4
#     4  10  20  39  65  90 120 158 202 252 308 365
#     4  11  23  41  65  90 122 160 204 258 305 356
#     4  11  21  40  64  89 122 160 207 251 305 367
#     4  10  23  45  66  91 128 166 204 253 315 371
#     4   9  18  36  61  84 112 166 202 242 299 365
#     4  11  25  39  58  91 127 161 203 250 310 369
#     4   9  18  40  58  74 123 168 198 239 302 365
#
# _framework density 9.8534980000000001
#
# number of rings (size 3 to 8) (size 9 to 14) (size 15 to 20)
#    0.000    1.667    3.333    1.000    3.500    2.000 
#    4.500    0.417    0.000    0.000    0.000    0.000 
#    0.000    0.000    0.000    0.000    0.000    0.000 
#
# Total GULP energy -133901.699199 kJ/mol
# GULP energy per Si atom -5579.237467 kJ/mol
# Density = 0.983107 g / cm^3
# Si number density = 9.853498 Si / 1000 Ang^3
#
#
#
# Elastic Constant Matrix: (Units=GPa)
#
#
# Indices 1 2 3 4 5 6 
#
# 1 62.8470 33.7247 5.5545 0.0000 -19.2963 0.0000
# 2 33.7247 131.1372 18.2287 0.0000 -7.7799 0.0000
# 3 5.5545 18.2287 46.0745 0.0000 -23.4558 0.0000
# 4 0.0000 0.0000 0.0000 29.9833 0.0000 -8.3279
# 5 -19.2963 -7.7799 -23.4558 0.0000 33.6861 0.0000
# 6 0.0000 0.0000 0.0000 -8.3279 0.0000 29.8657
#
#
#
# Elastic Compliance Matrix: (Units=1/GPa)
#
#
# Indices 1 2 3 4 5 6 
#
# 1 0.024338 -0.006420 0.009215 0.000000 0.018875 0.000000
# 2 -0.006420 0.009770 -0.005910 0.000000 -0.005536 0.000000
# 3 0.009215 -0.005910 0.038610 0.000000 0.030798 0.000000
# 4 0.000000 0.000000 0.000000 0.036152 0.000000 0.010081
# 5 0.018875 -0.005536 0.030798 0.000000 0.060664 0.000000
# 6 0.000000 0.000000 0.000000 0.010081 0.000000 0.036294
#
#
# Mechanical properties :
#
#
# Convention : Reuss Voigt Hill
#
# Bulk Modulus (GPa) = 15.04039 39.45271 27.24655
# Shear Modulus (GPa) = 21.34750 30.87709 26.11229
#
# Velocity S-wave (km/s) = 3.29484 3.96259 3.64404
# Velocity P-wave (km/s) = 4.70353 6.40306 5.61794
#
# Compressibility (1/GPa) = 0.06648765
#
# Stress axis : x y z
#
# Youngs Moduli (GPa) = 41.08866 102.35745 25.90007
#
# Poissons Ratio (x) = 0.65714 -0.23867
# Poissons Ratio (y) = 0.26379 0.15306
# Poissons Ratio (z) = -0.37863 0.60490
#
# Static dielectric constant tensor:
#      x y z
#    x 1.683710 0.000000 0.028480 
#    y 0.000000 1.725220 0.000000 
#    z 0.028480 0.000000 1.684660 
# 
# From -- ./inp_files/154313.got.cif
#   From: 2010.05.17/outbox.ucp.g08.bks.cvg/sg12_78_cif.got.tgz:154313.got - 2010.06.11 11:47:21.
