data_PCOD9225363
_publ_section_title
;
Structure prediction by ZEFSAII (Michael W. Deem and Ramdas Pophale) SiO2 
 PCOD9225363
Probable space group: C 2/M
;
_chemical_formula_sum "Si O2"
_cell_formula_units_Z 24
_cell_length_a 15.000000
_cell_length_b 12.000000
_cell_length_c 21.000000
_cell_angle_alpha 90.000000
_cell_angle_beta 40.000000
_cell_angle_gamma 90.000000
_cell_volume 2429.737165
_symmetry_space_group_name_H-M "C 2/M"
_symmetry_group_IT_number 12
_symmetry_cell_setting 'monoclinic'
loop_
_space_group_symop_operation_xyz
x,y,z
-x,y,-z
-x,-y,-z
x,-y,z
1/2+x,1/2+y,z
1/2-x,1/2+y,-z
1/2-x,1/2-y,-z
1/2+x,1/2-y,z
loop_
_atom_site_type_symbol
_atom_site_label
_atom_site_fract_x
_atom_site_fract_y
_atom_site_fract_z
Si Si1 0.610917 0.126030 0.582367
Si Si2 0.144482 0.184187 0.150401
Si Si3 0.598320 0.874732 0.077006
Si Si4 0.890894 0.246672 0.612668
Si Si5 0.301069 0.130778 0.186940
Si Si6 0.162890 0.822522 0.644227
O O1 0.489289 0.185980 0.607967
O O2 0.751842 0.125819 0.462031
O O3 0.637477 0.197692 0.631062
O O4 0.571967 0.000000 0.617530
O O5 0.114187 0.296483 0.128761
O O6 0.229247 0.197024 0.169051
O O7 0.990811 0.135143 0.251604
O O8 0.259052 0.126163 0.041732
O O9 0.460797 0.837135 0.113166
O O10 0.567629 0.000000 0.113587
O O11 0.799164 0.154728 0.698577
O O12 0.774300 0.321404 0.640519
O O13 0.000000 0.203987 0.500000
O O14 0.299119 0.000000 0.170863
#
# Coordination Sequence:
#
# PCOD9225363 Si02
#       6
#     8   8   8   8   8   8
#     4  10  22  40  61  85 120 161 197 239 294 357
#     4  11  21  39  64  89 122 149 198 258 289 348
#     4  10  23  41  64  88 116 159 199 242 306 357
#     4  10  21  39  59  86 123 154 199 240 294 348
#     4  11  22  39  62  88 118 156 198 242 299 356
#     4  10  21  38  60  90 118 154 199 246 292 347
#
# _framework density 9.8776119999999992
#
# number of rings (size 3 to 8) (size 9 to 14) (size 15 to 20)
#    0.000    1.667    3.333    1.000    0.000    7.333 
#    0.000    0.000    0.000    9.000    0.000    0.000 
#    0.000    0.000    0.000    0.000    0.000    0.000 
#
# Total GULP energy -133805.253439 kJ/mol
# GULP energy per Si atom -5575.218893 kJ/mol
# Density = 0.985513 g / cm^3
# Si number density = 9.877612 Si / 1000 Ang^3
#
#
#
# Elastic Constant Matrix: (Units=GPa)
#
#
# Indices 1 2 3 4 5 6 
#
# 1 101.8175 41.0142 29.3880 0.0000 -26.3011 0.0000
# 2 41.0142 50.9620 20.4579 0.0000 -1.0174 0.0000
# 3 29.3880 20.4579 116.8843 0.0000 -28.5861 0.0000
# 4 0.0000 0.0000 0.0000 -2.5161 0.0000 -14.2031
# 5 -26.3011 -1.0174 -28.5861 0.0000 38.8235 0.0000
# 6 0.0000 0.0000 0.0000 -14.2031 0.0000 5.1931
#
#
#
# Elastic Compliance Matrix: (Units=1/GPa)
#
#
# Indices 1 2 3 4 5 6 
#
# 1 0.019334 -0.015780 0.001223 0.000000 0.013585 0.000000
# 2 -0.015780 0.034209 -0.005385 0.000000 -0.013759 0.000000
# 3 0.001223 -0.005385 0.011414 0.000000 0.009092 0.000000
# 4 0.000000 0.000000 0.000000 -0.024177 0.000000 -0.066124
# 5 0.013585 -0.013759 0.009092 0.000000 0.041295 0.000000
# 6 0.000000 0.000000 0.000000 -0.066124 0.000000 0.011714
#
#
# Mechanical properties :
#
#
# Convention : Reuss Voigt Hill
#
# Bulk Modulus (GPa) = 39.88189 50.15378 45.01783
# Shear Modulus (GPa) = 35.20380 20.22035 27.71208
#
# Velocity S-wave (km/s) = 4.22595 3.20276 3.74942
# Velocity P-wave (km/s) = 6.63652 6.25457 6.44837
#
# Compressibility (1/GPa) = 0.02507404
#
# Stress axis : x y z
#
# Youngs Moduli (GPa) = 51.72185 29.23192 87.61201
#
# Poissons Ratio (x) = 0.46128 -0.10717
# Poissons Ratio (y) = 0.81617 0.47178
# Poissons Ratio (z) = -0.06327 0.15741
#
# Static dielectric constant tensor:
#      x y z
#    x 1.687090 0.000000 0.015780 
#    y 0.000000 1.678690 0.000000 
#    z 0.015780 0.000000 1.720520 
# 
# From -- ./inp_files/310187.got.cif
#   From: 2010.05.17/outbox.ucp.g08.bks.cvg/sg12_156_cif.got.tgz:310187.got - 2010.06.11 11:47:21.
