data_PCOD9225573
_publ_section_title
;
Structure prediction by ZEFSAII (Michael W. Deem and Ramdas Pophale) SiO2 
 PCOD9225573
Probable space group: C 2/M
;
_chemical_formula_sum "Si O2"
_cell_formula_units_Z 28
_cell_length_a 9.000000
_cell_length_b 21.000000
_cell_length_c 15.000000
_cell_angle_alpha 90.000000
_cell_angle_beta 90.000000
_cell_angle_gamma 90.000000
_cell_volume 2835.000000
_symmetry_space_group_name_H-M "C 2/M"
_symmetry_group_IT_number 12
_symmetry_cell_setting 'monoclinic'
loop_
_space_group_symop_operation_xyz
x,y,z
-x,y,-z
-x,-y,-z
x,-y,z
1/2+x,1/2+y,z
1/2-x,1/2+y,-z
1/2-x,1/2-y,-z
1/2+x,1/2-y,z
loop_
_atom_site_type_symbol
_atom_site_label
_atom_site_fract_x
_atom_site_fract_y
_atom_site_fract_z
Si Si1 0.323243 0.179669 0.994689
Si Si2 0.744438 0.325719 0.798786
Si Si3 0.348529 0.197075 0.448106
Si Si4 0.409288 0.626180 0.590593
Si Si5 0.502630 0.744025 0.716738
Si Si6 0.374727 0.574799 0.922946
Si Si7 0.943574 0.068655 0.256412
O O1 0.284747 0.153137 0.896669
O O2 0.500000 0.184920 0.000000
O O3 0.250000 0.250000 0.000000
O O4 0.250106 0.128465 0.061581
O O5 0.598994 0.281142 0.799098
O O6 0.691484 0.382972 0.737074
O O7 0.875936 0.288205 0.753482
O O8 0.500000 0.190309 0.500000
O O9 0.250000 0.250000 0.500000
O O10 0.259207 0.132028 0.439075
O O11 0.387497 0.220520 0.349877
O O12 0.500000 0.631547 0.500000
O O13 0.440084 0.686929 0.655417
O O14 0.462517 0.570268 0.653470
O O15 0.325340 0.500000 0.926230
O O16 0.452238 0.585809 0.827374
O O17 0.500000 0.582485 0.000000
O O18 0.881983 0.000000 0.236336
#
# Coordination Sequence:
#
# PCOD9225573 Si02
#       7
#     8   8   8   8   8   8   8
#     4  12  26  39  60  97 142 168 207 266 333 387
#     4  11  23  37  59  92 125 166 203 259 323 375
#     4  12  19  33  55  88 128 159 205 250 310 384
#     4  11  22  36  61  92 125 160 207 258 315 377
#     4  11  20  34  57  90 129 159 201 249 318 382
#     4  10  21  44  71  91 120 172 224 266 318 390
#     4  10  24  44  68  90 119 167 227 266 306 378
#
# _framework density 9.8765429999999999
#
# number of rings (size 3 to 8) (size 9 to 14) (size 15 to 20)
#    0.000    1.000    5.714    1.286    6.000    1.714 
#    0.000    0.000    0.000    1.286    0.000    0.000 
#    0.000    0.000    0.000    0.000    0.000    0.000 
#
# Total GULP energy -156142.721172 kJ/mol
# GULP energy per Si atom -5576.525756 kJ/mol
# Density = 0.985406 g / cm^3
# Si number density = 9.876543 Si / 1000 Ang^3
#
#
#
# Elastic Constant Matrix: (Units=GPa)
#
#
# Indices 1 2 3 4 5 6 
#
# 1 117.4866 53.2600 10.9535 0.0000 14.0813 0.0000
# 2 53.2600 82.8973 -1.0030 0.0000 -15.8145 0.0000
# 3 10.9535 -1.0030 33.8230 0.0000 18.6094 0.0000
# 4 0.0000 0.0000 0.0000 12.6541 0.0000 10.1720
# 5 14.0813 -15.8145 18.6094 0.0000 24.5116 0.0000
# 6 0.0000 0.0000 0.0000 10.1720 0.0000 -31.3520
#
#
#
# Elastic Compliance Matrix: (Units=1/GPa)
#
#
# Indices 1 2 3 4 5 6 
#
# 1 0.019508 -0.018234 0.009927 0.000000 -0.030508 0.000000
# 2 -0.018234 0.032069 -0.017674 0.000000 0.044584 0.000000
# 3 0.009927 -0.017674 0.060517 0.000000 -0.063051 0.000000
# 4 0.000000 0.000000 0.000000 0.062679 0.000000 0.020336
# 5 -0.030508 0.044584 -0.063051 0.000000 0.134957 0.000000
# 6 0.000000 0.000000 0.000000 0.020336 0.000000 -0.025298
#
#
# Mechanical properties :
#
#
# Convention : Reuss Voigt Hill
#
# Bulk Modulus (GPa) = 16.62960 40.06974 28.34967
# Shear Modulus (GPa) = 14.02764 12.56249 13.29506
#
# Velocity S-wave (km/s) = 2.66775 2.52459 2.59716
# Velocity P-wave (km/s) = 4.23394 5.36912 4.83496
#
# Compressibility (1/GPa) = 0.06013372
#
# Stress axis : x y z
#
# Youngs Moduli (GPa) = 51.25978 31.18230 16.52415
#
# Poissons Ratio (x) = 0.56857 -0.16403
# Poissons Ratio (y) = 0.93466 0.29205
# Poissons Ratio (z) = -0.50885 0.55112
#
# Static dielectric constant tensor:
#      x y z
#    x 1.724450 0.000000 0.034780 
#    y 0.000000 1.673690 0.000000 
#    z 0.034780 0.000000 1.708900 
# 
# From -- ./inp_files/197522.got.cif
#   From: 2010.05.17/outbox.ucp.g08.bks.cvg/sg12_99_cif.got.tgz:197522.got - 2010.06.11 11:47:21.
