data_PCOD9225670
_publ_section_title
;
Structure prediction by ZEFSAII (Michael W. Deem and Ramdas Pophale) SiO2 
 PCOD9225670
Probable space group: C 2/M
;
_chemical_formula_sum "Si O2"
_cell_formula_units_Z 28
_cell_length_a 9.000000
_cell_length_b 15.000000
_cell_length_c 24.000000
_cell_angle_alpha 90.000000
_cell_angle_beta 60.000000
_cell_angle_gamma 90.000000
_cell_volume 2805.922308
_symmetry_space_group_name_H-M "C 2/M"
_symmetry_group_IT_number 12
_symmetry_cell_setting 'monoclinic'
loop_
_space_group_symop_operation_xyz
x,y,z
-x,y,-z
-x,-y,-z
x,-y,z
1/2+x,1/2+y,z
1/2-x,1/2+y,-z
1/2-x,1/2-y,-z
1/2+x,1/2-y,z
loop_
_atom_site_type_symbol
_atom_site_label
_atom_site_fract_x
_atom_site_fract_y
_atom_site_fract_z
Si Si1 0.508941 0.398331 0.338225
Si Si2 0.554143 0.734643 0.548873
Si Si3 0.269311 0.398038 0.923294
Si Si4 0.231405 0.745634 0.251450
Si Si5 0.603185 0.897360 0.066079
Si Si6 0.903540 0.260951 0.833393
Si Si7 0.870076 0.603370 0.642244
O O1 0.565871 0.500000 0.337279
O O2 0.488399 0.338071 0.396883
O O3 0.637462 0.339695 0.277509
O O4 0.323247 0.401630 0.344466
O O5 0.500000 0.697921 0.500000
O O6 0.750000 0.750000 0.500000
O O7 0.472274 0.830111 0.581609
O O8 0.328402 0.500000 0.911935
O O9 0.387166 0.332460 0.867359
O O10 0.083939 0.395296 0.927654
O O11 0.236316 0.368851 0.993045
O O12 0.245623 0.727993 0.183390
O O13 0.424369 0.760623 0.235580
O O14 0.142443 0.662983 0.299337
O O15 0.603802 0.837114 0.119731
O O16 0.639758 0.000000 0.073075
O O17 0.931683 0.500000 0.635973
#
# Coordination Sequence:
#
# PCOD9225670 Si02
#       7
#     8   8   8   8   8   8   8
#     4  10  22  41  63  86 119 160 194 233 287 340
#     4  11  22  39  63  96 125 148 190 242 282 335
#     4   9  19  36  58  83 113 151 191 235 293 359
#     4  11  24  38  58  87 118 152 195 247 281 337
#     4   9  19  36  57  84 115 147 190 241 293 351
#     4  12  21  37  59  86 115 150 196 239 295 342
#     4  10  22  41  63  86 119 161 194 231 288 342
#
# _framework density 9.9788940000000004
#
# number of rings (size 3 to 8) (size 9 to 14) (size 15 to 20)
#    0.000    1.714    4.286    1.286    0.000    3.429 
#    0.000    1.429    0.000    1.714    0.000    0.000 
#    0.000    0.000    0.000    0.000    0.000    0.000 
#
# Total GULP energy -155988.453457 kJ/mol
# GULP energy per Si atom -5571.016195 kJ/mol
# Density = 0.995618 g / cm^3
# Si number density = 9.978894 Si / 1000 Ang^3
#
#
#
# Elastic Constant Matrix: (Units=GPa)
#
#
# Indices 1 2 3 4 5 6 
#
# 1 35.1016 24.1195 21.1000 0.0000 -2.9839 0.0000
# 2 24.1195 138.1567 46.3955 0.0000 10.5389 0.0000
# 3 21.1000 46.3955 69.7269 0.0000 13.2058 0.0000
# 4 0.0000 0.0000 0.0000 12.0199 0.0000 1.7515
# 5 -2.9839 10.5389 13.2058 0.0000 27.8608 0.0000
# 6 0.0000 0.0000 0.0000 1.7515 0.0000 22.8492
#
#
#
# Elastic Compliance Matrix: (Units=1/GPa)
#
#
# Indices 1 2 3 4 5 6 
#
# 1 0.038828 -0.003827 -0.011278 0.000000 0.010952 0.000000
# 2 -0.003827 0.009709 -0.004975 0.000000 -0.001724 0.000000
# 3 -0.011278 -0.004975 0.023002 0.000000 -0.010229 0.000000
# 4 0.000000 0.000000 0.000000 0.084135 0.000000 -0.006449
# 5 0.010952 -0.001724 -0.010229 0.000000 0.042566 0.000000
# 6 0.000000 0.000000 0.000000 -0.006449 0.000000 0.044260
#
#
# Mechanical properties :
#
#
# Convention : Reuss Voigt Hill
#
# Bulk Modulus (GPa) = 31.86812 47.35725 39.61269
# Shear Modulus (GPa) = 17.05790 22.63733 19.84762
#
# Velocity S-wave (km/s) = 2.92669 3.37153 3.15696
# Velocity P-wave (km/s) = 5.23671 6.23991 5.76019
#
# Compressibility (1/GPa) = 0.03137932
#
# Stress axis : x y z
#
# Youngs Moduli (GPa) = 25.75437 103.00136 43.47411
#
# Poissons Ratio (x) = 0.39417 0.49028
# Poissons Ratio (y) = 0.09856 0.21630
# Poissons Ratio (z) = 0.29045 0.51248
#
# Static dielectric constant tensor:
#      x y z
#    x 1.689990 0.000000 -0.005520 
#    y 0.000000 2.932180 0.000000 
#    z -0.005520 0.000000 1.697140 
# 
# From -- ./inp_files/300161.got.cif
#   From: 2010.05.17/outbox.ucp.g08.bks.cvg/sg12_151_cif.got.tgz:300161.got - 2010.06.11 11:47:21.
