data_PCOD9225312
_publ_section_title
;
Structure prediction by ZEFSAII (Michael W. Deem and Ramdas Pophale) SiO2 
 PCOD9225312
Probable space group: C 2/M
;
_chemical_formula_sum "Si O2"
_cell_formula_units_Z 20
_cell_length_a 9.000000
_cell_length_b 30.000000
_cell_length_c 12.000000
_cell_angle_alpha 90.000000
_cell_angle_beta 140.000000
_cell_angle_gamma 90.000000
_cell_volume 2082.631855
_symmetry_space_group_name_H-M "C 2/M"
_symmetry_group_IT_number 12
_symmetry_cell_setting 'monoclinic'
loop_
_space_group_symop_operation_xyz
x,y,z
-x,y,-z
-x,-y,-z
x,-y,z
1/2+x,1/2+y,z
1/2-x,1/2+y,-z
1/2-x,1/2-y,-z
1/2+x,1/2-y,z
loop_
_atom_site_type_symbol
_atom_site_label
_atom_site_fract_x
_atom_site_fract_y
_atom_site_fract_z
Si Si1 0.032406 0.096389 0.679418
Si Si2 0.671644 0.948143 0.334928
Si Si3 0.858398 0.947964 0.031037
Si Si4 0.757307 0.768925 0.629501
Si Si5 0.272277 0.693911 0.193373
O O1 0.185961 0.062027 0.695417
O O2 0.060621 0.083990 0.823949
O O3 0.130053 0.145682 0.712129
O O4 0.776682 0.085507 0.486839
O O5 0.699062 0.000000 0.384622
O O6 0.407285 0.940258 0.152830
O O7 0.885039 0.000000 0.081112
O O8 0.000000 0.941321 0.000000
O O9 0.500000 0.792750 0.500000
O O10 0.750000 0.750000 0.500000
O O11 0.745812 0.730201 0.716957
O O12 0.018871 0.791403 0.774921
O O13 0.000000 0.688862 0.000000
#
# Coordination Sequence:
#
# PCOD9225312 Si02
#       5
#     8   8   8   8   8
#     4  11  22  37  61  94 122 159 211 261 301 361
#     4  10  21  37  62  89 123 169 211 253 305 365
#     4  10  21  39  59  87 129 169 206 253 309 365
#     4   9  21  40  62  87 118 160 199 246 317 379
#     4  11  22  40  64  92 122 160 203 260 312 373
#
# _framework density 9.6032340000000005
#
# number of rings (size 3 to 8) (size 9 to 14) (size 15 to 20)
#    0.000    1.800    0.000    4.800    8.400    2.400 
#    3.600    6.000    0.000    0.000    0.000    0.000 
#    0.000    0.000    0.000    0.000    0.000    0.000 
#
# Total GULP energy -111384.793399 kJ/mol
# GULP energy per Si atom -5569.239670 kJ/mol
# Density = 0.958138 g / cm^3
# Si number density = 9.603234 Si / 1000 Ang^3
#
#
#
# Elastic Constant Matrix: (Units=GPa)
#
#
# Indices 1 2 3 4 5 6 
#
# 1 68.5029 -15.5556 -23.4520 0.0000 -22.6228 0.0000
# 2 -15.5556 31.0956 -32.5429 0.0000 -53.6456 0.0000
# 3 -23.4520 -32.5429 -49.2138 0.0000 -85.4410 0.0000
# 4 0.0000 0.0000 0.0000 26.1956 0.0000 -0.2243
# 5 -22.6228 -53.6456 -85.4410 0.0000 -28.5358 0.0000
# 6 0.0000 0.0000 0.0000 -0.2243 0.0000 16.4637
#
#
#
# Elastic Compliance Matrix: (Units=1/GPa)
#
#
# Indices 1 2 3 4 5 6 
#
# 1 0.012997 0.000118 -0.002859 0.000000 -0.001966 0.000000
# 2 0.000118 0.019032 -0.011823 0.000000 -0.000471 0.000000
# 3 -0.002859 -0.011823 0.012782 0.000000 -0.013778 0.000000
# 4 0.000000 0.000000 0.000000 0.038179 0.000000 0.000520
# 5 -0.001966 -0.000471 -0.013778 0.000000 0.008655 0.000000
# 6 0.000000 0.000000 0.000000 0.000520 0.000000 0.060747
#
#
# Mechanical properties :
#
#
# Convention : Reuss Voigt Hill
#
# Bulk Modulus (GPa) = 63.76466 -10.30182 26.73142
# Shear Modulus (GPa) = 26.77416 10.95373 18.86394
#
# Velocity S-wave (km/s) = 3.73771 2.39072 3.13735
# Velocity P-wave (km/s) = 7.20409 1.49844 5.20309
#
# Compressibility (1/GPa) = 0.01568267
#
# Stress axis : x y z
#
# Youngs Moduli (GPa) = 76.94176 52.54394 78.23319
#
# Poissons Ratio (x) = -0.00622 0.22368
# Poissons Ratio (y) = -0.00911 0.92498
# Poissons Ratio (z) = 0.21998 0.62125
#
# Static dielectric constant tensor:
#      x y z
#    x 1.678430 0.000000 0.041780 
#    y 0.000000 1.679060 0.000000 
#    z 0.041780 0.000000 1.727940 
# 
# From -- ./inp_files/125005.got.cif
#   From: 2010.05.17/outbox.ucp.g08.bks.cvg/sg12_63_cif.got.tgz:125005.got - 2010.06.11 11:47:21.
