data_PCOD9225582
_publ_section_title
;
Structure prediction by ZEFSAII (Michael W. Deem and Ramdas Pophale) SiO2 
 PCOD9225582
Probable space group: C 2/M
;
_chemical_formula_sum "Si O2"
_cell_formula_units_Z 28
_cell_length_a 9.000000
_cell_length_b 30.000000
_cell_length_c 21.000000
_cell_angle_alpha 90.000000
_cell_angle_beta 30.000000
_cell_angle_gamma 90.000000
_cell_volume 2835.000000
_symmetry_space_group_name_H-M "C 2/M"
_symmetry_group_IT_number 12
_symmetry_cell_setting 'monoclinic'
loop_
_space_group_symop_operation_xyz
x,y,z
-x,y,-z
-x,-y,-z
x,-y,z
1/2+x,1/2+y,z
1/2-x,1/2+y,-z
1/2-x,1/2-y,-z
1/2+x,1/2-y,z
loop_
_atom_site_type_symbol
_atom_site_label
_atom_site_fract_x
_atom_site_fract_y
_atom_site_fract_z
Si Si1 0.132674 0.627222 0.799167
Si Si2 0.156253 0.500000 0.510429
Si Si3 0.241781 0.425693 0.143172
Si Si4 0.302177 0.800192 0.011613
Si Si5 0.646311 0.000000 0.651327
Si Si6 0.265912 0.947801 0.144644
Si Si7 0.357035 0.621015 0.225062
Si Si8 0.288069 0.104055 0.516890
O O1 0.096962 0.578287 0.846265
O O2 0.474114 0.629177 0.646991
O O3 0.902822 0.620405 0.827381
O O4 0.001854 0.666971 0.891637
O O5 0.984459 0.500000 0.642028
O O6 0.289448 0.550858 0.463006
O O7 0.000000 0.500000 0.500000
O O8 0.395143 0.411359 0.151211
O O9 0.976272 0.458659 0.262647
O O10 0.500000 0.442678 0.000000
O O11 0.025658 0.832446 0.141479
O O12 0.500000 0.791537 0.000000
O O13 0.250000 0.750000 0.000000
O O14 0.000000 0.000000 0.500000
O O15 0.021806 0.909836 0.217115
O O16 0.176860 0.000000 0.190380
O O17 0.500000 0.949126 0.000000
O O18 0.009730 0.621779 0.377903
O O19 0.500000 0.107936 0.500000
#
# Coordination Sequence:
#
# PCOD9225582 Si02
#       8
#     8   4   8   8   4   8   8   8
#     4  12  24  44  65 102 137 180 234 286 345 417
#     4  10  22  37  58  95 132 193 234 266 325 402
#     4  12  26  41  64  93 146 189 237 281 341 405
#     4  12  26  49  78 101 130 173 235 301 367 429
#     4  12  25  43  58  97 146 197 242 280 331 400
#     4  11  22  38  64  97 140 187 232 282 334 407
#     4  12  23  45  67 100 138 181 231 289 349 418
#     4  11  22  37  68  97 140 179 231 283 339 409
#
# _framework density 9.8765429999999999
#
# number of rings (size 3 to 8) (size 9 to 14) (size 15 to 20)
#    0.000    0.429    7.143    1.071    6.000    0.000 
#    0.000    0.714    0.000    0.000    0.000    0.000 
#    0.000    0.000    0.000    0.000    0.000    0.000 
#
# Total GULP energy -155939.209580 kJ/mol
# GULP energy per Si atom -5569.257485 kJ/mol
# Density = 0.985406 g / cm^3
# Si number density = 9.876543 Si / 1000 Ang^3
#
#
#
# Elastic Constant Matrix: (Units=GPa)
#
#
# Indices 1 2 3 4 5 6 
#
# 1 57.1328 15.5140 26.3567 0.0000 8.1923 0.0000
# 2 15.5140 142.0860 57.5100 0.0000 1.4021 0.0000
# 3 26.3567 57.5100 187.1213 -0.0003 3.7182 0.0002
# 4 0.0000 0.0000 -0.0003 28.5583 0.0002 7.9210
# 5 8.1923 1.4021 3.7182 0.0002 34.6537 -0.0001
# 6 0.0000 0.0000 0.0002 7.9210 -0.0001 30.9183
#
#
#
# Elastic Compliance Matrix: (Units=1/GPa)
#
#
# Indices 1 2 3 4 5 6 
#
# 1 0.019499 -0.001153 -0.002306 0.000000 -0.004316 0.000000
# 2 -0.001153 0.008106 -0.002333 0.000000 0.000195 0.000000
# 3 -0.002306 -0.002333 0.006387 0.000000 -0.000046 0.000000
# 4 0.000000 0.000000 0.000000 0.037695 0.000000 -0.009657
# 5 -0.004316 0.000195 -0.000046 0.000000 0.029874 0.000000
# 6 0.000000 0.000000 0.000000 -0.009657 0.000000 0.034817
#
#
# Mechanical properties :
#
#
# Convention : Reuss Voigt Hill
#
# Bulk Modulus (GPa) = 44.62758 65.01128 54.81943
# Shear Modulus (GPa) = 32.16845 37.95668 35.06256
#
# Velocity S-wave (km/s) = 4.03988 4.38831 4.21770
# Velocity P-wave (km/s) = 6.66353 7.65897 7.17852
#
# Compressibility (1/GPa) = 0.02240767
#
# Stress axis : x y z
#
# Youngs Moduli (GPa) = 51.28480 123.36268 156.57102
#
# Poissons Ratio (x) = 0.14223 0.36112
# Poissons Ratio (y) = 0.05913 0.36525
# Poissons Ratio (z) = 0.11828 0.28779
#
# Static dielectric constant tensor:
#      x y z
#    x 1.818330 0.000000 -0.034900 
#    y 0.000000 1.687380 0.000000 
#    z -0.034900 0.000000 1.746800 
# 
# From -- ./inp_files/303031.got.cif
#   From: 2010.05.17/outbox.ucp.g08.bks.cvg/sg12_152_cif.got.tgz:303031.got - 2010.06.11 11:47:21.
