data_PCOD9225742
_publ_section_title
;
Structure prediction by ZEFSAII (Michael W. Deem and Ramdas Pophale) SiO2 
 PCOD9225742
Probable space group: C 2/M
;
_chemical_formula_sum "Si O2"
_cell_formula_units_Z 28
_cell_length_a 18.000000
_cell_length_b 21.000000
_cell_length_c 24.000000
_cell_angle_alpha 90.000000
_cell_angle_beta 160.000000
_cell_angle_gamma 90.000000
_cell_volume 3102.806740
_symmetry_space_group_name_H-M "C 2/M"
_symmetry_group_IT_number 12
_symmetry_cell_setting 'monoclinic'
loop_
_space_group_symop_operation_xyz
x,y,z
-x,y,-z
-x,-y,-z
x,-y,z
1/2+x,1/2+y,z
1/2-x,1/2+y,-z
1/2-x,1/2-y,-z
1/2+x,1/2-y,z
loop_
_atom_site_type_symbol
_atom_site_label
_atom_site_fract_x
_atom_site_fract_y
_atom_site_fract_z
Si Si1 0.540051 0.424831 0.961979
Si Si2 0.739119 0.075180 0.308647
Si Si3 0.453651 0.738385 0.184209
Si Si4 0.468724 0.881072 0.720420
Si Si5 0.192279 0.687221 0.183774
Si Si6 0.255853 0.185427 0.303514
Si Si7 0.112922 0.816883 0.404605
O O1 0.498703 0.500000 0.920067
O O2 0.379112 0.375999 0.815182
O O3 0.500000 0.415320 0.000000
O O4 0.796160 0.410145 0.129993
O O5 0.629035 0.087530 0.291930
O O6 0.664613 0.129716 0.210601
O O7 0.000000 0.082782 0.500000
O O8 0.698961 0.000000 0.264416
O O9 0.488940 0.807902 0.233964
O O10 0.641514 0.714724 0.276724
O O11 0.470140 0.688119 0.246938
O O12 0.250000 0.750000 0.000000
O O13 0.288959 0.872544 0.543743
O O14 0.220688 0.756735 0.233702
O O15 0.427804 0.678265 0.321078
O O16 0.000000 0.687611 0.000000
O O17 0.500000 0.172152 0.500000
O O18 0.250000 0.750000 0.500000
#
# Coordination Sequence:
#
# PCOD9225742 Si02
#       7
#     8   8   8   8   8   8   8
#     4  11  27  45  65  94 129 179 231 274 329 396
#     4  11  23  42  66  94 132 178 219 267 332 405
#     4  11  21  37  61 100 128 160 210 270 334 394
#     4  11  21  42  67  91 133 168 222 270 330 396
#     4  12  24  40  65 102 136 171 219 275 338 402
#     4  12  24  40  69  96 132 168 218 279 341 395
#     4  10  23  36  60  96 133 167 214 275 328 391
#
# _framework density 9.0240880000000008
#
# number of rings (size 3 to 8) (size 9 to 14) (size 15 to 20)
#    0.000    0.857    4.286    3.857    8.000    0.571 
#    0.000    0.000    0.000    0.857    0.000    0.000 
#    0.000    0.000    0.000    0.000    0.000    0.000 
#
# Total GULP energy -155964.286836 kJ/mol
# GULP energy per Si atom -5570.153101 kJ/mol
# Density = 0.900355 g / cm^3
# Si number density = 9.024088 Si / 1000 Ang^3
#
#
#
# Elastic Constant Matrix: (Units=GPa)
#
#
# Indices 1 2 3 4 5 6 
#
# 1 97.5090 20.3592 47.1677 0.0060 8.2871 -0.0051
# 2 20.3592 104.9460 55.0076 -0.0091 -9.8804 0.0093
# 3 47.1677 55.0076 135.2124 0.0241 -2.7354 0.0313
# 4 0.0060 -0.0091 0.0241 15.3226 0.0173 -4.4086
# 5 8.2871 -9.8804 -2.7354 0.0173 44.3893 -0.0044
# 6 -0.0051 0.0093 0.0313 -4.4086 -0.0044 30.3545
#
#
#
# Elastic Compliance Matrix: (Units=1/GPa)
#
#
# Indices 1 2 3 4 5 6 
#
# 1 0.012655 -0.000469 -0.004279 0.000007 -0.002731 0.000007
# 2 -0.000469 0.012388 -0.004825 0.000013 0.002548 0.000003
# 3 -0.004279 -0.004825 0.010859 -0.000023 0.000394 -0.000014
# 4 0.000007 0.000013 -0.000023 0.068110 -0.000025 0.009892
# 5 -0.002731 0.002548 0.000394 -0.000025 0.023629 -0.000002
# 6 0.000007 0.000003 -0.000014 0.009892 -0.000002 0.034381
#
#
# Mechanical properties :
#
#
# Convention : Reuss Voigt Hill
#
# Bulk Modulus (GPa) = 59.67633 64.74848 62.21240
# Shear Modulus (GPa) = 26.77314 32.35549 29.56431
#
# Velocity S-wave (km/s) = 3.85571 4.23866 4.05171
# Velocity P-wave (km/s) = 7.27728 7.74004 7.51222
#
# Compressibility (1/GPa) = 0.01675706
#
# Stress axis : x y z
#
# Youngs Moduli (GPa) = 79.01746 80.72009 92.08744
#
# Poissons Ratio (x) = 0.03789 0.39405
# Poissons Ratio (y) = 0.03709 0.44429
# Poissons Ratio (z) = 0.33812 0.38945
#
# Static dielectric constant tensor:
#      x y z
#    x 1.659460 -0.000010 -0.022790 
#    y -0.000010 1.617970 -0.000080 
#    z -0.022790 -0.000080 1.788450 
# 
# From -- ./inp_files/344817.got.cif
#   From: 2010.05.17/outbox.ucp.g08.bks.cvg/sg12_173_cif.got.tgz:344817.got - 2010.06.11 11:47:21.
