data_PCOD9225320
_publ_section_title
;
Structure prediction by ZEFSAII (Michael W. Deem and Ramdas Pophale) SiO2 
 PCOD9225320
Probable space group: C 2/M
;
_chemical_formula_sum "Si O2"
_cell_formula_units_Z 22
_cell_length_a 18.000000
_cell_length_b 12.000000
_cell_length_c 30.000000
_cell_angle_alpha 90.000000
_cell_angle_beta 160.000000
_cell_angle_gamma 90.000000
_cell_volume 2216.290529
_symmetry_space_group_name_H-M "C 2/M"
_symmetry_group_IT_number 12
_symmetry_cell_setting 'monoclinic'
loop_
_space_group_symop_operation_xyz
x,y,z
-x,y,-z
-x,-y,-z
x,-y,z
1/2+x,1/2+y,z
1/2-x,1/2+y,-z
1/2-x,1/2-y,-z
1/2+x,1/2-y,z
loop_
_atom_site_type_symbol
_atom_site_label
_atom_site_fract_x
_atom_site_fract_y
_atom_site_fract_z
Si Si1 0.769387 0.267225 0.750364
Si Si2 0.951905 0.236568 0.179766
Si Si3 0.479484 0.367224 0.040018
Si Si4 0.763346 0.500000 0.796694
Si Si5 0.140681 0.299893 0.536046
Si Si6 0.381484 0.500000 0.623793
Si Si7 0.233357 0.000000 0.891889
O O1 0.799233 0.385248 0.789712
O O2 0.535463 0.256755 0.594996
O O3 0.947080 0.244963 0.812134
O O4 0.820610 0.177981 0.818008
O O5 0.873865 0.110590 0.147387
O O6 0.153145 0.264521 0.326621
O O7 0.744615 0.314462 0.068904
O O8 0.471461 0.500000 0.037784
O O9 0.500000 0.331747 0.000000
O O10 0.480411 0.500000 0.631625
O O11 0.011623 0.500000 0.960324
O O12 0.254166 0.396314 0.571101
O O13 0.000000 0.341303 0.500000
O O14 0.641302 0.500000 0.788065
#
# Coordination Sequence:
#
# PCOD9225320 Si02
#       7
#     8   8   8   4   8   4   4
#     4  11  25  41  66  91 130 164 212 263 307 376
#     4  10  22  42  68  92 126 168 208 264 312 366
#     4  11  26  43  63  94 128 172 210 247 313 379
#     4  12  25  37  58 100 124 161 214 252 324 367
#     4   9  21  42  63  93 121 162 212 256 313 370
#     4  10  22  38  64  91 121 162 198 273 321 365
#     4  10  21  37  67  95 120 154 215 266 320 360
#
# _framework density 9.9264960000000002
#
# number of rings (size 3 to 8) (size 9 to 14) (size 15 to 20)
#    0.000    1.636    1.818    1.091    8.909    2.182 
#    1.636    1.364    0.000    0.000    0.000    0.000 
#    0.000    0.000    0.000    0.000    0.000    0.000 
#
# Total GULP energy -122540.386282 kJ/mol
# GULP energy per Si atom -5570.017558 kJ/mol
# Density = 0.990390 g / cm^3
# Si number density = 9.926496 Si / 1000 Ang^3
#
#
#
# Elastic Constant Matrix: (Units=GPa)
#
#
# Indices 1 2 3 4 5 6 
#
# 1 46.5150 21.7802 43.7108 0.0194 -6.9863 -0.0236
# 2 21.7802 62.4135 42.4348 0.0071 -5.0504 0.0150
# 3 43.7108 42.4348 143.5304 -0.1111 -8.3395 0.2798
# 4 0.0194 0.0071 -0.1111 -58.9191 0.0065 94.7562
# 5 -6.9863 -5.0504 -8.3395 0.0065 36.4007 -0.0216
# 6 -0.0236 0.0150 0.2798 94.7562 -0.0216 -269.4681
#
#
#
# Elastic Compliance Matrix: (Units=1/GPa)
#
#
# Indices 1 2 3 4 5 6 
#
# 1 0.032066 -0.005510 -0.007929 0.000015 0.003573 -0.000006
# 2 -0.005510 0.021075 -0.004504 0.000010 0.000835 0.000000
# 3 -0.007929 -0.004504 0.010732 -0.000011 0.000312 0.000008
# 4 0.000015 0.000010 -0.000011 -0.039064 0.000001 -0.013737
# 5 0.003573 0.000835 0.000312 0.000001 0.028345 -0.000002
# 6 -0.000006 0.000000 0.000008 -0.013737 -0.000002 -0.008541
#
#
# Mechanical properties :
#
#
# Convention : Reuss Voigt Hill
#
# Bulk Modulus (GPa) = 35.73169 52.03449 43.88309
# Shear Modulus (GPa) = 55.66268 -48.76176 3.45046
#
# Velocity S-wave (km/s) = 5.30078 -4.96132 1.31976
# Velocity P-wave (km/s) = 7.44994 2.55985 4.94716
#
# Compressibility (1/GPa) = 0.02798636
#
# Stress axis : x y z
#
# Youngs Moduli (GPa) = 31.18581 47.44956 93.18319
#
# Poissons Ratio (x) = 0.26145 0.73882
# Poissons Ratio (y) = 0.17184 0.41972
# Poissons Ratio (z) = 0.24726 0.21373
#
# Static dielectric constant tensor:
#      x y z
#    x 1.761920 0.000000 -0.046070 
#    y 0.000000 1.544490 0.000010 
#    z -0.046070 0.000010 1.730860 
# 
# From -- ./inp_files/232269.got.cif
#   From: 2010.05.17/outbox.ucp.g08.bks.cvg/sg12_117_cif.got.tgz:232269.got - 2010.06.11 11:47:21.
