data_PCOD9225726
_publ_section_title
;
Structure prediction by ZEFSAII (Michael W. Deem and Ramdas Pophale) SiO2 
 PCOD9225726
Probable space group: C 2/M
;
_chemical_formula_sum "Si O2"
_cell_formula_units_Z 32
_cell_length_a 9.000000
_cell_length_b 18.000000
_cell_length_c 30.000000
_cell_angle_alpha 90.000000
_cell_angle_beta 40.000000
_cell_angle_gamma 90.000000
_cell_volume 3123.947783
_symmetry_space_group_name_H-M "C 2/M"
_symmetry_group_IT_number 12
_symmetry_cell_setting 'monoclinic'
loop_
_space_group_symop_operation_xyz
x,y,z
-x,y,-z
-x,-y,-z
x,-y,z
1/2+x,1/2+y,z
1/2-x,1/2+y,-z
1/2-x,1/2-y,-z
1/2+x,1/2-y,z
loop_
_atom_site_type_symbol
_atom_site_label
_atom_site_fract_x
_atom_site_fract_y
_atom_site_fract_z
Si Si1 0.796432 0.085918 0.703860
Si Si2 0.560552 0.322786 0.414444
Si Si3 0.836682 0.084438 0.306877
Si Si4 0.899613 0.164675 0.831616
Si Si5 0.153509 0.329270 0.039287
Si Si6 0.102961 0.333543 0.151485
Si Si7 0.871878 0.337188 0.430159
Si Si8 0.481680 0.414348 0.901069
O O1 0.822158 0.133939 0.653326
O O2 0.608283 0.116890 0.782275
O O3 0.038380 0.090129 0.674257
O O4 0.742660 0.000000 0.705912
O O5 0.729777 0.322688 0.417723
O O6 0.316687 0.356626 0.488400
O O7 0.499312 0.238859 0.414782
O O8 0.569521 0.103689 0.374475
O O9 0.967975 0.139793 0.243073
O O10 0.868113 0.000000 0.283472
O O11 0.622848 0.171820 0.894468
O O12 0.974919 0.247888 0.827755
O O13 0.940705 0.101875 0.858939
O O14 0.208946 0.345545 0.077974
O O15 0.250000 0.250000 0.000000
O O16 0.261305 0.389401 0.981096
O O17 0.313721 0.357510 0.134158
O O18 0.541094 0.500000 0.896143
#
# Coordination Sequence:
#
# PCOD9225726 Si02
#       8
#     8   8   8   8   8   8   8   8
#     4  11  25  43  64  96 138 181 227 281 345 407
#     4  10  22  42  71 103 136 177 229 282 337 410
#     4  11  25  43  64  96 138 181 227 281 345 407
#     4  12  24  44  71  95 133 177 229 281 339 419
#     4  12  24  46  70  98 129 176 232 284 343 417
#     4  12  24  44  71  95 133 177 229 281 339 419
#     4  10  22  42  71 103 136 177 229 282 337 410
#     4  12  28  42  66 104 135 170 222 289 355 407
#
# _framework density 10.243449
#
# number of rings (size 3 to 8) (size 9 to 14) (size 15 to 20)
#    0.000    0.750    3.750    3.000    1.750    5.500 
#    0.000    2.500    0.000    0.000    0.000    0.000 
#    0.000    0.000    0.000    0.000    0.000    0.000 
#
# Total GULP energy -178783.984901 kJ/mol
# GULP energy per Si atom -5586.999528 kJ/mol
# Density = 1.022013 g / cm^3
# Si number density = 10.243449 Si / 1000 Ang^3
#
#
#
# Elastic Constant Matrix: (Units=GPa)
#
#
# Indices 1 2 3 4 5 6 
#
# 1 34.3279 13.3979 10.0110 -0.0017 -11.0821 0.0000
# 2 13.3979 41.9420 10.1730 -0.0004 17.3844 0.0010
# 3 10.0110 10.1730 65.0373 0.0014 3.9670 0.0016
# 4 -0.0017 -0.0004 0.0014 29.1038 0.0022 -0.1948
# 5 -11.0821 17.3844 3.9670 0.0022 31.6580 -0.0010
# 6 0.0000 0.0010 0.0016 -0.1948 -0.0010 19.9481
#
#
#
# Elastic Compliance Matrix: (Units=1/GPa)
#
#
# Indices 1 2 3 4 5 6 
#
# 1 0.055443 -0.031903 -0.005841 0.000000 0.037659 0.000004
# 2 -0.031903 0.050199 -0.000583 0.000002 -0.038661 -0.000004
# 3 -0.005841 -0.000583 0.016598 -0.000001 -0.003804 -0.000001
# 4 0.000000 0.000002 -0.000001 0.034362 -0.000003 0.000335
# 5 0.037659 -0.038661 -0.003804 -0.000003 0.066477 0.000005
# 6 0.000004 -0.000004 -0.000001 0.000335 0.000005 0.050133
#
#
# Mechanical properties :
#
#
# Convention : Reuss Voigt Hill
#
# Bulk Modulus (GPa) = 21.93656 23.16345 22.55001
# Shear Modulus (GPa) = 13.69627 23.32367 18.50997
#
# Velocity S-wave (km/s) = 2.58841 3.37778 3.00909
# Velocity P-wave (km/s) = 4.43442 5.15204 4.80664
#
# Compressibility (1/GPa) = 0.04558599
#
# Stress axis : x y z
#
# Youngs Moduli (GPa) = 18.03646 19.92062 60.24758
#
# Poissons Ratio (x) = 0.63553 0.35191
# Poissons Ratio (y) = 0.57542 0.03513
# Poissons Ratio (z) = 0.10535 0.01162
#
# Static dielectric constant tensor:
#      x y z
#    x 1.897560 0.000000 -0.008570 
#    y 0.000000 1.681660 0.000000 
#    z -0.008570 0.000000 1.694360 
# 
# From -- ./inp_files/372892.got.cif
#   From: 2010.05.17/outbox.ucp.g08.bks.cvg/sg12_187_cif.got.tgz:372892.got - 2010.06.11 11:47:21.
