data_PCOD9225297
_publ_section_title
;
Structure prediction by ZEFSAII (Michael W. Deem and Ramdas Pophale) SiO2 
 PCOD9225297
Probable space group: C 2/M
;
_chemical_formula_sum "Si O2"
_cell_formula_units_Z 28
_cell_length_a 18.000000
_cell_length_b 18.000000
_cell_length_c 27.000000
_cell_angle_alpha 90.000000
_cell_angle_beta 160.000000
_cell_angle_gamma 90.000000
_cell_volume 2991.992214
_symmetry_space_group_name_H-M "C 2/M"
_symmetry_group_IT_number 12
_symmetry_cell_setting 'monoclinic'
loop_
_space_group_symop_operation_xyz
x,y,z
-x,y,-z
-x,-y,-z
x,-y,z
1/2+x,1/2+y,z
1/2-x,1/2+y,-z
1/2-x,1/2-y,-z
1/2+x,1/2-y,z
loop_
_atom_site_type_symbol
_atom_site_label
_atom_site_fract_x
_atom_site_fract_y
_atom_site_fract_z
Si Si1 0.759139 0.585475 0.657366
Si Si2 0.826760 0.335951 0.050507
Si Si3 0.079857 0.089187 0.984776
Si Si4 0.158375 0.589097 0.039331
Si Si5 0.249152 0.913425 0.534872
Si Si6 0.678353 0.839880 0.769001
Si Si7 0.692005 0.660910 0.770897
O O1 0.500000 0.598532 0.500000
O O2 0.800970 0.500000 0.702346
O O3 0.812553 0.585996 0.632481
O O4 0.915080 0.646617 0.780058
O O5 0.750000 0.250000 0.000000
O O6 0.710356 0.380551 0.020647
O O7 0.755643 0.380731 0.957894
O O8 0.832600 0.118868 0.826178
O O9 0.087397 0.000000 0.995814
O O10 0.203392 0.130564 0.107180
O O11 0.145719 0.500000 0.036021
O O12 0.308361 0.626317 0.174602
O O13 0.918036 0.625832 0.893227
O O14 0.433124 0.869791 0.619301
O O15 0.018972 0.871773 0.387698
O O16 0.230717 0.000000 0.507836
O O17 0.693506 0.750652 0.772992
#
# Coordination Sequence:
#
# PCOD9225297 Si02
#       7
#     8   8   8   8   8   8   8
#     4  10  21  37  60  90 122 154 195 249 309 361
#     4  12  23  38  60  89 122 157 197 248 302 357
#     4  11  21  37  60  85 117 153 199 244 293 354
#     4  11  22  38  60  84 118 159 199 237 292 365
#     4  11  21  36  59  85 118 155 198 244 295 354
#     4  11  21  36  57  88 117 153 193 247 297 341
#     4  11  22  38  58  88 120 155 195 246 296 351
#
# _framework density 9.3583130000000008
#
# number of rings (size 3 to 8) (size 9 to 14) (size 15 to 20)
#    0.000    1.000    1.429    9.429    0.000    1.143 
#    0.000    0.000    0.000    0.000    0.000    3.000 
#    0.000    0.000    0.000    0.000    0.000    0.000 
#
# Total GULP energy -156185.455504 kJ/mol
# GULP energy per Si atom -5578.051982 kJ/mol
# Density = 0.933701 g / cm^3
# Si number density = 9.358313 Si / 1000 Ang^3
#
#
#
# Elastic Constant Matrix: (Units=GPa)
#
#
# Indices 1 2 3 4 5 6 
#
# 1 55.7727 6.7226 -3.1559 0.0081 -8.2241 -0.0028
# 2 6.7226 187.6437 29.5541 0.0339 -6.8537 0.0027
# 3 -3.1559 29.5541 47.6291 -0.0040 -7.6784 0.0196
# 4 0.0081 0.0339 -0.0040 34.2939 0.0027 2.9152
# 5 -8.2241 -6.8537 -7.6784 0.0027 20.4435 -0.0026
# 6 -0.0028 0.0027 0.0196 2.9152 -0.0026 23.7143
#
#
#
# Elastic Compliance Matrix: (Units=1/GPa)
#
#
# Indices 1 2 3 4 5 6 
#
# 1 0.019516 -0.000892 0.003262 -0.000004 0.008777 0.000001
# 2 -0.000892 0.005955 -0.003715 -0.000006 0.000242 0.000003
# 3 0.003262 -0.003715 0.025044 0.000007 0.009473 -0.000020
# 4 -0.000004 -0.000006 0.000007 0.029468 -0.000006 -0.003623
# 5 0.008777 0.000242 0.009473 -0.000006 0.056085 0.000000
# 6 0.000001 0.000003 -0.000020 -0.003623 0.000000 0.042614
#
#
# Mechanical properties :
#
#
# Convention : Reuss Voigt Hill
#
# Bulk Modulus (GPa) = 20.91000 39.69855 30.30427
# Shear Modulus (GPa) = 25.34007 32.88532 29.11270
#
# Velocity S-wave (km/s) = 3.68350 4.19622 3.94819
# Velocity P-wave (km/s) = 5.41175 6.68835 6.08363
#
# Compressibility (1/GPa) = 0.04782402
#
# Stress axis : x y z
#
# Youngs Moduli (GPa) = 51.23924 167.91952 39.92930
#
# Poissons Ratio (x) = 0.14984 -0.13024
# Poissons Ratio (y) = 0.04572 0.14835
# Poissons Ratio (z) = -0.16713 0.62388
#
# Static dielectric constant tensor:
#      x y z
#    x 1.744640 0.000110 -0.037510 
#    y 0.000110 1.607000 -0.000030 
#    z -0.037510 -0.000030 1.677380 
# 
# From -- ./inp_files/364502.got.cif
#   From: 2010.05.17/outbox.ucp.g08.bks.cvg/sg12_183_cif.got.tgz:364502.got - 2010.06.11 11:47:21.
