data_PCOD9225572
_publ_section_title
;
Structure prediction by ZEFSAII (Michael W. Deem and Ramdas Pophale) SiO2 
 PCOD9225572
Probable space group: C 2/M
;
_chemical_formula_sum "Si O2"
_cell_formula_units_Z 32
_cell_length_a 18.000000
_cell_length_b 9.000000
_cell_length_c 30.000000
_cell_angle_alpha 90.000000
_cell_angle_beta 140.000000
_cell_angle_gamma 90.000000
_cell_volume 3123.947783
_symmetry_space_group_name_H-M "C 2/M"
_symmetry_group_IT_number 12
_symmetry_cell_setting 'monoclinic'
loop_
_space_group_symop_operation_xyz
x,y,z
-x,y,-z
-x,-y,-z
x,-y,z
1/2+x,1/2+y,z
1/2-x,1/2+y,-z
1/2-x,1/2-y,-z
1/2+x,1/2-y,z
loop_
_atom_site_type_symbol
_atom_site_label
_atom_site_fract_x
_atom_site_fract_y
_atom_site_fract_z
Si Si1 0.990612 0.326159 0.369294
Si Si2 0.404996 0.672464 0.495932
Si Si3 0.257587 0.675413 0.132602
Si Si4 0.324207 0.324439 0.995312
Si Si5 0.241331 0.832513 0.358856
Si Si6 0.500320 0.669610 0.713060
Si Si7 0.933923 0.673662 0.878409
Si Si8 0.241057 0.173850 0.722550
O O1 0.002315 0.500000 0.382540
O O2 0.041976 0.273759 0.346208
O O3 0.857497 0.276315 0.302026
O O4 0.042105 0.234867 0.434201
O O5 0.500000 0.680526 0.500000
O O6 0.371074 0.500000 0.485426
O O7 0.302548 0.777675 0.431788
O O8 0.264475 0.500000 0.124281
O O9 0.221811 0.766240 0.073075
O O10 0.381590 0.719465 0.209563
O O11 0.160438 0.691023 0.125914
O O12 0.314245 0.500000 0.993271
O O13 0.250000 0.250000 0.000000
O O14 0.456181 0.273675 0.062349
O O15 0.266798 0.713134 0.332698
O O16 0.104345 0.836981 0.300817
O O17 0.282570 0.000000 0.366302
O O18 0.518995 0.500000 0.704689
O O19 0.969697 0.500000 0.894142
O O20 0.864740 0.707051 0.801161
O O21 0.217706 0.000000 0.719971
#
# Coordination Sequence:
#
# PCOD9225572 Si02
#       8
#     8   8   8   8   8   8   8   8
#     4  12  24  39  65  96 127 163 212 267 314 369
#     4  11  23  40  64  89 122 171 215 259 318 381
#     4  10  21  43  70  94 127 170 211 254 311 379
#     4  12  27  44  64  95 133 169 212 262 315 370
#     4  11  24  40  63  96 129 164 210 265 320 375
#     4  10  23  44  66  93 130 169 207 254 319 381
#     4  10  22  42  69  96 126 169 213 255 311 378
#     4  11  22  40  65  94 128 167 212 258 315 381
#
# _framework density 10.243449
#
# number of rings (size 3 to 8) (size 9 to 14) (size 15 to 20)
#    0.000    1.125    2.500    3.750    1.750    5.500 
#    0.000    0.000    0.000    0.000    0.000    0.000 
#    0.000    0.000    0.000    0.000    0.000    0.000 
#
# Total GULP energy -178820.043877 kJ/mol
# GULP energy per Si atom -5588.126371 kJ/mol
# Density = 1.022013 g / cm^3
# Si number density = 10.243449 Si / 1000 Ang^3
#
#
#
# Elastic Constant Matrix: (Units=GPa)
#
#
# Indices 1 2 3 4 5 6 
#
# 1 23.6166 15.0642 22.5496 0.0000 11.5037 0.0000
# 2 15.0642 77.3518 43.2610 0.0000 -4.5271 0.0000
# 3 22.5496 43.2610 112.2034 0.0000 -5.9347 0.0000
# 4 0.0000 0.0000 0.0000 20.9461 0.0000 4.5175
# 5 11.5037 -4.5271 -5.9347 0.0000 24.3126 0.0000
# 6 0.0000 0.0000 0.0000 4.5175 0.0000 17.8037
#
#
#
# Elastic Compliance Matrix: (Units=1/GPa)
#
#
# Indices 1 2 3 4 5 6 
#
# 1 0.087535 -0.010937 -0.015879 0.000000 -0.047330 0.000000
# 2 -0.010937 0.017905 -0.004311 0.000000 0.007457 0.000000
# 3 -0.015879 -0.004311 0.014305 0.000000 0.010202 0.000000
# 4 0.000000 0.000000 0.000000 0.050506 0.000000 -0.012815
# 5 -0.047330 0.007457 0.010202 0.000000 0.067404 0.000000
# 6 0.000000 0.000000 0.000000 -0.012815 0.000000 0.059420
#
#
# Mechanical properties :
#
#
# Convention : Reuss Voigt Hill
#
# Bulk Modulus (GPa) = 17.39354 41.65792 29.52573
# Shear Modulus (GPa) = 13.21027 21.43230 17.32128
#
# Velocity S-wave (km/s) = 2.54208 3.23793 2.91087
# Velocity P-wave (km/s) = 4.13820 5.86148 5.07354
#
# Compressibility (1/GPa) = 0.05749262
#
# Stress axis : x y z
#
# Youngs Moduli (GPa) = 11.42396 55.84891 69.90385
#
# Poissons Ratio (x) = 0.61082 1.10998
# Poissons Ratio (y) = 0.12494 0.30137
# Poissons Ratio (z) = 0.18140 0.24078
#
# Static dielectric constant tensor:
#      x y z
#    x 1.778310 0.000000 0.005170 
#    y 0.000000 1.704640 0.000000 
#    z 0.005170 0.000000 1.707560 
# 
# From -- ./inp_files/378313.got.cif
#   From: 2010.05.17/outbox.ucp.g08.bks.cvg/sg12_190_cif.got.tgz:378313.got - 2010.06.11 11:47:21.
