data_PCOD9225279
_publ_section_title
;
Structure prediction by ZEFSAII (Michael W. Deem and Ramdas Pophale) SiO2 
 PCOD9225279
Probable space group: C 2/M
;
_chemical_formula_sum "Si O2"
_cell_formula_units_Z 24
_cell_length_a 21.000000
_cell_length_b 9.000000
_cell_length_c 27.000000
_cell_angle_alpha 90.000000
_cell_angle_beta 30.000000
_cell_angle_gamma 90.000000
_cell_volume 2551.500000
_symmetry_space_group_name_H-M "C 2/M"
_symmetry_group_IT_number 12
_symmetry_cell_setting 'monoclinic'
loop_
_space_group_symop_operation_xyz
x,y,z
-x,y,-z
-x,-y,-z
x,-y,z
1/2+x,1/2+y,z
1/2-x,1/2+y,-z
1/2-x,1/2-y,-z
1/2+x,1/2-y,z
loop_
_atom_site_type_symbol
_atom_site_label
_atom_site_fract_x
_atom_site_fract_y
_atom_site_fract_z
Si Si1 0.147633 0.821609 0.916937
Si Si2 0.565063 0.822661 0.585926
Si Si3 0.666047 0.819539 0.011717
Si Si4 0.187178 0.820565 0.281927
Si Si5 0.835299 0.320864 0.377801
Si Si6 0.119349 0.679214 0.764211
O O1 0.232682 0.746401 0.817415
O O2 0.166367 0.000000 0.906025
O O3 0.187246 0.750366 0.943021
O O4 0.000000 0.794254 0.000000
O O5 0.454489 0.742171 0.629948
O O6 0.703070 0.761828 0.477464
O O7 0.564198 0.790224 0.645850
O O8 0.556176 0.000000 0.585348
O O9 0.517599 0.781454 0.121640
O O10 0.680732 0.000000 0.001245
O O11 0.750000 0.750000 0.000000
O O12 0.262502 0.772273 0.281085
O O13 0.185528 0.000000 0.281281
O O14 0.814081 0.500000 0.392847
O O15 0.876974 0.273256 0.295217
O O16 0.125108 0.500000 0.760071
#
# Coordination Sequence:
#
# PCOD9225279 Si02
#       6
#     8   8   8   8   8   8
#     4  11  23  40  61  86 120 159 198 244 298 352
#     4  10  21  37  59  88 118 149 190 244 299 351
#     4  11  23  40  61  89 122 158 202 247 296 350
#     4  11  22  38  61  87 116 154 200 242 291 356
#     4   9  19  39  62  82 112 154 195 237 290 355
#     4   9  20  38  60  84 114 154 197 242 289 344
#
# _framework density 9.4062319999999993
#
# number of rings (size 3 to 8) (size 9 to 14) (size 15 to 20)
#    0.000    1.833    1.667    2.000    2.333    2.000 
#    0.000    6.667    0.000    0.000    0.000    0.000 
#    0.000    0.000    0.000    0.000    0.000    0.000 
#
# Total GULP energy -133942.711006 kJ/mol
# GULP energy per Si atom -5580.946292 kJ/mol
# Density = 0.938482 g / cm^3
# Si number density = 9.406232 Si / 1000 Ang^3
#
#
#
# Elastic Constant Matrix: (Units=GPa)
#
#
# Indices 1 2 3 4 5 6 
#
# 1 100.8768 15.0807 -6.3190 0.0000 -4.6666 0.0001
# 2 15.0807 61.1345 -3.7751 -0.0001 -6.5813 0.0002
# 3 -6.3190 -3.7751 15.3389 0.0000 -0.0358 0.0000
# 4 0.0000 -0.0001 0.0000 25.8029 0.0000 -4.5206
# 5 -4.6666 -6.5813 -0.0358 0.0000 42.1551 0.0000
# 6 0.0001 0.0002 0.0000 -4.5206 0.0000 34.2402
#
#
#
# Elastic Compliance Matrix: (Units=1/GPa)
#
#
# Indices 1 2 3 4 5 6 
#
# 1 0.010528 -0.002276 0.003779 0.000000 0.000813 0.000000
# 2 -0.002276 0.017391 0.003348 0.000000 0.002466 0.000000
# 3 0.003779 0.003348 0.067577 0.000000 0.000998 0.000000
# 4 0.000000 0.000000 0.000000 0.039673 0.000000 0.005238
# 5 0.000813 0.002466 0.000998 0.000000 0.024198 0.000000
# 6 0.000000 0.000000 0.000000 0.005238 0.000000 0.029897
#
#
# Mechanical properties :
#
#
# Convention : Reuss Voigt Hill
#
# Bulk Modulus (GPa) = 9.50596 20.81372 15.15984
# Shear Modulus (GPa) = 23.29621 31.93054 27.61338
#
# Velocity S-wave (km/s) = 3.52282 4.12431 3.83538
# Velocity P-wave (km/s) = 4.64877 5.81100 5.26207
#
# Compressibility (1/GPa) = 0.10519714
#
# Stress axis : x y z
#
# Youngs Moduli (GPa) = 94.98778 57.50076 14.79802
#
# Poissons Ratio (x) = 0.13088 -0.05592
# Poissons Ratio (y) = 0.21620 -0.04955
# Poissons Ratio (z) = -0.35893 -0.19253
#
# Static dielectric constant tensor:
#      x y z
#    x 1.654710 0.000000 0.017840 
#    y 0.000000 1.625440 0.000000 
#    z 0.017840 0.000000 1.676440 
# 
# From -- ./inp_files/248812.got.cif
#   From: 2010.05.17/outbox.ucp.g08.bks.cvg/sg12_125_cif.got.tgz:248812.got - 2010.06.11 11:47:21.
