data_PCOD9225645
_publ_section_title
;
Structure prediction by ZEFSAII (Michael W. Deem and Ramdas Pophale) SiO2 
 PCOD9225645
Probable space group: C 2/M
;
_chemical_formula_sum "Si O2"
_cell_formula_units_Z 28
_cell_length_a 27.000000
_cell_length_b 18.000000
_cell_length_c 9.000000
_cell_angle_alpha 90.000000
_cell_angle_beta 40.000000
_cell_angle_gamma 90.000000
_cell_volume 2811.553005
_symmetry_space_group_name_H-M "C 2/M"
_symmetry_group_IT_number 12
_symmetry_cell_setting 'monoclinic'
loop_
_space_group_symop_operation_xyz
x,y,z
-x,y,-z
-x,-y,-z
x,-y,z
1/2+x,1/2+y,z
1/2-x,1/2+y,-z
1/2-x,1/2-y,-z
1/2+x,1/2-y,z
loop_
_atom_site_type_symbol
_atom_site_label
_atom_site_fract_x
_atom_site_fract_y
_atom_site_fract_z
Si Si1 0.660823 0.240449 0.221279
Si Si2 0.592596 0.082615 0.289842
Si Si3 0.978594 0.083489 0.221745
Si Si4 0.318536 0.085453 0.226761
Si Si5 0.445013 0.288771 0.761519
Si Si6 0.662142 0.328292 0.514604
Si Si7 0.417624 0.206574 0.111588
O O1 0.629526 0.156626 0.276943
O O2 0.632102 0.294456 0.154478
O O3 0.644942 0.271571 0.420308
O O4 0.750000 0.250000 0.000000
O O5 0.500000 0.089237 0.500000
O O6 0.609839 0.000000 0.317462
O O7 0.629622 0.080266 0.040416
O O8 0.888667 0.101807 0.420958
O O9 0.022594 0.140772 0.225970
O O10 0.995325 0.000000 0.228967
O O11 0.000000 0.093911 0.000000
O O12 0.245864 0.138774 0.355524
O O13 0.367729 0.131813 0.234679
O O14 0.297847 0.000000 0.315820
O O15 0.500000 0.268021 0.500000
O O16 0.436192 0.223389 0.897934
O O17 0.629145 0.279776 0.726994
O O18 0.500000 0.202129 0.000000
#
# Coordination Sequence:
#
# PCOD9225645 Si02
#       7
#     8   8   8   8   8   8   8
#     4  12  23  39  65  97 124 166 217 268 320 381
#     4  10  22  40  64  91 126 167 212 263 317 377
#     4  11  23  41  65  95 131 170 211 260 325 387
#     4  11  25  42  64  94 130 174 213 263 327 383
#     4  12  21  40  64  95 130 164 217 264 311 383
#     4  12  22  43  66  95 129 171 215 266 320 391
#     4  12  23  41  68  99 126 167 222 265 320 382
#
# _framework density 9.9589090000000002
#
# number of rings (size 3 to 8) (size 9 to 14) (size 15 to 20)
#    0.000    0.571    7.143    1.286    2.000    0.571 
#    0.000    1.429    0.000    0.000    0.000    0.000 
#    0.000    0.000    0.000    0.000    0.000    0.000 
#
# Total GULP energy -155994.655882 kJ/mol
# GULP energy per Si atom -5571.237710 kJ/mol
# Density = 0.993624 g / cm^3
# Si number density = 9.958909 Si / 1000 Ang^3
#
#
#
# Elastic Constant Matrix: (Units=GPa)
#
#
# Indices 1 2 3 4 5 6 
#
# 1 79.5030 37.3198 55.4546 0.0000 -23.7848 0.0000
# 2 37.3198 150.2567 43.3582 0.0000 -7.2629 0.0000
# 3 55.4546 43.3582 55.5190 0.0000 -10.6730 0.0000
# 4 0.0000 0.0000 0.0000 18.7826 0.0000 -10.0169
# 5 -23.7848 -7.2629 -10.6730 0.0000 34.8624 0.0000
# 6 0.0000 0.0000 0.0000 -10.0169 0.0000 27.9846
#
#
#
# Elastic Compliance Matrix: (Units=1/GPa)
#
#
# Indices 1 2 3 4 5 6 
#
# 1 0.053771 0.002569 -0.051596 0.000000 0.021424 0.000000
# 2 0.002569 0.008717 -0.009231 0.000000 0.000743 0.000000
# 3 -0.051596 -0.009231 0.073973 0.000000 -0.014478 0.000000
# 4 0.000000 0.000000 0.000000 0.065802 0.000000 0.023553
# 5 0.021424 0.000743 -0.014478 0.000000 0.039023 0.000000
# 6 0.000000 0.000000 0.000000 0.023553 0.000000 0.044165
#
#
# Mechanical properties :
#
#
# Convention : Reuss Voigt Hill
#
# Bulk Modulus (GPa) = 50.13618 61.94933 56.04275
# Shear Modulus (GPa) = 12.23648 26.26901 19.25274
#
# Velocity S-wave (km/s) = 2.48129 3.63556 3.11241
# Velocity P-wave (km/s) = 5.78232 6.98521 6.41203
#
# Compressibility (1/GPa) = 0.01994568
#
# Stress axis : x y z
#
# Youngs Moduli (GPa) = 18.59751 114.72218 13.51836
#
# Poissons Ratio (x) = -0.29472 0.69749
# Poissons Ratio (y) = -0.04778 0.12478
# Poissons Ratio (z) = 0.95956 1.05896
#
# Static dielectric constant tensor:
#      x y z
#    x 1.714970 0.000000 0.105700 
#    y 0.000000 1.692530 0.000000 
#    z 0.105700 0.000000 1.688610 
# 
# From -- ./inp_files/105921.got.cif
#   From: 2010.05.17/outbox.ucp.g08.bks.cvg/sg12_53_cif.got.tgz:105921.got - 2010.06.11 11:47:21.
