data_PCOD9225916
_publ_section_title
;
Structure prediction by ZEFSAII (Michael W. Deem and Ramdas Pophale) SiO2 
 PCOD9225916
Probable space group: C 2/M
;
_chemical_formula_sum "Si O2"
_cell_formula_units_Z 28
_cell_length_a 12.000000
_cell_length_b 18.000000
_cell_length_c 15.000000
_cell_angle_alpha 90.000000
_cell_angle_beta 60.000000
_cell_angle_gamma 90.000000
_cell_volume 2805.922308
_symmetry_space_group_name_H-M "C 2/M"
_symmetry_group_IT_number 12
_symmetry_cell_setting 'monoclinic'
loop_
_space_group_symop_operation_xyz
x,y,z
-x,y,-z
-x,-y,-z
x,-y,z
1/2+x,1/2+y,z
1/2-x,1/2+y,-z
1/2-x,1/2-y,-z
1/2+x,1/2-y,z
loop_
_atom_site_type_symbol
_atom_site_label
_atom_site_fract_x
_atom_site_fract_y
_atom_site_fract_z
Si Si1 0.548194 0.153417 0.195069
Si Si2 0.361893 0.415570 0.507203
Si Si3 0.637636 0.085166 0.990482
Si Si4 0.234616 0.308470 0.693898
Si Si5 0.571641 0.085929 0.379099
Si Si6 0.155391 0.141113 0.685164
Si Si7 0.627900 0.319109 0.177542
O O1 0.403494 0.163654 0.217821
O O2 0.539955 0.131810 0.302458
O O3 0.617556 0.232740 0.155391
O O4 0.617659 0.094414 0.104542
O O5 0.500000 0.415807 0.500000
O O6 0.312238 0.500000 0.527096
O O7 0.273803 0.360515 0.597546
O O8 0.369292 0.385541 0.404876
O O9 0.754746 0.137335 0.913845
O O10 0.666653 0.000000 0.954699
O O11 0.500000 0.104258 0.000000
O O12 0.212031 0.224462 0.670814
O O13 0.338963 0.316199 0.730183
O O14 0.500000 0.111445 0.500000
O O15 0.726519 0.091908 0.326684
O O16 0.533806 0.000000 0.381714
O O17 0.012235 0.144354 0.784792
#
# Coordination Sequence:
#
# PCOD9225916 Si02
#       7
#     8   8   8   8   8   8   8
#     4  11  23  43  67  95 127 169 218 265 322 381
#     4  11  23  37  58  90 128 169 210 265 325 381
#     4  11  24  42  68  97 128 166 211 269 327 385
#     4  11  22  40  64  91 125 167 219 266 318 380
#     4  11  24  42  66  96 134 174 212 259 319 388
#     4  11  23  41  64  91 128 171 217 265 320 378
#     4  11  23  43  65  95 127 165 216 269 319 377
#
# _framework density 9.9788940000000004
#
# number of rings (size 3 to 8) (size 9 to 14) (size 15 to 20)
#    0.000    1.000    4.286    2.571    0.000    5.714 
#    0.000    0.714    0.000    1.714    0.000    0.000 
#    0.000    0.000    0.000    0.000    0.000    0.000 
#
# Total GULP energy -156322.244499 kJ/mol
# GULP energy per Si atom -5582.937304 kJ/mol
# Density = 0.995618 g / cm^3
# Si number density = 9.978894 Si / 1000 Ang^3
#
#
#
# Elastic Constant Matrix: (Units=GPa)
#
#
# Indices 1 2 3 4 5 6 
#
# 1 93.4208 13.7042 12.6306 0.0000 -13.3508 0.0000
# 2 13.7042 54.8719 32.8748 0.0000 -28.0109 0.0000
# 3 12.6306 32.8748 38.7414 0.0000 -3.4963 0.0000
# 4 0.0000 0.0000 0.0000 52.1765 0.0000 2.9498
# 5 -13.3508 -28.0109 -3.4963 0.0000 28.8139 0.0000
# 6 0.0000 0.0000 0.0000 2.9498 0.0000 -1.7548
#
#
#
# Elastic Compliance Matrix: (Units=1/GPa)
#
#
# Indices 1 2 3 4 5 6 
#
# 1 0.013890 0.021657 -0.020651 0.000000 0.024984 0.000000
# 2 0.021657 0.235099 -0.187076 0.000000 0.215882 0.000000
# 3 -0.020651 -0.187076 0.175942 0.000000 -0.170082 0.000000
# 4 0.000000 0.000000 0.000000 0.017502 0.000000 0.029422
# 5 0.024984 0.215882 -0.170082 0.000000 0.235510 0.000000
# 6 0.000000 0.000000 0.000000 0.029422 0.000000 -0.520411
#
#
# Mechanical properties :
#
#
# Convention : Reuss Voigt Hill
#
# Bulk Modulus (GPa) = 18.94256 33.93926 26.44091
# Shear Modulus (GPa) = 9.13629 24.36874 16.75252
#
# Velocity S-wave (km/s) = 2.14190 3.49809 2.90038
# Velocity P-wave (km/s) = 3.95334 5.77564 4.94908
#
# Compressibility (1/GPa) = 0.05279117
#
# Stress axis : x y z
#
# Youngs Moduli (GPa) = 71.99534 4.25353 5.68368
#
# Poissons Ratio (x) = -0.09212 0.11738
# Poissons Ratio (y) = -1.55922 1.06328
# Poissons Ratio (z) = 1.48680 0.79573
#
# Static dielectric constant tensor:
#      x y z
#    x 1.718020 0.000000 0.008510 
#    y 0.000000 1.699290 0.000000 
#    z 0.008510 0.000000 1.734050 
# 
# From -- ./inp_files/206567.got.cif
#   From: 2010.05.17/outbox.ucp.g08.bks.cvg/sg12_104_cif.got.tgz:206567.got - 2010.06.11 11:47:21.
