data_PCOD9225437
_publ_section_title
;
Structure prediction by ZEFSAII (Michael W. Deem and Ramdas Pophale) SiO2 
 PCOD9225437
Probable space group: C 2/M
;
_chemical_formula_sum "Si O2"
_cell_formula_units_Z 32
_cell_length_a 18.000000
_cell_length_b 9.000000
_cell_length_c 30.000000
_cell_angle_alpha 90.000000
_cell_angle_beta 140.000000
_cell_angle_gamma 90.000000
_cell_volume 3123.947783
_symmetry_space_group_name_H-M "C 2/M"
_symmetry_group_IT_number 12
_symmetry_cell_setting 'monoclinic'
loop_
_space_group_symop_operation_xyz
x,y,z
-x,y,-z
-x,-y,-z
x,-y,z
1/2+x,1/2+y,z
1/2-x,1/2+y,-z
1/2-x,1/2-y,-z
1/2+x,1/2-y,z
loop_
_atom_site_type_symbol
_atom_site_label
_atom_site_fract_x
_atom_site_fract_y
_atom_site_fract_z
Si Si1 0.930262 0.669312 0.287191
Si Si2 0.969370 0.665197 0.036804
Si Si3 0.198338 0.833654 0.295515
Si Si4 0.677898 0.330359 0.181877
Si Si5 0.220426 0.177320 0.939665
Si Si6 0.367304 0.322312 0.428236
Si Si7 0.025095 0.664333 0.795371
Si Si8 0.807350 0.680230 0.570400
O O1 0.922754 0.500000 0.302781
O O2 0.805631 0.744464 0.238248
O O3 0.927829 0.658834 0.232802
O O4 0.057319 0.727597 0.360328
O O5 0.961905 0.500000 0.054381
O O6 0.068076 0.753452 0.108544
O O7 0.839328 0.724323 0.971018
O O8 0.000000 0.650219 0.000000
O O9 0.163160 0.839051 0.227927
O O10 0.321639 0.764340 0.363957
O O11 0.101975 0.726666 0.270555
O O12 0.192072 0.000000 0.310941
O O13 0.685004 0.500000 0.167303
O O14 0.107222 0.238535 0.864001
O O15 0.209485 0.000000 0.937147
O O16 0.250000 0.250000 0.000000
O O17 0.500000 0.285328 0.500000
O O18 0.360422 0.500000 0.418181
O O19 0.278452 0.283238 0.427606
O O20 0.019368 0.500000 0.812242
O O21 0.808867 0.500000 0.568145
O O22 0.750000 0.750000 0.500000
#
# Coordination Sequence:
#
# PCOD9225437 Si02
#       8
#     8   8   8   8   8   8   8   8
#     4   9  19  38  60  82 113 152 193 236 289 344
#     4  10  22  40  59  83 117 153 191 241 295 345
#     4  11  23  38  59  88 121 154 195 243 291 347
#     4  10  22  38  58  85 115 151 195 241 288 346
#     4  11  23  38  58  86 118 152 194 241 292 350
#     4  10  22  41  63  87 119 158 198 238 289 350
#     4  11  21  38  63  85 113 154 195 241 294 346
#     4  10  21  39  61  87 119 154 193 240 289 344
#
# _framework density 10.243449
#
# number of rings (size 3 to 8) (size 9 to 14) (size 15 to 20)
#    0.000    1.750    1.250    2.625    1.750    5.000 
#    0.000    1.250    0.000    0.000    0.000    0.000 
#    0.000    0.000    0.000    0.000    0.000    0.000 
#
# Total GULP energy -178165.734313 kJ/mol
# GULP energy per Si atom -5567.679197 kJ/mol
# Density = 1.022013 g / cm^3
# Si number density = 10.243449 Si / 1000 Ang^3
#
#
#
# Elastic Constant Matrix: (Units=GPa)
#
#
# Indices 1 2 3 4 5 6 
#
# 1 20.0381 17.5434 -8.2705 0.0000 10.1108 0.0000
# 2 17.5434 56.7740 61.6797 0.0000 10.4420 0.0000
# 3 -8.2705 61.6797 157.2269 0.0000 15.1476 0.0000
# 4 0.0000 0.0000 0.0000 24.4162 0.0000 6.6549
# 5 10.1108 10.4420 15.1476 0.0000 35.8940 0.0000
# 6 0.0000 0.0000 0.0000 6.6549 0.0000 7.7440
#
#
#
# Elastic Compliance Matrix: (Units=1/GPa)
#
#
# Indices 1 2 3 4 5 6 
#
# 1 0.225833 -0.136694 0.070675 0.000000 -0.053674 -0.000001
# 2 -0.136694 0.113999 -0.054648 0.000000 0.028403 0.000001
# 3 0.070675 -0.054648 0.033255 0.000000 -0.018044 0.000000
# 4 0.000000 0.000000 0.000000 0.053484 0.000000 -0.045962
# 5 -0.053674 0.028403 -0.018044 0.000000 0.042331 0.000000
# 6 -0.000001 0.000001 0.000000 -0.045962 0.000000 0.168630
#
#
# Mechanical properties :
#
#
# Convention : Reuss Voigt Hill
#
# Bulk Modulus (GPa) = 7.58996 41.77157 24.68076
# Shear Modulus (GPa) = 5.41839 24.48327 14.95083
#
# Velocity S-wave (km/s) = 1.62805 3.46073 2.70437
# Velocity P-wave (km/s) = 2.69201 6.03345 4.67169
#
# Compressibility (1/GPa) = 0.13175304
#
# Stress axis : x y z
#
# Youngs Moduli (GPa) = 4.42805 8.77199 30.07091
#
# Poissons Ratio (x) = 1.19908 -2.12526
# Poissons Ratio (y) = 0.60529 1.64333
# Poissons Ratio (z) = -0.31295 0.47938
#
# Static dielectric constant tensor:
#      x y z
#    x 1.778510 0.000000 -0.003150 
#    y 0.000000 2.029040 0.000000 
#    z -0.003150 0.000000 1.679720 
# 
# From -- ./inp_files/378292.got.cif
#   From: 2010.05.17/outbox.ucp.g08.bks.cvg/sg12_190_cif.got.tgz:378292.got - 2010.06.11 11:47:21.
