data_PCOD9225073
_publ_section_title
;
Structure prediction by ZEFSAII (Michael W. Deem and Ramdas Pophale) SiO2 
 PCOD9225073
Probable space group: C 2/M
;
_chemical_formula_sum "Si O2"
_cell_formula_units_Z 24
_cell_length_a 9.000000
_cell_length_b 27.000000
_cell_length_c 21.000000
_cell_angle_alpha 90.000000
_cell_angle_beta 150.000000
_cell_angle_gamma 90.000000
_cell_volume 2551.500000
_symmetry_space_group_name_H-M "C 2/M"
_symmetry_group_IT_number 12
_symmetry_cell_setting 'monoclinic'
loop_
_space_group_symop_operation_xyz
x,y,z
-x,y,-z
-x,-y,-z
x,-y,z
1/2+x,1/2+y,z
1/2-x,1/2+y,-z
1/2-x,1/2-y,-z
1/2+x,1/2-y,z
loop_
_atom_site_type_symbol
_atom_site_label
_atom_site_fract_x
_atom_site_fract_y
_atom_site_fract_z
Si Si1 0.771719 0.635494 0.471890
Si Si2 0.957998 0.399655 0.059364
Si Si3 0.241355 0.940778 0.707270
Si Si4 0.763994 0.304557 0.266443
Si Si5 0.184765 0.802952 0.782018
Si Si6 0.661333 0.388323 0.124199
O O1 0.564635 0.590044 0.421156
O O2 0.531202 0.669843 0.347948
O O3 0.000000 0.618795 0.500000
O O4 0.958218 0.670817 0.590086
O O5 0.176671 0.429583 0.187897
O O6 0.037919 0.341180 0.104717
O O7 0.620825 0.416563 0.949730
O O8 0.000000 0.406508 0.000000
O O9 0.534092 0.917748 0.779485
O O10 0.215284 0.000000 0.686729
O O11 0.776688 0.251299 0.235245
O O12 0.494997 0.300974 0.217795
O O13 0.722166 0.344274 0.195176
O O14 0.500000 0.369692 0.000000
#
# Coordination Sequence:
#
# PCOD9225073 Si02
#       6
#     8   8   8   8   8   8
#     4   9  21  42  63  90 127 159 206 267 313 371
#     4  10  20  40  62  90 129 162 204 260 306 371
#     4  10  23  43  67  91 121 163 212 267 322 371
#     4  11  22  38  61  92 124 173 209 252 303 375
#     4  10  22  36  61  93 125 165 214 248 306 370
#     4  10  23  39  60  88 129 165 202 259 308 364
#
# _framework density 9.4062319999999993
#
# number of rings (size 3 to 8) (size 9 to 14) (size 15 to 20)
#    0.000    2.000    1.667    0.500    7.000    5.667 
#    0.000    1.667    0.000    0.000    0.000    0.000 
#    0.000    0.000    0.000    0.000    0.000    0.000 
#
# Total GULP energy -133657.527705 kJ/mol
# GULP energy per Si atom -5569.063654 kJ/mol
# Density = 0.938482 g / cm^3
# Si number density = 9.406232 Si / 1000 Ang^3
#
#
#
# Elastic Constant Matrix: (Units=GPa)
#
#
# Indices 1 2 3 4 5 6 
#
# 1 103.4361 31.4275 27.5153 0.0009 -0.4412 0.0010
# 2 31.4275 108.3451 9.4507 0.0007 6.4792 0.0005
# 3 27.5153 9.4507 45.2760 0.0041 13.9723 0.0000
# 4 0.0009 0.0007 0.0041 23.3648 0.0000 -0.4573
# 5 -0.4412 6.4792 13.9723 0.0000 34.7381 0.0001
# 6 0.0010 0.0005 0.0000 -0.4573 0.0001 26.3046
#
#
#
# Elastic Compliance Matrix: (Units=1/GPa)
#
#
# Indices 1 2 3 4 5 6 
#
# 1 0.012928 -0.003262 -0.008465 0.000001 0.004177 0.000000
# 2 -0.003262 0.010261 0.000507 0.000000 -0.002159 0.000000
# 3 -0.008465 0.000507 0.031041 -0.000005 -0.012687 0.000000
# 4 0.000001 0.000000 -0.000005 0.042814 0.000002 0.000744
# 5 0.004177 -0.002159 -0.012687 0.000002 0.034346 0.000000
# 6 0.000000 0.000000 0.000000 0.000744 0.000000 0.038029
#
#
# Mechanical properties :
#
#
# Convention : Reuss Voigt Hill
#
# Bulk Modulus (GPa) = 31.45686 43.76050 37.60868
# Shear Modulus (GPa) = 24.69675 29.45907 27.07791
#
# Velocity S-wave (km/s) = 3.62717 3.96148 3.79801
# Velocity P-wave (km/s) = 5.85657 6.65104 6.26641
#
# Compressibility (1/GPa) = 0.03178957
#
# Stress axis : x y z
#
# Youngs Moduli (GPa) = 77.34864 97.45861 32.21560
#
# Poissons Ratio (x) = 0.31787 0.27272
# Poissons Ratio (y) = 0.25228 -0.01632
# Poissons Ratio (z) = 0.65478 -0.04937
#
# Static dielectric constant tensor:
#      x y z
#    x 1.707030 0.000000 0.014690 
#    y 0.000000 1.644030 0.000000 
#    z 0.014690 0.000000 1.675680 
# 
# From -- ./inp_files/121934.got.cif
#   From: 2010.05.17/outbox.ucp.g08.bks.cvg/sg12_61_cif.got.tgz:121934.got - 2010.06.11 11:47:21.
