data_PCOD9225797
_publ_section_title
;
Structure prediction by ZEFSAII (Michael W. Deem and Ramdas Pophale) SiO2 
 PCOD9225797
Probable space group: C 2/M
;
_chemical_formula_sum "Si O2"
_cell_formula_units_Z 28
_cell_length_a 15.000000
_cell_length_b 21.000000
_cell_length_c 15.000000
_cell_angle_alpha 90.000000
_cell_angle_beta 140.000000
_cell_angle_gamma 90.000000
_cell_volume 3037.171456
_symmetry_space_group_name_H-M "C 2/M"
_symmetry_group_IT_number 12
_symmetry_cell_setting 'monoclinic'
loop_
_space_group_symop_operation_xyz
x,y,z
-x,y,-z
-x,-y,-z
x,-y,z
1/2+x,1/2+y,z
1/2-x,1/2+y,-z
1/2-x,1/2-y,-z
1/2+x,1/2-y,z
loop_
_atom_site_type_symbol
_atom_site_label
_atom_site_fract_x
_atom_site_fract_y
_atom_site_fract_z
Si Si1 0.137383 0.255369 0.995280
Si Si2 0.169404 0.424382 0.340541
Si Si3 0.427491 0.393456 0.039294
Si Si4 0.666402 0.799668 0.217851
Si Si5 0.683684 0.425281 0.360848
Si Si6 0.153784 0.328643 0.636376
Si Si7 0.122937 0.572825 0.776943
O O1 0.174944 0.295489 0.114773
O O2 0.250000 0.250000 0.000000
O O3 0.102369 0.182058 0.992650
O O4 0.986982 0.285070 0.859814
O O5 0.176619 0.500000 0.316963
O O6 0.198615 0.368702 0.288695
O O7 0.280939 0.416543 0.507183
O O8 0.013407 0.416591 0.265161
O O9 0.534870 0.407310 0.202232
O O10 0.500000 0.413569 0.000000
O O11 0.276592 0.424797 0.939192
O O12 0.753753 0.734897 0.303037
O O13 0.707100 0.500000 0.359681
O O14 0.790825 0.380264 0.391287
O O15 0.140414 0.370621 0.717298
O O16 0.000000 0.306419 0.500000
O O17 0.105972 0.500000 0.727181
#
# Coordination Sequence:
#
# PCOD9225797 Si02
#       7
#     8   8   8   8   8   8   8
#     4  11  21  39  69  96 129 165 214 276 334 387
#     4  10  24  44  66  90 129 180 224 270 325 392
#     4  12  20  37  56  96 137 169 213 272 339 399
#     4  11  23  44  63  98 132 167 220 275 328 395
#     4  11  22  37  60  93 133 177 219 269 333 399
#     4  12  22  36  58  97 133 170 221 273 337 395
#     4  11  21  35  60  95 132 172 217 270 333 400
#
# _framework density 9.2191039999999997
#
# number of rings (size 3 to 8) (size 9 to 14) (size 15 to 20)
#    0.000    0.857    7.143    1.714    0.000    1.714 
#    2.571    1.429    0.000    2.143    0.000    0.000 
#    0.000    0.000    0.000    0.000    0.000    0.000 
#
# Total GULP energy -155899.629919 kJ/mol
# GULP energy per Si atom -5567.843926 kJ/mol
# Density = 0.919812 g / cm^3
# Si number density = 9.219104 Si / 1000 Ang^3
#
#
#
# Elastic Constant Matrix: (Units=GPa)
#
#
# Indices 1 2 3 4 5 6 
#
# 1 101.9767 45.4584 49.1852 0.0000 -2.6706 0.0000
# 2 45.4584 158.4630 48.2852 0.0000 -17.7197 0.0000
# 3 49.1852 48.2852 115.4652 0.0000 5.6869 0.0000
# 4 0.0000 0.0000 0.0000 31.7405 0.0000 -7.5635
# 5 -2.6706 -17.7197 5.6869 0.0000 20.6400 0.0000
# 6 0.0000 0.0000 0.0000 -7.5635 0.0000 33.3397
#
#
#
# Elastic Compliance Matrix: (Units=1/GPa)
#
#
# Indices 1 2 3 4 5 6 
#
# 1 0.013086 -0.002195 -0.004711 0.000000 0.001107 0.000000
# 2 -0.002195 0.008812 -0.003151 0.000000 0.008149 0.000000
# 3 -0.004711 -0.003151 0.012316 0.000000 -0.006708 0.000000
# 4 0.000000 0.000000 0.000000 0.033306 0.000000 0.007556
# 5 0.001107 0.008149 -0.006708 0.000000 0.057438 0.000000
# 6 0.000000 0.000000 0.000000 0.007556 0.000000 0.031708
#
#
# Mechanical properties :
#
#
# Convention : Reuss Voigt Hill
#
# Bulk Modulus (GPa) = 70.92668 73.52915 72.22792
# Shear Modulus (GPa) = 27.55147 32.67577 30.11362
#
# Velocity S-wave (km/s) = 3.86976 4.21429 4.04569
# Velocity P-wave (km/s) = 7.64967 7.97782 7.81547
#
# Compressibility (1/GPa) = 0.01409907
#
# Stress axis : x y z
#
# Youngs Moduli (GPa) = 76.41976 113.48507 81.19788
#
# Poissons Ratio (x) = 0.24906 0.38252
# Poissons Ratio (y) = 0.16771 0.25589
# Poissons Ratio (z) = 0.36001 0.35764
#
# Static dielectric constant tensor:
#      x y z
#    x 1.622980 0.000000 -0.003920 
#    y 0.000000 1.640040 0.000000 
#    z -0.003920 0.000000 1.735720 
# 
# From -- ./inp_files/217741.got.cif
#   From: 2010.05.17/outbox.ucp.g08.bks.cvg/sg12_109_cif.got.tgz:217741.got - 2010.06.11 11:47:21.
