data_PCOD9225124
_publ_section_title
;
Structure prediction by ZEFSAII (Michael W. Deem and Ramdas Pophale) SiO2 
 PCOD9225124
Probable space group: C 2/M
;
_chemical_formula_sum "Si O2"
_cell_formula_units_Z 24
_cell_length_a 24.000000
_cell_length_b 9.000000
_cell_length_c 12.000000
_cell_angle_alpha 90.000000
_cell_angle_beta 70.000000
_cell_angle_gamma 90.000000
_cell_volume 2435.683273
_symmetry_space_group_name_H-M "C 2/M"
_symmetry_group_IT_number 12
_symmetry_cell_setting 'monoclinic'
loop_
_space_group_symop_operation_xyz
x,y,z
-x,y,-z
-x,-y,-z
x,-y,z
1/2+x,1/2+y,z
1/2-x,1/2+y,-z
1/2-x,1/2-y,-z
1/2+x,1/2-y,z
loop_
_atom_site_type_symbol
_atom_site_label
_atom_site_fract_x
_atom_site_fract_y
_atom_site_fract_z
Si Si1 0.231645 0.819452 0.744974
Si Si2 0.123372 0.820525 0.971369
Si Si3 0.066007 0.677713 0.214356
Si Si4 0.955909 0.168995 0.177231
Si Si5 0.660452 0.330693 0.588546
Si Si6 0.637148 0.821629 0.372376
O O1 0.183435 0.771494 0.868423
O O2 0.211628 0.767331 0.635094
O O3 0.299028 0.780169 0.724131
O O4 0.227759 0.000000 0.742601
O O5 0.068067 0.781523 0.927331
O O6 0.124208 0.000000 0.979832
O O7 0.113403 0.744326 0.095592
O O8 0.067467 0.500000 0.210658
O O9 0.084403 0.726962 0.326426
O O10 0.003607 0.734731 0.209968
O O11 0.896267 0.163318 0.291208
O O12 0.979172 0.000000 0.151484
O O13 0.676020 0.500000 0.545801
O O14 0.640919 0.242746 0.493263
O O15 0.634383 0.000000 0.382394
#
# Coordination Sequence:
#
# PCOD9225124 Si02
#       6
#     8   8   8   8   8   8
#     4   8  16  34  57  77  99 129 166 209 253 296
#     4   9  18  35  58  77  95 128 172 212 251 294
#     4  11  23  34  47  74 109 139 166 200 247 302
#     4   9  19  36  56  76  98 128 169 214 254 292
#     4   9  18  34  57  80  97 123 171 218 249 288
#     4  10  21  35  50  73 108 141 163 195 251 307
#
# _framework density 9.8534980000000001
#
# number of rings (size 3 to 8) (size 9 to 14) (size 15 to 20)
#    0.000    2.667    0.000    3.500    0.000    6.000 
#    0.000    6.667    0.000    0.000    0.000    0.000 
#    0.000    0.000    0.000    0.000    0.000    0.000 
#
# Total GULP energy -133818.554293 kJ/mol
# GULP energy per Si atom -5575.773096 kJ/mol
# Density = 0.983107 g / cm^3
# Si number density = 9.853498 Si / 1000 Ang^3
#
#
#
# Elastic Constant Matrix: (Units=GPa)
#
#
# Indices 1 2 3 4 5 6 
#
# 1 49.1969 19.2715 5.2940 0.0000 20.4058 0.0000
# 2 19.2715 21.4680 2.5697 0.0000 12.3222 0.0000
# 3 5.2940 2.5697 24.3085 0.0000 11.9902 0.0000
# 4 0.0000 0.0000 0.0000 26.0102 0.0000 3.3491
# 5 20.4058 12.3222 11.9902 0.0000 31.4796 0.0000
# 6 0.0000 0.0000 0.0000 3.3491 0.0000 19.8663
#
#
#
# Elastic Compliance Matrix: (Units=1/GPa)
#
#
# Indices 1 2 3 4 5 6 
#
# 1 0.035380 -0.023745 0.001887 0.000000 -0.014359 0.000000
# 2 -0.023745 0.076851 0.005286 0.000000 -0.016704 0.000000
# 3 0.001887 0.005286 0.051460 0.000000 -0.022893 0.000000
# 4 0.000000 0.000000 0.000000 0.039300 0.000000 -0.006625
# 5 -0.014359 -0.016704 -0.022893 0.000000 0.056332 0.000000
# 6 0.000000 0.000000 0.000000 -0.006625 0.000000 0.051453
#
#
# Mechanical properties :
#
#
# Convention : Reuss Voigt Hill
#
# Bulk Modulus (GPa) = 7.65994 16.58265 12.12130
# Shear Modulus (GPa) = 12.90537 19.99377 16.44957
#
# Velocity S-wave (km/s) = 2.56180 3.18866 2.89226
# Velocity P-wave (km/s) = 3.55609 4.68931 4.16145
#
# Compressibility (1/GPa) = 0.13054926
#
# Stress axis : x y z
#
# Youngs Moduli (GPa) = 28.26424 13.01220 19.43252
#
# Poissons Ratio (x) = 0.30897 -0.03668
# Poissons Ratio (y) = 0.67112 -0.10272
# Poissons Ratio (z) = -0.05334 -0.06879
#
# Static dielectric constant tensor:
#      x y z
#    x 1.716700 0.000000 -0.025160 
#    y 0.000000 1.668070 0.000000 
#    z -0.025160 0.000000 1.710860 
# 
# From -- ./inp_files/172037.got.cif
#   From: 2010.05.17/outbox.ucp.g08.bks.cvg/sg12_87_cif.got.tgz:172037.got - 2010.06.11 11:47:21.
