data_PCOD9225006
_publ_section_title
;
Structure prediction by ZEFSAII (Michael W. Deem and Ramdas Pophale) SiO2 
 PCOD9225006
Probable space group: C 2/M
;
_chemical_formula_sum "Si O2"
_cell_formula_units_Z 18
_cell_length_a 9.000000
_cell_length_b 18.000000
_cell_length_c 12.000000
_cell_angle_alpha 90.000000
_cell_angle_beta 70.000000
_cell_angle_gamma 90.000000
_cell_volume 1826.762455
_symmetry_space_group_name_H-M "C 2/M"
_symmetry_group_IT_number 12
_symmetry_cell_setting 'monoclinic'
loop_
_space_group_symop_operation_xyz
x,y,z
-x,y,-z
-x,-y,-z
x,-y,z
1/2+x,1/2+y,z
1/2-x,1/2+y,-z
1/2-x,1/2-y,-z
1/2+x,1/2-y,z
loop_
_atom_site_type_symbol
_atom_site_label
_atom_site_fract_x
_atom_site_fract_y
_atom_site_fract_z
Si Si1 0.010556 0.843089 0.873292
Si Si2 0.500000 0.801330 0.000000
Si Si3 0.305941 0.184961 0.648398
Si Si4 0.234650 0.413906 0.815366
Si Si5 0.173620 0.342342 0.602774
O O1 0.185041 0.836369 0.777131
O O2 0.906964 0.887401 0.811386
O O3 0.949686 0.758473 0.916708
O O4 0.000000 0.878367 0.000000
O O5 0.625183 0.856031 0.911565
O O6 0.267476 0.269537 0.621907
O O7 0.279799 0.141099 0.537713
O O8 0.486426 0.176102 0.641342
O O9 0.206716 0.500000 0.851343
O O10 0.205179 0.401767 0.691296
#
# Coordination Sequence:
#
# PCOD9225006 Si02
#       5
#     8   4   8   8   8
#     4  10  23  39  68  93 126 172 221 267 305 390
#     4  10  23  40  65  92 124 176 216 260 311 386
#     4  10  20  38  65  93 126 162 226 264 312 371
#     4  12  25  41  62  98 137 168 211 268 337 382
#     4  10  21  37  63  96 124 170 211 271 315 381
#
# _framework density 9.8534980000000001
#
# number of rings (size 3 to 8) (size 9 to 14) (size 15 to 20)
#    0.667    0.889    2.222    2.333    3.111    3.111 
#    0.000    5.556    0.000    0.000    0.000    0.000 
#    0.000    0.000    0.000    0.000    0.000    0.000 
#
# Total GULP energy -100401.582682 kJ/mol
# GULP energy per Si atom -5577.865705 kJ/mol
# Density = 0.983107 g / cm^3
# Si number density = 9.853498 Si / 1000 Ang^3
#
#
#
# Elastic Constant Matrix: (Units=GPa)
#
#
# Indices 1 2 3 4 5 6 
#
# 1 78.9135 33.7403 36.6128 0.0000 18.2930 0.0000
# 2 33.7403 72.1979 21.0408 0.0000 12.2628 0.0000
# 3 36.6128 21.0408 129.4232 0.0000 -3.2883 0.0000
# 4 0.0000 0.0000 0.0000 21.3669 0.0000 4.6972
# 5 18.2930 12.2628 -3.2883 0.0000 28.2371 0.0000
# 6 0.0000 0.0000 0.0000 4.6972 0.0000 13.4381
#
#
#
# Elastic Compliance Matrix: (Units=1/GPa)
#
#
# Indices 1 2 3 4 5 6 
#
# 1 0.020134 -0.006092 -0.004984 0.000000 -0.010978 0.000000
# 2 -0.006092 0.017726 -0.001257 0.000000 -0.003898 0.000000
# 3 -0.004984 -0.001257 0.009465 0.000000 0.004877 0.000000
# 4 0.000000 0.000000 0.000000 0.050697 0.000000 -0.017721
# 5 -0.010978 -0.003898 0.004877 0.000000 0.044787 0.000000
# 6 0.000000 0.000000 0.000000 -0.017721 0.000000 0.080609
#
#
# Mechanical properties :
#
#
# Convention : Reuss Voigt Hill
#
# Bulk Modulus (GPa) = 44.13485 51.48028 47.80757
# Shear Modulus (GPa) = 19.55876 25.21781 22.38828
#
# Velocity S-wave (km/s) = 3.15378 3.58108 3.37420
# Velocity P-wave (km/s) = 5.97544 6.57863 6.28428
#
# Compressibility (1/GPa) = 0.02265783
#
# Stress axis : x y z
#
# Youngs Moduli (GPa) = 49.66647 56.41307 105.65259
#
# Poissons Ratio (x) = 0.34367 0.52661
# Poissons Ratio (y) = 0.30257 0.13286
# Poissons Ratio (z) = 0.24756 0.07094
#
# Static dielectric constant tensor:
#      x y z
#    x 1.713360 0.000000 -0.002510 
#    y 0.000000 1.672530 0.000000 
#    z -0.002510 0.000000 1.738070 
# 
# From -- ./inp_files/118787.got.cif
#   From: 2010.05.17/outbox.ucp.g08.bks.cvg/sg12_60_cif.got.tgz:118787.got - 2010.06.11 11:47:21.
