data_PCOD9225780
_publ_section_title
;
Structure prediction by ZEFSAII (Michael W. Deem and Ramdas Pophale) SiO2 
 PCOD9225780
Probable space group: C 2/M
;
_chemical_formula_sum "Si O2"
_cell_formula_units_Z 20
_cell_length_a 9.000000
_cell_length_b 24.000000
_cell_length_c 18.000000
_cell_angle_alpha 90.000000
_cell_angle_beta 150.000000
_cell_angle_gamma 90.000000
_cell_volume 1944.000000
_symmetry_space_group_name_H-M "C 2/M"
_symmetry_group_IT_number 12
_symmetry_cell_setting 'monoclinic'
loop_
_space_group_symop_operation_xyz
x,y,z
-x,y,-z
-x,-y,-z
x,-y,z
1/2+x,1/2+y,z
1/2-x,1/2+y,-z
1/2-x,1/2-y,-z
1/2+x,1/2-y,z
loop_
_atom_site_type_symbol
_atom_site_label
_atom_site_fract_x
_atom_site_fract_y
_atom_site_fract_z
Si Si1 0.701301 0.850643 0.917930
Si Si2 0.844239 0.937948 0.665249
Si Si3 0.131823 0.825242 0.235272
Si Si4 0.823959 0.933504 0.346233
Si Si5 0.859721 0.275437 0.659674
O O1 0.488636 0.903905 0.810145
O O2 0.496140 0.803906 0.791862
O O3 0.000000 0.859429 0.000000
O O4 0.837889 0.827822 0.054966
O O5 0.500000 0.943747 0.500000
O O6 0.856048 0.889418 0.731845
O O7 0.987348 0.922939 0.647247
O O8 0.960543 0.000000 0.738339
O O9 0.107907 0.789306 0.301441
O O10 0.422238 0.799889 0.313174
O O11 0.000000 0.916185 0.500000
O O12 0.781631 0.000000 0.335506
O O13 0.500000 0.286063 0.500000
#
# Coordination Sequence:
#
# PCOD9225780 Si02
#       5
#     8   8   8   8   8
#     4  10  24  41  64 100 143 176 222 282 347 409
#     4  10  24  44  69 103 138 176 227 283 342 406
#     4  11  25  44  68 104 139 182 224 289 342 402
#     4  10  23  44  73 101 132 182 234 283 337 404
#     4  11  24  43  69 100 136 182 235 283 338 405
#
# _framework density 10.288066000000001
#
# number of rings (size 3 to 8) (size 9 to 14) (size 15 to 20)
#    0.000    1.600    0.000    2.400   11.200    2.000 
#    0.000    2.000    0.000    0.600    0.000    0.000 
#    0.000    0.000    0.000    0.000    0.000    0.000 
#
# Total GULP energy -111344.222797 kJ/mol
# GULP energy per Si atom -5567.211140 kJ/mol
# Density = 1.026465 g / cm^3
# Si number density = 10.288066 Si / 1000 Ang^3
#
#
#
# Elastic Constant Matrix: (Units=GPa)
#
#
# Indices 1 2 3 4 5 6 
#
# 1 74.8319 36.8348 42.7611 0.0023 -1.2717 0.0044
# 2 36.8348 112.8805 43.1044 0.0077 -6.5561 0.0088
# 3 42.7611 43.1044 155.1068 0.0387 14.7192 0.0280
# 4 0.0023 0.0077 0.0387 44.9213 -0.0033 -4.5631
# 5 -1.2717 -6.5561 14.7192 -0.0033 31.2044 -0.0009
# 6 0.0044 0.0088 0.0280 -4.5631 -0.0009 40.9535
#
#
#
# Elastic Compliance Matrix: (Units=1/GPa)
#
#
# Indices 1 2 3 4 5 6 
#
# 1 0.017662 -0.004192 -0.003862 0.000003 0.001661 0.000002
# 2 -0.004192 0.011294 -0.002294 0.000000 0.003284 0.000000
# 3 -0.003862 -0.002294 0.008595 -0.000008 -0.004694 -0.000006
# 4 0.000003 0.000000 -0.000008 0.022516 0.000006 0.002509
# 5 0.001661 0.003284 -0.004694 0.000006 0.035019 0.000004
# 6 0.000002 0.000000 -0.000006 0.002509 0.000004 0.024697
#
#
# Mechanical properties :
#
#
# Convention : Reuss Voigt Hill
#
# Bulk Modulus (GPa) = 59.33459 65.35778 62.34618
# Shear Modulus (GPa) = 34.22378 38.09043 36.15710
#
# Velocity S-wave (km/s) = 4.08275 4.30722 4.19649
# Velocity P-wave (km/s) = 7.15013 7.52124 7.33803
#
# Compressibility (1/GPa) = 0.01685358
#
# Stress axis : x y z
#
# Youngs Moduli (GPa) = 56.61951 88.54364 116.34870
#
# Poissons Ratio (x) = 0.37120 0.44930
# Poissons Ratio (y) = 0.23736 0.26696
# Poissons Ratio (z) = 0.21865 0.20316
#
# Static dielectric constant tensor:
#      x y z
#    x 1.780110 0.000010 -0.010340 
#    y 0.000010 1.867640 -0.000030 
#    z -0.010340 -0.000030 1.731080 
# 
# From -- ./inp_files/259336.got.cif
#   From: 2010.05.17/outbox.ucp.g08.bks.cvg/sg12_130_cif.got.tgz:259336.got - 2010.06.11 11:47:21.
