data_PCOD9225108
_publ_section_title
;
Structure prediction by ZEFSAII (Michael W. Deem and Ramdas Pophale) SiO2 
 PCOD9225108
Probable space group: C 2/M
;
_chemical_formula_sum "Si O2"
_cell_formula_units_Z 32
_cell_length_a 30.000000
_cell_length_b 24.000000
_cell_length_c 9.000000
_cell_angle_alpha 90.000000
_cell_angle_beta 30.000000
_cell_angle_gamma 90.000000
_cell_volume 3240.000000
_symmetry_space_group_name_H-M "C 2/M"
_symmetry_group_IT_number 12
_symmetry_cell_setting 'monoclinic'
loop_
_space_group_symop_operation_xyz
x,y,z
-x,y,-z
-x,-y,-z
x,-y,z
1/2+x,1/2+y,z
1/2-x,1/2+y,-z
1/2-x,1/2-y,-z
1/2+x,1/2-y,z
loop_
_atom_site_type_symbol
_atom_site_label
_atom_site_fract_x
_atom_site_fract_y
_atom_site_fract_z
Si Si1 0.670684 0.608902 0.985286
Si Si2 0.286709 0.645424 0.613040
Si Si3 0.743791 0.275915 0.732478
Si Si4 0.454750 0.254485 0.791018
Si Si5 0.187793 0.566714 0.660789
Si Si6 0.626155 0.435825 0.424488
Si Si7 0.075260 0.336693 0.905950
Si Si8 0.542143 0.363494 0.090492
O O1 0.710836 0.669410 0.922329
O O2 0.741930 0.577315 0.675641
O O3 0.640609 0.571665 0.207964
O O4 0.587798 0.620887 0.115565
O O5 0.262744 0.710450 0.717516
O O6 0.220871 0.608999 0.697005
O O7 0.303136 0.605765 0.705072
O O8 0.379893 0.644328 0.253563
O O9 0.833796 0.302395 0.401428
O O10 0.651765 0.268472 0.904509
O O11 0.500000 0.256624 0.500000
O O12 0.499843 0.302436 0.761382
O O13 0.461672 0.194035 0.841883
O O14 0.182476 0.500000 0.709126
O O15 0.099063 0.598706 0.863190
O O16 0.634699 0.500000 0.446843
O O17 0.529232 0.410315 0.740667
O O18 0.000000 0.330270 0.000000
#
# Coordination Sequence:
#
# PCOD9225108 Si02
#       8
#     8   8   8   8   8   8   8   8
#     4   9  21  38  62  86 119 166 207 263 320 369
#     4  11  22  37  63  86 120 168 211 257 308 375
#     4  10  20  42  64  91 126 161 208 258 319 370
#     4  11  21  39  64  94 128 156 205 255 320 380
#     4  10  21  41  64  85 114 165 217 252 306 379
#     4  12  25  38  53  90 135 168 209 259 311 379
#     4  11  23  39  64  94 122 164 204 263 318 371
#     4  10  21  36  58  87 122 169 204 250 309 375
#
# _framework density 9.8765429999999999
#
# number of rings (size 3 to 8) (size 9 to 14) (size 15 to 20)
#    0.000    1.500    2.500    4.125    1.750    4.750 
#    4.500    0.000    0.000    0.375    0.000    0.000 
#    0.000    0.000    0.000    0.000    0.000    0.000 
#
# Total GULP energy -178261.847599 kJ/mol
# GULP energy per Si atom -5570.682737 kJ/mol
# Density = 0.985406 g / cm^3
# Si number density = 9.876543 Si / 1000 Ang^3
#
#
#
# Elastic Constant Matrix: (Units=GPa)
#
#
# Indices 1 2 3 4 5 6 
#
# 1 62.0333 22.5091 19.2748 0.0000 -1.9604 0.0000
# 2 22.5091 172.8341 10.3394 0.0000 -10.4997 0.0000
# 3 19.2748 10.3394 33.3793 0.0000 -6.1629 0.0000
# 4 0.0000 0.0000 0.0000 29.1369 0.0000 -2.3485
# 5 -1.9604 -10.4997 -6.1629 0.0000 12.3126 0.0000
# 6 0.0000 0.0000 0.0000 -2.3485 0.0000 21.5578
#
#
#
# Elastic Compliance Matrix: (Units=1/GPa)
#
#
# Indices 1 2 3 4 5 6 
#
# 1 0.020518 -0.002236 -0.012014 0.000000 -0.004654 0.000000
# 2 -0.002236 0.006378 0.000280 0.000000 0.005223 0.000000
# 3 -0.012014 0.000280 0.040217 0.000000 0.018456 0.000000
# 4 0.000000 0.000000 0.000000 0.034625 0.000000 0.003772
# 5 -0.004654 0.005223 0.018456 0.000000 0.094168 0.000000
# 6 0.000000 0.000000 0.000000 0.003772 0.000000 0.046798
#
#
# Mechanical properties :
#
#
# Convention : Reuss Voigt Hill
#
# Bulk Modulus (GPa) = 25.52884 41.38818 33.45851
# Shear Modulus (GPa) = 17.62415 27.00969 22.31692
#
# Velocity S-wave (km/s) = 2.99025 3.70180 3.36489
# Velocity P-wave (km/s) = 4.98740 6.26653 5.66319
#
# Compressibility (1/GPa) = 0.03917139
#
# Stress axis : x y z
#
# Youngs Moduli (GPa) = 48.73822 156.79769 24.86501
#
# Poissons Ratio (x) = 0.35062 0.29874
# Poissons Ratio (y) = 0.10898 -0.00696
# Poissons Ratio (z) = 0.58556 -0.04390
#
# Static dielectric constant tensor:
#      x y z
#    x 1.770720 0.000000 -0.001540 
#    y 0.000000 1.711650 0.000000 
#    z -0.001540 0.000000 1.698760 
# 
# From -- ./inp_files/113614.got.cif
#   From: 2010.05.17/outbox.ucp.g08.bks.cvg/sg12_57_cif.got.tgz:113614.got - 2010.06.11 11:47:21.
