data_PCOD9225816
_publ_section_title
;
Structure prediction by ZEFSAII (Michael W. Deem and Ramdas Pophale) SiO2 
 PCOD9225816
Probable space group: C 2/M
;
_chemical_formula_sum "Si O2"
_cell_formula_units_Z 28
_cell_length_a 18.000000
_cell_length_b 30.000000
_cell_length_c 9.000000
_cell_angle_alpha 90.000000
_cell_angle_beta 140.000000
_cell_angle_gamma 90.000000
_cell_volume 3123.947783
_symmetry_space_group_name_H-M "C 2/M"
_symmetry_group_IT_number 12
_symmetry_cell_setting 'monoclinic'
loop_
_space_group_symop_operation_xyz
x,y,z
-x,y,-z
-x,-y,-z
x,-y,z
1/2+x,1/2+y,z
1/2-x,1/2+y,-z
1/2-x,1/2-y,-z
1/2+x,1/2-y,z
loop_
_atom_site_type_symbol
_atom_site_label
_atom_site_fract_x
_atom_site_fract_y
_atom_site_fract_z
Si Si1 0.809689 0.949452 0.658965
Si Si2 0.758775 0.293570 0.907538
Si Si3 0.982668 0.295082 0.650250
Si Si4 0.255513 0.148580 0.370764
Si Si5 0.593645 0.356134 0.832594
Si Si6 0.620477 0.705717 0.409138
Si Si7 0.967514 0.950858 0.199257
O O1 0.739258 0.902583 0.557991
O O2 0.903773 0.945570 0.670918
O O3 0.756296 0.000000 0.565587
O O4 0.884201 0.950390 0.925974
O O5 0.668053 0.329983 0.826065
O O6 0.716912 0.282391 0.679318
O O7 0.750000 0.250000 0.000000
O O8 0.889555 0.310811 0.109190
O O9 0.879570 0.330560 0.515514
O O10 0.951019 0.252071 0.703166
O O11 0.000000 0.282943 0.500000
O O12 0.188484 0.182699 0.378148
O O13 0.173456 0.146115 0.101337
O O14 0.474934 0.330222 0.683995
O O15 0.567172 0.407746 0.760356
O O16 0.956575 0.000000 0.251481
#
# Coordination Sequence:
#
# PCOD9225816 Si02
#       7
#     8   8   8   8   8   8   8
#     4   8  14  28  51  83 116 140 174 231 288 325
#     4  12  23  39  56  75 111 161 186 221 280 342
#     4  12  23  40  56  75 113 155 191 223 278 338
#     4  11  22  36  59  89 111 143 191 239 273 320
#     4  11  19  35  60  83 116 146 185 229 280 331
#     4  12  23  37  57  84 110 144 192 234 277 323
#     4   8  14  26  50  83 115 142 175 227 285 330
#
# _framework density 8.9630179999999999
#
# number of rings (size 3 to 8) (size 9 to 14) (size 15 to 20)
#    0.000    1.429    5.714    2.143    0.000    0.571 
#    2.571    0.000    0.000    3.857    0.000    1.000 
#    0.000    0.000    0.000    0.000    0.000    0.000 
#
# Total GULP energy -156141.670086 kJ/mol
# GULP energy per Si atom -5576.488217 kJ/mol
# Density = 0.894262 g / cm^3
# Si number density = 8.963018 Si / 1000 Ang^3
#
#
#
# Elastic Constant Matrix: (Units=GPa)
#
#
# Indices 1 2 3 4 5 6 
#
# 1 81.5511 41.4931 17.7994 0.0000 21.2073 0.0000
# 2 41.4931 137.1541 -4.9758 0.0000 14.6132 0.0000
# 3 17.7994 -4.9758 48.1423 0.0000 18.4456 0.0000
# 4 0.0000 0.0000 0.0000 15.4220 0.0000 3.2179
# 5 21.2073 14.6132 18.4456 0.0000 26.8489 0.0000
# 6 0.0000 0.0000 0.0000 3.2179 0.0000 28.6411
#
#
#
# Elastic Compliance Matrix: (Units=1/GPa)
#
#
# Indices 1 2 3 4 5 6 
#
# 1 0.017692 -0.004510 -0.003520 0.000000 -0.009101 0.000000
# 2 -0.004510 0.009290 0.004344 0.000000 -0.004478 0.000000
# 3 -0.003520 0.004344 0.030352 0.000000 -0.020436 0.000000
# 4 0.000000 0.000000 0.000000 0.066399 0.000000 -0.007460
# 5 -0.009101 -0.004478 -0.020436 0.000000 0.060911 0.000000
# 6 0.000000 0.000000 0.000000 -0.007460 0.000000 0.035753
#
#
# Mechanical properties :
#
#
# Convention : Reuss Voigt Hill
#
# Bulk Modulus (GPa) = 20.01590 41.72009 30.86800
# Shear Modulus (GPa) = 20.45608 28.35112 24.40360
#
# Velocity S-wave (km/s) = 3.38174 3.98120 3.69365
# Velocity P-wave (km/s) = 5.14182 6.66763 5.95380
#
# Compressibility (1/GPa) = 0.04996028
#
# Stress axis : x y z
#
# Youngs Moduli (GPa) = 56.52184 107.63931 32.94651
#
# Poissons Ratio (x) = 0.48550 0.11598
# Poissons Ratio (y) = 0.25494 -0.14310
# Poissons Ratio (z) = 0.19898 -0.46753
#
# Static dielectric constant tensor:
#      x y z
#    x 1.620190 0.000000 -0.029100 
#    y 0.000000 1.655090 0.000000 
#    z -0.029100 0.000000 1.630420 
# 
# From -- ./inp_files/80079.got.cif
#   From: 2010.05.17/outbox.ucp.g08.bks.cvg/sg12_41_cif.got.tgz:80079.got - 2010.06.11 11:47:21.
