data_PCOD9225779
_publ_section_title
;
Structure prediction by ZEFSAII (Michael W. Deem and Ramdas Pophale) SiO2 
 PCOD9225779
Probable space group: C 2/M
;
_chemical_formula_sum "Si O2"
_cell_formula_units_Z 24
_cell_length_a 27.000000
_cell_length_b 9.000000
_cell_length_c 15.000000
_cell_angle_alpha 90.000000
_cell_angle_beta 140.000000
_cell_angle_gamma 90.000000
_cell_volume 2342.960837
_symmetry_space_group_name_H-M "C 2/M"
_symmetry_group_IT_number 12
_symmetry_cell_setting 'monoclinic'
loop_
_space_group_symop_operation_xyz
x,y,z
-x,y,-z
-x,-y,-z
x,-y,z
1/2+x,1/2+y,z
1/2-x,1/2+y,-z
1/2-x,1/2-y,-z
1/2+x,1/2-y,z
loop_
_atom_site_type_symbol
_atom_site_label
_atom_site_fract_x
_atom_site_fract_y
_atom_site_fract_z
Si Si1 0.338468 0.829264 0.472654
Si Si2 0.092001 0.667243 0.628546
Si Si3 0.763818 0.175586 0.112689
Si Si4 0.829284 0.322040 0.727937
Si Si5 0.877333 0.179090 0.973547
Si Si6 0.055557 0.174793 0.255061
O O1 0.362549 0.842173 0.402882
O O2 0.255171 0.757772 0.382616
O O3 0.405308 0.720343 0.599110
O O4 0.339988 0.000000 0.509976
O O5 0.098551 0.500000 0.678434
O O6 0.145673 0.789728 0.747480
O O7 0.000000 0.699070 0.500000
O O8 0.698467 0.256857 0.082236
O O9 0.750634 0.000000 0.099563
O O10 0.750000 0.250000 0.000000
O O11 0.818729 0.500000 0.711493
O O12 0.873853 0.264296 0.875820
O O13 0.886898 0.266522 0.730208
O O14 0.869210 0.000000 0.953217
O O15 0.964035 0.208516 0.129656
O O16 0.063211 0.000000 0.244717
#
# Coordination Sequence:
#
# PCOD9225779 Si02
#       6
#     8   8   8   8   8   8
#     4  11  23  41  66  94 132 171 212 266 321 380
#     4  10  23  44  69  98 130 168 212 263 320 380
#     4  12  26  44  69  98 131 170 213 263 318 380
#     4  12  24  41  66  95 129 170 218 265 319 383
#     4  11  24  44  67  95 131 170 213 265 323 379
#     4  11  25  42  64  94 131 171 216 267 319 379
#
# _framework density 10.243449
#
# number of rings (size 3 to 8) (size 9 to 14) (size 15 to 20)
#    0.000    0.833    1.667    5.500    2.333    5.667 
#    0.000    0.000    0.000    0.000    0.000    0.000 
#    0.000    0.000    0.000    0.000    0.000    0.000 
#
# Total GULP energy -133769.371479 kJ/mol
# GULP energy per Si atom -5573.723812 kJ/mol
# Density = 1.022013 g / cm^3
# Si number density = 10.243449 Si / 1000 Ang^3
#
#
#
# Elastic Constant Matrix: (Units=GPa)
#
#
# Indices 1 2 3 4 5 6 
#
# 1 56.1454 37.5506 15.1196 0.0000 27.8214 0.0000
# 2 37.5506 135.1564 44.2768 0.0000 25.4038 0.0000
# 3 15.1196 44.2768 90.8114 0.0000 39.3506 0.0000
# 4 0.0000 0.0000 0.0000 13.7450 0.0000 24.0728
# 5 27.8214 25.4038 39.3506 0.0000 44.6679 0.0000
# 6 0.0000 0.0000 0.0000 24.0728 0.0000 18.3537
#
#
#
# Elastic Compliance Matrix: (Units=1/GPa)
#
#
# Indices 1 2 3 4 5 6 
#
# 1 0.031747 -0.007186 0.008112 0.000000 -0.022833 0.000000
# 2 -0.007186 0.010542 -0.005313 0.000000 0.003161 0.000000
# 3 0.008112 -0.005313 0.021240 0.000000 -0.020742 0.000000
# 4 0.000000 0.000000 0.000000 -0.056089 0.000000 0.073566
# 5 -0.022833 0.003161 -0.020742 0.000000 0.053084 0.000000
# 6 0.000000 0.000000 0.000000 0.073566 0.000000 -0.042005
#
#
# Mechanical properties :
#
#
# Convention : Reuss Voigt Hill
#
# Bulk Modulus (GPa) = 18.26355 52.88970 35.57662
# Shear Modulus (GPa) = 109.78202 27.69774 68.73988
#
# Velocity S-wave (km/s) = 7.32822 3.68091 5.79879
# Velocity P-wave (km/s) = 8.97429 6.62856 7.88910
#
# Compressibility (1/GPa) = 0.05475388
#
# Stress axis : x y z
#
# Youngs Moduli (GPa) = 31.49936 94.86079 47.08127
#
# Poissons Ratio (x) = 0.68167 -0.38192
# Poissons Ratio (y) = 0.22636 0.25015
# Poissons Ratio (z) = -0.25552 0.50401
#
# Static dielectric constant tensor:
#      x y z
#    x 2.714190 0.000000 -0.267710 
#    y 0.000000 1.697570 0.000000 
#    z -0.267710 0.000000 1.812560 
# 
# From -- ./inp_files/244831.got.cif
#   From: 2010.05.17/outbox.ucp.g08.bks.cvg/sg12_123_cif.got.tgz:244831.got - 2010.06.11 11:47:21.
