data_PCOD9225192
_publ_section_title
;
Structure prediction by ZEFSAII (Michael W. Deem and Ramdas Pophale) SiO2 
 PCOD9225192
Probable space group: C 2/M
;
_chemical_formula_sum "Si O2"
_cell_formula_units_Z 20
_cell_length_a 27.000000
_cell_length_b 9.000000
_cell_length_c 18.000000
_cell_angle_alpha 90.000000
_cell_angle_beta 150.000000
_cell_angle_gamma 90.000000
_cell_volume 2187.000000
_symmetry_space_group_name_H-M "C 2/M"
_symmetry_group_IT_number 12
_symmetry_cell_setting 'monoclinic'
loop_
_space_group_symop_operation_xyz
x,y,z
-x,y,-z
-x,-y,-z
x,-y,z
1/2+x,1/2+y,z
1/2-x,1/2+y,-z
1/2-x,1/2-y,-z
1/2+x,1/2-y,z
loop_
_atom_site_type_symbol
_atom_site_label
_atom_site_fract_x
_atom_site_fract_y
_atom_site_fract_z
Si Si1 0.388210 0.667978 0.829133
Si Si2 0.678222 0.180730 0.844929
Si Si3 0.042815 0.319715 0.389230
Si Si4 0.720569 0.819726 0.729009
Si Si5 0.858278 0.322452 0.638195
O O1 0.351581 0.500000 0.760822
O O2 0.316334 0.721818 0.802881
O O3 0.396302 0.770771 0.767561
O O4 0.500000 0.654151 0.000000
O O5 0.566040 0.224484 0.723267
O O6 0.708702 0.227814 0.799981
O O7 0.683535 0.000000 0.854046
O O8 0.750000 0.250000 0.000000
O O9 0.042763 0.500000 0.388021
O O10 0.125544 0.273220 0.556692
O O11 0.078223 0.272748 0.352122
O O12 0.721721 0.000000 0.733516
O O13 0.851686 0.500000 0.625717
O O14 0.750000 0.250000 0.500000
#
# Coordination Sequence:
#
# PCOD9225192 Si02
#       5
#     8   8   8   8   8
#     4  10  21  36  56  83 115 147 184 229 276 329
#     4  10  21  36  57  82 107 140 180 226 277 324
#     4   9  18  34  57  81 106 140 184 227 265 321
#     4   9  17  34  57  79 104 141 186 223 263 322
#     4  11  21  36  58  84 114 146 184 229 277 330
#
# _framework density 9.1449470000000002
#
# number of rings (size 3 to 8) (size 9 to 14) (size 15 to 20)
#    0.000    2.200    2.000    1.200    2.800    2.800 
#    0.000    2.000    0.000    1.200    0.000    0.000 
#    0.000    0.000    0.000    0.000    0.000    0.000 
#
# Total GULP energy -111404.235442 kJ/mol
# GULP energy per Si atom -5570.211772 kJ/mol
# Density = 0.912413 g / cm^3
# Si number density = 9.144947 Si / 1000 Ang^3
#
#
#
# Elastic Constant Matrix: (Units=GPa)
#
#
# Indices 1 2 3 4 5 6 
#
# 1 227.0987 24.8202 95.4490 0.0000 -11.8024 0.0000
# 2 24.8202 22.2792 18.1685 0.0000 -7.8600 0.0000
# 3 95.4490 18.1685 128.1257 0.0000 2.3921 0.0000
# 4 0.0000 0.0000 0.0000 23.6942 0.0000 -6.2115
# 5 -11.8024 -7.8600 2.3921 0.0000 35.1458 0.0000
# 6 0.0000 0.0000 0.0000 -6.2115 0.0000 29.9744
#
#
#
# Elastic Compliance Matrix: (Units=1/GPa)
#
#
# Indices 1 2 3 4 5 6 
#
# 1 0.006801 -0.003102 -0.004662 0.000000 0.001908 0.000000
# 2 -0.003102 0.057633 -0.006091 0.000000 0.012262 0.000000
# 3 -0.004662 -0.006091 0.012212 0.000000 -0.003759 0.000000
# 4 0.000000 0.000000 0.000000 0.044629 0.000000 0.009248
# 5 0.001908 0.012262 -0.003759 0.000000 0.032092 0.000000
# 6 0.000000 0.000000 0.000000 0.009248 0.000000 0.035278
#
#
# Mechanical properties :
#
#
# Convention : Reuss Voigt Hill
#
# Bulk Modulus (GPa) = 20.43455 72.70877 46.57166
# Shear Modulus (GPa) = 21.48993 33.70060 27.59526
#
# Velocity S-wave (km/s) = 3.43149 4.29719 3.88850
# Velocity P-wave (km/s) = 5.18623 8.02875 6.75862
#
# Compressibility (1/GPa) = 0.04893673
#
# Stress axis : x y z
#
# Youngs Moduli (GPa) = 147.03574 17.35107 81.88685
#
# Poissons Ratio (x) = 0.05382 0.38178
# Poissons Ratio (y) = 0.45606 0.49876
# Poissons Ratio (z) = 0.68553 0.10568
#
# Static dielectric constant tensor:
#      x y z
#    x 1.504390 0.000000 0.214780 
#    y 0.000000 1.654070 0.000000 
#    z 0.214780 0.000000 1.234440 
# 
# From -- ./inp_files/153882.got.cif
#   From: 2010.05.17/outbox.ucp.g08.bks.cvg/sg12_77_cif.got.tgz:153882.got - 2010.06.11 11:47:21.
