data_PCOD9225703
_publ_section_title
;
Structure prediction by ZEFSAII (Michael W. Deem and Ramdas Pophale) SiO2 
 PCOD9225703
Probable space group: C 2/M
;
_chemical_formula_sum "Si O2"
_cell_formula_units_Z 20
_cell_length_a 9.000000
_cell_length_b 24.000000
_cell_length_c 18.000000
_cell_angle_alpha 90.000000
_cell_angle_beta 150.000000
_cell_angle_gamma 90.000000
_cell_volume 1944.000000
_symmetry_space_group_name_H-M "C 2/M"
_symmetry_group_IT_number 12
_symmetry_cell_setting 'monoclinic'
loop_
_space_group_symop_operation_xyz
x,y,z
-x,y,-z
-x,-y,-z
x,-y,z
1/2+x,1/2+y,z
1/2-x,1/2+y,-z
1/2-x,1/2-y,-z
1/2+x,1/2-y,z
loop_
_atom_site_type_symbol
_atom_site_label
_atom_site_fract_x
_atom_site_fract_y
_atom_site_fract_z
Si Si1 0.165833 0.064202 0.332777
Si Si2 0.351913 0.934317 0.768465
Si Si3 0.266164 0.632931 0.054591
Si Si4 0.119784 0.236198 0.136505
Si Si5 0.788518 0.314083 0.675265
O O1 0.500000 0.078855 0.500000
O O2 0.936967 0.066317 0.302752
O O3 0.037804 0.105202 0.215836
O O4 0.165912 0.000000 0.306045
O O5 0.304833 0.881513 0.693149
O O6 0.388819 0.000000 0.760470
O O7 0.632901 0.911649 0.938203
O O8 0.392081 0.689700 0.071918
O O9 0.000000 0.639466 0.000000
O O10 0.191019 0.282737 0.233259
O O11 0.430661 0.207025 0.250406
O O12 0.000000 0.249584 0.000000
O O13 0.500000 0.300445 0.500000
#
# Coordination Sequence:
#
# PCOD9225703 Si02
#       5
#     8   8   8   8   8
#     4   9  19  35  64 101 138 186 236 286 347 420
#     4  10  22  43  69 100 142 187 233 288 351 420
#     4  10  22  41  70 102 139 188 235 291 344 423
#     4  12  27  47  73 105 139 190 237 291 352 422
#     4  12  29  48  72 107 144 187 233 296 360 418
#
# _framework density 10.288066000000001
#
# number of rings (size 3 to 8) (size 9 to 14) (size 15 to 20)
#    0.000    1.400    2.000    1.800    8.400    3.600 
#    0.000    3.000    0.000    0.000    0.000    0.000 
#    0.000    0.000    0.000    0.000    0.000    0.000 
#
# Total GULP energy -111609.245520 kJ/mol
# GULP energy per Si atom -5580.462276 kJ/mol
# Density = 1.026465 g / cm^3
# Si number density = 10.288066 Si / 1000 Ang^3
#
#
#
# Elastic Constant Matrix: (Units=GPa)
#
#
# Indices 1 2 3 4 5 6 
#
# 1 87.4292 45.8408 43.3265 -0.0012 -5.0106 0.0000
# 2 45.8408 152.8025 69.4325 0.0000 -5.1484 0.0000
# 3 43.3265 69.4325 169.9044 -0.0225 -2.5862 0.0016
# 4 -0.0012 0.0000 -0.0225 26.8645 -0.0014 4.3739
# 5 -5.0106 -5.1484 -2.5862 -0.0014 28.5755 -0.0005
# 6 0.0000 0.0000 0.0016 4.3739 -0.0005 35.1881
#
#
#
# Elastic Compliance Matrix: (Units=1/GPa)
#
#
# Indices 1 2 3 4 5 6 
#
# 1 0.014367 -0.003192 -0.002333 -0.000001 0.001733 0.000000
# 2 -0.003192 0.008784 -0.002764 -0.000003 0.000773 0.000000
# 3 -0.002333 -0.002764 0.007607 0.000006 -0.000219 -0.000001
# 4 -0.000001 -0.000003 0.000006 0.037993 0.000002 -0.004723
# 5 0.001733 0.000773 -0.000219 0.000002 0.035418 0.000000
# 6 0.000000 0.000000 -0.000001 -0.004723 0.000000 0.029006
#
#
# Mechanical properties :
#
#
# Convention : Reuss Voigt Hill
#
# Bulk Modulus (GPa) = 70.52008 80.81510 75.66759
# Shear Modulus (GPa) = 32.36713 34.89468 33.63091
#
# Velocity S-wave (km/s) = 3.97046 4.12258 4.04723
# Velocity P-wave (km/s) = 7.44087 7.87542 7.66123
#
# Compressibility (1/GPa) = 0.01418036
#
# Stress axis : x y z
#
# Youngs Moduli (GPa) = 69.60566 113.84578 131.46208
#
# Poissons Ratio (x) = 0.36334 0.30670
# Poissons Ratio (y) = 0.22215 0.36335
# Poissons Ratio (z) = 0.16239 0.31466
#
# Static dielectric constant tensor:
#      x y z
#    x 1.736860 0.000000 -0.003510 
#    y 0.000000 1.767690 0.000000 
#    z -0.003510 0.000000 1.747400 
# 
# From -- ./inp_files/198676.got.cif
#   From: 2010.05.17/outbox.ucp.g08.bks.cvg/sg12_100_cif.got.tgz:198676.got - 2010.06.11 11:47:21.
