data_PCOD9225925
_publ_section_title
;
Structure prediction by ZEFSAII (Michael W. Deem and Ramdas Pophale) SiO2 
 PCOD9225925
Probable space group: C 2/M
;
_chemical_formula_sum "Si O2"
_cell_formula_units_Z 29
_cell_length_a 12.000000
_cell_length_b 27.000000
_cell_length_c 18.000000
_cell_angle_alpha 90.000000
_cell_angle_beta 30.000000
_cell_angle_gamma 90.000000
_cell_volume 2916.000000
_symmetry_space_group_name_H-M "C 2/M"
_symmetry_group_IT_number 12
_symmetry_cell_setting 'monoclinic'
loop_
_space_group_symop_operation_xyz
x,y,z
-x,y,-z
-x,-y,-z
x,-y,z
1/2+x,1/2+y,z
1/2-x,1/2+y,-z
1/2-x,1/2-y,-z
1/2+x,1/2-y,z
loop_
_atom_site_type_symbol
_atom_site_label
_atom_site_fract_x
_atom_site_fract_y
_atom_site_fract_z
Si Si1 0.740870 0.443084 0.824589
Si Si2 0.234336 0.350431 0.830456
Si Si3 0.500000 0.500000 0.500000
Si Si4 0.253533 0.812854 0.344262
Si Si5 0.821453 0.578003 0.361866
Si Si6 0.565874 0.721889 0.160201
Si Si7 0.562357 0.441277 0.662259
Si Si8 0.238042 0.370705 0.326006
O O1 0.764148 0.500000 0.782394
O O2 0.784205 0.400717 0.738199
O O3 0.920275 0.434515 0.785675
O O4 0.500000 0.437910 0.000000
O O5 0.210500 0.328169 0.762178
O O6 0.328699 0.307483 0.830775
O O7 0.374770 0.401151 0.748341
O O8 0.000000 0.364261 0.000000
O O9 0.688664 0.543938 0.381259
O O10 0.284202 0.863792 0.372262
O O11 0.413435 0.767923 0.273317
O O12 0.000000 0.796409 0.500000
O O13 0.727689 0.559850 0.495982
O O14 0.403672 0.677237 0.221748
O O15 0.750000 0.750000 0.000000
O O16 0.506041 0.500000 0.706613
O O17 0.668091 0.413375 0.672192
O O18 0.000000 0.355286 0.500000
#
# Coordination Sequence:
#
# PCOD9225925 Si02
#       8
#     8   8   2   8   8   8   8   8
#     4  11  25  43  67 107 148 184 227 291 357 421
#     4  11  24  46  68  99 139 176 232 288 347 420
#     4  12  20  40  66  98 138 180 228 274 342 414
#     4  12  25  44  68 101 133 177 230 291 343 408
#     4  12  23  40  69 102 136 182 231 281 343 412
#     4  11  26  46  70  98 133 181 229 292 357 411
#     4  11  22  41  70 103 139 181 229 281 346 412
#     4  11  24  44  71 104 135 180 238 286 346 423
#
# _framework density 9.9451300000000007
#
# number of rings (size 3 to 8) (size 9 to 14) (size 15 to 20)
#    0.000    0.690    6.207    0.828    1.931    2.483 
#    0.000    0.000    0.000    0.000    0.000    0.000 
#    0.000    0.000    0.000    0.000    0.000    0.000 
#
# Total GULP energy -161564.458851 kJ/mol
# GULP energy per Si atom -5571.188236 kJ/mol
# Density = 0.992249 g / cm^3
# Si number density = 9.945130 Si / 1000 Ang^3
#
#
#
# Elastic Constant Matrix: (Units=GPa)
#
#
# Indices 1 2 3 4 5 6 
#
# 1 50.8325 23.9534 11.1228 0.0397 -7.3901 0.0652
# 2 23.9534 176.3791 33.3005 0.0214 -14.4461 0.1121
# 3 11.1228 33.3005 104.1555 0.0787 -19.4628 0.0630
# 4 0.0397 0.0214 0.0787 28.6493 -0.0235 -30.1513
# 5 -7.3901 -14.4461 -19.4628 -0.0235 33.1835 0.0331
# 6 0.0652 0.1121 0.0630 -30.1513 0.0331 -69.5325
#
#
#
# Elastic Compliance Matrix: (Units=1/GPa)
#
#
# Indices 1 2 3 4 5 6 
#
# 1 0.021505 -0.002489 -0.000908 -0.000004 0.003173 0.000018
# 2 -0.002489 0.006406 -0.001533 0.000008 0.001336 0.000004
# 3 -0.000908 -0.001533 0.011260 -0.000009 0.005735 0.000014
# 4 -0.000004 0.000008 -0.000009 0.023967 0.000024 -0.010393
# 5 0.003173 0.001336 0.005735 0.000024 0.034787 0.000016
# 6 0.000018 0.000004 0.000014 -0.010393 0.000016 -0.009875
#
#
# Mechanical properties :
#
#
# Convention : Reuss Voigt Hill
#
# Bulk Modulus (GPa) = 34.11613 52.01340 43.06477
# Shear Modulus (GPa) = 46.43345 15.99274 31.21309
#
# Velocity S-wave (km/s) = 4.83689 2.83865 3.96569
# Velocity P-wave (km/s) = 6.95582 6.07872 6.53201
#
# Compressibility (1/GPa) = 0.02931165
#
# Stress axis : x y z
#
# Youngs Moduli (GPa) = 46.49995 156.09244 88.81283
#
# Poissons Ratio (x) = 0.38856 0.08062
# Poissons Ratio (y) = 0.11575 0.13614
# Poissons Ratio (z) = 0.04221 0.23927
#
# Static dielectric constant tensor:
#      x y z
#    x 1.778660 0.000020 -0.035000 
#    y 0.000020 1.658400 0.000010 
#    z -0.035000 0.000010 1.714320 
# 
# From -- ./inp_files/266015.got.cif
#   From: 2010.05.17/outbox.ucp.g08.bks.cvg/sg12_134_cif.got.tgz:266015.got - 2010.06.11 11:47:21.
