data_PCOD9225272
_publ_section_title
;
Structure prediction by ZEFSAII (Michael W. Deem and Ramdas Pophale) SiO2 
 PCOD9225272
Probable space group: C 2/M
;
_chemical_formula_sum "Si O2"
_cell_formula_units_Z 32
_cell_length_a 15.000000
_cell_length_b 9.000000
_cell_length_c 30.000000
_cell_angle_alpha 90.000000
_cell_angle_beta 50.000000
_cell_angle_gamma 90.000000
_cell_volume 3102.479995
_symmetry_space_group_name_H-M "C 2/M"
_symmetry_group_IT_number 12
_symmetry_cell_setting 'monoclinic'
loop_
_space_group_symop_operation_xyz
x,y,z
-x,y,-z
-x,-y,-z
x,-y,z
1/2+x,1/2+y,z
1/2-x,1/2+y,-z
1/2-x,1/2-y,-z
1/2+x,1/2-y,z
loop_
_atom_site_type_symbol
_atom_site_label
_atom_site_fract_x
_atom_site_fract_y
_atom_site_fract_z
Si Si1 0.704386 0.330574 0.819826
Si Si2 0.980637 0.326308 0.741315
Si Si3 0.071684 0.822910 0.625994
Si Si4 0.317344 0.668261 0.939294
Si Si5 0.387960 0.830490 0.065987
Si Si6 0.449467 0.678670 0.582833
Si Si7 0.027656 0.675006 0.824813
Si Si8 0.310225 0.678235 0.546729
O O1 0.675024 0.500000 0.817824
O O2 0.841989 0.317488 0.780521
O O3 0.640455 0.282790 0.885840
O O4 0.655116 0.218321 0.799468
O O5 0.014687 0.500000 0.727101
O O6 0.046282 0.236493 0.682734
O O7 0.008490 0.268891 0.781290
O O8 0.194513 0.760433 0.569683
O O9 0.968115 0.768098 0.626759
O O10 0.075101 0.000000 0.623446
O O11 0.344482 0.500000 0.943648
O O12 0.226351 0.666194 0.927855
O O13 0.433335 0.751092 0.887345
O O14 0.250000 0.750000 0.000000
O O15 0.407766 0.000000 0.076964
O O16 0.500000 0.792289 0.000000
O O17 0.436781 0.500000 0.587418
O O18 0.345340 0.731689 0.585294
O O19 0.573110 0.707391 0.518880
O O20 0.008237 0.500000 0.831473
O O21 0.291234 0.500000 0.552111
#
# Coordination Sequence:
#
# PCOD9225272 Si02
#       8
#     8   8   8   8   8   8   8   8
#     4  11  23  41  64  89 115 149 196 246 297 354
#     4  10  24  44  61  81 115 159 201 243 295 358
#     4  11  22  35  56  87 119 150 196 249 297 345
#     4  11  22  36  59  90 124 156 192 238 291 352
#     4  10  21  37  58  87 121 154 189 234 289 353
#     4   8  17  34  57  85 117 157 198 239 290 353
#     4  11  23  42  64  85 115 154 196 242 298 358
#     4   9  17  35  60  83 116 159 200 238 288 353
#
# _framework density 10.314329000000001
#
# number of rings (size 3 to 8) (size 9 to 14) (size 15 to 20)
#    0.000    1.875    1.250    3.375    0.000    4.750 
#    0.000    6.875    0.000    0.000    0.000    0.000 
#    0.000    0.000    0.000    0.000    0.000    0.000 
#
# Total GULP energy -178621.165682 kJ/mol
# GULP energy per Si atom -5581.911428 kJ/mol
# Density = 1.029085 g / cm^3
# Si number density = 10.314329 Si / 1000 Ang^3
#
#
#
# Elastic Constant Matrix: (Units=GPa)
#
#
# Indices 1 2 3 4 5 6 
#
# 1 65.1566 5.8252 2.9910 0.0001 19.6756 0.0000
# 2 5.8252 37.6185 14.4745 0.0002 10.6066 0.0000
# 3 2.9910 14.4745 24.6474 0.0000 16.2519 0.0000
# 4 0.0001 0.0002 0.0000 -60.5619 0.0000 -13.4665
# 5 19.6756 10.6066 16.2519 0.0000 16.8505 0.0000
# 6 0.0000 0.0000 0.0000 -13.4665 0.0000 23.3492
#
#
#
# Elastic Compliance Matrix: (Units=1/GPa)
#
#
# Indices 1 2 3 4 5 6 
#
# 1 0.073164 -0.002535 0.131546 0.000000 -0.210709 0.000000
# 2 -0.002535 0.034649 -0.020907 0.000000 0.001314 0.000000
# 3 0.131546 -0.020907 0.355696 0.000000 -0.483502 0.000001
# 4 0.000000 0.000000 0.000000 -0.014635 0.000000 -0.008441
# 5 -0.210709 0.001314 -0.483502 0.000000 0.770881 -0.000001
# 6 0.000000 0.000000 0.000001 -0.008441 -0.000001 0.037960
#
#
# Mechanical properties :
#
#
# Convention : Reuss Voigt Hill
#
# Bulk Modulus (GPa) = 1.47120 19.33376 10.40248
# Shear Modulus (GPa) = 3.94297 2.86968 3.40632
#
# Velocity S-wave (km/s) = 1.38404 1.18073 1.28641
# Velocity P-wave (km/s) = 1.80798 3.35432 2.69446
#
# Compressibility (1/GPa) = 0.67971816
#
# Stress axis : x y z
#
# Youngs Moduli (GPa) = 13.66789 28.86087 2.81139
#
# Poissons Ratio (x) = 0.07316 -0.36983
# Poissons Ratio (y) = 0.03464 0.05878
# Poissons Ratio (z) = -1.79796 0.60339
#
# Static dielectric constant tensor:
#      x y z
#    x 1.784100 0.000000 0.054200 
#    y 0.000000 1.697200 0.000000 
#    z 0.054200 0.000000 1.712890 
# 
# From -- ./inp_files/375488.got.cif
#   From: 2010.05.17/outbox.ucp.g08.bks.cvg/sg12_188_cif.got.tgz:375488.got - 2010.06.11 11:47:21.
