data_PCOD9225165
_publ_section_title
;
Structure prediction by ZEFSAII (Michael W. Deem and Ramdas Pophale) SiO2 
 PCOD9225165
Probable space group: C 2/M
;
_chemical_formula_sum "Si O2"
_cell_formula_units_Z 28
_cell_length_a 30.000000
_cell_length_b 9.000000
_cell_length_c 21.000000
_cell_angle_alpha 90.000000
_cell_angle_beta 150.000000
_cell_angle_gamma 90.000000
_cell_volume 2835.000000
_symmetry_space_group_name_H-M "C 2/M"
_symmetry_group_IT_number 12
_symmetry_cell_setting 'monoclinic'
loop_
_space_group_symop_operation_xyz
x,y,z
-x,y,-z
-x,-y,-z
x,-y,z
1/2+x,1/2+y,z
1/2-x,1/2+y,-z
1/2-x,1/2-y,-z
1/2+x,1/2-y,z
loop_
_atom_site_type_symbol
_atom_site_label
_atom_site_fract_x
_atom_site_fract_y
_atom_site_fract_z
Si Si1 0.846349 0.677810 0.610158
Si Si2 0.153667 0.678184 0.538324
Si Si3 0.456305 0.820602 0.324063
Si Si4 0.133732 0.821036 0.913169
Si Si5 0.029044 0.319128 0.902086
Si Si6 0.807298 0.326117 0.810865
Si Si7 0.296002 0.324459 0.182437
O O1 0.838068 0.500000 0.603471
O O2 0.750000 0.750000 0.500000
O O3 0.867368 0.715270 0.562004
O O4 0.924028 0.716447 0.758230
O O5 0.163464 0.500000 0.554338
O O6 0.244669 0.747152 0.680321
O O7 0.061032 0.719791 0.459268
O O8 0.413631 0.749832 0.207066
O O9 0.391560 0.755032 0.297991
O O10 0.450421 0.000000 0.313584
O O11 0.076298 0.766081 0.902615
O O12 0.137409 0.000000 0.913187
O O13 0.230964 0.753775 0.050424
O O14 0.037940 0.500000 0.905810
O O15 0.090451 0.281751 0.040827
O O16 0.812419 0.500000 0.799715
O O17 0.751477 0.310497 0.807724
O O18 0.303655 0.500000 0.177471
#
# Coordination Sequence:
#
# PCOD9225165 Si02
#       7
#     8   8   8   8   8   8   8
#     4  10  21  40  64  90 116 145 183 231 286 341
#     4  10  22  39  59  82 115 153 185 233 291 340
#     4  11  21  35  53  76 111 154 195 237 286 336
#     4  11  20  31  52  82 112 147 193 241 284 333
#     4   9  18  38  61  82 115 154 188 229 283 337
#     4   9  20  37  59  82 112 154 194 233 276 332
#     4  10  21  36  52  77 113 154 195 239 283 328
#
# _framework density 9.8765429999999999
#
# number of rings (size 3 to 8) (size 9 to 14) (size 15 to 20)
#    0.000    2.000    1.429    3.429    0.000    5.714 
#    0.000    3.571    0.000    4.286    0.000    0.000 
#    0.000    0.000    0.000    0.000    0.000    0.000 
#
# Total GULP energy -156136.339387 kJ/mol
# GULP energy per Si atom -5576.297835 kJ/mol
# Density = 0.985406 g / cm^3
# Si number density = 9.876543 Si / 1000 Ang^3
#
#
#
# Elastic Constant Matrix: (Units=GPa)
#
#
# Indices 1 2 3 4 5 6 
#
# 1 10.6313 4.7785 13.3592 0.0000 19.2372 0.0000
# 2 4.7785 62.6505 31.2323 0.0000 5.5922 0.0000
# 3 13.3592 31.2323 174.4295 0.0000 17.5141 0.0000
# 4 0.0000 0.0000 0.0000 40.6339 0.0000 0.3567
# 5 19.2372 5.5922 17.5141 0.0000 34.6709 0.0000
# 6 0.0000 0.0000 0.0000 0.3567 0.0000 26.2625
#
#
#
# Elastic Compliance Matrix: (Units=1/GPa)
#
#
# Indices 1 2 3 4 5 6 
#
# 1 -7.042587 0.130136 0.132556 0.000000 3.819636 0.000000
# 2 0.130136 0.015178 -0.005466 0.000000 -0.071893 0.000000
# 3 0.132556 -0.005466 0.004062 0.000000 -0.074719 0.000000
# 4 0.000000 0.000000 0.000000 0.024613 0.000000 -0.000334
# 5 3.819636 -0.071893 -0.074719 0.000000 -2.041146 0.000000
# 6 0.000000 0.000000 0.000000 -0.000334 0.000000 0.038082
#
#
# Mechanical properties :
#
#
# Convention : Reuss Voigt Hill
#
# Bulk Modulus (GPa) = -0.15364 38.49460 19.17048
# Shear Modulus (GPa) = -0.42787 33.53620 16.55417
#
# Velocity S-wave (km/s) = -0.46592 4.12487 2.89806
# Velocity P-wave (km/s) = 0.60612 6.49741 4.57432
#
# Compressibility (1/GPa) = -6.50889504
#
# Stress axis : x y z
#
# Youngs Moduli (GPa) = -0.14199 65.88603 246.19555
#
# Poissons Ratio (x) = -8.57413 -32.63476
# Poissons Ratio (y) = 0.01848 1.34568
# Poissons Ratio (z) = 0.01882 0.36013
#
# Static dielectric constant tensor:
#      x y z
#    x 1.774190 0.000000 0.018080 
#    y 0.000000 1.659250 0.000000 
#    z 0.018080 0.000000 1.711030 
# 
# From -- ./inp_files/329627.got.cif
#   From: 2010.05.17/outbox.ucp.g08.bks.cvg/sg12_165_cif.got.tgz:329627.got - 2010.06.11 11:47:21.
