data_PCOD9225759
_publ_section_title
;
Structure prediction by ZEFSAII (Michael W. Deem and Ramdas Pophale) SiO2 
 PCOD9225759
Probable space group: C 2/M
;
_chemical_formula_sum "Si O2"
_cell_formula_units_Z 32
_cell_length_a 30.000000
_cell_length_b 9.000000
_cell_length_c 18.000000
_cell_angle_alpha 90.000000
_cell_angle_beta 140.000000
_cell_angle_gamma 90.000000
_cell_volume 3123.947783
_symmetry_space_group_name_H-M "C 2/M"
_symmetry_group_IT_number 12
_symmetry_cell_setting 'monoclinic'
loop_
_space_group_symop_operation_xyz
x,y,z
-x,y,-z
-x,-y,-z
x,-y,z
1/2+x,1/2+y,z
1/2-x,1/2+y,-z
1/2-x,1/2-y,-z
1/2+x,1/2-y,z
loop_
_atom_site_type_symbol
_atom_site_label
_atom_site_fract_x
_atom_site_fract_y
_atom_site_fract_z
Si Si1 0.459258 0.678323 0.674236
Si Si2 0.277995 0.670608 0.706071
Si Si3 0.799986 0.172716 0.280290
Si Si4 0.805805 0.173175 0.518690
Si Si5 0.052756 0.677997 0.499252
Si Si6 0.076701 0.830461 0.065884
Si Si7 0.579055 0.175582 0.918629
Si Si8 0.723769 0.831395 0.036682
O O1 0.457197 0.500000 0.661824
O O2 0.384797 0.725616 0.613723
O O3 0.471629 0.757217 0.610970
O O4 0.518039 0.729373 0.805266
O O5 0.259690 0.500000 0.665810
O O6 0.259400 0.715411 0.765630
O O7 0.228235 0.786807 0.602908
O O8 0.359485 0.691836 0.795683
O O9 0.874394 0.240782 0.392950
O O10 0.784829 0.169987 0.174233
O O11 0.793548 0.000000 0.297065
O O12 0.750000 0.250000 0.500000
O O13 0.806863 0.000000 0.537071
O O14 0.062482 0.500000 0.506034
O O15 0.000000 0.706725 0.500000
O O16 0.087790 0.000000 0.051308
O O17 0.082107 0.709252 0.009462
O O18 0.000000 0.824895 0.000000
O O19 0.568259 0.000000 0.892232
O O20 0.651677 0.226446 0.976948
O O21 0.708251 0.000000 0.996916
O O22 0.750000 0.750000 0.000000
#
# Coordination Sequence:
#
# PCOD9225759 Si02
#       8
#     8   8   8   8   8   8   8   8
#     4  11  25  44  65  91 126 168 210 255 311 374
#     4  11  22  39  66  94 124 164 209 261 314 369
#     4  11  22  41  65  92 125 163 209 260 311 372
#     4  11  25  43  65  93 127 166 209 260 314 374
#     4  11  25  43  65  95 127 163 208 259 313 372
#     4  10  23  42  64  93 127 165 208 255 309 371
#     4  11  24  43  64  92 128 165 207 258 311 368
#     4  10  24  42  63  92 126 163 207 256 309 369
#
# _framework density 10.243449
#
# number of rings (size 3 to 8) (size 9 to 14) (size 15 to 20)
#    0.000    1.250    2.500    2.250    3.500    5.250 
#    0.000    0.000    0.000    0.000    0.000    0.000 
#    0.000    0.000    0.000    0.000    0.000    0.000 
#
# Total GULP energy -178466.717699 kJ/mol
# GULP energy per Si atom -5577.084928 kJ/mol
# Density = 1.022013 g / cm^3
# Si number density = 10.243449 Si / 1000 Ang^3
#
#
#
# Elastic Constant Matrix: (Units=GPa)
#
#
# Indices 1 2 3 4 5 6 
#
# 1 36.5269 -5.5456 -5.5234 0.0000 -10.4341 0.0000
# 2 -5.5456 -1.2405 -3.4731 0.0000 -13.8107 0.0000
# 3 -5.5234 -3.4731 58.6921 0.0000 11.1239 0.0000
# 4 0.0000 0.0000 0.0000 24.0267 0.0000 -11.3755
# 5 -10.4341 -13.8107 11.1239 0.0000 15.2961 0.0000
# 6 0.0000 0.0000 0.0000 -11.3755 0.0000 24.9244
#
#
#
# Elastic Compliance Matrix: (Units=1/GPa)
#
#
# Indices 1 2 3 4 5 6 
#
# 1 0.022094 -0.023112 0.002100 0.000000 -0.007324 0.000000
# 2 -0.023112 -0.044489 0.006720 0.000000 -0.060821 0.000000
# 3 0.002100 0.006720 0.018804 0.000000 -0.006175 0.000000
# 4 0.000000 0.000000 0.000000 0.053093 0.000000 0.024231
# 5 -0.007324 -0.060821 -0.006175 0.000000 0.009957 0.000000
# 6 0.000000 0.000000 0.000000 0.024231 0.000000 0.051181
#
#
# Mechanical properties :
#
#
# Convention : Reuss Voigt Hill
#
# Bulk Modulus (GPa) = -31.07796 7.21046 -11.93375
# Shear Modulus (GPa) = 38.91103 20.08416 29.49759
#
# Velocity S-wave (km/s) = 4.36284 3.13444 3.79862
# Velocity P-wave (km/s) = 3.19007 4.07760 3.66083
#
# Compressibility (1/GPa) = -0.03217715
#
# Stress axis : x y z
#
# Youngs Moduli (GPa) = 45.26201 -22.47748 53.18092
#
# Poissons Ratio (x) = -0.51950 -0.11166
# Poissons Ratio (y) = 1.04610 -0.35736
# Poissons Ratio (z) = -0.09503 0.15104
#
# Static dielectric constant tensor:
#      x y z
#    x 1.599150 0.000000 0.035020 
#    y 0.000000 1.805870 0.000000 
#    z 0.035020 0.000000 1.688110 
# 
# From -- ./inp_files/295539.got.cif
#   From: 2010.05.17/outbox.ucp.g08.bks.cvg/sg12_148_cif.got.tgz:295539.got - 2010.06.11 11:47:21.
