data_PCOD9225646
_publ_section_title
;
Structure prediction by ZEFSAII (Michael W. Deem and Ramdas Pophale) SiO2 
 PCOD9225646
Probable space group: C 2/M
;
_chemical_formula_sum "Si O2"
_cell_formula_units_Z 32
_cell_length_a 30.000000
_cell_length_b 9.000000
_cell_length_c 18.000000
_cell_angle_alpha 90.000000
_cell_angle_beta 140.000000
_cell_angle_gamma 90.000000
_cell_volume 3123.947783
_symmetry_space_group_name_H-M "C 2/M"
_symmetry_group_IT_number 12
_symmetry_cell_setting 'monoclinic'
loop_
_space_group_symop_operation_xyz
x,y,z
-x,y,-z
-x,-y,-z
x,-y,z
1/2+x,1/2+y,z
1/2-x,1/2+y,-z
1/2-x,1/2-y,-z
1/2+x,1/2-y,z
loop_
_atom_site_type_symbol
_atom_site_label
_atom_site_fract_x
_atom_site_fract_y
_atom_site_fract_z
Si Si1 0.660326 0.174106 0.983984
Si Si2 0.330962 0.175069 0.734538
Si Si3 0.695347 0.824119 0.607226
Si Si4 0.051789 0.823741 0.378579
Si Si5 0.916763 0.822795 0.977730
Si Si6 0.044372 0.324891 0.209324
Si Si7 0.793703 0.324810 0.204166
Si Si8 0.922579 0.326202 0.275562
O O1 0.621868 0.274723 0.995785
O O2 0.739712 0.226010 0.089686
O O3 0.654476 0.000000 0.996735
O O4 0.624772 0.192854 0.858704
O O5 0.258051 0.258135 0.639447
O O6 0.375691 0.246635 0.858224
O O7 0.377450 0.190349 0.720361
O O8 0.320773 0.000000 0.736154
O O9 0.624412 0.740779 0.499274
O O10 0.714902 0.801901 0.718950
O O11 0.687074 0.000000 0.584084
O O12 0.036254 0.748058 0.279183
O O13 0.989847 0.773921 0.353481
O O14 0.054367 0.000000 0.373781
O O15 0.917583 0.000000 0.970108
O O16 0.993357 0.756525 0.086673
O O17 0.026849 0.500000 0.190055
O O18 0.781120 0.500000 0.171902
O O19 0.872162 0.292848 0.279705
O O20 0.943435 0.500000 0.305365
#
# Coordination Sequence:
#
# PCOD9225646 Si02
#       8
#     8   8   8   8   8   8   8   8
#     4  11  21  35  62  93 128 169 204 251 311 368
#     4  11  24  42  66  95 127 163 206 256 311 372
#     4  11  24  43  66  90 124 166 209 261 313 367
#     4  12  26  43  65  91 122 163 213 263 311 370
#     4  12  23  37  62  95 131 167 205 250 306 373
#     4  11  24  43  66  93 126 164 206 256 315 372
#     4  10  22  40  64  94 126 165 210 256 309 370
#     4  10  22  41  64  92 128 167 207 254 313 372
#
# _framework density 10.243449
#
# number of rings (size 3 to 8) (size 9 to 14) (size 15 to 20)
#    0.000    1.000    2.500    4.500    0.000    6.000 
#    0.000    2.500    0.000    0.000    0.000    0.000 
#    0.000    0.000    0.000    0.000    0.000    0.000 
#
# Total GULP energy -179075.491824 kJ/mol
# GULP energy per Si atom -5596.109119 kJ/mol
# Density = 1.022013 g / cm^3
# Si number density = 10.243449 Si / 1000 Ang^3
#
#
#
# Elastic Constant Matrix: (Units=GPa)
#
#
# Indices 1 2 3 4 5 6 
#
# 1 77.1860 30.4165 -2.3345 0.0000 23.8050 0.0000
# 2 30.4165 90.7664 8.7522 0.0000 14.3879 0.0000
# 3 -2.3345 8.7522 41.2349 0.0000 27.0853 0.0000
# 4 0.0000 0.0000 0.0000 32.3351 0.0000 9.3523
# 5 23.8050 14.3879 27.0853 0.0000 26.0541 0.0000
# 6 0.0000 0.0000 0.0000 9.3523 0.0000 31.3805
#
#
#
# Elastic Compliance Matrix: (Units=1/GPa)
#
#
# Indices 1 2 3 4 5 6 
#
# 1 -1.121803 0.062080 -2.293646 0.000000 3.375115 0.000000
# 2 0.062080 0.009084 0.132870 0.000000 -0.199866 0.000000
# 3 -2.293646 0.132870 -4.610318 0.000000 6.815080 0.000000
# 4 0.000000 0.000000 0.000000 0.033843 0.000000 -0.010086
# 5 3.375115 -0.199866 6.815080 0.000000-10.019845 0.000000
# 6 0.000000 0.000000 0.000000 -0.010086 0.000000 0.034873
#
#
# Mechanical properties :
#
#
# Convention : Reuss Voigt Hill
#
# Bulk Modulus (GPa) = -0.10080 31.42841 15.66380
# Shear Modulus (GPa) = -0.33821 29.44415 14.55297
#
# Velocity S-wave (km/s) = -0.40675 3.79518 2.66814
# Velocity P-wave (km/s) = 0.51952 5.88035 4.14178
#
# Compressibility (1/GPa) = -9.92042916
#
# Stress axis : x y z
#
# Youngs Moduli (GPa) = -0.89142 110.08555 -0.21690
#
# Poissons Ratio (x) = -6.83412 -0.49750
# Poissons Ratio (y) = 0.05534 0.02882
# Poissons Ratio (z) = -2.04461 -14.62703
#
# Static dielectric constant tensor:
#      x y z
#    x 1.756370 0.000000 0.023200 
#    y 0.000000 1.680360 0.000000 
#    z 0.023200 0.000000 1.710830 
# 
# From -- ./inp_files/295856.got.cif
#   From: 2010.05.17/outbox.ucp.g08.bks.cvg/sg12_148_cif.got.tgz:295856.got - 2010.06.11 11:47:21.
