data_PCOD9225787
_publ_section_title
;
Structure prediction by ZEFSAII (Michael W. Deem and Ramdas Pophale) SiO2 
 PCOD9225787
Probable space group: C 2/M
;
_chemical_formula_sum "Si O2"
_cell_formula_units_Z 24
_cell_length_a 27.000000
_cell_length_b 9.000000
_cell_length_c 15.000000
_cell_angle_alpha 90.000000
_cell_angle_beta 140.000000
_cell_angle_gamma 90.000000
_cell_volume 2342.960837
_symmetry_space_group_name_H-M "C 2/M"
_symmetry_group_IT_number 12
_symmetry_cell_setting 'monoclinic'
loop_
_space_group_symop_operation_xyz
x,y,z
-x,y,-z
-x,-y,-z
x,-y,z
1/2+x,1/2+y,z
1/2-x,1/2+y,-z
1/2-x,1/2-y,-z
1/2+x,1/2-y,z
loop_
_atom_site_type_symbol
_atom_site_label
_atom_site_fract_x
_atom_site_fract_y
_atom_site_fract_z
Si Si1 0.023958 0.335455 0.133760
Si Si2 0.694553 0.827470 0.733698
Si Si3 0.405761 0.172408 0.225869
Si Si4 0.628087 0.324640 0.997815
Si Si5 0.665207 0.676749 0.390796
Si Si6 0.071074 0.174685 0.444566
O O1 0.036514 0.500000 0.192087
O O2 0.104202 0.245920 0.238527
O O3 0.950008 0.255025 0.075917
O O4 0.000000 0.353681 0.000000
O O5 0.654171 0.825594 0.774998
O O6 0.639378 0.717500 0.604806
O O7 0.688301 0.000000 0.693226
O O8 0.784972 0.785078 0.850263
O O9 0.371384 0.280929 0.104708
O O10 0.493934 0.231265 0.360834
O O11 0.410622 0.000000 0.202895
O O12 0.618556 0.500000 0.998816
O O13 0.674248 0.500000 0.393916
O O14 0.750000 0.750000 0.500000
O O15 0.613316 0.705401 0.408287
O O16 0.050993 0.000000 0.419721
#
# Coordination Sequence:
#
# PCOD9225787 Si02
#       6
#     8   8   8   8   8   8
#     4  11  25  44  67  95 127 163 207 256 312 374
#     4  10  24  41  61  93 128 167 211 257 309 371
#     4  11  22  40  65  91 125 168 212 256 311 371
#     4  11  23  41  64  93 128 164 209 258 312 370
#     4  11  25  44  67  95 127 164 209 258 313 372
#     4  11  24  41  63  93 127 164 209 260 312 369
#
# _framework density 10.243449
#
# number of rings (size 3 to 8) (size 9 to 14) (size 15 to 20)
#    0.000    1.167    1.667    3.500    2.333    8.000 
#    0.000    0.000    0.000    0.000    0.000    0.000 
#    0.000    0.000    0.000    0.000    0.000    0.000 
#
# Total GULP energy -133818.023312 kJ/mol
# GULP energy per Si atom -5575.750971 kJ/mol
# Density = 1.022013 g / cm^3
# Si number density = 10.243449 Si / 1000 Ang^3
#
#
#
# Elastic Constant Matrix: (Units=GPa)
#
#
# Indices 1 2 3 4 5 6 
#
# 1 51.2039 28.4597 15.6826 0.0000 33.3091 0.0000
# 2 28.4597 41.4906 -1.9298 0.0000 13.5841 0.0000
# 3 15.6826 -1.9298 63.0051 0.0000 25.5263 0.0000
# 4 0.0000 0.0000 0.0000 27.1426 0.0000 3.6593
# 5 33.3091 13.5841 25.5263 0.0000 41.2564 0.0000
# 6 0.0000 0.0000 0.0000 3.6593 0.0000 21.8725
#
#
#
# Elastic Compliance Matrix: (Units=1/GPa)
#
#
# Indices 1 2 3 4 5 6 
#
# 1 0.062323 -0.029433 0.000060 0.000000 -0.040664 0.000000
# 2 -0.029433 0.042673 0.006270 0.000000 0.005834 0.000000
# 3 0.000060 0.006270 0.022560 0.000000 -0.016072 0.000000
# 4 0.000000 0.000000 0.000000 0.037693 0.000000 -0.006306
# 5 -0.040664 0.005834 -0.016072 0.000000 0.065092 0.000000
# 6 0.000000 0.000000 0.000000 -0.006306 0.000000 0.046774
#
#
# Mechanical properties :
#
#
# Convention : Reuss Voigt Hill
#
# Bulk Modulus (GPa) = 12.29260 26.68053 19.48657
# Shear Modulus (GPa) = 14.26786 25.62012 19.94399
#
# Velocity S-wave (km/s) = 2.64187 3.54016 3.12348
# Velocity P-wave (km/s) = 3.91398 5.45544 4.74769
#
# Compressibility (1/GPa) = 0.08134972
#
# Stress axis : x y z
#
# Youngs Moduli (GPa) = 16.04539 23.43421 44.32613
#
# Poissons Ratio (x) = 0.68974 -0.00268
# Poissons Ratio (y) = 0.47227 -0.27791
# Poissons Ratio (z) = -0.00097 -0.14693
#
# Static dielectric constant tensor:
#      x y z
#    x 1.833080 0.000000 -0.082410 
#    y 0.000000 1.732900 0.000000 
#    z -0.082410 0.000000 1.812880 
# 
# From -- ./inp_files/244832.got.cif
#   From: 2010.05.17/outbox.ucp.g08.bks.cvg/sg12_123_cif.got.tgz:244832.got - 2010.06.11 11:47:21.
