data_PCOD9225439
_publ_section_title
;
Structure prediction by ZEFSAII (Michael W. Deem and Ramdas Pophale) SiO2 
 PCOD9225439
Probable space group: C 2/M
;
_chemical_formula_sum "Si O2"
_cell_formula_units_Z 28
_cell_length_a 27.000000
_cell_length_b 9.000000
_cell_length_c 12.000000
_cell_angle_alpha 90.000000
_cell_angle_beta 70.000000
_cell_angle_gamma 90.000000
_cell_volume 2740.143682
_symmetry_space_group_name_H-M "C 2/M"
_symmetry_group_IT_number 12
_symmetry_cell_setting 'monoclinic'
loop_
_space_group_symop_operation_xyz
x,y,z
-x,y,-z
-x,-y,-z
x,-y,z
1/2+x,1/2+y,z
1/2-x,1/2+y,-z
1/2-x,1/2-y,-z
1/2+x,1/2-y,z
loop_
_atom_site_type_symbol
_atom_site_label
_atom_site_fract_x
_atom_site_fract_y
_atom_site_fract_z
Si Si1 0.913261 0.824931 0.858526
Si Si2 0.301148 0.322752 0.011559
Si Si3 0.937065 0.330995 0.064203
Si Si4 0.850933 0.822443 0.580635
Si Si5 0.368957 0.829078 0.334345
Si Si6 0.451477 0.821954 0.619263
Si Si7 0.268624 0.828263 0.258550
O O1 0.952196 0.738281 0.745687
O O2 0.918753 0.000000 0.833808
O O3 0.851638 0.780388 0.897543
O O4 0.921698 0.785196 0.981228
O O5 0.299280 0.500000 0.013038
O O6 0.297949 0.264738 0.140343
O O7 0.250000 0.250000 0.000000
O O8 0.916656 0.500000 0.055998
O O9 0.911948 0.292871 0.204251
O O10 0.000000 0.338222 0.000000
O O11 0.865695 0.776325 0.443179
O O12 0.896401 0.743812 0.617115
O O13 0.790533 0.778900 0.660695
O O14 0.854258 0.000000 0.591973
O O15 0.310391 0.826638 0.326781
O O16 0.380546 0.000000 0.361057
O O17 0.500000 0.776872 0.500000
O O18 0.450416 0.000000 0.621473
O O19 0.263780 0.000000 0.223565
#
# Coordination Sequence:
#
# PCOD9225439 Si02
#       7
#     8   8   8   8   8   8   8
#     4  11  24  42  64  94 127 158 200 255 313 365
#     4  11  23  37  59  90 124 161 202 249 302 364
#     4  10  22  40  65  94 124 163 208 252 302 366
#     4  11  24  40  62  93 128 162 204 258 311 363
#     4  10  21  39  63  91 127 167 206 250 301 364
#     4  11  26  46  67  89 118 162 212 254 302 369
#     4  10  21  39  61  89 124 164 206 248 302 364
#
# _framework density 10.218442
#
# number of rings (size 3 to 8) (size 9 to 14) (size 15 to 20)
#    0.000    1.429    1.429    3.000    2.000    8.857 
#    0.000    0.000    0.000    0.000    0.000    0.000 
#    0.000    0.000    0.000    0.000    0.000    0.000 
#
# Total GULP energy -156297.230141 kJ/mol
# GULP energy per Si atom -5582.043934 kJ/mol
# Density = 1.019518 g / cm^3
# Si number density = 10.218442 Si / 1000 Ang^3
#
#
#
# Elastic Constant Matrix: (Units=GPa)
#
#
# Indices 1 2 3 4 5 6 
#
# 1 55.1637 14.9301 20.4234 0.0000 -26.7088 0.0000
# 2 14.9301 45.6297 35.8392 0.0000 -12.2389 0.0000
# 3 20.4234 35.8392 129.0391 0.0000 -33.8943 0.0000
# 4 0.0000 0.0000 0.0000 37.9781 0.0000 2.2964
# 5 -26.7088 -12.2389 -33.8943 0.0000 40.3097 0.0000
# 6 0.0000 0.0000 0.0000 2.2964 0.0000 22.3836
#
#
#
# Elastic Compliance Matrix: (Units=1/GPa)
#
#
# Indices 1 2 3 4 5 6 
#
# 1 0.027851 -0.005769 0.002030 0.000000 0.018409 0.000000
# 2 -0.005769 0.029427 -0.007594 0.000000 -0.001274 0.000000
# 3 0.002030 -0.007594 0.011917 0.000000 0.009060 0.000000
# 4 0.000000 0.000000 0.000000 0.026495 0.000000 -0.002718
# 5 0.018409 -0.001274 0.009060 0.000000 0.044236 0.000000
# 6 0.000000 0.000000 0.000000 -0.002718 0.000000 0.044954
#
#
# Mechanical properties :
#
#
# Convention : Reuss Voigt Hill
#
# Bulk Modulus (GPa) = 21.49312 41.35754 31.42533
# Shear Modulus (GPa) = 22.41571 30.71027 26.56299
#
# Velocity S-wave (km/s) = 3.31543 3.88066 3.60913
# Velocity P-wave (km/s) = 5.01954 6.35295 5.72520
#
# Compressibility (1/GPa) = 0.04652652
#
# Stress axis : x y z
#
# Youngs Moduli (GPa) = 35.90544 33.98296 83.91180
#
# Poissons Ratio (x) = 0.19606 -0.17032
# Poissons Ratio (y) = 0.20715 0.63726
# Poissons Ratio (z) = -0.07288 0.25808
#
# Static dielectric constant tensor:
#      x y z
#    x 1.819240 0.000000 0.089050 
#    y 0.000000 1.726410 0.000000 
#    z 0.089050 0.000000 1.818900 
# 
# From -- ./inp_files/180674.got.cif
#   From: 2010.05.17/outbox.ucp.g08.bks.cvg/sg12_91_cif.got.tgz:180674.got - 2010.06.11 11:47:21.
