data_PCOD9225540
_publ_section_title
;
Structure prediction by ZEFSAII (Michael W. Deem and Ramdas Pophale) SiO2 
 PCOD9225540
Probable space group: C 2/M
;
_chemical_formula_sum "Si O2"
_cell_formula_units_Z 32
_cell_length_a 30.000000
_cell_length_b 9.000000
_cell_length_c 15.000000
_cell_angle_alpha 90.000000
_cell_angle_beta 50.000000
_cell_angle_gamma 90.000000
_cell_volume 3102.479995
_symmetry_space_group_name_H-M "C 2/M"
_symmetry_group_IT_number 12
_symmetry_cell_setting 'monoclinic'
loop_
_space_group_symop_operation_xyz
x,y,z
-x,y,-z
-x,-y,-z
x,-y,z
1/2+x,1/2+y,z
1/2-x,1/2+y,-z
1/2-x,1/2-y,-z
1/2+x,1/2-y,z
loop_
_atom_site_type_symbol
_atom_site_label
_atom_site_fract_x
_atom_site_fract_y
_atom_site_fract_z
Si Si1 0.385989 0.175609 0.574941
Si Si2 0.360140 0.179277 0.083644
Si Si3 0.296883 0.672765 0.004273
Si Si4 0.017554 0.820834 0.079047
Si Si5 0.591369 0.329050 0.266531
Si Si6 0.471336 0.322027 0.323272
Si Si7 0.672703 0.823515 0.679710
Si Si8 0.703790 0.821562 0.451021
O O1 0.396494 0.239018 0.659218
O O2 0.427828 0.243944 0.446494
O O3 0.323349 0.205568 0.610839
O O4 0.394442 0.000000 0.566705
O O5 0.356694 0.233515 0.191652
O O6 0.356654 0.000000 0.085006
O O7 0.311887 0.247207 0.078777
O O8 0.422888 0.238398 0.973580
O O9 0.281362 0.500000 0.040502
O O10 0.355423 0.678173 0.870146
O O11 0.250000 0.750000 0.000000
O O12 0.972899 0.781253 0.216155
O O13 0.026146 0.000000 0.071815
O O14 0.000000 0.782658 0.000000
O O15 0.583480 0.500000 0.305078
O O16 0.534151 0.285854 0.285569
O O17 0.462595 0.500000 0.338686
O O18 0.662644 0.780025 0.589078
O O19 0.739245 0.775769 0.610014
O O20 0.664703 0.000000 0.692204
O O21 0.715697 0.000000 0.443316
#
# Coordination Sequence:
#
# PCOD9225540 Si02
#       8
#     8   8   8   8   8   8   8   8
#     4  11  24  37  58  90 119 148 193 248 297 348
#     4  11  23  39  63  94 125 161 201 247 307 367
#     4  11  24  43  65  91 125 162 204 252 303 361
#     4  10  22  41  64  91 123 161 208 254 300 361
#     4  10  22  42  63  82 115 157 196 241 295 356
#     4  10  21  41  62  84 115 156 197 239 297 357
#     4   9  20  38  59  82 116 155 195 237 288 353
#     4   9  20  39  57  82 117 153 192 241 293 344
#
# _framework density 10.314329000000001
#
# number of rings (size 3 to 8) (size 9 to 14) (size 15 to 20)
#    0.000    1.875    1.250    1.500    3.500    5.750 
#    0.000    0.000    0.000    0.000    0.000    0.000 
#    0.000    0.000    0.000    0.000    0.000    0.000 
#
# Total GULP energy -178497.010454 kJ/mol
# GULP energy per Si atom -5578.031577 kJ/mol
# Density = 1.029085 g / cm^3
# Si number density = 10.314329 Si / 1000 Ang^3
#
#
#
# Elastic Constant Matrix: (Units=GPa)
#
#
# Indices 1 2 3 4 5 6 
#
# 1 62.2505 18.6710 0.3072 0.0000 25.1893 0.0000
# 2 18.6710 3.3345 4.6646 0.0001 17.3044 0.0000
# 3 0.3072 4.6646 65.6538 0.0000 24.8764 0.0000
# 4 0.0000 0.0001 0.0000 26.0211 0.0000 2.9562
# 5 25.1893 17.3044 24.8764 0.0000 40.6287 0.0000
# 6 0.0000 0.0000 0.0000 2.9562 0.0000 25.6970
#
#
#
# Elastic Compliance Matrix: (Units=1/GPa)
#
#
# Indices 1 2 3 4 5 6 
#
# 1 0.019948 0.025980 0.009036 0.000000 -0.028965 0.000000
# 2 0.025980 -0.177436 -0.013081 0.000001 0.067475 0.000000
# 3 0.009036 -0.013081 0.021003 0.000000 -0.012890 0.000000
# 4 0.000000 0.000001 0.000000 0.038939 0.000000 -0.004480
# 5 -0.028965 0.067475 -0.012890 0.000000 0.021725 0.000000
# 6 0.000000 0.000000 0.000000 -0.004480 0.000000 0.039430
#
#
# Mechanical properties :
#
#
# Convention : Reuss Voigt Hill
#
# Bulk Modulus (GPa) = -10.79729 19.83606 4.51938
# Shear Modulus (GPa) = -44.99173 25.64243 -9.67465
#
# Velocity S-wave (km/s) = -4.67522 3.52951 -2.16797
# Velocity P-wave (km/s) = 5.86422 5.12315 2.01772
#
# Compressibility (1/GPa) = -0.09261580
#
# Stress axis : x y z
#
# Youngs Moduli (GPa) = 50.13078 -5.63585 47.61302
#
# Poissons Ratio (x) = 0.14642 -0.43022
# Poissons Ratio (y) = -1.30240 0.62284
# Poissons Ratio (z) = -0.45297 -0.07372
#
# Static dielectric constant tensor:
#      x y z
#    x 1.800920 0.000000 0.003540 
#    y 0.000000 1.699910 0.000000 
#    z 0.003540 0.000000 1.798360 
# 
# From -- ./inp_files/249716.got.cif
#   From: 2010.05.17/outbox.ucp.g08.bks.cvg/sg12_125_cif.got.tgz:249716.got - 2010.06.11 11:47:21.
