data_PCOD9225082
_publ_section_title
;
Structure prediction by ZEFSAII (Michael W. Deem and Ramdas Pophale) SiO2 
 PCOD9225082
Probable space group: C 2/M
;
_chemical_formula_sum "Si O2"
_cell_formula_units_Z 32
_cell_length_a 21.000000
_cell_length_b 9.000000
_cell_length_c 24.000000
_cell_angle_alpha 90.000000
_cell_angle_beta 130.000000
_cell_angle_gamma 90.000000
_cell_volume 3474.777594
_symmetry_space_group_name_H-M "C 2/M"
_symmetry_group_IT_number 12
_symmetry_cell_setting 'monoclinic'
loop_
_space_group_symop_operation_xyz
x,y,z
-x,y,-z
-x,-y,-z
x,-y,z
1/2+x,1/2+y,z
1/2-x,1/2+y,-z
1/2-x,1/2-y,-z
1/2+x,1/2-y,z
loop_
_atom_site_type_symbol
_atom_site_label
_atom_site_fract_x
_atom_site_fract_y
_atom_site_fract_z
Si Si1 0.249892 0.180920 0.311740
Si Si2 0.724456 0.173720 0.544926
Si Si3 0.067570 0.179839 0.899785
Si Si4 0.895384 0.320318 0.845597
Si Si5 0.642489 0.822495 0.827831
Si Si6 0.109944 0.823938 0.689378
Si Si7 0.658605 0.325311 0.068046
Si Si8 0.973243 0.328946 0.549185
O O1 0.244713 0.223598 0.375092
O O2 0.174583 0.248876 0.233696
O O3 0.329069 0.244510 0.321650
O O4 0.251810 0.000000 0.310520
O O5 0.750000 0.250000 0.500000
O O6 0.624964 0.182892 0.496912
O O7 0.748002 0.000000 0.553125
O O8 0.104829 0.247990 0.863069
O O9 0.122848 0.208691 0.986457
O O10 0.980932 0.256270 0.868516
O O11 0.059482 0.000000 0.889026
O O12 0.893504 0.500000 0.843136
O O13 0.121763 0.265619 0.100068
O O14 0.614657 0.746845 0.753888
O O15 0.623784 0.000000 0.817438
O O16 0.742431 0.805107 0.881535
O O17 0.019687 0.787543 0.614102
O O18 0.127849 0.000000 0.701835
O O19 0.641361 0.500000 0.069914
O O20 0.998073 0.500000 0.577039
O O21 0.000000 0.305362 0.500000
#
# Coordination Sequence:
#
# PCOD9225082 Si02
#       8
#     8   8   8   8   8   8   8   8
#     4  11  22  42  66  89 122 167 209 254 310 371
#     4  10  23  41  65  93 124 162 201 249 308 367
#     4  11  24  42  63  91 128 166 209 263 317 373
#     4  12  25  40  63  95 127 166 213 260 311 375
#     4  11  23  41  65  92 125 167 209 258 318 376
#     4  12  24  38  62  97 127 160 207 262 312 367
#     4  10  22  41  66  92 123 167 211 257 316 376
#     4  10  20  40  65  89 121 164 208 250 302 366
#
# _framework density 9.2092220000000005
#
# number of rings (size 3 to 8) (size 9 to 14) (size 15 to 20)
#    0.000    1.125    2.500    4.125    0.000    5.750 
#    0.000    2.500    0.000    0.000    0.000    0.000 
#    0.000    0.000    0.000    0.000    0.000    0.000 
#
# Total GULP energy -178629.400921 kJ/mol
# GULP energy per Si atom -5582.168779 kJ/mol
# Density = 0.918826 g / cm^3
# Si number density = 9.209222 Si / 1000 Ang^3
#
#
#
# Elastic Constant Matrix: (Units=GPa)
#
#
# Indices 1 2 3 4 5 6 
#
# 1 134.4273 60.1763 45.5323 0.0000 -40.3426 0.0000
# 2 60.1763 128.5167 54.2887 0.0000 -23.2722 0.0000
# 3 45.5323 54.2887 109.8899 0.0000 -30.1578 0.0000
# 4 0.0000 0.0000 0.0000 29.1779 0.0000 -11.4861
# 5 -40.3426 -23.2722 -30.1578 0.0000 44.2839 0.0000
# 6 0.0000 0.0000 0.0000 -11.4861 0.0000 38.6414
#
#
#
# Elastic Compliance Matrix: (Units=1/GPa)
#
#
# Indices 1 2 3 4 5 6 
#
# 1 0.011868 -0.003713 -0.000801 0.000000 0.008315 0.000000
# 2 -0.003713 0.011187 -0.004062 0.000000 -0.000270 0.000000
# 3 -0.000801 -0.004062 0.013101 0.000000 0.006057 0.000000
# 4 0.000000 0.000000 0.000000 0.038814 0.000000 0.011537
# 5 0.008315 -0.000270 0.006057 0.000000 0.034139 0.000000
# 6 0.000000 0.000000 0.000000 0.011537 0.000000 0.029309
#
#
# Mechanical properties :
#
#
# Convention : Reuss Voigt Hill
#
# Bulk Modulus (GPa) = 52.62315 76.98095 64.80205
# Shear Modulus (GPa) = 30.88236 36.60975 33.74606
#
# Velocity S-wave (km/s) = 4.09921 4.46316 4.28505
# Velocity P-wave (km/s) = 7.14406 8.27321 7.72928
#
# Compressibility (1/GPa) = 0.01900304
#
# Stress axis : x y z
#
# Youngs Moduli (GPa) = 84.26259 89.39218 76.32871
#
# Poissons Ratio (x) = 0.33189 0.06116
# Poissons Ratio (y) = 0.31285 0.31007
# Poissons Ratio (z) = 0.06751 0.36313
#
# Static dielectric constant tensor:
#      x y z
#    x 1.612610 0.000000 0.038300 
#    y 0.000000 1.634570 0.000000 
#    z 0.038300 0.000000 1.676530 
# 
# From -- ./inp_files/346175.got.cif
#   From: 2010.05.17/outbox.ucp.g08.bks.cvg/sg12_174_cif.got.tgz:346175.got - 2010.06.11 11:47:21.
