data_PCOD9225926
_publ_section_title
;
Structure prediction by ZEFSAII (Michael W. Deem and Ramdas Pophale) SiO2 
 PCOD9225926
Probable space group: C 2/M
;
_chemical_formula_sum "Si O2"
_cell_formula_units_Z 28
_cell_length_a 21.000000
_cell_length_b 18.000000
_cell_length_c 21.000000
_cell_angle_alpha 90.000000
_cell_angle_beta 160.000000
_cell_angle_gamma 90.000000
_cell_volume 2714.955898
_symmetry_space_group_name_H-M "C 2/M"
_symmetry_group_IT_number 12
_symmetry_cell_setting 'monoclinic'
loop_
_space_group_symop_operation_xyz
x,y,z
-x,y,-z
-x,-y,-z
x,-y,z
1/2+x,1/2+y,z
1/2-x,1/2+y,-z
1/2-x,1/2-y,-z
1/2+x,1/2-y,z
loop_
_atom_site_type_symbol
_atom_site_label
_atom_site_fract_x
_atom_site_fract_y
_atom_site_fract_z
Si Si1 0.737886 0.798934 0.619380
Si Si2 0.216217 0.356163 0.141559
Si Si3 0.712944 0.586035 0.224047
Si Si4 0.965851 0.084558 0.640633
Si Si5 0.777090 0.643191 0.706967
Si Si6 0.669317 0.184893 0.781685
Si Si7 0.095527 0.190083 0.878644
O O1 0.775272 0.870939 0.697861
O O2 0.717795 0.729396 0.647529
O O3 0.546315 0.808551 0.401592
O O4 0.910559 0.777129 0.737303
O O5 0.339792 0.407351 0.213378
O O6 0.269196 0.379002 0.263713
O O7 0.263013 0.268486 0.173147
O O8 0.000707 0.364359 0.920105
O O9 0.771167 0.500000 0.283288
O O10 0.820655 0.632532 0.270921
O O11 0.500000 0.588034 0.000000
O O12 0.816598 0.108391 0.444767
O O13 0.008754 0.137689 0.741897
O O14 0.926145 0.000000 0.623099
O O15 0.794712 0.154380 0.957605
O O16 0.250000 0.250000 0.000000
#
# Coordination Sequence:
#
# PCOD9225926 Si02
#       7
#     8   8   8   8   8   8   8
#     4  12  23  39  72 101 138 178 233 281 346 409
#     4  11  22  42  71 101 134 173 224 286 343 405
#     4  11  23  41  67 103 147 181 220 288 360 422
#     4  12  28  46  66  98 138 180 229 283 338 401
#     4  11  22  41  72 101 131 174 226 282 344 406
#     4  12  23  41  70 105 133 177 233 284 341 411
#     4  12  25  46  68  98 136 186 238 281 331 406
#
# _framework density 10.313243
#
# number of rings (size 3 to 8) (size 9 to 14) (size 15 to 20)
#    0.000    0.429    7.143    0.857    0.000    7.429 
#    0.000    1.429    0.000    0.000    0.000    0.000 
#    0.000    0.000    0.000    0.000    0.000    0.000 
#
# Total GULP energy -156293.876724 kJ/mol
# GULP energy per Si atom -5581.924169 kJ/mol
# Density = 1.028977 g / cm^3
# Si number density = 10.313243 Si / 1000 Ang^3
#
#
#
# Elastic Constant Matrix: (Units=GPa)
#
#
# Indices 1 2 3 4 5 6 
#
# 1 84.1643 11.9848 22.3847 -0.0035 -13.8137 0.0008
# 2 11.9848 75.7238 0.2582 -0.0326 -9.6052 -0.0038
# 3 22.3847 0.2582 120.5977 -0.0073 -15.4447 -0.0063
# 4 -0.0035 -0.0326 -0.0073 22.9429 -0.0005 -6.3492
# 5 -13.8137 -9.6052 -15.4447 -0.0005 45.2353 -0.0002
# 6 0.0008 -0.0038 -0.0063 -6.3492 -0.0002 22.9832
#
#
#
# Elastic Compliance Matrix: (Units=1/GPa)
#
#
# Indices 1 2 3 4 5 6 
#
# 1 0.013156 -0.001701 -0.002060 -0.000001 0.002953 -0.000002
# 2 -0.001701 0.013806 0.000622 0.000022 0.002625 0.000009
# 3 -0.002060 0.000622 0.009003 0.000005 0.002577 0.000004
# 4 -0.000001 0.000022 0.000005 0.047195 0.000006 0.013038
# 5 0.002953 0.002625 0.002577 0.000006 0.024446 0.000003
# 6 -0.000002 0.000009 0.000004 0.013038 0.000003 0.047112
#
#
# Mechanical properties :
#
#
# Convention : Reuss Voigt Hill
#
# Bulk Modulus (GPa) = 33.68346 38.86014 36.27180
# Shear Modulus (GPa) = 29.25852 34.62281 31.94067
#
# Velocity S-wave (km/s) = 3.77037 4.10147 3.93940
# Velocity P-wave (km/s) = 5.94306 6.42730 6.18992
#
# Compressibility (1/GPa) = 0.02968816
#
# Stress axis : x y z
#
# Youngs Moduli (GPa) = 76.00917 72.43296 111.07260
#
# Poissons Ratio (x) = 0.12318 0.22883
# Poissons Ratio (y) = 0.12926 -0.06911
# Poissons Ratio (z) = 0.15659 -0.04507
#
# Static dielectric constant tensor:
#      x y z
#    x 1.779390 -0.000010 0.017490 
#    y -0.000010 1.749710 0.000000 
#    z 0.017490 0.000000 1.757580 
# 
# From -- ./inp_files/322709.got.cif
#   From: 2010.05.17/outbox.ucp.g08.bks.cvg/sg12_162_cif.got.tgz:322709.got - 2010.06.11 11:47:21.
