data_PCOD9225834
_publ_section_title
;
Structure prediction by ZEFSAII (Michael W. Deem and Ramdas Pophale) SiO2 
 PCOD9225834
Probable space group: C 2/M
;
_chemical_formula_sum "Si O2"
_cell_formula_units_Z 22
_cell_length_a 12.000000
_cell_length_b 18.000000
_cell_length_c 12.000000
_cell_angle_alpha 90.000000
_cell_angle_beta 110.000000
_cell_angle_gamma 90.000000
_cell_volume 2435.683273
_symmetry_space_group_name_H-M "C 2/M"
_symmetry_group_IT_number 12
_symmetry_cell_setting 'monoclinic'
loop_
_space_group_symop_operation_xyz
x,y,z
-x,y,-z
-x,-y,-z
x,-y,z
1/2+x,1/2+y,z
1/2-x,1/2+y,-z
1/2-x,1/2-y,-z
1/2+x,1/2-y,z
loop_
_atom_site_type_symbol
_atom_site_label
_atom_site_fract_x
_atom_site_fract_y
_atom_site_fract_z
Si Si1 0.490605 0.500000 0.192947
Si Si2 0.244772 0.000000 0.407272
Si Si3 0.726321 0.000000 0.142433
Si Si4 0.245789 0.791328 0.147255
Si Si5 0.407790 0.000000 0.671129
Si Si6 0.082644 0.375798 0.630519
Si Si7 0.500000 0.621271 0.000000
Si Si8 0.640367 0.845971 0.036357
O O1 0.609515 0.500000 0.312096
O O2 0.366436 0.500000 0.216943
O O3 0.485767 0.569631 0.105033
O O4 0.316494 0.069730 0.383033
O O5 0.289872 0.000000 0.551638
O O6 0.640683 0.000000 0.220498
O O7 0.694620 0.927397 0.060730
O O8 0.335223 0.818472 0.274144
O O9 0.204436 0.706565 0.148855
O O10 0.326716 0.806052 0.067070
O O11 0.120361 0.833087 0.073097
O O12 0.492218 0.928515 0.671755
O O13 0.000000 0.347399 0.500000
O O14 0.500000 0.849183 0.000000
#
# Coordination Sequence:
#
# PCOD9225834 Si02
#       8
#     4   4   4   8   4   8   4   8
#     4  11  21  32  58  87 113 149 193 230 278 345
#     4   9  17  33  58  86 109 148 191 240 275 322
#     4  12  23  38  53  82 118 155 186 219 289 353
#     4  11  21  38  61  84 112 148 187 237 287 329
#     4   9  20  35  57  84 116 151 189 229 280 336
#     4   9  18  35  62  87 108 142 195 244 276 318
#     4  11  20  36  58  87 114 142 192 243 280 326
#     4  11  24  37  56  84 117 149 183 228 289 345
#
# _framework density 9.0323729999999998
#
# number of rings (size 3 to 8) (size 9 to 14) (size 15 to 20)
#    0.000    1.636    4.545    2.455    0.000    1.818 
#    0.000    0.000    4.000    3.273    0.000    0.000 
#    0.000    0.000    0.000    0.000    0.000    0.000 
#
# Total GULP energy -122475.880770 kJ/mol
# GULP energy per Si atom -5567.085490 kJ/mol
# Density = 0.901181 g / cm^3
# Si number density = 9.032373 Si / 1000 Ang^3
#
#
#
# Elastic Constant Matrix: (Units=GPa)
#
#
# Indices 1 2 3 4 5 6 
#
# 1 110.9309 17.6785 17.8758 0.0000 33.6571 0.0000
# 2 17.6785 95.4103 27.7011 0.0000 26.3656 0.0000
# 3 17.8758 27.7011 74.5003 0.0000 40.0934 0.0000
# 4 0.0000 0.0000 0.0000 -10.0221 0.0000 -15.0572
# 5 33.6571 26.3656 40.0934 0.0000 46.3946 0.0000
# 6 0.0000 0.0000 0.0000 -15.0572 0.0000 0.3987
#
#
#
# Elastic Compliance Matrix: (Units=1/GPa)
#
#
# Indices 1 2 3 4 5 6 
#
# 1 0.011996 0.000010 0.003373 0.000000 -0.011623 0.000000
# 2 0.000010 0.012528 -0.001543 0.000000 -0.005794 0.000000
# 3 0.003373 -0.001543 0.026232 0.000000 -0.024239 0.000000
# 4 0.000000 0.000000 0.000000 -0.001728 0.000000 -0.065263
# 5 -0.011623 -0.005794 -0.024239 0.000000 0.054226 0.000000
# 6 0.000000 0.000000 0.000000 -0.065263 0.000000 0.043439
#
#
# Mechanical properties :
#
#
# Convention : Reuss Voigt Hill
#
# Bulk Modulus (GPa) = 18.37007 45.26136 31.81572
# Shear Modulus (GPa) = 31.02542 21.85997 26.44270
#
# Velocity S-wave (km/s) = 4.14872 3.48241 3.83008
# Velocity P-wave (km/s) = 5.75676 6.42488 6.09997
#
# Compressibility (1/GPa) = 0.05443639
#
# Stress axis : x y z
#
# Youngs Moduli (GPa) = 83.36098 79.82040 38.12170
#
# Poissons Ratio (x) = -0.00079 -0.12859
# Poissons Ratio (y) = -0.00082 0.05881
# Poissons Ratio (z) = -0.28119 0.12314
#
# Static dielectric constant tensor:
#      x y z
#    x 1.611020 0.000000 -0.020050 
#    y 0.000000 1.704360 0.000000 
#    z -0.020050 0.000000 1.663830 
# 
# From -- ./inp_files/131344.got.cif
#   From: 2010.05.17/outbox.ucp.g08.bks.cvg/sg12_66_cif.got.tgz:131344.got - 2010.06.11 11:47:21.
