data_PCOD9225356
_publ_section_title
;
Structure prediction by ZEFSAII (Michael W. Deem and Ramdas Pophale) SiO2 
 PCOD9225356
Probable space group: C 2/M
;
_chemical_formula_sum "Si O2"
_cell_formula_units_Z 28
_cell_length_a 18.000000
_cell_length_b 12.000000
_cell_length_c 15.000000
_cell_angle_alpha 90.000000
_cell_angle_beta 120.000000
_cell_angle_gamma 90.000000
_cell_volume 2805.922308
_symmetry_space_group_name_H-M "C 2/M"
_symmetry_group_IT_number 12
_symmetry_cell_setting 'monoclinic'
loop_
_space_group_symop_operation_xyz
x,y,z
-x,y,-z
-x,-y,-z
x,-y,z
1/2+x,1/2+y,z
1/2-x,1/2+y,-z
1/2-x,1/2-y,-z
1/2+x,1/2-y,z
loop_
_atom_site_type_symbol
_atom_site_label
_atom_site_fract_x
_atom_site_fract_y
_atom_site_fract_z
Si Si1 0.279701 0.876774 0.831757
Si Si2 0.516837 0.626386 0.904125
Si Si3 0.628778 0.755571 0.273590
Si Si4 0.291726 0.874727 0.402126
Si Si5 0.658703 0.810419 0.948218
Si Si6 0.043688 0.632047 0.385708
Si Si7 0.643721 0.186391 0.744891
O O1 0.339224 0.821671 0.793216
O O2 0.194312 0.802023 0.787045
O O3 0.255415 0.000000 0.790435
O O4 0.332271 0.878422 0.955636
O O5 0.545227 0.500000 0.902989
O O6 0.431439 0.656594 0.798283
O O7 0.586376 0.717170 0.917701
O O8 0.500000 0.635722 0.000000
O O9 0.712176 0.705272 0.371710
O O10 0.578372 0.835967 0.309438
O O11 0.380612 0.838442 0.500557
O O12 0.306276 0.874837 0.304167
O O13 0.273940 0.000000 0.422961
O O14 0.644963 0.867220 0.844209
O O15 0.750000 0.750000 0.000000
O O16 0.026421 0.500000 0.384618
O O17 0.954315 0.694917 0.343996
#
# Coordination Sequence:
#
# PCOD9225356 Si02
#       7
#     8   8   8   8   8   8   8
#     4  10  22  39  59  83 121 160 191 234 291 354
#     4  11  22  39  63  89 122 157 194 243 289 342
#     4  11  21  40  60  88 121 155 195 237 295 353
#     4  10  22  39  61  87 115 155 200 247 295 342
#     4  10  21  39  56  87 121 154 194 234 287 353
#     4  11  22  38  61  88 117 151 198 250 299 343
#     4  10  21  38  60  84 119 151 201 243 291 344
#
# _framework density 9.9788940000000004
#
# number of rings (size 3 to 8) (size 9 to 14) (size 15 to 20)
#    0.000    1.571    2.857    2.143    0.000    4.571 
#    0.000    2.857    0.000    8.571    0.000    0.000 
#    0.000    0.000    0.000    0.000    0.000    0.000 
#
# Total GULP energy -156174.207535 kJ/mol
# GULP energy per Si atom -5577.650269 kJ/mol
# Density = 0.995618 g / cm^3
# Si number density = 9.978894 Si / 1000 Ang^3
#
#
#
# Elastic Constant Matrix: (Units=GPa)
#
#
# Indices 1 2 3 4 5 6 
#
# 1 77.0407 24.2051 7.1476 0.0000 6.3318 0.0000
# 2 24.2051 66.5816 10.0480 0.0000 10.8734 0.0000
# 3 7.1476 10.0480 67.9604 0.0000 10.0145 0.0000
# 4 0.0000 0.0000 0.0000 14.4395 0.0000 4.7712
# 5 6.3318 10.8734 10.0145 0.0000 32.4245 0.0000
# 6 0.0000 0.0000 0.0000 4.7712 0.0000 1.0384
#
#
#
# Elastic Compliance Matrix: (Units=1/GPa)
#
#
# Indices 1 2 3 4 5 6 
#
# 1 0.014721 -0.005096 -0.000653 0.000000 -0.000964 0.000000
# 2 -0.005096 0.017829 -0.001431 0.000000 -0.004542 0.000000
# 3 -0.000653 -0.001431 0.015616 0.000000 -0.004216 0.000000
# 4 0.000000 0.000000 0.000000 -0.133613 0.000000 0.613950
# 5 -0.000964 -0.004542 -0.004216 0.000000 0.033854 0.000000
# 6 0.000000 0.000000 0.000000 0.613950 0.000000 -1.858033
#
#
# Mechanical properties :
#
#
# Convention : Reuss Voigt Hill
#
# Bulk Modulus (GPa) = 29.57916 32.70934 31.14425
# Shear Modulus (GPa) = -2.65393 20.92594 9.13600
#
# Velocity S-wave (km/s) = -1.15441 3.24158 2.14187
# Velocity P-wave (km/s) = 3.61610 5.51682 4.66430
#
# Compressibility (1/GPa) = 0.03380759
#
# Stress axis : x y z
#
# Youngs Moduli (GPa) = 67.93030 56.08728 64.03738
#
# Poissons Ratio (x) = 0.28580 0.04180
# Poissons Ratio (y) = 0.34615 0.09163
# Poissons Ratio (z) = 0.04434 0.08025
#
# Static dielectric constant tensor:
#      x y z
#    x 1.597450 0.000000 -0.114730 
#    y 0.000000 1.715080 0.000000 
#    z -0.114730 0.000000 1.659460 
# 
# From -- ./inp_files/223747.got.cif
#   From: 2010.05.17/outbox.ucp.g08.bks.cvg/sg12_112_cif.got.tgz:223747.got - 2010.06.11 11:47:21.
