data_PCOD9225909
_publ_section_title
;
Structure prediction by ZEFSAII (Michael W. Deem and Ramdas Pophale) SiO2 
 PCOD9225909
Probable space group: C 2/M
;
_chemical_formula_sum "Si O2"
_cell_formula_units_Z 28
_cell_length_a 15.000000
_cell_length_b 9.000000
_cell_length_c 24.000000
_cell_angle_alpha 90.000000
_cell_angle_beta 120.000000
_cell_angle_gamma 90.000000
_cell_volume 2805.922308
_symmetry_space_group_name_H-M "C 2/M"
_symmetry_group_IT_number 12
_symmetry_cell_setting 'monoclinic'
loop_
_space_group_symop_operation_xyz
x,y,z
-x,y,-z
-x,-y,-z
x,-y,z
1/2+x,1/2+y,z
1/2-x,1/2+y,-z
1/2-x,1/2-y,-z
1/2+x,1/2-y,z
loop_
_atom_site_type_symbol
_atom_site_label
_atom_site_fract_x
_atom_site_fract_y
_atom_site_fract_z
Si Si1 0.627065 0.179066 0.664195
Si Si2 0.325887 0.179259 0.883077
Si Si3 0.148178 0.175309 0.993610
Si Si4 0.100975 0.677975 0.441342
Si Si5 0.391484 0.180807 0.210502
Si Si6 0.524908 0.324163 0.156948
Si Si7 0.738881 0.179512 0.590194
O O1 0.518478 0.214551 0.601164
O O2 0.616258 0.224383 0.725929
O O3 0.712167 0.230481 0.645045
O O4 0.638349 0.000000 0.670179
O O5 0.376800 0.242254 0.955975
O O6 0.211913 0.249426 0.847858
O O7 0.380994 0.240777 0.844387
O O8 0.324157 0.000000 0.883225
O O9 0.163886 0.000000 0.010276
O O10 0.250000 0.250000 0.000000
O O11 0.063127 0.186449 0.918463
O O12 0.111882 0.500000 0.439134
O O13 0.161530 0.752741 0.408927
O O14 0.149919 0.717934 0.516633
O O15 0.483539 0.248920 0.201159
O O16 0.393324 0.000000 0.207402
O O17 0.547377 0.500000 0.172986
O O18 0.746912 0.000000 0.593892
#
# Coordination Sequence:
#
# PCOD9225909 Si02
#       7
#     8   8   8   8   8   8   8
#     4   9  19  35  56  81 109 148 192 229 278 339
#     4  12  25  41  62  88 118 154 196 240 290 348
#     4  11  22  38  64  92 121 151 188 239 293 347
#     4   9  17  32  55  82 112 144 183 231 281 335
#     4  11  23  40  60  83 116 155 197 244 289 343
#     4  11  24  42  63  88 117 151 193 239 291 350
#     4   9  17  32  55  82 112 145 183 229 281 336
#
# _framework density 9.9788940000000004
#
# number of rings (size 3 to 8) (size 9 to 14) (size 15 to 20)
#    0.000    1.714    1.429    3.429    0.000    6.286 
#    0.000    6.429    0.000    3.429    0.000    0.000 
#    0.000    0.000    0.000    0.000    0.000    0.000 
#
# Total GULP energy -156314.675899 kJ/mol
# GULP energy per Si atom -5582.666996 kJ/mol
# Density = 0.995618 g / cm^3
# Si number density = 9.978894 Si / 1000 Ang^3
#
#
#
# Elastic Constant Matrix: (Units=GPa)
#
#
# Indices 1 2 3 4 5 6 
#
# 1 111.8190 29.4702 17.0815 0.0000 -43.2872 0.0000
# 2 29.4702 90.8451 10.6201 0.0000 -16.5353 0.0000
# 3 17.0815 10.6201 42.4185 0.0000 -34.7597 0.0000
# 4 0.0000 0.0000 0.0000 24.1497 0.0000 -10.1771
# 5 -43.2872 -16.5353 -34.7597 0.0000 44.2926 0.0000
# 6 0.0000 0.0000 0.0000 -10.1771 0.0000 34.7619
#
#
#
# Elastic Compliance Matrix: (Units=1/GPa)
#
#
# Indices 1 2 3 4 5 6 
#
# 1 0.020275 -0.002569 0.022218 0.000000 0.036292 0.000000
# 2 -0.002569 0.012187 -0.000969 0.000000 0.001279 0.000000
# 3 0.022218 -0.000969 0.090684 0.000000 0.092518 0.000000
# 4 0.000000 0.000000 0.000000 0.047236 0.000000 0.013829
# 5 0.036292 0.001279 0.092518 0.000000 0.131128 0.000000
# 6 0.000000 0.000000 0.000000 0.013829 0.000000 0.032816
#
#
# Mechanical properties :
#
#
# Convention : Reuss Voigt Hill
#
# Bulk Modulus (GPa) = 6.23028 39.93625 23.08327
# Shear Modulus (GPa) = 14.26661 33.16822 23.71741
#
# Velocity S-wave (km/s) = 2.67655 4.08109 3.45103
# Velocity P-wave (km/s) = 3.56095 6.50083 5.24124
#
# Compressibility (1/GPa) = 0.16050631
#
# Stress axis : x y z
#
# Youngs Moduli (GPa) = 49.32088 82.05379 11.02734
#
# Poissons Ratio (x) = 0.21079 -0.24500
# Poissons Ratio (y) = 0.12670 0.01068
# Poissons Ratio (z) = -1.09580 0.07950
#
# Static dielectric constant tensor:
#      x y z
#    x 1.723520 0.000000 0.021100 
#    y 0.000000 1.666800 0.000000 
#    z 0.021100 0.000000 1.733910 
# 
# From -- ./inp_files/339008.got.cif
#   From: 2010.05.17/outbox.ucp.g08.bks.cvg/sg12_170_cif.got.tgz:339008.got - 2010.06.11 11:47:21.
