data_PCOD9225981
_publ_section_title
;
Structure prediction by ZEFSAII (Michael W. Deem and Ramdas Pophale) SiO2 
 PCOD9225981
Probable space group: C 2/M
;
_chemical_formula_sum "Si O2"
_cell_formula_units_Z 28
_cell_length_a 12.000000
_cell_length_b 18.000000
_cell_length_c 15.000000
_cell_angle_alpha 90.000000
_cell_angle_beta 60.000000
_cell_angle_gamma 90.000000
_cell_volume 2805.922308
_symmetry_space_group_name_H-M "C 2/M"
_symmetry_group_IT_number 12
_symmetry_cell_setting 'monoclinic'
loop_
_space_group_symop_operation_xyz
x,y,z
-x,y,-z
-x,-y,-z
x,-y,z
1/2+x,1/2+y,z
1/2-x,1/2+y,-z
1/2-x,1/2-y,-z
1/2+x,1/2-y,z
loop_
_atom_site_type_symbol
_atom_site_label
_atom_site_fract_x
_atom_site_fract_y
_atom_site_fract_z
Si Si1 0.047153 0.683115 0.880329
Si Si2 0.973309 0.653112 0.616217
Si Si3 0.935430 0.912168 0.308312
Si Si4 0.341818 0.316408 0.691706
Si Si5 0.860698 0.412216 0.822417
Si Si6 0.586463 0.642440 0.885122
Si Si7 0.761804 0.164634 0.525489
O O1 0.198992 0.675685 0.792010
O O2 0.036325 0.773527 0.884359
O O3 0.959868 0.635157 0.845571
O O4 0.000000 0.661331 0.000000
O O5 0.900967 0.732123 0.664157
O O6 0.898005 0.591898 0.702452
O O7 0.000000 0.645976 0.500000
O O8 0.114490 0.645994 0.601803
O O9 0.913663 0.896141 0.212011
O O10 0.824134 0.880554 0.418873
O O11 0.060682 0.867240 0.291765
O O12 0.948799 0.000000 0.316356
O O13 0.335569 0.340467 0.589899
O O14 0.850921 0.500000 0.852311
O O15 0.727256 0.366457 0.872762
O O16 0.500000 0.610484 0.000000
O O17 0.750000 0.250000 0.500000
#
# Coordination Sequence:
#
# PCOD9225981 Si02
#       7
#     8   8   8   8   8   8   8
#     4  11  26  46  77 104 136 185 246 299 352 429
#     4  12  22  39  71  97 134 184 233 280 344 420
#     4  12  27  44  68 105 146 186 232 295 368 434
#     4  12  23  43  71 103 139 180 239 295 355 424
#     4  12  27  46  69 104 146 183 231 299 368 429
#     4  11  26  48  76 102 137 187 249 298 351 431
#     4  12  22  41  68 100 137 181 232 289 344 417
#
# _framework density 9.9788940000000004
#
# number of rings (size 3 to 8) (size 9 to 14) (size 15 to 20)
#    0.000    0.286    5.714    3.429    2.000    5.143 
#    0.000    0.000    0.000    0.000    0.000    0.000 
#    0.000    0.000    0.000    0.000    0.000    0.000 
#
# Total GULP energy -156254.263383 kJ/mol
# GULP energy per Si atom -5580.509407 kJ/mol
# Density = 0.995618 g / cm^3
# Si number density = 9.978894 Si / 1000 Ang^3
#
#
#
# Elastic Constant Matrix: (Units=GPa)
#
#
# Indices 1 2 3 4 5 6 
#
# 1 129.3234 29.6646 49.9256 0.0000 1.8341 0.0000
# 2 29.6646 97.6153 25.7468 0.0000 18.3530 0.0000
# 3 49.9256 25.7468 158.0004 0.0000 3.1826 0.0000
# 4 0.0000 0.0000 0.0000 18.4415 0.0000 6.1293
# 5 1.8341 18.3530 3.1826 0.0000 37.8336 0.0000
# 6 0.0000 0.0000 0.0000 6.1293 0.0000 17.6869
#
#
#
# Elastic Compliance Matrix: (Units=1/GPa)
#
#
# Indices 1 2 3 4 5 6 
#
# 1 0.009236 -0.002297 -0.002562 0.000000 0.000882 0.000000
# 2 -0.002297 0.012336 -0.001168 0.000000 -0.005775 0.000000
# 3 -0.002562 -0.001168 0.007327 0.000000 0.000074 0.000000
# 4 0.000000 0.000000 0.000000 0.061284 0.000000 -0.021238
# 5 0.000882 -0.005775 0.000074 0.000000 0.029184 0.000000
# 6 0.000000 0.000000 0.000000 -0.021238 0.000000 0.063899
#
#
# Mechanical properties :
#
#
# Convention : Reuss Voigt Hill
#
# Bulk Modulus (GPa) = 59.36209 66.17924 62.77067
# Shear Modulus (GPa) = 24.88361 33.43253 29.15807
#
# Velocity S-wave (km/s) = 3.53485 4.09731 3.82643
# Velocity P-wave (km/s) = 6.81679 7.45759 7.14438
#
# Compressibility (1/GPa) = 0.01684577
#
# Stress axis : x y z
#
# Youngs Moduli (GPa) = 108.27285 81.06283 136.47281
#
# Poissons Ratio (x) = 0.18619 0.34963
# Poissons Ratio (y) = 0.24869 0.15942
# Poissons Ratio (z) = 0.27738 0.09469
#
# Static dielectric constant tensor:
#      x y z
#    x 1.655610 0.000000 0.040210 
#    y 0.000000 -0.855960 0.000000 
#    z 0.040210 0.000000 1.678140 
# 
# From -- ./inp_files/206564.got.cif
#   From: 2010.05.17/outbox.ucp.g08.bks.cvg/sg12_104_cif.got.tgz:206564.got - 2010.06.11 11:47:21.
