data_PCOD9225530
_publ_section_title
;
Structure prediction by ZEFSAII (Michael W. Deem and Ramdas Pophale) SiO2 
 PCOD9225530
Probable space group: C 2/M
;
_chemical_formula_sum "Si O2"
_cell_formula_units_Z 28
_cell_length_a 18.000000
_cell_length_b 9.000000
_cell_length_c 18.000000
_cell_angle_alpha 90.000000
_cell_angle_beta 110.000000
_cell_angle_gamma 90.000000
_cell_volume 2740.143682
_symmetry_space_group_name_H-M "C 2/M"
_symmetry_group_IT_number 12
_symmetry_cell_setting 'monoclinic'
loop_
_space_group_symop_operation_xyz
x,y,z
-x,y,-z
-x,-y,-z
x,-y,z
1/2+x,1/2+y,z
1/2-x,1/2+y,-z
1/2-x,1/2-y,-z
1/2+x,1/2-y,z
loop_
_atom_site_type_symbol
_atom_site_label
_atom_site_fract_x
_atom_site_fract_y
_atom_site_fract_z
Si Si1 0.392849 0.175795 0.179082
Si Si2 0.421992 0.821477 0.020944
Si Si3 0.706157 0.676507 0.124700
Si Si4 0.021198 0.824095 0.310133
Si Si5 0.348819 0.824199 0.741704
Si Si6 0.922386 0.664960 0.521454
Si Si7 0.723040 0.325653 0.567530
O O1 0.299155 0.201462 0.143923
O O2 0.434559 0.265661 0.259067
O O3 0.406742 0.000000 0.196484
O O4 0.427882 0.215192 0.110054
O O5 0.347200 0.740156 0.959632
O O6 0.410891 0.000000 0.011908
O O7 0.500000 0.783246 0.000000
O O8 0.693522 0.500000 0.128055
O O9 0.679866 0.760189 0.190327
O O10 0.075858 0.763601 0.262459
O O11 0.056710 0.753036 0.396907
O O12 0.023367 0.000000 0.316298
O O13 0.282402 0.802410 0.655533
O O14 0.366047 0.000000 0.753577
O O15 0.892740 0.500000 0.532272
O O16 0.860465 0.748999 0.448642
O O17 0.000000 0.651096 0.500000
O O18 0.713381 0.500000 0.552599
O O19 0.750000 0.250000 0.500000
#
# Coordination Sequence:
#
# PCOD9225530 Si02
#       7
#     8   8   8   8   8   8   8
#     4  10  23  42  63  92 132 170 206 253 313 373
#     4  10  21  40  67  94 124 168 212 254 309 372
#     4  11  24  40  63  95 129 166 209 260 310 365
#     4  12  25  41  65  94 125 163 210 262 313 373
#     4  11  24  42  64  90 125 166 210 259 316 377
#     4  11  25  43  64  90 126 169 210 259 317 374
#     4  11  23  40  65  93 123 163 211 264 317 373
#
# _framework density 10.218442
#
# number of rings (size 3 to 8) (size 9 to 14) (size 15 to 20)
#    0.000    1.143    1.429    4.286    2.000    6.000 
#    0.000    0.000    0.000    0.000    0.000    0.000 
#    0.000    0.000    0.000    0.000    0.000    0.000 
#
# Total GULP energy -156587.860097 kJ/mol
# GULP energy per Si atom -5592.423575 kJ/mol
# Density = 1.019518 g / cm^3
# Si number density = 10.218442 Si / 1000 Ang^3
#
#
#
# Elastic Constant Matrix: (Units=GPa)
#
#
# Indices 1 2 3 4 5 6 
#
# 1 57.1013 36.9407 8.9310 0.0000 10.8046 0.0000
# 2 36.9407 93.5287 64.6189 0.0000 26.2892 0.0000
# 3 8.9310 64.6189 70.9803 0.0000 11.0399 0.0000
# 4 0.0000 0.0000 0.0000 35.9096 0.0000 4.5734
# 5 10.8046 26.2892 11.0399 0.0000 38.7053 0.0000
# 6 0.0000 0.0000 0.0000 4.5734 0.0000 26.9615
#
#
#
# Elastic Compliance Matrix: (Units=1/GPa)
#
#
# Indices 1 2 3 4 5 6 
#
# 1 0.031750 -0.028416 0.021191 0.000000 0.004393 0.000000
# 2 -0.028416 0.061700 -0.049507 0.000000 -0.019855 0.000000
# 3 0.021191 -0.049507 0.054605 0.000000 0.012136 0.000000
# 4 0.000000 0.000000 0.000000 0.028463 0.000000 -0.004828
# 5 0.004393 -0.019855 0.012136 0.000000 0.034634 0.000000
# 6 0.000000 0.000000 0.000000 -0.004828 0.000000 0.037909
#
#
# Mechanical properties :
#
#
# Convention : Reuss Voigt Hill
#
# Bulk Modulus (GPa) = 28.90906 49.17683 39.04295
# Shear Modulus (GPa) = 13.36699 27.72326 20.54513
#
# Velocity S-wave (km/s) = 2.56024 3.68711 3.17408
# Velocity P-wave (km/s) = 4.78707 6.49934 5.70777
#
# Compressibility (1/GPa) = 0.03459123
#
# Stress axis : x y z
#
# Youngs Moduli (GPa) = 31.49577 16.20733 18.31342
#
# Poissons Ratio (x) = 0.46055 -0.38808
# Poissons Ratio (y) = 0.89498 0.90665
# Poissons Ratio (z) = -0.66743 0.80238
#
# Static dielectric constant tensor:
#      x y z
#    x 1.814260 0.000000 0.021890 
#    y 0.000000 1.707330 0.000000 
#    z 0.021890 0.000000 1.685870 
# 
# From -- ./inp_files/275664.got.cif
#   From: 2010.05.17/outbox.ucp.g08.bks.cvg/sg12_138_cif.got.tgz:275664.got - 2010.06.11 11:47:21.
