data_PCOD9225782
_publ_section_title
;
Structure prediction by ZEFSAII (Michael W. Deem and Ramdas Pophale) SiO2 
 PCOD9225782
Probable space group: C 2/M
;
_chemical_formula_sum "Si O2"
_cell_formula_units_Z 22
_cell_length_a 24.000000
_cell_length_b 15.000000
_cell_length_c 18.000000
_cell_angle_alpha 90.000000
_cell_angle_beta 160.000000
_cell_angle_gamma 90.000000
_cell_volume 2216.290529
_symmetry_space_group_name_H-M "C 2/M"
_symmetry_group_IT_number 12
_symmetry_cell_setting 'monoclinic'
loop_
_space_group_symop_operation_xyz
x,y,z
-x,y,-z
-x,-y,-z
x,-y,z
1/2+x,1/2+y,z
1/2-x,1/2+y,-z
1/2-x,1/2-y,-z
1/2+x,1/2-y,z
loop_
_atom_site_type_symbol
_atom_site_label
_atom_site_fract_x
_atom_site_fract_y
_atom_site_fract_z
Si Si1 0.816137 0.248018 0.284526
Si Si2 0.737239 0.392794 0.476180
Si Si3 0.041063 0.398408 0.964507
Si Si4 0.893568 0.831274 0.112062
Si Si5 0.935304 0.329507 0.587203
Si Si6 0.818278 0.500000 0.109089
O O1 0.847419 0.304983 0.399148
O O2 0.000000 0.214845 0.500000
O O3 0.689082 0.168306 0.136609
O O4 0.737514 0.301937 0.116245
O O5 0.729252 0.500000 0.456948
O O6 0.562956 0.357638 0.284116
O O7 0.797728 0.346148 0.476974
O O8 0.880265 0.374412 0.715809
O O9 0.085808 0.500000 0.998456
O O10 0.000000 0.397383 0.000000
O O11 0.946641 0.750623 0.234220
O O12 0.821456 0.919488 0.060704
O O13 0.039923 0.420368 0.714144
#
# Coordination Sequence:
#
# PCOD9225782 Si02
#       6
#     8   8   8   8   8   4
#     4  12  27  43  69 103 140 186 230 282 356 412
#     4  11  23  46  75 102 136 185 237 290 344 408
#     4  10  23  45  69 100 138 180 234 295 344 404
#     4  12  26  48  71 104 141 184 234 289 349 412
#     4  12  26  47  71 103 142 184 234 288 343 415
#     4  12  26  47  72 101 148 186 225 287 353 417
#
# _framework density 9.9264960000000002
#
# number of rings (size 3 to 8) (size 9 to 14) (size 15 to 20)
#    0.000    0.545    5.455    2.182    2.545    1.818 
#    1.636    0.909    0.000    0.000    0.000    0.000 
#    0.000    0.000    0.000    0.000    0.000    0.000 
#
# Total GULP energy -122498.059161 kJ/mol
# GULP energy per Si atom -5568.093598 kJ/mol
# Density = 0.990390 g / cm^3
# Si number density = 9.926496 Si / 1000 Ang^3
#
#
#
# Elastic Constant Matrix: (Units=GPa)
#
#
# Indices 1 2 3 4 5 6 
#
# 1 55.6121 23.2031 27.7451 -0.0004 -3.9487 0.0000
# 2 23.2031 154.3178 49.5065 -0.0010 4.5762 -0.0002
# 3 27.7451 49.5065 133.9259 -0.0010 8.3973 -0.0003
# 4 -0.0004 -0.0010 -0.0010 44.8919 -0.0006 20.2402
# 5 -3.9487 4.5762 8.3973 -0.0006 48.8706 -0.0001
# 6 0.0000 -0.0002 -0.0003 20.2402 -0.0001 31.2239
#
#
#
# Elastic Compliance Matrix: (Units=1/GPa)
#
#
# Indices 1 2 3 4 5 6 
#
# 1 0.020864 -0.002013 -0.003736 0.000000 0.002516 0.000000
# 2 -0.002013 0.007549 -0.002344 0.000000 -0.000467 0.000000
# 3 -0.003736 -0.002344 0.009212 0.000000 -0.001665 0.000000
# 4 0.000000 0.000000 0.000000 0.031475 0.000000 -0.020403
# 5 0.002516 -0.000467 -0.001665 0.000000 0.020995 0.000000
# 6 0.000000 0.000000 0.000000 -0.020403 0.000000 0.045252
#
#
# Mechanical properties :
#
#
# Convention : Reuss Voigt Hill
#
# Bulk Modulus (GPa) = 46.64596 60.52947 53.58772
# Shear Modulus (GPa) = 31.51003 41.22401 36.36702
#
# Velocity S-wave (km/s) = 3.98825 4.56177 4.28461
# Velocity P-wave (km/s) = 6.68991 7.63553 7.17831
#
# Compressibility (1/GPa) = 0.02143808
#
# Stress axis : x y z
#
# Youngs Moduli (GPa) = 47.92895 132.47343 108.55765
#
# Poissons Ratio (x) = 0.26670 0.40557
# Poissons Ratio (y) = 0.09649 0.25447
# Poissons Ratio (z) = 0.17906 0.31053
#
# Static dielectric constant tensor:
#      x y z
#    x 1.754140 0.000000 0.012750 
#    y 0.000000 1.695300 0.000000 
#    z 0.012750 0.000000 1.666870 
# 
# From -- ./inp_files/290177.got.cif
#   From: 2010.05.17/outbox.ucp.g08.bks.cvg/sg12_146_cif.got.tgz:290177.got - 2010.06.11 11:47:21.
