data_PCOD9225983
_publ_section_title
;
Structure prediction by ZEFSAII (Michael W. Deem and Ramdas Pophale) SiO2 
 PCOD9225983
Probable space group: C 2/M
;
_chemical_formula_sum "Si O2"
_cell_formula_units_Z 24
_cell_length_a 9.000000
_cell_length_b 27.000000
_cell_length_c 15.000000
_cell_angle_alpha 90.000000
_cell_angle_beta 40.000000
_cell_angle_gamma 90.000000
_cell_volume 2342.960837
_symmetry_space_group_name_H-M "C 2/M"
_symmetry_group_IT_number 12
_symmetry_cell_setting 'monoclinic'
loop_
_space_group_symop_operation_xyz
x,y,z
-x,y,-z
-x,-y,-z
x,-y,z
1/2+x,1/2+y,z
1/2-x,1/2+y,-z
1/2-x,1/2-y,-z
1/2+x,1/2-y,z
loop_
_atom_site_type_symbol
_atom_site_label
_atom_site_fract_x
_atom_site_fract_y
_atom_site_fract_z
Si Si1 0.080643 0.130420 0.064973
Si Si2 0.554456 0.622400 0.575546
Si Si3 0.071603 0.235664 0.792764
Si Si4 0.569475 0.790862 0.611011
Si Si5 0.724960 0.559579 0.655389
Si Si6 0.937254 0.338592 0.127712
O O1 0.055428 0.184789 0.123697
O O2 0.916433 0.092311 0.201194
O O3 0.360278 0.128943 0.919203
O O4 0.000000 0.130757 0.000000
O O5 0.500000 0.606745 0.500000
O O6 0.782162 0.658532 0.464884
O O7 0.599627 0.578260 0.623229
O O8 0.322531 0.650152 0.718227
O O9 0.334993 0.215278 0.663150
O O10 0.004972 0.270333 0.739095
O O11 0.048228 0.278751 0.876292
O O12 0.750000 0.750000 0.500000
O O13 0.704205 0.500000 0.682354
O O14 0.000000 0.568752 0.500000
O O15 0.000000 0.354733 0.000000
#
# Coordination Sequence:
#
# PCOD9225983 Si02
#       6
#     8   8   8   8   8   8
#     4  12  26  44  70 102 142 190 234 282 355 416
#     4  12  24  45  71 101 139 182 236 286 346 416
#     4  12  23  39  62  98 142 190 234 272 332 412
#     4  12  21  37  60  95 133 184 232 279 323 401
#     4  11  27  52  78 103 133 176 238 306 358 410
#     4  12  23  43  62 101 145 186 224 283 337 417
#
# _framework density 10.243449
#
# number of rings (size 3 to 8) (size 9 to 14) (size 15 to 20)
#    0.000    0.167    5.000    5.500    2.333    0.667 
#    0.000    1.667    0.000    0.000    0.000    0.000 
#    0.000    0.000    0.000    0.000    0.000    0.000 
#
# Total GULP energy -133631.738030 kJ/mol
# GULP energy per Si atom -5567.989085 kJ/mol
# Density = 1.022013 g / cm^3
# Si number density = 10.243449 Si / 1000 Ang^3
#
#
#
# Elastic Constant Matrix: (Units=GPa)
#
#
# Indices 1 2 3 4 5 6 
#
# 1 86.3967 24.7398 27.5957 0.0000 4.6771 0.0000
# 2 24.7398 100.4227 41.6898 0.0000 -4.0741 0.0000
# 3 27.5957 41.6898 118.1013 0.0000 -0.8475 0.0000
# 4 0.0000 0.0000 0.0000 33.7201 0.0000 4.8069
# 5 4.6771 -4.0741 -0.8475 0.0000 50.4237 0.0000
# 6 0.0000 0.0000 0.0000 4.8069 0.0000 18.7403
#
#
#
# Elastic Compliance Matrix: (Units=1/GPa)
#
#
# Indices 1 2 3 4 5 6 
#
# 1 0.013035 -0.002344 -0.002229 0.000000 -0.001436 0.000000
# 2 -0.002344 0.012128 -0.003725 0.000000 0.001135 0.000000
# 3 -0.002229 -0.003725 0.010304 0.000000 0.000079 0.000000
# 4 0.000000 0.000000 0.000000 0.030781 0.000000 -0.007895
# 5 -0.001436 0.001135 0.000079 0.000000 0.020058 0.000000
# 6 0.000000 0.000000 0.000000 -0.007895 0.000000 0.055386
#
#
# Mechanical properties :
#
#
# Convention : Reuss Voigt Hill
#
# Bulk Modulus (GPa) = 52.99273 54.77459 53.88366
# Shear Modulus (GPa) = 30.38046 34.63651 32.50848
#
# Velocity S-wave (km/s) = 3.85505 4.11623 3.98778
# Velocity P-wave (km/s) = 6.76299 7.02749 6.89651
#
# Compressibility (1/GPa) = 0.01887051
#
# Stress axis : x y z
#
# Youngs Moduli (GPa) = 76.71411 82.45369 97.05324
#
# Poissons Ratio (x) = 0.19331 0.21629
# Poissons Ratio (y) = 0.17985 0.36155
# Poissons Ratio (z) = 0.17096 0.30716
#
# Static dielectric constant tensor:
#      x y z
#    x 2.100630 0.000000 0.047130 
#    y 0.000000 1.685840 0.000000 
#    z 0.047130 0.000000 1.848210 
# 
# From -- ./inp_files/200120.got.cif
#   From: 2010.05.17/outbox.ucp.g08.bks.cvg/sg12_101_cif.got.tgz:200120.got - 2010.06.11 11:47:21.
