data_PCOD9225365
_publ_section_title
;
Structure prediction by ZEFSAII (Michael W. Deem and Ramdas Pophale) SiO2 
 PCOD9225365
Probable space group: C 2/M
;
_chemical_formula_sum "Si O2"
_cell_formula_units_Z 32
_cell_length_a 30.000000
_cell_length_b 9.000000
_cell_length_c 18.000000
_cell_angle_alpha 90.000000
_cell_angle_beta 140.000000
_cell_angle_gamma 90.000000
_cell_volume 3123.947783
_symmetry_space_group_name_H-M "C 2/M"
_symmetry_group_IT_number 12
_symmetry_cell_setting 'monoclinic'
loop_
_space_group_symop_operation_xyz
x,y,z
-x,y,-z
-x,-y,-z
x,-y,z
1/2+x,1/2+y,z
1/2-x,1/2+y,-z
1/2-x,1/2-y,-z
1/2+x,1/2-y,z
loop_
_atom_site_type_symbol
_atom_site_label
_atom_site_fract_x
_atom_site_fract_y
_atom_site_fract_z
Si Si1 0.589786 0.829437 0.689305
Si Si2 0.210692 0.826042 0.326708
Si Si3 0.341318 0.336918 0.512203
Si Si4 0.770911 0.174174 0.103181
Si Si5 0.811265 0.824937 0.867762
Si Si6 0.565724 0.830824 0.481909
Si Si7 0.425035 0.669429 0.768978
Si Si8 0.543230 0.174689 0.981174
O O1 0.648831 0.714642 0.783815
O O2 0.579542 0.826506 0.587433
O O3 0.515629 0.796962 0.631340
O O4 0.610023 0.000000 0.734524
O O5 0.275947 0.760557 0.450679
O O6 0.225785 0.804142 0.258966
O O7 0.135795 0.767576 0.255375
O O8 0.205559 0.000000 0.335596
O O9 0.314184 0.500000 0.460025
O O10 0.384186 0.274951 0.498366
O O11 0.391870 0.341608 0.646267
O O12 0.727677 0.242709 0.116120
O O13 0.759118 0.000000 0.085237
O O14 0.750000 0.250000 0.000000
O O15 0.813759 0.000000 0.886991
O O16 0.887482 0.762946 0.948304
O O17 0.578368 0.000000 0.472810
O O18 0.445143 0.500000 0.818429
O O19 0.488871 0.779958 0.848845
O O20 0.557477 0.000000 0.003838
O O21 0.500000 0.220210 0.000000
#
# Coordination Sequence:
#
# PCOD9225365 Si02
#       8
#     8   8   8   8   8   8   8   8
#     4   9  19  39  64  88 115 154 201 246 294 356
#     4  10  21  38  61  84 114 158 204 243 295 361
#     4  11  23  35  54  86 123 155 194 246 298 353
#     4  12  26  43  63  90 125 161 200 251 307 363
#     4  11  23  41  67  92 118 160 207 250 301 365
#     4   9  19  37  62  87 116 155 197 240 295 361
#     4  10  22  40  58  82 117 162 204 243 298 361
#     4  11  23  39  62  92 122 154 200 257 307 356
#
# _framework density 10.243449
#
# number of rings (size 3 to 8) (size 9 to 14) (size 15 to 20)
#    0.000    1.625    1.250    4.125    0.000    8.000 
#    0.000    3.750    0.000    0.000    0.000    0.000 
#    0.000    0.000    0.000    0.000    0.000    0.000 
#
# Total GULP energy -178613.692092 kJ/mol
# GULP energy per Si atom -5581.677878 kJ/mol
# Density = 1.022013 g / cm^3
# Si number density = 10.243449 Si / 1000 Ang^3
#
#
#
# Elastic Constant Matrix: (Units=GPa)
#
#
# Indices 1 2 3 4 5 6 
#
# 1 3.9680 26.2492 -8.3441 0.0000 11.3412 0.0000
# 2 26.2492 35.7141 40.7328 0.0000 -11.9457 0.0000
# 3 -8.3441 40.7328 47.4148 0.0000 22.5420 0.0000
# 4 0.0000 0.0000 0.0000 9.2571 0.0000 -13.9704
# 5 11.3412 -11.9457 22.5420 0.0000 -7.1918 0.0000
# 6 0.0000 0.0000 0.0000 -13.9704 0.0000 8.6776
#
#
#
# Elastic Compliance Matrix: (Units=1/GPa)
#
#
# Indices 1 2 3 4 5 6 
#
# 1 0.067629 -0.008112 -0.015356 0.000000 0.071991 0.000000
# 2 -0.008112 0.019003 0.001340 0.000000 -0.040158 0.000000
# 3 -0.015356 0.001340 0.011970 0.000000 0.011079 0.000000
# 4 0.000000 0.000000 0.000000 -0.075562 0.000000 -0.121649
# 5 0.071991 -0.040158 0.011079 0.000000 0.075909 0.000000
# 6 0.000000 0.000000 0.000000 -0.121649 0.000000 -0.080608
#
#
# Mechanical properties :
#
#
# Convention : Reuss Voigt Hill
#
# Bulk Modulus (GPa) = 18.40118 22.70810 20.55464
# Shear Modulus (GPa) = 61.94776 4.04584 32.99680
#
# Velocity S-wave (km/s) = 5.50485 1.40682 4.01762
# Velocity P-wave (km/s) = 7.02894 3.70771 5.61930
#
# Compressibility (1/GPa) = 0.05434433
#
# Stress axis : x y z
#
# Youngs Moduli (GPa) = 14.78663 52.62412 83.54095
#
# Poissons Ratio (x) = 0.42691 1.28283
# Poissons Ratio (y) = 0.11996 -0.11191
# Poissons Ratio (z) = 0.22706 -0.07050
#
# Static dielectric constant tensor:
#      x y z
#    x 1.673680 0.000000 -0.032230 
#    y 0.000000 1.706460 0.000000 
#    z -0.032230 0.000000 1.808300 
# 
# From -- ./inp_files/295784.got.cif
#   From: 2010.05.17/outbox.ucp.g08.bks.cvg/sg12_148_cif.got.tgz:295784.got - 2010.06.11 11:47:21.
