data_PCOD9225841
_publ_section_title
;
Structure prediction by ZEFSAII (Michael W. Deem and Ramdas Pophale) SiO2 
 PCOD9225841
Probable space group: C 2/M
;
_chemical_formula_sum "Si O2"
_cell_formula_units_Z 28
_cell_length_a 9.000000
_cell_length_b 30.000000
_cell_length_c 21.000000
_cell_angle_alpha 90.000000
_cell_angle_beta 150.000000
_cell_angle_gamma 90.000000
_cell_volume 2835.000000
_symmetry_space_group_name_H-M "C 2/M"
_symmetry_group_IT_number 12
_symmetry_cell_setting 'monoclinic'
loop_
_space_group_symop_operation_xyz
x,y,z
-x,y,-z
-x,-y,-z
x,-y,z
1/2+x,1/2+y,z
1/2-x,1/2+y,-z
1/2-x,1/2-y,-z
1/2+x,1/2-y,z
loop_
_atom_site_type_symbol
_atom_site_label
_atom_site_fract_x
_atom_site_fract_y
_atom_site_fract_z
Si Si1 0.737297 0.596415 0.783900
Si Si2 0.797111 0.765420 0.806378
Si Si3 0.168468 0.089057 0.494443
Si Si4 0.256104 0.000000 0.851743
Si Si5 0.211075 0.744318 0.635966
Si Si6 0.373663 0.823607 0.024407
Si Si7 0.324993 0.861155 0.372378
Si Si8 0.035396 0.500000 0.589970
O O1 0.573379 0.596694 0.653194
O O2 0.808042 0.545493 0.830187
O O3 0.484077 0.612682 0.740662
O O4 0.008365 0.632355 0.893534
O O5 0.525062 0.769937 0.753705
O O6 0.617179 0.753754 0.674596
O O7 0.025379 0.807318 0.889975
O O8 0.973355 0.720721 0.890117
O O9 0.427633 0.127499 0.588897
O O10 0.000000 0.087425 0.500000
O O11 0.358743 0.043670 0.550686
O O12 0.896718 0.000000 0.736665
O O13 0.500000 0.000000 0.000000
O O14 0.249953 0.690662 0.644096
O O15 0.000000 0.759331 0.500000
O O16 0.500000 0.828894 0.000000
O O17 0.500000 0.877258 0.500000
O O18 0.000000 0.500000 0.500000
#
# Coordination Sequence:
#
# PCOD9225841 Si02
#       8
#     8   8   8   4   8   8   8   4
#     4  11  20  41  66  97 135 172 225 275 326 398
#     4  11  22  40  62  93 123 171 224 260 347 409
#     4  11  22  38  67 105 137 174 221 277 337 393
#     4  12  24  36  70 112 130 170 236 276 314 386
#     4  11  22  40  63  94 128 168 211 288 342 395
#     4  11  22  40  66  87 127 178 219 274 328 409
#     4   9  18  36  61  89 131 173 216 267 325 391
#     4  12  19  42  71 103 139 183 227 272 321 403
#
# _framework density 9.8765429999999999
#
# number of rings (size 3 to 8) (size 9 to 14) (size 15 to 20)
#    0.000    1.143    5.714    1.500    0.000    0.000 
#    2.571    0.000    3.143    1.714    0.000    0.000 
#    0.000    0.000    0.000    0.143    0.000    0.000 
#
# Total GULP energy -156096.430737 kJ/mol
# GULP energy per Si atom -5574.872526 kJ/mol
# Density = 0.985406 g / cm^3
# Si number density = 9.876543 Si / 1000 Ang^3
#
#
#
# Elastic Constant Matrix: (Units=GPa)
#
#
# Indices 1 2 3 4 5 6 
#
# 1 105.9532 16.7965 35.8829 0.0002 10.8667 0.0000
# 2 16.7965 89.5914 37.2963 -0.0008 8.4024 -0.0001
# 3 35.8829 37.2963 124.2607 0.0060 1.4096 0.0018
# 4 0.0002 -0.0008 0.0060 37.1774 -0.0001 4.5061
# 5 10.8667 8.4024 1.4096 -0.0001 38.6572 0.0002
# 6 0.0000 -0.0001 0.0018 4.5061 0.0002 25.1966
#
#
#
# Elastic Compliance Matrix: (Units=1/GPa)
#
#
# Indices 1 2 3 4 5 6 
#
# 1 0.010803 -0.000544 -0.002924 0.000000 -0.002812 0.000000
# 2 -0.000544 0.013057 -0.003733 0.000001 -0.002549 0.000000
# 3 -0.002924 -0.003733 0.009998 -0.000002 0.001269 0.000000
# 4 0.000000 0.000001 -0.000002 0.027494 0.000000 -0.004917
# 5 -0.002812 -0.002549 0.001269 0.000000 0.027167 0.000000
# 6 0.000000 0.000000 0.000000 -0.004917 0.000000 0.040567
#
#
# Mechanical properties :
#
#
# Convention : Reuss Voigt Hill
#
# Bulk Modulus (GPa) = 51.40044 55.52852 53.46448
# Shear Modulus (GPa) = 33.33911 35.52822 34.43367
#
# Velocity S-wave (km/s) = 4.11273 4.24561 4.17970
# Velocity P-wave (km/s) = 6.97357 7.22537 7.10059
#
# Compressibility (1/GPa) = 0.01945509
#
# Stress axis : x y z
#
# Youngs Moduli (GPa) = 92.56522 76.58822 100.01909
#
# Poissons Ratio (x) = 0.04168 0.29250
# Poissons Ratio (y) = 0.05038 0.37336
# Poissons Ratio (z) = 0.27070 0.28589
#
# Static dielectric constant tensor:
#      x y z
#    x 1.721830 0.000000 -0.005780 
#    y 0.000000 1.702490 0.000000 
#    z -0.005780 0.000000 1.740660 
# 
# From -- ./inp_files/303089.got.cif
#   From: 2010.05.17/outbox.ucp.g08.bks.cvg/sg12_152_cif.got.tgz:303089.got - 2010.06.11 11:47:21.
