data_PCOD9225874
_publ_section_title
;
Structure prediction by ZEFSAII (Michael W. Deem and Ramdas Pophale) SiO2 
 PCOD9225874
Probable space group: C 2/M
;
_chemical_formula_sum "Si O2"
_cell_formula_units_Z 28
_cell_length_a 15.000000
_cell_length_b 15.000000
_cell_length_c 24.000000
_cell_angle_alpha 90.000000
_cell_angle_beta 30.000000
_cell_angle_gamma 90.000000
_cell_volume 2700.000000
_symmetry_space_group_name_H-M "C 2/M"
_symmetry_group_IT_number 12
_symmetry_cell_setting 'monoclinic'
loop_
_space_group_symop_operation_xyz
x,y,z
-x,y,-z
-x,-y,-z
x,-y,z
1/2+x,1/2+y,z
1/2-x,1/2+y,-z
1/2-x,1/2-y,-z
1/2+x,1/2-y,z
loop_
_atom_site_type_symbol
_atom_site_label
_atom_site_fract_x
_atom_site_fract_y
_atom_site_fract_z
Si Si1 0.712698 0.398444 0.823785
Si Si2 0.680928 0.670048 0.955207
Si Si3 0.678182 0.641270 0.156362
Si Si4 0.037658 0.699349 0.393887
Si Si5 0.594781 0.098547 0.071572
Si Si6 0.176914 0.895135 0.287609
Si Si7 0.741875 0.609625 0.624006
O O1 0.698697 0.500000 0.809225
O O2 0.726760 0.401639 0.882988
O O3 0.877886 0.346703 0.706637
O O4 0.526032 0.344698 0.916446
O O5 0.740421 0.759791 0.891796
O O6 0.795919 0.662721 0.948038
O O7 0.677017 0.608194 0.220364
O O8 0.468688 0.630191 0.254825
O O9 0.812726 0.596567 0.039194
O O10 0.066609 0.807906 0.371290
O O11 0.160280 0.655876 0.376390
O O12 0.840821 0.660653 0.518022
O O13 0.386109 0.120190 0.187111
O O14 0.616730 0.000000 0.083480
O O15 0.129549 0.000000 0.329320
O O16 0.766191 0.500000 0.608183
#
# Coordination Sequence:
#
# PCOD9225874 Si02
#       7
#     8   8   8   8   8   8   8
#     4  11  21  37  63  94 136 170 203 260 318 378
#     4  11  22  37  59  94 129 166 212 250 316 377
#     4  12  23  40  62  92 129 168 212 258 310 374
#     4  11  22  43  66  94 126 163 213 264 320 370
#     4  11  22  37  60  90 126 166 208 255 308 372
#     4  11  24  42  64  91 128 170 213 258 312 380
#     4  11  24  42  69  98 124 161 213 265 316 377
#
# _framework density 10.370369999999999
#
# number of rings (size 3 to 8) (size 9 to 14) (size 15 to 20)
#    0.000    0.857    1.429    8.143    2.000    1.714 
#    0.000    1.429    0.000    1.714    0.000    0.000 
#    0.000    0.000    0.000    0.000    0.000    0.000 
#
# Total GULP energy -156148.896535 kJ/mol
# GULP energy per Si atom -5576.746305 kJ/mol
# Density = 1.034677 g / cm^3
# Si number density = 10.370370 Si / 1000 Ang^3
#
#
#
# Elastic Constant Matrix: (Units=GPa)
#
#
# Indices 1 2 3 4 5 6 
#
# 1 44.1616 6.6880 -26.7821 -0.0027 3.2865 0.0001
# 2 6.6880 166.7379 35.8574 -0.0035 -3.8837 0.0003
# 3 -26.7821 35.8574 75.2363 -0.0127 6.8991 0.0001
# 4 -0.0027 -0.0035 -0.0127 36.5849 0.0017 4.2700
# 5 3.2865 -3.8837 6.8991 0.0017 29.1814 0.0007
# 6 0.0001 0.0003 0.0001 4.2700 0.0007 25.0139
#
#
#
# Elastic Compliance Matrix: (Units=1/GPa)
#
#
# Indices 1 2 3 4 5 6 
#
# 1 0.032765 -0.004631 0.014582 0.000008 -0.007754 -0.000001
# 2 -0.004631 0.007418 -0.005440 -0.000002 0.002795 0.000000
# 3 0.014582 -0.005440 0.021764 0.000009 -0.007512 -0.000001
# 4 0.000008 -0.000002 0.000009 0.027889 -0.000005 -0.004761
# 5 -0.007754 0.002795 -0.007512 -0.000005 0.037290 0.000000
# 6 -0.000001 0.000000 -0.000001 -0.004761 0.000000 0.040790
#
#
# Mechanical properties :
#
#
# Convention : Reuss Voigt Hill
#
# Bulk Modulus (GPa) = 14.09068 35.29584 24.69326
# Shear Modulus (GPa) = 27.38954 36.18090 31.78522
#
# Velocity S-wave (km/s) = 3.63790 4.18118 3.91896
# Velocity P-wave (km/s) = 4.94512 6.35328 5.69291
#
# Compressibility (1/GPa) = 0.07096889
#
# Stress axis : x y z
#
# Youngs Moduli (GPa) = 30.51991 134.80357 45.94812
#
# Poissons Ratio (x) = 0.62423 -0.67000
# Poissons Ratio (y) = 0.14133 0.24997
# Poissons Ratio (z) = -0.44503 0.73336
#
# Static dielectric constant tensor:
#      x y z
#    x 1.809490 0.000000 -0.008670 
#    y 0.000000 1.856890 0.000000 
#    z -0.008670 0.000000 1.725340 
# 
# From -- ./inp_files/340327.got.cif
#   From: 2010.05.17/outbox.ucp.g08.bks.cvg/sg12_171_cif.got.tgz:340327.got - 2010.06.11 11:47:21.
