data_PCOD9225130
_publ_section_title
;
Structure prediction by ZEFSAII (Michael W. Deem and Ramdas Pophale) SiO2 
 PCOD9225130
Probable space group: C 2/M
;
_chemical_formula_sum "Si O2"
_cell_formula_units_Z 28
_cell_length_a 21.000000
_cell_length_b 9.000000
_cell_length_c 21.000000
_cell_angle_alpha 90.000000
_cell_angle_beta 50.000000
_cell_angle_gamma 90.000000
_cell_volume 3040.430395
_symmetry_space_group_name_H-M "C 2/M"
_symmetry_group_IT_number 12
_symmetry_cell_setting 'monoclinic'
loop_
_space_group_symop_operation_xyz
x,y,z
-x,y,-z
-x,-y,-z
x,-y,z
1/2+x,1/2+y,z
1/2-x,1/2+y,-z
1/2-x,1/2-y,-z
1/2+x,1/2-y,z
loop_
_atom_site_type_symbol
_atom_site_label
_atom_site_fract_x
_atom_site_fract_y
_atom_site_fract_z
Si Si1 0.668560 0.321327 0.727059
Si Si2 0.519222 0.180500 0.584966
Si Si3 0.299650 0.823772 0.055869
Si Si4 0.861546 0.319345 0.606752
Si Si5 0.457642 0.178720 0.284224
Si Si6 0.379057 0.323089 0.880757
Si Si7 0.910007 0.822097 0.087368
O O1 0.668969 0.500000 0.717668
O O2 0.765086 0.273102 0.674687
O O3 0.624508 0.242071 0.696394
O O4 0.609263 0.291349 0.826337
O O5 0.591896 0.225369 0.488864
O O6 0.428161 0.228660 0.617910
O O7 0.536533 0.226097 0.645771
O O8 0.518205 0.000000 0.584233
O O9 0.201205 0.794865 0.112544
O O10 0.338886 0.762451 0.094655
O O11 0.311920 0.000000 0.041039
O O12 0.348490 0.739974 0.968045
O O13 0.859952 0.500000 0.609312
O O14 0.538722 0.243393 0.196669
O O15 0.458547 0.000000 0.280179
O O16 0.393021 0.500000 0.876506
O O17 0.901995 0.000000 0.083370
O O18 0.000000 0.779541 0.000000
#
# Coordination Sequence:
#
# PCOD9225130 Si02
#       7
#     8   8   8   8   8   8   8
#     4  10  21  35  55  80 110 151 193 228 274 335
#     4   8  16  31  54  82 110 139 181 235 282 324
#     4  10  21  36  56  81 106 141 183 231 281 323
#     4   8  15  32  55  80 108 142 186 232 275 331
#     4  11  22  34  54  83 113 145 181 231 283 326
#     4  10  21  37  55  78 111 145 182 225 273 333
#     4  10  21  35  52  76 109 149 189 228 270 323
#
# _framework density 9.2092220000000005
#
# number of rings (size 3 to 8) (size 9 to 14) (size 15 to 20)
#    0.000    2.429    0.000    3.000    2.000    4.286 
#    0.000    0.000    0.000    0.857    0.000    5.000 
#    0.000    0.000    0.000    0.000    0.000    0.000 
#
# Total GULP energy -156191.947118 kJ/mol
# GULP energy per Si atom -5578.283826 kJ/mol
# Density = 0.918826 g / cm^3
# Si number density = 9.209222 Si / 1000 Ang^3
#
#
#
# Elastic Constant Matrix: (Units=GPa)
#
#
# Indices 1 2 3 4 5 6 
#
# 1 135.6509 37.1844 68.8172 0.0000 3.0111 0.0000
# 2 37.1844 21.0348 20.2512 0.0000 4.0273 -0.0001
# 3 68.8172 20.2512 92.3476 0.0000 -14.5848 0.0000
# 4 0.0000 0.0000 0.0000 2.0382 0.0000 0.4424
# 5 3.0111 4.0273 -14.5848 0.0000 26.8259 0.0000
# 6 0.0000 -0.0001 0.0000 0.4424 0.0000 32.5519
#
#
#
# Elastic Compliance Matrix: (Units=1/GPa)
#
#
# Indices 1 2 3 4 5 6 
#
# 1 0.018483 -0.023005 -0.009310 0.000000 -0.003683 0.000000
# 2 -0.023005 0.097766 -0.006790 -0.000001 -0.015787 0.000000
# 3 -0.009310 -0.006790 0.021421 0.000000 0.013710 0.000000
# 4 0.000000 -0.000001 0.000000 0.492081 0.000000 -0.006687
# 5 -0.003683 -0.015787 0.013710 0.000000 0.047515 0.000000
# 6 0.000000 0.000000 0.000000 -0.006687 0.000000 0.030811
#
#
# Mechanical properties :
#
#
# Convention : Reuss Voigt Hill
#
# Bulk Modulus (GPa) = 16.81781 55.72655 36.27218
# Shear Modulus (GPa) = 6.20266 20.46856 13.33561
#
# Velocity S-wave (km/s) = 1.83710 3.33725 2.69371
# Velocity P-wave (km/s) = 3.69469 6.72095 5.42318
#
# Compressibility (1/GPa) = 0.05946079
#
# Stress axis : x y z
#
# Youngs Moduli (GPa) = 54.10442 10.22848 46.68344
#
# Poissons Ratio (x) = 0.23530 0.43463
# Poissons Ratio (y) = 1.24465 0.31697
# Poissons Ratio (z) = 0.50372 0.06945
#
# Static dielectric constant tensor:
#      x y z
#    x 1.649020 0.000000 0.015300 
#    y 0.000000 1.610820 0.000000 
#    z 0.015300 0.000000 1.622720 
# 
# From -- ./inp_files/281036.got.cif
#   From: 2010.05.17/outbox.ucp.g08.bks.cvg/sg12_141_cif.got.tgz:281036.got - 2010.06.11 11:47:21.
