data_PCOD9225683
_publ_section_title
;
Structure prediction by ZEFSAII (Michael W. Deem and Ramdas Pophale) SiO2 
 PCOD9225683
Probable space group: C 2/M
;
_chemical_formula_sum "Si O2"
_cell_formula_units_Z 24
_cell_length_a 21.000000
_cell_length_b 9.000000
_cell_length_c 27.000000
_cell_angle_alpha 90.000000
_cell_angle_beta 150.000000
_cell_angle_gamma 90.000000
_cell_volume 2551.500000
_symmetry_space_group_name_H-M "C 2/M"
_symmetry_group_IT_number 12
_symmetry_cell_setting 'monoclinic'
loop_
_space_group_symop_operation_xyz
x,y,z
-x,y,-z
-x,-y,-z
x,-y,z
1/2+x,1/2+y,z
1/2-x,1/2+y,-z
1/2-x,1/2-y,-z
1/2+x,1/2-y,z
loop_
_atom_site_type_symbol
_atom_site_label
_atom_site_fract_x
_atom_site_fract_y
_atom_site_fract_z
Si Si1 0.977553 0.824538 0.353823
Si Si2 0.223209 0.677828 0.710665
Si Si3 0.118068 0.822441 0.926034
Si Si4 0.481294 0.179746 0.927960
Si Si5 0.051089 0.823178 0.288178
Si Si6 0.199535 0.173947 0.586290
O O1 0.004140 0.786215 0.313298
O O2 0.093218 0.812337 0.471478
O O3 0.875856 0.720693 0.312826
O O4 0.938024 0.000000 0.327229
O O5 0.239801 0.500000 0.717558
O O6 0.350329 0.756574 0.816844
O O7 0.185565 0.740276 0.630083
O O8 0.076958 0.747004 0.950728
O O9 0.034885 0.799471 0.819346
O O10 0.123070 0.000000 0.937220
O O11 0.250000 0.750000 0.000000
O O12 0.484492 0.000000 0.927807
O O13 0.500000 0.218556 0.000000
O O14 0.175693 0.732325 0.357517
O O15 0.078154 0.000000 0.308304
O O16 0.208517 0.000000 0.605434
#
# Coordination Sequence:
#
# PCOD9225683 Si02
#       6
#     8   8   8   8   8   8
#     4  10  23  41  62  92 128 167 212 258 307 369
#     4  12  25  41  63  93 128 165 208 260 312 369
#     4  11  24  42  66  96 129 165 206 254 310 371
#     4  11  25  45  69  94 124 163 206 257 315 373
#     4  10  22  41  64  91 127 166 205 257 315 367
#     4  11  22  39  65  92 124 168 213 257 310 370
#
# _framework density 9.4062319999999993
#
# number of rings (size 3 to 8) (size 9 to 14) (size 15 to 20)
#    0.000    1.167    1.667    4.000    2.333    6.000 
#    0.000    0.000    0.000    0.000    0.000    0.000 
#    0.000    0.000    0.000    0.000    0.000    0.000 
#
# Total GULP energy -133746.096849 kJ/mol
# GULP energy per Si atom -5572.754035 kJ/mol
# Density = 0.938482 g / cm^3
# Si number density = 9.406232 Si / 1000 Ang^3
#
#
#
# Elastic Constant Matrix: (Units=GPa)
#
#
# Indices 1 2 3 4 5 6 
#
# 1 183.0402 68.7153 46.3054 0.0000 -29.3779 0.0000
# 2 68.7153 96.8818 48.6421 -0.0001 -5.7115 0.0000
# 3 46.3054 48.6421 69.8957 0.0000 -13.0784 0.0000
# 4 0.0000 -0.0001 0.0000 22.5953 0.0000 -4.9163
# 5 -29.3779 -5.7115 -13.0784 0.0000 44.9117 0.0000
# 6 0.0000 0.0000 0.0000 -4.9163 0.0000 48.2658
#
#
#
# Elastic Compliance Matrix: (Units=1/GPa)
#
#
# Indices 1 2 3 4 5 6 
#
# 1 0.008398 -0.005104 -0.001169 0.000000 0.004504 0.000000
# 2 -0.005104 0.019036 -0.010616 0.000000 -0.004009 0.000000
# 3 -0.001169 -0.010616 0.023346 0.000000 0.004684 0.000000
# 4 0.000000 0.000000 0.000000 0.045260 0.000000 0.004610
# 5 0.004504 -0.004009 0.004684 0.000000 0.026066 0.000000
# 6 0.000000 0.000000 0.000000 0.004610 0.000000 0.021188
#
#
# Mechanical properties :
#
#
# Convention : Reuss Voigt Hill
#
# Bulk Modulus (GPa) = 58.81892 75.23815 67.02853
# Shear Modulus (GPa) = 27.36136 35.56489 31.46313
#
# Velocity S-wave (km/s) = 3.81783 4.35270 4.09401
# Velocity P-wave (km/s) = 7.12519 8.08344 7.61939
#
# Compressibility (1/GPa) = 0.01700133
#
# Stress axis : x y z
#
# Youngs Moduli (GPa) = 119.07663 52.53249 42.83415
#
# Poissons Ratio (x) = 0.26813 0.05006
# Poissons Ratio (y) = 0.60778 0.45474
# Poissons Ratio (z) = 0.13918 0.55770
#
# Static dielectric constant tensor:
#      x y z
#    x 1.643340 0.000000 0.034380 
#    y 0.000000 1.633020 0.000000 
#    z 0.034380 0.000000 1.730070 
# 
# From -- ./inp_files/365550.got.cif
#   From: 2010.05.17/outbox.ucp.g08.bks.cvg/sg12_183_cif.got.tgz:365550.got - 2010.06.11 11:47:21.
