data_PCOD9225760
_publ_section_title
;
Structure prediction by ZEFSAII (Michael W. Deem and Ramdas Pophale) SiO2 
 PCOD9225760
Probable space group: C 2/M
;
_chemical_formula_sum "Si O2"
_cell_formula_units_Z 20
_cell_length_a 21.000000
_cell_length_b 9.000000
_cell_length_c 30.000000
_cell_angle_alpha 90.000000
_cell_angle_beta 20.000000
_cell_angle_gamma 90.000000
_cell_volume 1939.254213
_symmetry_space_group_name_H-M "C 2/M"
_symmetry_group_IT_number 12
_symmetry_cell_setting 'monoclinic'
loop_
_space_group_symop_operation_xyz
x,y,z
-x,y,-z
-x,-y,-z
x,-y,z
1/2+x,1/2+y,z
1/2-x,1/2+y,-z
1/2-x,1/2-y,-z
1/2+x,1/2-y,z
loop_
_atom_site_type_symbol
_atom_site_label
_atom_site_fract_x
_atom_site_fract_y
_atom_site_fract_z
Si Si1 0.956448 0.321697 0.976664
Si Si2 0.652266 0.323294 0.106747
Si Si3 0.300330 0.177665 0.704502
Si Si4 0.257312 0.174727 0.352689
Si Si5 0.617006 0.324639 0.548576
O O1 0.989905 0.500000 0.949714
O O2 0.095941 0.229627 0.853773
O O3 0.754330 0.291039 0.087117
O O4 0.000000 0.286625 0.000000
O O5 0.655113 0.500000 0.099891
O O6 0.446900 0.261549 0.236958
O O7 0.750000 0.250000 0.000000
O O8 0.329519 0.252143 0.635841
O O9 0.425907 0.235717 0.663964
O O10 0.320947 0.000000 0.686632
O O11 0.181411 0.178046 0.453843
O O12 0.278046 0.000000 0.327846
O O13 0.589968 0.500000 0.578096
O O14 0.750000 0.250000 0.500000
#
# Coordination Sequence:
#
# PCOD9225760 Si02
#       5
#     8   8   8   8   8
#     4  10  23  42  64  93 129 172 213 259 318 376
#     4  11  22  38  64  96 130 167 209 260 315 377
#     4  12  25  42  67  97 128 168 216 264 317 378
#     4  11  24  43  67  94 128 170 214 264 318 375
#     4  11  26  46  68  95 129 167 211 264 322 379
#
# _framework density 10.313243
#
# number of rings (size 3 to 8) (size 9 to 14) (size 15 to 20)
#    0.000    1.000    2.000    4.200    2.800    6.800 
#    0.000    0.000    0.000    0.000    0.000    0.000 
#    0.000    0.000    0.000    0.000    0.000    0.000 
#
# Total GULP energy -111446.991622 kJ/mol
# GULP energy per Si atom -5572.349581 kJ/mol
# Density = 1.028977 g / cm^3
# Si number density = 10.313243 Si / 1000 Ang^3
#
#
#
# Elastic Constant Matrix: (Units=GPa)
#
#
# Indices 1 2 3 4 5 6 
#
# 1 197.3400 67.0884 22.1686 -0.0224 -26.8309 -0.0069
# 2 67.0884 123.3645 19.6094 -0.0297 -8.4011 -0.0083
# 3 22.1686 19.6094 32.5454 -0.0770 -6.1949 -0.0240
# 4 -0.0224 -0.0297 -0.0770 18.2563 -0.0165 0.7279
# 5 -26.8309 -8.4011 -6.1949 -0.0165 40.7887 -0.0009
# 6 -0.0069 -0.0083 -0.0240 0.7279 -0.0009 49.0948
#
#
#
# Elastic Compliance Matrix: (Units=1/GPa)
#
#
# Indices 1 2 3 4 5 6 
#
# 1 0.006857 -0.003155 -0.002096 -0.000002 0.003542 0.000000
# 2 -0.003155 0.010460 -0.004262 -0.000005 -0.000568 -0.000001
# 3 -0.002096 -0.004262 0.035313 0.000142 0.003107 0.000014
# 4 -0.000002 -0.000005 0.000142 0.054809 0.000041 -0.000813
# 5 0.003542 -0.000568 0.003107 0.000041 0.027202 0.000002
# 6 0.000000 -0.000001 0.000014 -0.000813 0.000002 0.020381
#
#
# Mechanical properties :
#
#
# Convention : Reuss Voigt Hill
#
# Bulk Modulus (GPa) = 29.75625 63.44251 46.59938
# Shear Modulus (GPa) = 26.99077 37.92019 32.45548
#
# Velocity S-wave (km/s) = 3.62131 4.29233 3.97102
# Velocity P-wave (km/s) = 5.65179 7.44245 6.60806
#
# Compressibility (1/GPa) = 0.03360638
#
# Stress axis : x y z
#
# Youngs Moduli (GPa) = 145.83847 95.59881 28.31780
#
# Poissons Ratio (x) = 0.30157 0.05934
# Poissons Ratio (y) = 0.46006 0.12069
# Poissons Ratio (z) = 0.30562 0.40744
#
# Static dielectric constant tensor:
#      x y z
#    x 1.698900 0.000000 -0.014370 
#    y 0.000000 1.698400 0.000020 
#    z -0.014370 0.000020 1.885400 
# 
# From -- ./inp_files/288591.got.cif
#   From: 2010.05.17/outbox.ucp.g08.bks.cvg/sg12_145_cif.got.tgz:288591.got - 2010.06.11 11:47:21.
