data_PCOD9225511
_publ_section_title
;
Structure prediction by ZEFSAII (Michael W. Deem and Ramdas Pophale) SiO2 
 PCOD9225511
Probable space group: C 2/M
;
_chemical_formula_sum "Si O2"
_cell_formula_units_Z 28
_cell_length_a 27.000000
_cell_length_b 9.000000
_cell_length_c 18.000000
_cell_angle_alpha 90.000000
_cell_angle_beta 40.000000
_cell_angle_gamma 90.000000
_cell_volume 2811.553005
_symmetry_space_group_name_H-M "C 2/M"
_symmetry_group_IT_number 12
_symmetry_cell_setting 'monoclinic'
loop_
_space_group_symop_operation_xyz
x,y,z
-x,y,-z
-x,-y,-z
x,-y,z
1/2+x,1/2+y,z
1/2-x,1/2+y,-z
1/2-x,1/2-y,-z
1/2+x,1/2-y,z
loop_
_atom_site_type_symbol
_atom_site_label
_atom_site_fract_x
_atom_site_fract_y
_atom_site_fract_z
Si Si1 0.001924 0.671808 0.587089
Si Si2 0.631617 0.322800 0.172042
Si Si3 0.954556 0.821011 0.131090
Si Si4 0.254742 0.320160 0.834452
Si Si5 0.706750 0.824670 0.621753
Si Si6 0.409676 0.178279 0.935941
Si Si7 0.841408 0.174409 0.588554
O O1 0.987620 0.500000 0.625525
O O2 0.085443 0.727898 0.517156
O O3 0.000000 0.679430 0.500000
O O4 0.938555 0.782084 0.692704
O O5 0.634882 0.500000 0.153492
O O6 0.707589 0.274993 0.130655
O O7 0.614596 0.230339 0.117968
O O8 0.871590 0.749691 0.252521
O O9 0.015460 0.763679 0.122287
O O10 0.945968 0.000000 0.141004
O O11 0.000000 0.781331 0.000000
O O12 0.256801 0.500000 0.831110
O O13 0.307416 0.269770 0.706082
O O14 0.165598 0.278938 0.928816
O O15 0.750000 0.750000 0.500000
O O16 0.772103 0.818378 0.610087
O O17 0.690362 0.000000 0.624651
O O18 0.420760 0.000000 0.926504
O O19 0.864430 0.000000 0.569565
#
# Coordination Sequence:
#
# PCOD9225511 Si02
#       7
#     8   8   8   8   8   8   8
#     4  11  23  38  58  90 126 163 207 255 306 367
#     4  11  22  38  61  88 125 167 207 253 309 375
#     4  11  25  46  70  97 130 170 221 273 327 393
#     4   9  19  37  62  91 122 161 207 253 307 374
#     4  11  25  44  69  98 132 171 217 276 335 393
#     4  11  23  40  64  93 127 163 206 260 316 376
#     4  10  21  40  65  90 119 163 211 254 311 379
#
# _framework density 9.9589090000000002
#
# number of rings (size 3 to 8) (size 9 to 14) (size 15 to 20)
#    0.000    1.429    1.429    3.429    2.000    4.000 
#    0.000    3.571    0.000    0.000    0.000    0.000 
#    0.000    0.000    0.000    0.000    0.000    0.000 
#
# Total GULP energy -156296.768345 kJ/mol
# GULP energy per Si atom -5582.027441 kJ/mol
# Density = 0.993624 g / cm^3
# Si number density = 9.958909 Si / 1000 Ang^3
#
#
#
# Elastic Constant Matrix: (Units=GPa)
#
#
# Indices 1 2 3 4 5 6 
#
# 1 77.5523 16.6790 23.5804 0.0001 -13.4776 -0.0002
# 2 16.6790 71.3527 23.3573 -0.0086 -5.2385 0.0029
# 3 23.5804 23.3573 96.6529 -0.0001 -11.8755 0.0004
# 4 0.0001 -0.0086 -0.0001 30.6594 0.0016 -0.2634
# 5 -13.4776 -5.2385 -11.8755 0.0016 42.4008 -0.0004
# 6 -0.0002 0.0029 0.0004 -0.2634 -0.0004 24.9598
#
#
#
# Elastic Compliance Matrix: (Units=1/GPa)
#
#
# Indices 1 2 3 4 5 6 
#
# 1 0.014831 -0.002345 -0.002597 -0.000001 0.003697 0.000000
# 2 -0.002345 0.015621 -0.003166 0.000004 0.000298 -0.000002
# 3 -0.002597 -0.003166 0.012009 -0.000001 0.002147 0.000000
# 4 -0.000001 0.000004 -0.000001 0.032619 -0.000001 0.000344
# 5 0.003697 0.000298 0.002147 -0.000001 0.025398 0.000000
# 6 0.000000 -0.000002 0.000000 0.000344 0.000000 0.040068
#
#
# Mechanical properties :
#
#
# Convention : Reuss Voigt Hill
#
# Bulk Modulus (GPa) = 38.10439 41.42126 39.76283
# Shear Modulus (GPa) = 30.20922 31.73340 30.97131
#
# Velocity S-wave (km/s) = 3.89870 3.99584 3.94757
# Velocity P-wave (km/s) = 6.28003 6.49078 6.38628
#
# Compressibility (1/GPa) = 0.02624369
#
# Stress axis : x y z
#
# Youngs Moduli (GPa) = 67.42567 64.01460 83.27141
#
# Poissons Ratio (x) = 0.15012 0.21629
# Poissons Ratio (y) = 0.15812 0.26367
# Poissons Ratio (z) = 0.17513 0.20269
#
# Static dielectric constant tensor:
#      x y z
#    x 1.705010 0.000000 0.016370 
#    y 0.000000 1.672140 0.000000 
#    z 0.016370 0.000000 1.736260 
# 
# From -- ./inp_files/292375.got.cif
#   From: 2010.05.17/outbox.ucp.g08.bks.cvg/sg12_147_cif.got.tgz:292375.got - 2010.06.11 11:47:21.
