data_PCOD9225121
_publ_section_title
;
Structure prediction by ZEFSAII (Michael W. Deem and Ramdas Pophale) SiO2 
 PCOD9225121
Probable space group: C 2/M
;
_chemical_formula_sum "Si O2"
_cell_formula_units_Z 32
_cell_length_a 21.000000
_cell_length_b 18.000000
_cell_length_c 24.000000
_cell_angle_alpha 90.000000
_cell_angle_beta 20.000000
_cell_angle_gamma 90.000000
_cell_volume 3102.806740
_symmetry_space_group_name_H-M "C 2/M"
_symmetry_group_IT_number 12
_symmetry_cell_setting 'monoclinic'
loop_
_space_group_symop_operation_xyz
x,y,z
-x,y,-z
-x,-y,-z
x,-y,z
1/2+x,1/2+y,z
1/2-x,1/2+y,-z
1/2-x,1/2-y,-z
1/2+x,1/2-y,z
loop_
_atom_site_type_symbol
_atom_site_label
_atom_site_fract_x
_atom_site_fract_y
_atom_site_fract_z
Si Si1 0.363662 0.081016 0.272457
Si Si2 0.097269 0.803120 0.978870
Si Si3 0.808299 0.916026 0.408783
Si Si4 0.515789 0.210660 0.639334
Si Si5 0.907489 0.085277 0.925144
Si Si6 0.904029 0.630277 0.019582
Si Si7 0.593637 0.193235 0.151477
Si Si8 0.475124 0.622263 0.391562
O O1 0.441987 0.155464 0.237299
O O2 0.140719 0.087253 0.462383
O O3 0.414879 0.000000 0.255138
O O4 0.466879 0.085403 0.128651
O O5 0.313449 0.821915 0.791970
O O6 0.099916 0.717098 0.996307
O O7 0.012608 0.858666 0.094002
O O8 0.000000 0.807533 0.000000
O O9 0.667537 0.851961 0.506516
O O10 0.869974 0.902076 0.421515
O O11 0.980991 0.911476 0.224379
O O12 0.731583 0.000000 0.467681
O O13 0.505745 0.229425 0.713763
O O14 0.536278 0.288711 0.592149
O O15 0.901985 0.000000 0.948263
O O16 0.707315 0.120706 0.077920
O O17 0.691571 0.603973 0.202566
O O18 0.000000 0.629499 0.000000
O O19 0.750000 0.250000 0.000000
#
# Coordination Sequence:
#
# PCOD9225121 Si02
#       8
#     8   8   8   8   8   8   8   8
#     4  12  25  39  64  94 123 165 207 252 314 374
#     4   9  20  41  64  86 112 155 212 254 301 362
#     4  11  22  36  55  87 128 159 192 246 310 371
#     4  10  21  35  59  88 118 157 194 252 311 358
#     4  10  21  34  56  86 122 162 198 246 310 365
#     4  10  24  46  66  88 122 163 211 264 310 367
#     4  11  21  36  60  89 122 160 203 255 304 369
#     4  11  23  39  64  94 125 160 209 255 309 374
#
# _framework density 10.313243
#
# number of rings (size 3 to 8) (size 9 to 14) (size 15 to 20)
#    0.000    1.500    1.250    4.875    3.500    5.000 
#    0.000    1.250    0.000    1.500    0.000    0.000 
#    0.000    0.000    0.000    0.000    0.000    0.000 
#
# Total GULP energy -178523.461294 kJ/mol
# GULP energy per Si atom -5578.858165 kJ/mol
# Density = 1.028977 g / cm^3
# Si number density = 10.313243 Si / 1000 Ang^3
#
#
#
# Elastic Constant Matrix: (Units=GPa)
#
#
# Indices 1 2 3 4 5 6 
#
# 1 35.4501 0.4313 30.9343 0.0015 -6.4137 -0.0035
# 2 0.4313 77.0645 49.2547 -0.0082 -0.9539 -0.0056
# 3 30.9343 49.2547 111.7416 -0.0158 15.2230 -0.0178
# 4 0.0015 -0.0082 -0.0158 17.6567 0.0069 2.0189
# 5 -6.4137 -0.9539 15.2230 0.0069 8.9099 0.0148
# 6 -0.0035 -0.0056 -0.0178 2.0189 0.0148 14.5700
#
#
#
# Elastic Compliance Matrix: (Units=1/GPa)
#
#
# Indices 1 2 3 4 5 6 
#
# 1 -0.319382 -0.171569 0.257894 0.000354 -0.688896 0.000824
# 2 -0.171569 -0.070780 0.125846 0.000183 -0.346093 0.000412
# 3 0.257894 0.125846 -0.189047 -0.000267 0.522111 -0.000614
# 4 0.000354 0.000183 -0.000267 0.057547 0.000698 -0.007975
# 5 -0.688896 -0.346093 0.522111 0.000698 -1.312764 0.001577
# 6 0.000824 0.000412 -0.000614 -0.007975 0.001577 0.069737
#
#
# Mechanical properties :
#
#
# Convention : Reuss Voigt Hill
#
# Bulk Modulus (GPa) = -6.45719 42.83297 18.18789
# Shear Modulus (GPa) = -2.23149 17.80305 7.78578
#
# Velocity S-wave (km/s) = -1.04125 2.94107 1.94495
# Velocity P-wave (km/s) = 2.14078 5.68720 3.72568
#
# Compressibility (1/GPa) = -0.15486611
#
# Stress axis : x y z
#
# Youngs Moduli (GPa) = -3.13105 -14.12827 -5.28969
#
# Poissons Ratio (x) = -2.42397 1.36418
# Poissons Ratio (y) = -0.53719 0.66569
# Poissons Ratio (z) = 0.80748 1.77798
#
# Static dielectric constant tensor:
#      x y z
#    x 1.780360 0.000010 0.020660 
#    y 0.000010 1.750720 0.000040 
#    z 0.020660 0.000040 1.788560 
# 
# From -- ./inp_files/347844.got.cif
#   From: 2010.05.17/outbox.ucp.g08.bks.cvg/sg12_174_cif.got.tgz:347844.got - 2010.06.11 11:47:21.
