data_PCOD9225482
_publ_section_title
;
Structure prediction by ZEFSAII (Michael W. Deem and Ramdas Pophale) SiO2 
 PCOD9225482
Probable space group: C 2/M
;
_chemical_formula_sum "Si O2"
_cell_formula_units_Z 24
_cell_length_a 21.000000
_cell_length_b 12.000000
_cell_length_c 12.000000
_cell_angle_alpha 90.000000
_cell_angle_beta 130.000000
_cell_angle_gamma 90.000000
_cell_volume 2316.518396
_symmetry_space_group_name_H-M "C 2/M"
_symmetry_group_IT_number 12
_symmetry_cell_setting 'monoclinic'
loop_
_space_group_symop_operation_xyz
x,y,z
-x,y,-z
-x,-y,-z
x,-y,z
1/2+x,1/2+y,z
1/2-x,1/2+y,-z
1/2-x,1/2-y,-z
1/2+x,1/2-y,z
loop_
_atom_site_type_symbol
_atom_site_label
_atom_site_fract_x
_atom_site_fract_y
_atom_site_fract_z
Si Si1 0.438768 0.884490 0.110201
Si Si2 0.334285 0.772116 0.160424
Si Si3 0.891546 0.293493 0.636065
Si Si4 0.593276 0.690534 0.104321
Si Si5 0.992413 0.125122 0.358359
Si Si6 0.222488 0.624899 0.680605
O O1 0.378180 0.873827 0.146781
O O2 0.531750 0.878396 0.262829
O O3 0.425958 0.000000 0.033726
O O4 0.418743 0.783575 0.004725
O O5 0.403029 0.675679 0.226953
O O6 0.316098 0.796475 0.268267
O O7 0.250000 0.750000 0.000000
O O8 0.883851 0.249048 0.752653
O O9 0.811329 0.336609 0.479011
O O10 0.933893 0.195935 0.611644
O O11 0.678412 0.623732 0.184169
O O12 0.500000 0.637037 0.000000
O O13 0.000000 0.127844 0.500000
O O14 0.998271 0.000000 0.323562
O O15 0.190583 0.500000 0.660169
#
# Coordination Sequence:
#
# PCOD9225482 Si02
#       6
#     8   8   8   8   8   8
#     4  10  21  39  65  91 120 163 203 244 302 360
#     4  11  22  41  59  92 130 155 201 254 300 360
#     4  10  22  41  63  92 127 155 203 254 300 361
#     4  10  23  43  61  87 125 162 204 255 296 363
#     4  10  21  40  67  91 122 161 199 249 307 361
#     4  12  24  40  63  91 123 162 202 253 314 362
#
# _framework density 10.360374999999999
#
# number of rings (size 3 to 8) (size 9 to 14) (size 15 to 20)
#    0.000    1.500    3.333    1.500    0.000    6.000 
#    0.000    3.333    0.000    0.000    0.000    0.000 
#    0.000    0.000    0.000    0.000    0.000    0.000 
#
# Total GULP energy -133719.311895 kJ/mol
# GULP energy per Si atom -5571.637996 kJ/mol
# Density = 1.033679 g / cm^3
# Si number density = 10.360375 Si / 1000 Ang^3
#
#
#
# Elastic Constant Matrix: (Units=GPa)
#
#
# Indices 1 2 3 4 5 6 
#
# 1 51.1569 10.1126 16.4189 0.0000 4.6877 0.0000
# 2 10.1126 94.2508 22.2118 0.0000 5.7845 0.0000
# 3 16.4189 22.2118 127.4434 0.0000 7.0201 0.0000
# 4 0.0000 0.0000 0.0000 53.6697 0.0000 -42.0882
# 5 4.6877 5.7845 7.0201 0.0000 42.1549 0.0000
# 6 0.0000 0.0000 0.0000 -42.0882 0.0000 -18.6746
#
#
#
# Elastic Compliance Matrix: (Units=1/GPa)
#
#
# Indices 1 2 3 4 5 6 
#
# 1 0.020756 -0.001579 -0.002305 0.000000 -0.001708 0.000000
# 2 -0.001579 0.011246 -0.001697 0.000000 -0.001085 0.000000
# 3 -0.002305 -0.001697 0.008490 0.000000 -0.000925 0.000000
# 4 0.000000 0.000000 0.000000 0.006733 0.000000 -0.015174
# 5 -0.001708 -0.001085 -0.000925 0.000000 0.024215 0.000000
# 6 0.000000 0.000000 0.000000 -0.015174 0.000000 -0.019350
#
#
# Mechanical properties :
#
#
# Convention : Reuss Voigt Hill
#
# Bulk Modulus (GPa) = 34.09382 41.14865 37.62123
# Shear Modulus (GPa) = 68.46655 30.37051 49.41853
#
# Velocity S-wave (km/s) = 5.75450 3.83261 4.88892
# Velocity P-wave (km/s) = 7.78730 6.28386 7.07562
#
# Compressibility (1/GPa) = 0.02933083
#
# Stress axis : x y z
#
# Youngs Moduli (GPa) = 48.17877 88.92138 117.78241
#
# Poissons Ratio (x) = 0.14041 0.27146
# Poissons Ratio (y) = 0.07608 0.19986
# Poissons Ratio (z) = 0.11104 0.15088
#
# Static dielectric constant tensor:
#      x y z
#    x 2.073220 0.000000 0.402110 
#    y 0.000000 1.756040 0.000000 
#    z 0.402110 0.000000 2.302760 
# 
# From -- ./inp_files/165197.got.cif
#   From: 2010.05.17/outbox.ucp.g08.bks.cvg/sg12_83_cif.got.tgz:165197.got - 2010.06.11 11:47:21.
