data_PCOD9225748
_publ_section_title
;
Structure prediction by ZEFSAII (Michael W. Deem and Ramdas Pophale) SiO2 
 PCOD9225748
Probable space group: C 2/M
;
_chemical_formula_sum "Si O2"
_cell_formula_units_Z 26
_cell_length_a 15.000000
_cell_length_b 30.000000
_cell_length_c 9.000000
_cell_angle_alpha 90.000000
_cell_angle_beta 140.000000
_cell_angle_gamma 90.000000
_cell_volume 2603.289819
_symmetry_space_group_name_H-M "C 2/M"
_symmetry_group_IT_number 12
_symmetry_cell_setting 'monoclinic'
loop_
_space_group_symop_operation_xyz
x,y,z
-x,y,-z
-x,-y,-z
x,-y,z
1/2+x,1/2+y,z
1/2-x,1/2+y,-z
1/2-x,1/2-y,-z
1/2+x,1/2-y,z
loop_
_atom_site_type_symbol
_atom_site_label
_atom_site_fract_x
_atom_site_fract_y
_atom_site_fract_z
Si Si1 0.000000 0.409314 0.000000
Si Si2 0.431240 0.946869 0.574128
Si Si3 0.169757 0.195022 0.441346
Si Si4 0.866263 0.051377 0.934124
Si Si5 0.559677 0.373217 0.738796
Si Si6 0.677963 0.165000 0.084669
Si Si7 0.435293 0.788092 0.590777
O O1 0.031836 0.431664 0.206432
O O2 0.129270 0.378418 0.115692
O O3 0.500000 0.930589 0.500000
O O4 0.269485 0.937493 0.336390
O O5 0.456955 0.000000 0.608362
O O6 0.266793 0.196541 0.713302
O O7 0.277007 0.193843 0.435984
O O8 0.076754 0.239447 0.346407
O O9 0.060776 0.154333 0.327179
O O10 0.848587 0.000000 0.964296
O O11 0.889304 0.085398 0.098128
O O12 0.000000 0.053164 0.000000
O O13 0.500000 0.386482 0.500000
O O14 0.695382 0.344335 0.866456
O O15 0.546656 0.182910 0.825301
O O16 0.500000 0.786165 0.500000
#
# Coordination Sequence:
#
# PCOD9225748 Si02
#       7
#     4   8   8   8   8   8   8
#     4  12  23  40  72  96 136 180 222 296 341 402
#     4  10  23  44  68  98 132 175 232 284 345 418
#     4  10  23  44  63  93 134 170 219 278 333 406
#     4  10  23  42  63  95 137 170 214 278 337 408
#     4  10  23  40  66  94 131 176 223 276 340 407
#     4  11  23  42  60  94 130 167 222 277 327 403
#     4  11  23  41  68  92 127 176 223 273 342 396
#
# _framework density 9.9873630000000002
#
# number of rings (size 3 to 8) (size 9 to 14) (size 15 to 20)
#    0.000    1.538    1.538    2.538    4.308    5.846 
#    0.000    3.846    0.000    0.000    0.000    0.000 
#    0.000    0.000    0.000    0.000    0.000    0.000 
#
# Total GULP energy -144800.268224 kJ/mol
# GULP energy per Si atom -5569.241086 kJ/mol
# Density = 0.996463 g / cm^3
# Si number density = 9.987363 Si / 1000 Ang^3
#
#
#
# Elastic Constant Matrix: (Units=GPa)
#
#
# Indices 1 2 3 4 5 6 
#
# 1 172.4875 33.6482 52.6265 0.0000 2.0736 0.0000
# 2 33.6482 67.7258 47.4113 0.0000 -14.2786 0.0000
# 3 52.6265 47.4113 106.7209 0.0000 -4.8845 0.0000
# 4 0.0000 0.0000 0.0000 27.5559 0.0000 -10.1350
# 5 2.0736 -14.2786 -4.8845 0.0000 39.5394 0.0000
# 6 0.0000 0.0000 0.0000 -10.1350 0.0000 32.4047
#
#
#
# Elastic Compliance Matrix: (Units=1/GPa)
#
#
# Indices 1 2 3 4 5 6 
#
# 1 0.007000 -0.001899 -0.002671 0.000000 -0.001383 0.000000
# 2 -0.001899 0.023807 -0.009294 0.000000 0.007549 0.000000
# 3 -0.002671 -0.009294 0.014753 0.000000 -0.001394 0.000000
# 4 0.000000 0.000000 0.000000 0.041007 0.000000 0.012825
# 5 -0.001383 0.007549 -0.001394 0.000000 0.027918 0.000000
# 6 0.000000 0.000000 0.000000 0.012825 0.000000 0.034871
#
#
# Mechanical properties :
#
#
# Convention : Reuss Voigt Hill
#
# Bulk Modulus (GPa) = 56.08589 68.25625 62.17107
# Shear Modulus (GPa) = 27.31826 34.11655 30.71741
#
# Velocity S-wave (km/s) = 3.70218 4.13726 3.92575
# Velocity P-wave (km/s) = 6.81280 7.55434 7.19313
#
# Compressibility (1/GPa) = 0.01782980
#
# Stress axis : x y z
#
# Youngs Moduli (GPa) = 142.86449 42.00458 67.78392
#
# Poissons Ratio (x) = 0.07977 0.18107
# Poissons Ratio (y) = 0.27132 0.63001
# Poissons Ratio (z) = 0.38163 0.39040
#
# Static dielectric constant tensor:
#      x y z
#    x 1.726630 0.000000 0.015510 
#    y 0.000000 1.768020 0.000000 
#    z 0.015510 0.000000 1.716980 
# 
# From -- ./inp_files/68666.got.cif
#   From: 2010.05.17/outbox.ucp.g08.bks.cvg/sg12_35_cif.got.tgz:68666.got - 2010.06.11 11:47:21.
