data_PCOD9225852
_publ_section_title
;
Structure prediction by ZEFSAII (Michael W. Deem and Ramdas Pophale) SiO2 
 PCOD9225852
Probable space group: C 2/M
;
_chemical_formula_sum "Si O2"
_cell_formula_units_Z 20
_cell_length_a 21.000000
_cell_length_b 9.000000
_cell_length_c 15.000000
_cell_angle_alpha 90.000000
_cell_angle_beta 50.000000
_cell_angle_gamma 90.000000
_cell_volume 2171.735996
_symmetry_space_group_name_H-M "C 2/M"
_symmetry_group_IT_number 12
_symmetry_cell_setting 'monoclinic'
loop_
_space_group_symop_operation_xyz
x,y,z
-x,y,-z
-x,-y,-z
x,-y,z
1/2+x,1/2+y,z
1/2-x,1/2+y,-z
1/2-x,1/2-y,-z
1/2+x,1/2-y,z
loop_
_atom_site_type_symbol
_atom_site_label
_atom_site_fract_x
_atom_site_fract_y
_atom_site_fract_z
Si Si1 0.808458 0.178965 0.365308
Si Si2 0.428858 0.833871 0.492564
Si Si3 0.715608 0.676840 0.284506
Si Si4 0.497015 0.678918 0.258267
Si Si5 0.175128 0.681962 0.125315
O O1 0.750000 0.250000 0.500000
O O2 0.782506 0.248670 0.292457
O O3 0.909088 0.201684 0.283967
O O4 0.795571 0.000000 0.379901
O O5 0.500000 0.851305 0.500000
O O6 0.366015 0.711094 0.584323
O O7 0.472118 0.766622 0.368813
O O8 0.391854 0.000000 0.510930
O O9 0.729759 0.500000 0.259031
O O10 0.695474 0.758222 0.208034
O O11 0.507554 0.500000 0.257569
O O12 0.589009 0.750896 0.160365
O O13 0.172318 0.500000 0.128074
O O14 0.250000 0.750000 0.000000
#
# Coordination Sequence:
#
# PCOD9225852 Si02
#       5
#     8   8   8   8   8
#     4  11  23  38  60  93 135 172 206 251 312 380
#     4  11  21  33  56  90 126 164 205 254 313 374
#     4  12  24  39  62  92 128 167 209 258 312 374
#     4  11  23  39  62  93 128 166 207 256 313 374
#     4  12  26  46  69  92 121 162 213 267 315 369
#
# _framework density 9.2092229999999997
#
# number of rings (size 3 to 8) (size 9 to 14) (size 15 to 20)
#    0.000    0.600    4.000    5.400    0.000    3.200 
#    0.000    1.000    0.000    6.000    0.000    0.000 
#    0.000    0.000    0.000    0.000    0.000    0.000 
#
# Total GULP energy -111343.817797 kJ/mol
# GULP energy per Si atom -5567.190890 kJ/mol
# Density = 0.918826 g / cm^3
# Si number density = 9.209223 Si / 1000 Ang^3
#
#
#
# Elastic Constant Matrix: (Units=GPa)
#
#
# Indices 1 2 3 4 5 6 
#
# 1 149.3261 59.8916 36.1938 0.0000 -36.3673 0.0000
# 2 59.8916 157.1491 11.5545 -0.0002 -5.7354 0.0001
# 3 36.1938 11.5545 59.1604 0.0000 -19.5181 0.0000
# 4 0.0000 -0.0002 0.0000 33.8627 0.0001 1.3044
# 5 -36.3673 -5.7354 -19.5181 0.0001 19.2221 0.0000
# 6 0.0000 0.0001 0.0000 1.3044 0.0000 40.4169
#
#
#
# Elastic Compliance Matrix: (Units=1/GPa)
#
#
# Indices 1 2 3 4 5 6 
#
# 1 0.015412 -0.004899 0.001001 0.000000 0.028713 0.000000
# 2 -0.004899 0.008026 -0.001260 0.000000 -0.008155 0.000000
# 3 0.001001 -0.001260 0.025621 0.000000 0.027533 0.000000
# 4 0.000000 0.000000 0.000000 0.029568 0.000000 -0.000954
# 5 0.028713 -0.008155 0.027533 0.000000 0.131871 0.000000
# 6 0.000000 0.000000 0.000000 -0.000954 0.000000 0.024773
#
#
# Mechanical properties :
#
#
# Convention : Reuss Voigt Hill
#
# Bulk Modulus (GPa) = 25.81263 64.54617 45.17940
# Shear Modulus (GPa) = 19.34223 35.90007 27.62115
#
# Velocity S-wave (km/s) = 3.24413 4.41969 3.87673
# Velocity P-wave (km/s) = 5.29882 7.82082 6.67992
#
# Compressibility (1/GPa) = 0.03874073
#
# Stress axis : x y z
#
# Youngs Moduli (GPa) = 64.88391 124.60010 39.03116
#
# Poissons Ratio (x) = 0.61047 -0.03907
# Poissons Ratio (y) = 0.31789 0.04919
# Poissons Ratio (z) = -0.06495 0.15705
#
# Static dielectric constant tensor:
#      x y z
#    x 1.750580 0.000000 0.043830 
#    y 0.000000 1.637290 0.000000 
#    z 0.043830 0.000000 1.732180 
# 
# From -- ./inp_files/229639.got.cif
#   From: 2010.05.17/outbox.ucp.g08.bks.cvg/sg12_115_cif.got.tgz:229639.got - 2010.06.11 11:47:21.
