data_PCOD9225289
_publ_section_title
;
Structure prediction by ZEFSAII (Michael W. Deem and Ramdas Pophale) SiO2 
 PCOD9225289
Probable space group: C 2/M
;
_chemical_formula_sum "Si O2"
_cell_formula_units_Z 32
_cell_length_a 30.000000
_cell_length_b 9.000000
_cell_length_c 15.000000
_cell_angle_alpha 90.000000
_cell_angle_beta 60.000000
_cell_angle_gamma 90.000000
_cell_volume 3507.402885
_symmetry_space_group_name_H-M "C 2/M"
_symmetry_group_IT_number 12
_symmetry_cell_setting 'monoclinic'
loop_
_space_group_symop_operation_xyz
x,y,z
-x,y,-z
-x,-y,-z
x,-y,z
1/2+x,1/2+y,z
1/2-x,1/2+y,-z
1/2-x,1/2-y,-z
1/2+x,1/2-y,z
loop_
_atom_site_type_symbol
_atom_site_label
_atom_site_fract_x
_atom_site_fract_y
_atom_site_fract_z
Si Si1 0.359894 0.678136 0.786504
Si Si2 0.338570 0.673610 0.147481
Si Si3 0.702362 0.821591 0.493440
Si Si4 0.604315 0.175977 0.068908
Si Si5 0.783396 0.324492 0.726808
Si Si6 0.497365 0.321378 0.218621
Si Si7 0.972750 0.820271 0.614671
Si Si8 0.381114 0.322899 0.301868
O O1 0.358294 0.500000 0.797357
O O2 0.365057 0.750091 0.878898
O O3 0.313966 0.735847 0.771389
O O4 0.413278 0.721610 0.684059
O O5 0.350828 0.500000 0.116108
O O6 0.277586 0.693393 0.200337
O O7 0.355112 0.703027 0.232359
O O8 0.368227 0.776378 0.049136
O O9 0.750000 0.750000 0.500000
O O10 0.703650 0.778408 0.387791
O O11 0.650484 0.765545 0.592347
O O12 0.707196 0.000000 0.493003
O O13 0.546443 0.241261 0.127514
O O14 0.603086 0.000000 0.081649
O O15 0.795572 0.500000 0.723049
O O16 0.504863 0.500000 0.203305
O O17 0.498969 0.281477 0.321886
O O18 0.441337 0.283605 0.237665
O O19 0.000000 0.759450 0.500000
O O20 0.973649 0.000000 0.608851
O O21 0.377718 0.500000 0.324898
#
# Coordination Sequence:
#
# PCOD9225289 Si02
#       8
#     8   8   8   8   8   8   8   8
#     4  10  21  37  60  86 114 151 194 239 290 347
#     4  10  21  40  61  82 114 153 199 243 290 350
#     4  11  22  38  59  85 122 161 197 240 290 344
#     4  11  23  40  61  84 116 151 191 245 301 347
#     4  10  22  39  58  85 121 156 191 239 291 344
#     4   9  19  36  59  84 116 154 195 236 286 349
#     4   8  15  29  50  80 111 141 183 234 275 324
#     4  10  21  38  61  89 118 156 199 242 291 345
#
# _framework density 9.1235599999999994
#
# number of rings (size 3 to 8) (size 9 to 14) (size 15 to 20)
#    0.000    2.125    1.250    2.625    1.750    3.500 
#    0.000    2.500    0.000    1.875    0.000    0.000 
#    0.000    0.000    0.000    0.000    0.000    0.000 
#
# Total GULP energy -178620.996960 kJ/mol
# GULP energy per Si atom -5581.906155 kJ/mol
# Density = 0.910279 g / cm^3
# Si number density = 9.123560 Si / 1000 Ang^3
#
#
#
# Elastic Constant Matrix: (Units=GPa)
#
#
# Indices 1 2 3 4 5 6 
#
# 1 69.8917 23.6284 -13.2768 0.0000 -19.4194 0.0000
# 2 23.6284 53.5347 27.2225 0.0000 -12.5756 0.0000
# 3 -13.2768 27.2225 50.3617 0.0000 -17.4978 0.0000
# 4 0.0000 0.0000 0.0000 28.4926 0.0000 -0.8408
# 5 -19.4194 -12.5756 -17.4978 0.0000 -4.3711 0.0000
# 6 0.0000 0.0000 0.0000 -0.8408 0.0000 30.4095
#
#
#
# Elastic Compliance Matrix: (Units=1/GPa)
#
#
# Indices 1 2 3 4 5 6 
#
# 1 0.011712 -0.011189 0.000937 0.000000 -0.023596 0.000000
# 2 -0.011189 0.035847 -0.017101 0.000000 0.015038 0.000000
# 3 0.000937 -0.017101 0.018820 0.000000 -0.030301 0.000000
# 4 0.000000 0.000000 0.000000 0.035126 0.000000 0.000971
# 5 -0.023596 0.015038 -0.030301 0.000000 -0.045911 0.000000
# 6 0.000000 0.000000 0.000000 0.000971 0.000000 0.032911
#
#
# Mechanical properties :
#
#
# Convention : Reuss Voigt Hill
#
# Bulk Modulus (GPa) = 85.67086 27.65960 56.66523
# Shear Modulus (GPa) = 33.99020 19.98712 26.98866
#
# Velocity S-wave (km/s) = 4.32067 3.31321 3.85003
# Velocity P-wave (km/s) = 8.48193 5.46148 7.13340
#
# Compressibility (1/GPa) = 0.01167258
#
# Stress axis : x y z
#
# Youngs Moduli (GPa) = 85.37949 27.89670 53.13583
#
# Poissons Ratio (x) = 0.31214 -0.04981
# Poissons Ratio (y) = 0.95532 0.90870
# Poissons Ratio (z) = -0.08004 0.47707
#
# Static dielectric constant tensor:
#      x y z
#    x 1.578470 0.000000 0.009830 
#    y 0.000000 1.614800 0.000000 
#    z 0.009830 0.000000 1.610150 
# 
# From -- ./inp_files/249109.got.cif
#   From: 2010.05.17/outbox.ucp.g08.bks.cvg/sg12_125_cif.got.tgz:249109.got - 2010.06.11 11:47:21.
