data_PCOD9225179
_publ_section_title
;
Structure prediction by ZEFSAII (Michael W. Deem and Ramdas Pophale) SiO2 
 PCOD9225179
Probable space group: C 2/M
;
_chemical_formula_sum "Si O2"
_cell_formula_units_Z 32
_cell_length_a 21.000000
_cell_length_b 9.000000
_cell_length_c 24.000000
_cell_angle_alpha 90.000000
_cell_angle_beta 50.000000
_cell_angle_gamma 90.000000
_cell_volume 3474.777594
_symmetry_space_group_name_H-M "C 2/M"
_symmetry_group_IT_number 12
_symmetry_cell_setting 'monoclinic'
loop_
_space_group_symop_operation_xyz
x,y,z
-x,y,-z
-x,-y,-z
x,-y,z
1/2+x,1/2+y,z
1/2-x,1/2+y,-z
1/2-x,1/2-y,-z
1/2+x,1/2-y,z
loop_
_atom_site_type_symbol
_atom_site_label
_atom_site_fract_x
_atom_site_fract_y
_atom_site_fract_z
Si Si1 0.808637 0.328106 0.138468
Si Si2 0.524291 0.674038 0.663485
Si Si3 0.181565 0.822052 0.499267
Si Si4 0.272012 0.825554 0.643442
Si Si5 0.394997 0.678930 0.192769
Si Si6 0.467646 0.821010 0.808061
Si Si7 0.717229 0.318827 0.076498
Si Si8 0.146308 0.833414 0.306895
O O1 0.837474 0.500000 0.119837
O O2 0.869834 0.235556 0.144749
O O3 0.781464 0.280860 0.091204
O O4 0.721580 0.325407 0.220946
O O5 0.537796 0.500000 0.672084
O O6 0.595226 0.715899 0.579167
O O7 0.514779 0.769883 0.724795
O O8 0.437912 0.684606 0.679270
O O9 0.250000 0.750000 0.500000
O O10 0.199844 0.759885 0.427550
O O11 0.187418 0.000000 0.494486
O O12 0.182743 0.783562 0.721635
O O13 0.337815 0.786428 0.654622
O O14 0.268608 0.000000 0.633188
O O15 0.403903 0.500000 0.187465
O O16 0.476513 0.756996 0.172501
O O17 0.375167 0.747891 0.860147
O O18 0.461526 0.000000 0.814281
O O19 0.712252 0.500000 0.077067
O O20 0.750000 0.250000 0.000000
O O21 0.147868 0.000000 0.331255
#
# Coordination Sequence:
#
# PCOD9225179 Si02
#       8
#     8   8   8   8   8   8   8   8
#     4   9  18  36  62  88 118 155 194 238 289 350
#     4  10  21  38  58  81 111 151 196 245 299 351
#     4  11  23  37  54  75 107 150 195 243 299 356
#     4  10  21  36  54  80 115 151 192 242 297 351
#     4  10  21  37  60  87 119 159 201 248 297 348
#     4  12  24  38  61  92 122 155 200 247 294 353
#     4  11  23  42  66  94 127 160 194 238 292 351
#     4   9  17  34  58  81 107 146 192 236 290 349
#
# _framework density 9.2092220000000005
#
# number of rings (size 3 to 8) (size 9 to 14) (size 15 to 20)
#    0.000    1.750    1.250    3.375    0.000    7.500 
#    0.000    3.125    0.000    3.750    0.000    0.000 
#    0.000    0.000    0.000    0.000    0.000    0.000 
#
# Total GULP energy -178592.893399 kJ/mol
# GULP energy per Si atom -5581.027919 kJ/mol
# Density = 0.918826 g / cm^3
# Si number density = 9.209222 Si / 1000 Ang^3
#
#
#
# Elastic Constant Matrix: (Units=GPa)
#
#
# Indices 1 2 3 4 5 6 
#
# 1 92.9456 40.0898 29.7717 0.0000 19.9239 0.0001
# 2 40.0898 83.2687 35.6916 0.0000 12.1362 0.0001
# 3 29.7717 35.6916 66.6029 0.0000 28.9420 0.0000
# 4 0.0000 0.0000 0.0000 33.4615 0.0000 5.6918
# 5 19.9239 12.1362 28.9420 0.0000 30.8187 0.0000
# 6 0.0001 0.0001 0.0000 5.6918 0.0000 33.9308
#
#
#
# Elastic Compliance Matrix: (Units=1/GPa)
#
#
# Indices 1 2 3 4 5 6 
#
# 1 0.014974 -0.005994 -0.000507 0.000000 -0.006844 0.000000
# 2 -0.005994 0.018143 -0.009499 0.000000 0.005651 0.000000
# 3 -0.000507 -0.009499 0.031362 0.000000 -0.025383 0.000000
# 4 0.000000 0.000000 0.000000 0.030763 0.000000 -0.005160
# 5 -0.006844 0.005651 -0.025383 0.000000 0.058484 0.000000
# 6 0.000000 0.000000 0.000000 -0.005160 0.000000 0.030337
#
#
# Mechanical properties :
#
#
# Convention : Reuss Voigt Hill
#
# Bulk Modulus (GPa) = 30.79015 50.43592 40.61303
# Shear Modulus (GPa) = 22.03708 28.79313 25.41511
#
# Velocity S-wave (km/s) = 3.46275 3.95812 3.71869
# Velocity P-wave (km/s) = 5.72196 6.95211 6.36681
#
# Compressibility (1/GPa) = 0.03247792
#
# Stress axis : x y z
#
# Youngs Moduli (GPa) = 66.78249 55.11716 31.88613
#
# Poissons Ratio (x) = 0.33039 0.01618
# Poissons Ratio (y) = 0.40032 0.30288
# Poissons Ratio (z) = 0.03388 0.52354
#
# Static dielectric constant tensor:
#      x y z
#    x 1.662010 0.000000 0.005270 
#    y 0.000000 1.582920 0.000000 
#    z 0.005270 0.000000 1.644540 
# 
# From -- ./inp_files/345967.got.cif
#   From: 2010.05.17/outbox.ucp.g08.bks.cvg/sg12_173_cif.got.tgz:345967.got - 2010.06.11 11:47:21.
