data_PCOD9225494
_publ_section_title
;
Structure prediction by ZEFSAII (Michael W. Deem and Ramdas Pophale) SiO2 
 PCOD9225494
Probable space group: C 2/M
;
_chemical_formula_sum "Si O2"
_cell_formula_units_Z 24
_cell_length_a 15.000000
_cell_length_b 9.000000
_cell_length_c 27.000000
_cell_angle_alpha 90.000000
_cell_angle_beta 140.000000
_cell_angle_gamma 90.000000
_cell_volume 2342.960837
_symmetry_space_group_name_H-M "C 2/M"
_symmetry_group_IT_number 12
_symmetry_cell_setting 'monoclinic'
loop_
_space_group_symop_operation_xyz
x,y,z
-x,y,-z
-x,-y,-z
x,-y,z
1/2+x,1/2+y,z
1/2-x,1/2+y,-z
1/2-x,1/2-y,-z
1/2+x,1/2-y,z
loop_
_atom_site_type_symbol
_atom_site_label
_atom_site_fract_x
_atom_site_fract_y
_atom_site_fract_z
Si Si1 0.425453 0.324032 0.204897
Si Si2 0.896087 0.821092 0.077654
Si Si3 0.855620 0.324699 0.507359
Si Si4 0.686989 0.327493 0.156957
Si Si5 0.171632 0.669976 0.675796
Si Si6 0.695811 0.172615 0.353501
O O1 0.443004 0.500000 0.217408
O O2 0.437067 0.284014 0.151815
O O3 0.273299 0.272985 0.156572
O O4 0.543144 0.245395 0.288568
O O5 0.029266 0.780143 0.100873
O O6 0.882935 0.000000 0.069713
O O7 0.750000 0.750000 0.000000
O O8 0.831999 0.500000 0.492589
O O9 0.750000 0.250000 0.500000
O O10 0.812582 0.249536 0.437378
O O11 0.009694 0.306269 0.594950
O O12 0.685508 0.500000 0.139733
O O13 0.775487 0.323499 0.245723
O O14 0.205524 0.500000 0.672726
O O15 0.252371 0.793568 0.679529
O O16 0.686081 0.000000 0.361884
#
# Coordination Sequence:
#
# PCOD9225494 Si02
#       6
#     8   8   8   8   8   8
#     4  11  23  42  66  94 127 166 211 261 315 374
#     4  10  23  43  67  93 129 166 203 257 317 380
#     4  11  23  38  59  87 122 165 211 262 315 368
#     4  10  21  41  66  94 128 166 209 259 316 375
#     4  10  21  40  62  85 121 164 209 259 315 368
#     4  12  24  38  60  89 123 165 212 261 311 372
#
# _framework density 10.243449
#
# number of rings (size 3 to 8) (size 9 to 14) (size 15 to 20)
#    0.000    1.333    1.667    4.000    0.000    8.000 
#    0.000    3.333    0.000    0.000    0.000    0.000 
#    0.000    0.000    0.000    0.000    0.000    0.000 
#
# Total GULP energy -134080.890737 kJ/mol
# GULP energy per Si atom -5586.703781 kJ/mol
# Density = 1.022013 g / cm^3
# Si number density = 10.243449 Si / 1000 Ang^3
#
#
#
# Elastic Constant Matrix: (Units=GPa)
#
#
# Indices 1 2 3 4 5 6 
#
# 1 64.9069 25.8367 3.8850 0.0000 28.8526 0.0000
# 2 25.8367 64.6976 37.2835 0.0000 18.8475 0.0000
# 3 3.8850 37.2835 78.3287 0.0000 35.6910 0.0000
# 4 0.0000 0.0000 0.0000 34.7346 0.0000 2.4287
# 5 28.8526 18.8475 35.6910 0.0000 34.7111 0.0000
# 6 0.0000 0.0000 0.0000 2.4287 0.0000 32.2808
#
#
#
# Elastic Compliance Matrix: (Units=1/GPa)
#
#
# Indices 1 2 3 4 5 6 
#
# 1 0.065389 -0.029725 0.053280 0.000000 -0.092997 0.000000
# 2 -0.029725 0.034897 -0.033418 0.000000 0.040121 0.000000
# 3 0.053280 -0.033418 0.071390 0.000000 -0.099548 0.000000
# 4 0.000000 0.000000 0.000000 0.028942 0.000000 -0.002177
# 5 -0.092997 0.040121 -0.099548 0.000000 0.186683 0.000000
# 6 0.000000 0.000000 0.000000 -0.002177 0.000000 0.031142
#
#
# Mechanical properties :
#
#
# Convention : Reuss Voigt Hill
#
# Bulk Modulus (GPa) = 6.58106 37.99374 22.28740
# Shear Modulus (GPa) = 10.22873 29.74051 19.98462
#
# Velocity S-wave (km/s) = 2.23688 3.81423 3.12666
# Velocity P-wave (km/s) = 3.14497 6.16307 4.89256
#
# Compressibility (1/GPa) = 0.15195129
#
# Stress axis : x y z
#
# Youngs Moduli (GPa) = 15.29301 28.65572 14.00755
#
# Poissons Ratio (x) = 0.85180 -0.74633
# Poissons Ratio (y) = 0.45459 0.46810
# Poissons Ratio (z) = -0.81482 0.95760
#
# Static dielectric constant tensor:
#      x y z
#    x 1.802990 0.000000 -0.036490 
#    y 0.000000 1.680770 0.000000 
#    z -0.036490 0.000000 1.738420 
# 
# From -- ./inp_files/360210.got.cif
#   From: 2010.05.17/outbox.ucp.g08.bks.cvg/sg12_181_cif.got.tgz:360210.got - 2010.06.11 11:47:21.
