data_PCOD9225290
_publ_section_title
;
Structure prediction by ZEFSAII (Michael W. Deem and Ramdas Pophale) SiO2 
 PCOD9225290
Probable space group: C 2/M
;
_chemical_formula_sum "Si O2"
_cell_formula_units_Z 32
_cell_length_a 30.000000
_cell_length_b 9.000000
_cell_length_c 24.000000
_cell_angle_alpha 90.000000
_cell_angle_beta 30.000000
_cell_angle_gamma 90.000000
_cell_volume 3240.000000
_symmetry_space_group_name_H-M "C 2/M"
_symmetry_group_IT_number 12
_symmetry_cell_setting 'monoclinic'
loop_
_space_group_symop_operation_xyz
x,y,z
-x,y,-z
-x,-y,-z
x,-y,z
1/2+x,1/2+y,z
1/2-x,1/2+y,-z
1/2-x,1/2-y,-z
1/2+x,1/2-y,z
loop_
_atom_site_type_symbol
_atom_site_label
_atom_site_fract_x
_atom_site_fract_y
_atom_site_fract_z
Si Si1 0.813359 0.321762 0.013027
Si Si2 0.652555 0.678538 0.603654
Si Si3 0.851435 0.670992 0.846294
Si Si4 0.780003 0.677915 0.249019
Si Si5 0.419751 0.321044 0.545293
Si Si6 0.440234 0.172137 0.402729
Si Si7 0.925965 0.679417 0.997960
Si Si8 0.387988 0.677210 0.225056
O O1 0.813365 0.500000 0.014742
O O2 0.712582 0.263354 0.124628
O O3 0.844770 0.273247 0.917416
O O4 0.877443 0.272353 0.993159
O O5 0.656428 0.500000 0.593773
O O6 0.750000 0.750000 0.500000
O O7 0.601827 0.747642 0.605569
O O8 0.612399 0.713291 0.708439
O O9 0.819772 0.500000 0.880150
O O10 0.953480 0.673583 0.719580
O O11 0.781378 0.500000 0.256464
O O12 0.683239 0.714322 0.327372
O O13 0.804590 0.755656 0.280911
O O14 0.858368 0.716047 0.120929
O O15 0.500000 0.270636 0.500000
O O16 0.427449 0.500000 0.533510
O O17 0.424827 0.252792 0.478035
O O18 0.409453 0.000000 0.437734
O O19 0.937576 0.500000 0.984798
O O20 0.021800 0.754616 0.897932
O O21 0.386406 0.500000 0.221139
#
# Coordination Sequence:
#
# PCOD9225290 Si02
#       8
#     8   8   8   8   8   8   8   8
#     4   9  18  33  55  81 111 149 194 241 289 346
#     4  11  24  41  63  91 122 158 201 250 306 366
#     4   9  19  34  52  80 116 151 189 238 296 352
#     4  10  22  40  61  87 119 158 205 252 300 359
#     4  10  23  42  65  91 121 160 207 256 305 359
#     4  11  23  39  61  89 121 156 198 245 301 364
#     4  10  21  37  60  87 117 158 203 246 298 358
#     4  11  24  40  60  90 124 158 199 249 304 360
#
# _framework density 9.8765429999999999
#
# number of rings (size 3 to 8) (size 9 to 14) (size 15 to 20)
#    0.000    1.875    0.000    3.000    1.750    9.250 
#    0.000    2.500    0.000    0.000    0.000    0.000 
#    0.000    0.000    0.000    0.000    0.000    0.000 
#
# Total GULP energy -178673.143659 kJ/mol
# GULP energy per Si atom -5583.535739 kJ/mol
# Density = 0.985406 g / cm^3
# Si number density = 9.876543 Si / 1000 Ang^3
#
#
#
# Elastic Constant Matrix: (Units=GPa)
#
#
# Indices 1 2 3 4 5 6 
#
# 1 132.0193 30.8820 45.8096 0.0038 -16.3480 -0.0022
# 2 30.8820 26.8658 33.0785 0.0078 -3.0131 -0.0044
# 3 45.8096 33.0785 92.2032 0.0024 -6.8744 -0.0022
# 4 0.0038 0.0078 0.0024 22.5040 -0.0020 -1.7789
# 5 -16.3480 -3.0131 -6.8744 -0.0020 29.5792 0.0007
# 6 -0.0022 -0.0044 -0.0022 -1.7789 0.0007 34.6875
#
#
#
# Elastic Compliance Matrix: (Units=1/GPa)
#
#
# Indices 1 2 3 4 5 6 
#
# 1 0.011106 -0.010524 -0.001388 0.000002 0.004743 -0.000001
# 2 -0.010524 0.076692 -0.022526 -0.000022 -0.003240 0.000007
# 3 -0.001388 -0.022526 0.019730 0.000006 0.001524 -0.000001
# 4 0.000002 -0.000022 0.000006 0.044617 0.000003 0.002288
# 5 0.004743 -0.003240 0.001524 0.000003 0.036453 -0.000001
# 6 -0.000001 0.000007 -0.000001 0.002288 -0.000001 0.028946
#
#
# Mechanical properties :
#
#
# Convention : Reuss Voigt Hill
#
# Bulk Modulus (GPa) = 25.87341 52.29205 39.08273
# Shear Modulus (GPa) = 16.70531 26.77537 21.74034
#
# Velocity S-wave (km/s) = 2.91126 3.68571 3.32114
# Velocity P-wave (km/s) = 4.94241 6.68154 5.87666
#
# Compressibility (1/GPa) = 0.03864972
#
# Stress axis : x y z
#
# Youngs Moduli (GPa) = 90.04458 13.03918 50.68316
#
# Poissons Ratio (x) = 0.13723 0.07036
# Poissons Ratio (y) = 0.94767 1.14171
# Poissons Ratio (z) = 0.12501 0.29373
#
# Static dielectric constant tensor:
#      x y z
#    x 1.688130 0.000000 0.010170 
#    y 0.000000 1.679640 0.000000 
#    z 0.010170 0.000000 1.736400 
# 
# From -- ./inp_files/353386.got.cif
#   From: 2010.05.17/outbox.ucp.g08.bks.cvg/sg12_177_cif.got.tgz:353386.got - 2010.06.11 11:47:21.
