data_PCOD9225658
_publ_section_title
;
Structure prediction by ZEFSAII (Michael W. Deem and Ramdas Pophale) SiO2 
 PCOD9225658
Probable space group: C 2/M
;
_chemical_formula_sum "Si O2"
_cell_formula_units_Z 32
_cell_length_a 18.000000
_cell_length_b 9.000000
_cell_length_c 30.000000
_cell_angle_alpha 90.000000
_cell_angle_beta 140.000000
_cell_angle_gamma 90.000000
_cell_volume 3123.947783
_symmetry_space_group_name_H-M "C 2/M"
_symmetry_group_IT_number 12
_symmetry_cell_setting 'monoclinic'
loop_
_space_group_symop_operation_xyz
x,y,z
-x,y,-z
-x,-y,-z
x,-y,z
1/2+x,1/2+y,z
1/2-x,1/2+y,-z
1/2-x,1/2-y,-z
1/2+x,1/2-y,z
loop_
_atom_site_type_symbol
_atom_site_label
_atom_site_fract_x
_atom_site_fract_y
_atom_site_fract_z
Si Si1 0.994531 0.326349 0.370341
Si Si2 0.406554 0.671671 0.497197
Si Si3 0.265984 0.676358 0.142540
Si Si4 0.405674 0.326508 0.996280
Si Si5 0.252084 0.834112 0.364407
Si Si6 0.490146 0.670307 0.709557
Si Si7 0.922642 0.674537 0.866471
Si Si8 0.232076 0.173445 0.715720
O O1 0.008024 0.500000 0.384536
O O2 0.047852 0.272834 0.348668
O O3 0.860711 0.278441 0.303573
O O4 0.041792 0.231003 0.433125
O O5 0.500000 0.680175 0.500000
O O6 0.370347 0.500000 0.484761
O O7 0.306891 0.783138 0.435807
O O8 0.269691 0.500000 0.137700
O O9 0.210034 0.749478 0.073645
O O10 0.393419 0.727066 0.214100
O O11 0.179086 0.703986 0.144016
O O12 0.388025 0.500000 0.991818
O O13 0.500000 0.299032 0.000000
O O14 0.465241 0.263279 0.067645
O O15 0.282735 0.710571 0.342529
O O16 0.115201 0.837522 0.305207
O O17 0.294419 0.000000 0.371509
O O18 0.511562 0.500000 0.703180
O O19 0.949065 0.500000 0.880985
O O20 0.860605 0.708718 0.791569
O O21 0.210262 0.000000 0.715357
#
# Coordination Sequence:
#
# PCOD9225658 Si02
#       8
#     8   8   8   8   8   8   8   8
#     4  12  24  37  61  90 115 146 190 239 284 333
#     4  11  23  40  63  85 113 153 190 230 283 341
#     4   9  16  31  53  75 106 149 189 222 270 337
#     4   9  17  27  43  75 114 143 176 230 286 323
#     4  11  24  40  61  88 116 148 189 237 286 337
#     4  10  22  41  60  83 118 155 190 231 283 343
#     4   9  17  30  52  78 106 145 189 227 271 334
#     4  11  21  37  59  84 116 152 191 233 283 341
#
# _framework density 10.243449
#
# number of rings (size 3 to 8) (size 9 to 14) (size 15 to 20)
#    0.000    1.750    2.500    2.625    0.000    5.000 
#    0.000    0.000    0.000    0.750    0.000    0.000 
#    0.000    0.000    0.000    0.000    0.000    0.000 
#
# Total GULP energy -178469.645960 kJ/mol
# GULP energy per Si atom -5577.176436 kJ/mol
# Density = 1.022013 g / cm^3
# Si number density = 10.243449 Si / 1000 Ang^3
#
#
#
# Elastic Constant Matrix: (Units=GPa)
#
#
# Indices 1 2 3 4 5 6 
#
# 1 18.7696 6.4055 5.6086 0.0000 6.7041 0.0000
# 2 6.4055 9.3981 14.4992 0.0001 6.6729 -0.0001
# 3 5.6086 14.4992 109.6858 0.0000 0.3062 0.0000
# 4 0.0000 0.0001 0.0000 16.9836 0.0000 5.0525
# 5 6.7041 6.6729 0.3062 0.0000 9.7052 0.0000
# 6 0.0000 -0.0001 0.0000 5.0525 0.0000 4.6968
#
#
#
# Elastic Compliance Matrix: (Units=1/GPa)
#
#
# Indices 1 2 3 4 5 6 
#
# 1 0.074251 -0.027522 -0.000068 0.000000 -0.032366 0.000000
# 2 -0.027522 0.349342 -0.044158 -0.000005 -0.219789 0.000012
# 3 -0.000068 -0.044158 0.014874 0.000001 0.029939 -0.000001
# 4 0.000000 -0.000005 0.000001 0.086591 0.000003 -0.093149
# 5 -0.032366 -0.219789 0.029939 0.000003 0.275568 -0.000008
# 6 0.000000 0.000012 -0.000001 -0.093149 -0.000008 0.313114
#
#
# Mechanical properties :
#
#
# Convention : Reuss Voigt Hill
#
# Bulk Modulus (GPa) = 3.39017 21.20892 12.29955
# Shear Modulus (GPa) = 3.68851 13.69980 8.69416
#
# Velocity S-wave (km/s) = 1.34325 2.58875 2.06227
# Velocity P-wave (km/s) = 2.01598 4.39436 3.41867
#
# Compressibility (1/GPa) = 0.29497033
#
# Stress axis : x y z
#
# Youngs Moduli (GPa) = 13.46789 2.86252 67.23110
#
# Poissons Ratio (x) = 0.07878 0.00459
# Poissons Ratio (y) = 0.37066 2.96880
# Poissons Ratio (z) = 0.00092 0.12640
#
# Static dielectric constant tensor:
#      x y z
#    x 1.762090 0.000000 0.008180 
#    y 0.000000 1.693680 0.000000 
#    z 0.008180 0.000000 1.757010 
# 
# From -- ./inp_files/378312.got.cif
#   From: 2010.05.17/outbox.ucp.g08.bks.cvg/sg12_190_cif.got.tgz:378312.got - 2010.06.11 11:47:21.
