data_PCOD9225203
_publ_section_title
;
Structure prediction by ZEFSAII (Michael W. Deem and Ramdas Pophale) SiO2 
 PCOD9225203
Probable space group: C 2/M
;
_chemical_formula_sum "Si O2"
_cell_formula_units_Z 28
_cell_length_a 21.000000
_cell_length_b 15.000000
_cell_length_c 9.000000
_cell_angle_alpha 90.000000
_cell_angle_beta 90.000000
_cell_angle_gamma 90.000000
_cell_volume 2835.000000
_symmetry_space_group_name_H-M "C 2/M"
_symmetry_group_IT_number 12
_symmetry_cell_setting 'monoclinic'
loop_
_space_group_symop_operation_xyz
x,y,z
-x,y,-z
-x,-y,-z
x,-y,z
1/2+x,1/2+y,z
1/2-x,1/2+y,-z
1/2-x,1/2-y,-z
1/2+x,1/2-y,z
loop_
_atom_site_type_symbol
_atom_site_label
_atom_site_fract_x
_atom_site_fract_y
_atom_site_fract_z
Si Si1 0.200420 0.600980 0.636572
Si Si2 0.306104 0.605863 0.429673
Si Si3 0.108838 0.204122 0.339267
Si Si4 0.513823 0.275148 0.839077
Si Si5 0.560897 0.150922 0.576061
Si Si6 0.364064 0.604419 0.124328
Si Si7 0.216618 0.190958 0.121693
O O1 0.222395 0.500000 0.655642
O O2 0.238352 0.637925 0.492985
O O3 0.125468 0.601309 0.615383
O O4 0.227810 0.651794 0.776984
O O5 0.302879 0.500000 0.411973
O O6 0.358134 0.630427 0.555399
O O7 0.325690 0.641196 0.268689
O O8 0.083278 0.276734 0.454313
O O9 0.164533 0.236399 0.228966
O O10 0.048218 0.180321 0.237208
O O11 0.538260 0.202093 0.723106
O O12 0.569056 0.345697 0.870581
O O13 0.500000 0.233753 0.000000
O O14 0.500000 0.104402 0.500000
O O15 0.374723 0.500000 0.142589
O O16 0.324725 0.621024 0.974422
O O17 0.250000 0.250000 0.000000
#
# Coordination Sequence:
#
# PCOD9225203 Si02
#       7
#     8   8   8   8   8   8   8
#     4  10  22  40  61  85 115 150 186 237 296 344
#     4   9  20  36  57  83 118 151 187 235 283 342
#     4  10  21  36  57  83 115 150 196 236 278 341
#     4  11  21  38  56  83 117 155 193 239 284 335
#     4  10  22  39  62  84 110 147 194 245 284 342
#     4  11  22  37  56  85 120 156 194 234 281 346
#     4  11  23  36  59  88 116 153 193 239 285 337
#
# _framework density 9.8765429999999999
#
# number of rings (size 3 to 8) (size 9 to 14) (size 15 to 20)
#    0.000    1.714    2.857    1.286    2.000    2.857 
#    0.000    1.429    0.000    0.429    0.000    0.000 
#    0.000    0.000    0.000    0.000    0.000    0.000 
#
# Total GULP energy -156062.465142 kJ/mol
# GULP energy per Si atom -5573.659469 kJ/mol
# Density = 0.985406 g / cm^3
# Si number density = 9.876543 Si / 1000 Ang^3
#
#
#
# Elastic Constant Matrix: (Units=GPa)
#
#
# Indices 1 2 3 4 5 6 
#
# 1 120.8324 30.1146 50.7068 0.0000 10.7196 0.0000
# 2 30.1146 44.9645 31.7467 0.0000 -3.0560 0.0000
# 3 50.7068 31.7467 136.2102 0.0000 -13.2513 0.0000
# 4 0.0000 0.0000 0.0000 -36.2214 0.0000 -35.4532
# 5 10.7196 -3.0560 -13.2513 0.0000 39.5569 0.0000
# 6 0.0000 0.0000 0.0000 -35.4532 0.0000 -9.4392
#
#
#
# Elastic Compliance Matrix: (Units=1/GPa)
#
#
# Indices 1 2 3 4 5 6 
#
# 1 0.011540 -0.005617 -0.003446 0.000000 -0.004715 0.000000
# 2 -0.005617 0.029354 -0.004530 0.000000 0.002272 0.000000
# 3 -0.003446 -0.004530 0.010065 0.000000 0.003955 0.000000
# 4 0.000000 0.000000 0.000000 0.010316 0.000000 -0.038745
# 5 -0.004715 0.002272 0.003955 0.000000 0.028059 0.000000
# 6 0.000000 0.000000 0.000000 -0.038745 0.000000 0.039585
#
#
# Mechanical properties :
#
#
# Convention : Reuss Voigt Hill
#
# Bulk Modulus (GPa) = 42.06080 58.57147 50.31614
# Shear Modulus (GPa) = 30.48283 11.40852 20.94568
#
# Velocity S-wave (km/s) = 3.93261 2.40585 3.25987
# Velocity P-wave (km/s) = 6.47766 6.11830 6.30054
#
# Compressibility (1/GPa) = 0.02377511
#
# Stress axis : x y z
#
# Youngs Moduli (GPa) = 86.65506 34.06703 99.35574
#
# Poissons Ratio (x) = 0.19134 0.34235
# Poissons Ratio (y) = 0.48670 0.45004
# Poissons Ratio (z) = 0.29859 0.15431
#
# Static dielectric constant tensor:
#      x y z
#    x 1.704320 0.000000 -0.026820 
#    y 0.000000 1.682300 0.000000 
#    z -0.026820 0.000000 1.715690 
# 
# From -- ./inp_files/86336.got.cif
#   From: 2010.05.17/outbox.ucp.g08.bks.cvg/sg12_44_cif.got.tgz:86336.got - 2010.06.11 11:47:21.
