data_PCOD9225526
_publ_section_title
;
Structure prediction by ZEFSAII (Michael W. Deem and Ramdas Pophale) SiO2 
 PCOD9225526
Probable space group: C 2/M
;
_chemical_formula_sum "Si O2"
_cell_formula_units_Z 32
_cell_length_a 18.000000
_cell_length_b 15.000000
_cell_length_c 15.000000
_cell_angle_alpha 90.000000
_cell_angle_beta 130.000000
_cell_angle_gamma 90.000000
_cell_volume 3102.479995
_symmetry_space_group_name_H-M "C 2/M"
_symmetry_group_IT_number 12
_symmetry_cell_setting 'monoclinic'
loop_
_space_group_symop_operation_xyz
x,y,z
-x,y,-z
-x,-y,-z
x,-y,z
1/2+x,1/2+y,z
1/2-x,1/2+y,-z
1/2-x,1/2-y,-z
1/2+x,1/2-y,z
loop_
_atom_site_type_symbol
_atom_site_label
_atom_site_fract_x
_atom_site_fract_y
_atom_site_fract_z
Si Si1 0.062943 0.602197 0.822953
Si Si2 0.566485 0.300271 0.760839
Si Si3 0.191827 0.210123 0.181844
Si Si4 0.773182 0.842641 0.467633
Si Si5 0.292585 0.605803 0.994011
Si Si6 0.110496 0.100160 0.283875
Si Si7 0.380069 0.895909 0.800442
Si Si8 0.895124 0.229276 0.401004
O O1 0.041816 0.500000 0.771932
O O2 0.049385 0.692876 0.754278
O O3 0.178137 0.604198 0.927894
O O4 0.991537 0.612913 0.853112
O O5 0.474162 0.347213 0.731959
O O6 0.585883 0.327622 0.673818
O O7 0.654050 0.336966 0.888772
O O8 0.187902 0.159745 0.083857
O O9 0.137220 0.154218 0.215887
O O10 0.152560 0.313380 0.160077
O O11 0.303977 0.211261 0.300867
O O12 0.750000 0.750000 0.500000
O O13 0.805922 0.901807 0.576113
O O14 0.684744 0.878996 0.339320
O O15 0.857041 0.823213 0.458609
O O16 0.322688 0.500000 0.011836
O O17 0.082264 0.000000 0.238684
O O18 0.365225 0.000000 0.818841
O O19 0.000000 0.272618 0.500000
#
# Coordination Sequence:
#
# PCOD9225526 Si02
#       8
#     8   8   8   8   8   8   8   8
#     4  10  21  40  69  95 128 172 223 278 334 400
#     4  12  23  45  68  97 138 180 228 278 347 398
#     4  11  23  42  69  97 139 177 224 290 337 406
#     4  11  20  40  66  97 137 179 220 277 344 402
#     4  11  25  45  70 101 135 181 234 286 339 403
#     4  12  24  41  66  98 135 182 227 278 343 409
#     4  10  21  40  66  99 133 178 227 276 342 412
#     4  11  23  39  71 100 133 180 223 276 343 409
#
# _framework density 10.314329000000001
#
# number of rings (size 3 to 8) (size 9 to 14) (size 15 to 20)
#    0.000    1.000    6.250    1.500    0.000    0.500 
#    0.000    8.750    0.000    3.375    0.000    0.000 
#    0.000    0.000    0.000    0.000    0.000    0.000 
#
# Total GULP energy -178573.889500 kJ/mol
# GULP energy per Si atom -5580.434047 kJ/mol
# Density = 1.029085 g / cm^3
# Si number density = 10.314329 Si / 1000 Ang^3
#
#
#
# Elastic Constant Matrix: (Units=GPa)
#
#
# Indices 1 2 3 4 5 6 
#
# 1 138.4169 45.8989 36.3351 0.0000 -1.1007 0.0000
# 2 45.8989 157.8513 19.6744 0.0000 1.7193 0.0000
# 3 36.3351 19.6744 57.5428 0.0000 -5.7078 0.0000
# 4 0.0000 0.0000 0.0000 18.8240 0.0000 6.9487
# 5 -1.1007 1.7193 -5.7078 0.0000 19.8239 0.0000
# 6 0.0000 0.0000 0.0000 6.9487 0.0000 29.4230
#
#
#
# Elastic Compliance Matrix: (Units=1/GPa)
#
#
# Indices 1 2 3 4 5 6 
#
# 1 0.009267 -0.002033 -0.005238 0.000000 -0.000817 0.000000
# 2 -0.002033 0.007094 -0.001250 0.000000 -0.001088 0.000000
# 3 -0.005238 -0.001250 0.021715 0.000000 0.006070 0.000000
# 4 0.000000 0.000000 0.000000 0.058197 0.000000 -0.013744
# 5 -0.000817 -0.001088 0.006070 0.000000 0.052241 0.000000
# 6 0.000000 0.000000 0.000000 -0.013744 0.000000 0.037233
#
#
# Mechanical properties :
#
#
# Convention : Reuss Voigt Hill
#
# Bulk Modulus (GPa) = 47.53883 61.95865 54.74874
# Shear Modulus (GPa) = 23.83234 30.40769 27.12001
#
# Velocity S-wave (km/s) = 3.40266 3.84350 3.62978
# Velocity P-wave (km/s) = 6.20746 7.05671 6.64566
#
# Compressibility (1/GPa) = 0.02103543
#
# Stress axis : x y z
#
# Youngs Moduli (GPa) = 107.90908 140.96824 46.05113
#
# Poissons Ratio (x) = 0.28657 0.24120
# Poissons Ratio (y) = 0.21937 0.05755
# Poissons Ratio (z) = 0.56519 0.17617
#
# Static dielectric constant tensor:
#      x y z
#    x 1.753290 0.000000 0.037680 
#    y 0.000000 1.764640 0.000000 
#    z 0.037680 0.000000 1.795440 
# 
# From -- ./inp_files/225716.got.cif
#   From: 2010.05.17/outbox.ucp.g08.bks.cvg/sg12_113_cif.got.tgz:225716.got - 2010.06.11 11:47:21.
