data_PCOD9225225
_publ_section_title
;
Structure prediction by ZEFSAII (Michael W. Deem and Ramdas Pophale) SiO2 
 PCOD9225225
Probable space group: C 2/M
;
_chemical_formula_sum "Si O2"
_cell_formula_units_Z 32
_cell_length_a 30.000000
_cell_length_b 9.000000
_cell_length_c 24.000000
_cell_angle_alpha 90.000000
_cell_angle_beta 150.000000
_cell_angle_gamma 90.000000
_cell_volume 3240.000000
_symmetry_space_group_name_H-M "C 2/M"
_symmetry_group_IT_number 12
_symmetry_cell_setting 'monoclinic'
loop_
_space_group_symop_operation_xyz
x,y,z
-x,y,-z
-x,-y,-z
x,-y,z
1/2+x,1/2+y,z
1/2-x,1/2+y,-z
1/2-x,1/2-y,-z
1/2+x,1/2-y,z
loop_
_atom_site_type_symbol
_atom_site_label
_atom_site_fract_x
_atom_site_fract_y
_atom_site_fract_z
Si Si1 0.069656 0.177840 0.026979
Si Si2 0.263318 0.320799 0.716372
Si Si3 0.055807 0.822488 0.780259
Si Si4 0.384397 0.171131 0.619562
Si Si5 0.821614 0.822478 0.191657
Si Si6 0.687788 0.672943 0.352590
Si Si7 0.609983 0.823247 0.955671
Si Si8 0.397568 0.179778 0.385331
O O1 0.064024 0.256156 0.961209
O O2 0.059886 0.000000 0.008435
O O3 0.166425 0.208658 0.158505
O O4 0.000000 0.222155 0.000000
O O5 0.258151 0.500000 0.703646
O O6 0.302234 0.266651 0.699447
O O7 0.166711 0.269698 0.633427
O O8 0.124414 0.777680 0.805721
O O9 0.079325 0.750904 0.865117
O O10 0.955730 0.764485 0.661807
O O11 0.057438 0.000000 0.786319
O O12 0.371809 0.237358 0.668028
O O13 0.287857 0.175925 0.485977
O O14 0.412867 0.000000 0.653205
O O15 0.858658 0.739031 0.285471
O O16 0.834043 0.000000 0.211894
O O17 0.716285 0.794212 0.073661
O O18 0.657700 0.500000 0.318638
O O19 0.595879 0.000000 0.938864
O O20 0.500000 0.227646 0.500000
O O21 0.395137 0.000000 0.382504
#
# Coordination Sequence:
#
# PCOD9225225 Si02
#       8
#     8   8   8   8   8   8   8   8
#     4  10  21  37  60  89 119 158 200 234 285 353
#     4   9  18  35  57  86 118 154 197 238 282 342
#     4  11  24  40  61  85 113 152 196 238 294 358
#     4  10  21  37  57  87 119 151 195 246 294 340
#     4  10  23  42  61  85 118 153 190 239 297 352
#     4   9  19  36  59  82 118 161 196 237 287 345
#     4  11  23  41  62  87 117 148 191 246 299 346
#     4  10  21  36  61  91 119 154 198 241 285 343
#
# _framework density 9.8765429999999999
#
# number of rings (size 3 to 8) (size 9 to 14) (size 15 to 20)
#    0.000    2.000    1.250    1.500    3.500    2.500 
#    0.000    1.250    0.000    0.000    0.000    0.000 
#    0.000    0.000    0.000    0.000    0.000    0.000 
#
# Total GULP energy -178720.452146 kJ/mol
# GULP energy per Si atom -5585.014130 kJ/mol
# Density = 0.985406 g / cm^3
# Si number density = 9.876543 Si / 1000 Ang^3
#
#
#
# Elastic Constant Matrix: (Units=GPa)
#
#
# Indices 1 2 3 4 5 6 
#
# 1 114.8674 21.2824 -0.0627 0.0000 1.8025 0.0000
# 2 21.2824 33.8489 9.9011 0.0000 0.2262 0.0000
# 3 -0.0627 9.9011 31.1287 0.0000 6.8517 0.0000
# 4 0.0000 0.0000 0.0000 24.3168 0.0000 -2.3540
# 5 1.8025 0.2262 6.8517 0.0000 36.5050 0.0000
# 6 0.0000 0.0000 0.0000 -2.3540 0.0000 26.8167
#
#
#
# Elastic Compliance Matrix: (Units=1/GPa)
#
#
# Indices 1 2 3 4 5 6 
#
# 1 0.010020 -0.007011 0.002451 0.000000 -0.000911 0.000000
# 2 -0.007011 0.037595 -0.012514 0.000000 0.002462 0.000000
# 3 0.002451 -0.012514 0.037676 0.000000 -0.007115 0.000000
# 4 0.000000 0.000000 0.000000 0.041476 0.000000 0.003641
# 5 -0.000911 0.002462 -0.007115 0.000000 0.028759 0.000000
# 6 0.000000 0.000000 0.000000 0.003641 0.000000 0.037610
#
#
# Mechanical properties :
#
#
# Convention : Reuss Voigt Hill
#
# Bulk Modulus (GPa) = 19.55297 26.89853 23.22575
# Shear Modulus (GPa) = 20.46393 27.44263 23.95328
#
# Velocity S-wave (km/s) = 3.22217 3.73135 3.48607
# Velocity P-wave (km/s) = 4.87476 5.67547 5.29029
#
# Compressibility (1/GPa) = 0.05114313
#
# Stress axis : x y z
#
# Youngs Moduli (GPa) = 99.79723 26.59912 26.54214
#
# Poissons Ratio (x) = 0.18649 -0.06505
# Poissons Ratio (y) = 0.69968 0.33215
# Poissons Ratio (z) = -0.24458 0.33286
#
# Static dielectric constant tensor:
#      x y z
#    x 1.681400 0.000000 0.022460 
#    y 0.000000 1.659980 0.000000 
#    z 0.022460 0.000000 1.732330 
# 
# From -- ./inp_files/353466.got.cif
#   From: 2010.05.17/outbox.ucp.g08.bks.cvg/sg12_177_cif.got.tgz:353466.got - 2010.06.11 11:47:21.
