data_PCOD9225340
_publ_section_title
;
Structure prediction by ZEFSAII (Michael W. Deem and Ramdas Pophale) SiO2 
 PCOD9225340
Probable space group: C 2/M
;
_chemical_formula_sum "Si O2"
_cell_formula_units_Z 32
_cell_length_a 18.000000
_cell_length_b 9.000000
_cell_length_c 30.000000
_cell_angle_alpha 90.000000
_cell_angle_beta 140.000000
_cell_angle_gamma 90.000000
_cell_volume 3123.947783
_symmetry_space_group_name_H-M "C 2/M"
_symmetry_group_IT_number 12
_symmetry_cell_setting 'monoclinic'
loop_
_space_group_symop_operation_xyz
x,y,z
-x,y,-z
-x,-y,-z
x,-y,z
1/2+x,1/2+y,z
1/2-x,1/2+y,-z
1/2-x,1/2-y,-z
1/2+x,1/2-y,z
loop_
_atom_site_type_symbol
_atom_site_label
_atom_site_fract_x
_atom_site_fract_y
_atom_site_fract_z
Si Si1 0.366909 0.164915 0.950223
Si Si2 0.664884 0.175772 0.832740
Si Si3 0.862721 0.829771 0.033717
Si Si4 0.873258 0.675217 0.560353
Si Si5 0.243079 0.822008 0.712265
Si Si6 0.023626 0.830698 0.562072
Si Si7 0.936909 0.822745 0.293468
Si Si8 0.502284 0.821601 0.164850
O O1 0.273482 0.217390 0.871604
O O2 0.333800 0.000000 0.952261
O O3 0.500000 0.155880 0.000000
O O4 0.357177 0.302158 0.979195
O O5 0.572758 0.220147 0.753711
O O6 0.601472 0.220954 0.849664
O O7 0.689344 0.000000 0.843659
O O8 0.971094 0.741524 0.102472
O O9 0.866162 0.000000 0.047682
O O10 0.750000 0.750000 0.000000
O O11 0.868978 0.500000 0.568250
O O12 0.750000 0.750000 0.500000
O O13 0.941655 0.710354 0.546469
O O14 0.947800 0.770219 0.629375
O O15 0.170712 0.782778 0.723204
O O16 0.371468 0.762511 0.765204
O O17 0.155579 0.788419 0.632424
O O18 0.256601 0.000000 0.720327
O O19 0.000000 0.840454 0.500000
O O20 0.006300 0.000000 0.573539
O O21 0.934935 0.000000 0.284091
O O22 0.500676 0.000000 0.163294
#
# Coordination Sequence:
#
# PCOD9225340 Si02
#       8
#     8   8   8   8   8   8   8   8
#     4  11  25  43  63  86 116 157 201 246 301 358
#     4  11  23  38  59  88 122 156 194 246 296 347
#     4  12  24  40  62  87 116 152 194 248 302 354
#     4  11  22  38  60  87 120 158 202 250 298 352
#     4   8  17  35  58  83 112 151 195 235 283 345
#     4   9  18  35  60  89 121 158 197 240 290 350
#     4  10  21  39  61  85 117 157 199 246 295 350
#     4  10  21  38  59  84 116 157 198 237 290 354
#
# _framework density 10.243449
#
# number of rings (size 3 to 8) (size 9 to 14) (size 15 to 20)
#    0.000    1.750    1.250    4.125    1.750    2.750 
#    0.000    5.000    0.000    0.000    0.000    0.000 
#    0.000    0.000    0.000    0.000    0.000    0.000 
#
# Total GULP energy -178186.858998 kJ/mol
# GULP energy per Si atom -5568.339344 kJ/mol
# Density = 1.022013 g / cm^3
# Si number density = 10.243449 Si / 1000 Ang^3
#
#
#
# Elastic Constant Matrix: (Units=GPa)
#
#
# Indices 1 2 3 4 5 6 
#
# 1 0.9852 11.5691 50.6909 0.0000 22.3977 0.0000
# 2 11.5691 46.8505 12.9430 0.0000 16.3982 0.0000
# 3 50.6909 12.9430 94.6418 0.0000 15.0932 0.0000
# 4 0.0000 0.0000 0.0000 24.5446 0.0000 -0.6533
# 5 22.3977 16.3982 15.0932 0.0000 33.0048 0.0000
# 6 0.0000 0.0000 0.0000 -0.6533 0.0000 21.2259
#
#
#
# Elastic Compliance Matrix: (Units=1/GPa)
#
#
# Indices 1 2 3 4 5 6 
#
# 1 -0.030328 -0.001635 0.014083 0.000000 0.014954 0.000000
# 2 -0.001635 0.025977 -0.000858 0.000000 -0.011404 0.000000
# 3 0.014083 -0.000858 0.004958 0.000000 -0.011398 0.000000
# 4 0.000000 0.000000 0.000000 0.040776 0.000000 0.001255
# 5 0.014954 -0.011404 -0.011398 0.000000 0.031029 0.000000
# 6 0.000000 0.000000 0.000000 0.001255 0.000000 0.047151
#
#
# Mechanical properties :
#
#
# Convention : Reuss Voigt Hill
#
# Bulk Modulus (GPa) = 42.04093 32.54260 37.29177
# Shear Modulus (GPa) = 47.93272 20.24002 34.08637
#
# Velocity S-wave (km/s) = 4.84227 3.14658 4.08341
# Velocity P-wave (km/s) = 7.19923 5.39633 6.36196
#
# Compressibility (1/GPa) = 0.02378634
#
# Stress axis : x y z
#
# Youngs Moduli (GPa) = -32.97279 38.49556 201.68074
#
# Poissons Ratio (x) = 0.06296 -2.84024
# Poissons Ratio (y) = -0.05392 0.17302
# Poissons Ratio (z) = 0.46435 0.03302
#
# Static dielectric constant tensor:
#      x y z
#    x 1.764000 0.000000 0.075720 
#    y 0.000000 1.671140 0.000000 
#    z 0.075720 0.000000 1.251950 
# 
# From -- ./inp_files/378517.got.cif
#   From: 2010.05.17/outbox.ucp.g08.bks.cvg/sg12_190_cif.got.tgz:378517.got - 2010.06.11 11:47:21.
