data_PCOD9225675
_publ_section_title
;
Structure prediction by ZEFSAII (Michael W. Deem and Ramdas Pophale) SiO2 
 PCOD9225675
Probable space group: C 2/M
;
_chemical_formula_sum "Si O2"
_cell_formula_units_Z 24
_cell_length_a 9.000000
_cell_length_b 18.000000
_cell_length_c 30.000000
_cell_angle_alpha 90.000000
_cell_angle_beta 150.000000
_cell_angle_gamma 90.000000
_cell_volume 2430.000000
_symmetry_space_group_name_H-M "C 2/M"
_symmetry_group_IT_number 12
_symmetry_cell_setting 'monoclinic'
loop_
_space_group_symop_operation_xyz
x,y,z
-x,y,-z
-x,-y,-z
x,-y,z
1/2+x,1/2+y,z
1/2-x,1/2+y,-z
1/2-x,1/2-y,-z
1/2+x,1/2-y,z
loop_
_atom_site_type_symbol
_atom_site_label
_atom_site_fract_x
_atom_site_fract_y
_atom_site_fract_z
Si Si1 0.796056 0.331286 0.490483
Si Si2 0.371562 0.792766 0.249075
Si Si3 0.262889 0.088174 0.699933
Si Si4 0.266453 0.917324 0.807175
Si Si5 0.822741 0.714139 0.065843
Si Si6 0.793630 0.342511 0.325974
O O1 0.750000 0.250000 0.500000
O O2 0.505175 0.374274 0.397825
O O3 0.000000 0.324226 0.500000
O O4 0.974965 0.370072 0.577076
O O5 0.451806 0.864564 0.240731
O O6 0.593986 0.726102 0.293038
O O7 0.427086 0.812434 0.314891
O O8 0.035004 0.766315 0.151764
O O9 0.225230 0.098901 0.743389
O O10 0.278733 0.000000 0.695631
O O11 0.487062 0.860254 0.887089
O O12 0.944563 0.906285 0.745147
O O13 0.378975 0.000000 0.840333
O O14 0.500000 0.696975 0.000000
O O15 0.750000 0.750000 0.000000
#
# Coordination Sequence:
#
# PCOD9225675 Si02
#       6
#     8   8   8   8   8   8
#     4  12  23  37  62  94 125 164 215 259 297 350
#     4  11  22  40  62  89 124 161 208 260 312 370
#     4  11  24  41  61  90 129 170 208 253 307 362
#     4  10  22  41  63  90 125 163 203 252 315 372
#     4  11  22  39  64  93 118 153 205 261 312 374
#     4  11  21  37  63  89 123 167 210 256 302 362
#
# _framework density 9.8765429999999999
#
# number of rings (size 3 to 8) (size 9 to 14) (size 15 to 20)
#    0.000    1.000    3.333    6.000    0.000    2.000 
#    0.000    1.667    0.000    2.000    0.000    0.000 
#    0.000    0.000    0.000    0.000    0.000    0.000 
#
# Total GULP energy -133995.635447 kJ/mol
# GULP energy per Si atom -5583.151477 kJ/mol
# Density = 0.985406 g / cm^3
# Si number density = 9.876543 Si / 1000 Ang^3
#
#
#
# Elastic Constant Matrix: (Units=GPa)
#
#
# Indices 1 2 3 4 5 6 
#
# 1 30.5593 11.0797 -21.3062 -0.0004 -9.6724 0.0003
# 2 11.0797 109.9077 35.2354 -0.0012 -3.8883 -0.0004
# 3 -21.3062 35.2354 92.1137 -0.0030 -4.0170 -0.0011
# 4 -0.0004 -0.0012 -0.0030 23.5422 -0.0008 -9.6423
# 5 -9.6724 -3.8883 -4.0170 -0.0008 32.8648 0.0000
# 6 0.0003 -0.0004 -0.0011 -9.6423 0.0000 19.1552
#
#
#
# Elastic Compliance Matrix: (Units=1/GPa)
#
#
# Indices 1 2 3 4 5 6 
#
# 1 0.053619 -0.010287 0.017063 0.000004 0.016649 0.000002
# 2 -0.010287 0.012362 -0.007215 -0.000001 -0.002447 0.000000
# 3 0.017063 -0.007215 0.017840 0.000003 0.006349 0.000002
# 4 0.000004 -0.000001 0.000003 0.053509 0.000003 0.026935
# 5 0.016649 -0.002447 0.006349 0.000003 0.035814 0.000002
# 6 0.000002 0.000000 0.000002 0.026935 0.000002 0.065764
#
#
# Mechanical properties :
#
#
# Convention : Reuss Voigt Hill
#
# Bulk Modulus (GPa) = 12.05629 31.39985 21.72807
# Shear Modulus (GPa) = 18.69638 28.95057 23.82348
#
# Velocity S-wave (km/s) = 3.07987 3.83250 3.47661
# Velocity P-wave (km/s) = 4.33177 5.95942 5.20956
#
# Compressibility (1/GPa) = 0.08294427
#
# Stress axis : x y z
#
# Youngs Moduli (GPa) = 18.65008 80.89339 56.05515
#
# Poissons Ratio (x) = 0.83212 -0.95648
# Poissons Ratio (y) = 0.19185 0.40442
# Poissons Ratio (z) = -0.31823 0.58362
#
# Static dielectric constant tensor:
#      x y z
#    x 1.683360 0.000000 0.017110 
#    y 0.000000 1.743450 0.000000 
#    z 0.017110 0.000000 1.705050 
# 
# From -- ./inp_files/256452.got.cif
#   From: 2010.05.17/outbox.ucp.g08.bks.cvg/sg12_129_cif.got.tgz:256452.got - 2010.06.11 11:47:21.
