data_PCOD9225733
_publ_section_title
;
Structure prediction by ZEFSAII (Michael W. Deem and Ramdas Pophale) SiO2 
 PCOD9225733
Probable space group: C 2/M
;
_chemical_formula_sum "Si O2"
_cell_formula_units_Z 32
_cell_length_a 9.000000
_cell_length_b 24.000000
_cell_length_c 30.000000
_cell_angle_alpha 90.000000
_cell_angle_beta 30.000000
_cell_angle_gamma 90.000000
_cell_volume 3240.000000
_symmetry_space_group_name_H-M "C 2/M"
_symmetry_group_IT_number 12
_symmetry_cell_setting 'monoclinic'
loop_
_space_group_symop_operation_xyz
x,y,z
-x,y,-z
-x,-y,-z
x,-y,z
1/2+x,1/2+y,z
1/2-x,1/2+y,-z
1/2-x,1/2-y,-z
1/2+x,1/2-y,z
loop_
_atom_site_type_symbol
_atom_site_label
_atom_site_fract_x
_atom_site_fract_y
_atom_site_fract_z
Si Si1 0.793940 0.251055 0.671461
Si Si2 0.137559 0.149253 0.094200
Si Si3 0.128963 0.729857 0.812233
Si Si4 0.306349 0.350365 0.441783
Si Si5 0.844945 0.366345 0.423956
Si Si6 0.273832 0.934958 0.281980
Si Si7 0.297286 0.934440 0.743044
Si Si8 0.776859 0.126010 0.095935
O O1 0.454393 0.269192 0.749966
O O2 0.740576 0.224404 0.733092
O O3 0.971585 0.200443 0.601044
O O4 0.999668 0.305528 0.618757
O O5 0.032177 0.210993 0.136993
O O6 0.980236 0.103562 0.167746
O O7 0.983016 0.140621 0.085601
O O8 0.500000 0.145280 0.000000
O O9 0.892992 0.680262 0.880452
O O10 0.181548 0.382499 0.517356
O O11 0.496274 0.392963 0.361696
O O12 0.000000 0.326716 0.500000
O O13 0.500000 0.364601 0.500000
O O14 0.041164 0.406631 0.341604
O O15 0.462415 0.931993 0.279147
O O16 0.508717 0.913169 0.183646
O O17 0.192610 0.000000 0.295469
O O18 0.221336 0.000000 0.755916
O O19 0.000000 0.103301 0.000000
#
# Coordination Sequence:
#
# PCOD9225733 Si02
#       8
#     8   8   8   8   8   8   8   8
#     4  12  23  40  64  95 133 172 207 259 320 380
#     4  11  24  43  66  96 131 167 206 262 328 384
#     4  12  22  40  68  92 132 171 208 253 325 384
#     4  12  24  42  63  96 132 174 214 257 324 380
#     4  12  23  38  67  97 128 167 217 261 312 379
#     4  10  22  45  68  89 128 172 214 266 320 375
#     4  10  22  43  68  95 125 166 217 270 317 371
#     4  11  25  42  67  98 127 166 214 261 320 387
#
# _framework density 9.8765429999999999
#
# number of rings (size 3 to 8) (size 9 to 14) (size 15 to 20)
#    0.000    0.750    5.000    3.375    1.750    2.500 
#    0.000    0.000    0.000    0.000    0.000    0.000 
#    0.000    0.000    0.000    0.000    0.000    0.000 
#
# Total GULP energy -178571.814873 kJ/mol
# GULP energy per Si atom -5580.369215 kJ/mol
# Density = 0.985406 g / cm^3
# Si number density = 9.876543 Si / 1000 Ang^3
#
#
#
# Elastic Constant Matrix: (Units=GPa)
#
#
# Indices 1 2 3 4 5 6 
#
# 1 54.0976 2.1184 24.8011 -0.0328 -10.0282 0.1786
# 2 2.1184 138.7033 58.7148 0.0166 0.2727 0.0394
# 3 24.8011 58.7148 162.3776 -0.0388 -1.0166 0.3620
# 4 -0.0328 0.0166 -0.0388 31.2049 -0.0012 1.8885
# 5 -10.0282 0.2727 -1.0166 -0.0012 53.3729 0.0355
# 6 0.1786 0.0394 0.3620 1.8885 0.0355 26.6575
#
#
#
# Elastic Compliance Matrix: (Units=1/GPa)
#
#
# Indices 1 2 3 4 5 6 
#
# 1 0.020791 0.001191 -0.003582 0.000023 0.003832 -0.000099
# 2 0.001191 0.008581 -0.003284 -0.000009 0.000117 0.000024
# 3 -0.003582 -0.003284 0.007890 0.000013 -0.000506 -0.000079
# 4 0.000023 -0.000009 0.000013 0.032184 0.000007 -0.002280
# 5 0.003832 0.000117 -0.000506 0.000007 0.019446 -0.000045
# 6 -0.000099 0.000024 -0.000079 -0.002280 -0.000045 0.037676
#
#
# Mechanical properties :
#
#
# Convention : Reuss Voigt Hill
#
# Bulk Modulus (GPa) = 38.59092 58.49414 48.54253
# Shear Modulus (GPa) = 34.11630 40.21666 37.16648
#
# Velocity S-wave (km/s) = 4.16039 4.51707 4.34239
# Velocity P-wave (km/s) = 6.53128 7.54202 7.05477
#
# Compressibility (1/GPa) = 0.02591283
#
# Stress axis : x y z
#
# Youngs Moduli (GPa) = 48.09668 116.52990 126.73930
#
# Poissons Ratio (x) = -0.13883 0.45400
# Poissons Ratio (y) = -0.05730 0.41625
# Poissons Ratio (z) = 0.17229 0.38272
#
# Static dielectric constant tensor:
#      x y z
#    x 1.735770 0.000080 0.044320 
#    y 0.000080 1.699510 0.000080 
#    z 0.044320 0.000080 1.652660 
# 
# From -- ./inp_files/373269.got.cif
#   From: 2010.05.17/outbox.ucp.g08.bks.cvg/sg12_187_cif.got.tgz:373269.got - 2010.06.11 11:47:21.
