data_PCOD9225617
_publ_section_title
;
Structure prediction by ZEFSAII (Michael W. Deem and Ramdas Pophale) SiO2 
 PCOD9225617
Probable space group: C 2/M
;
_chemical_formula_sum "Si O2"
_cell_formula_units_Z 28
_cell_length_a 12.000000
_cell_length_b 15.000000
_cell_length_c 30.000000
_cell_angle_alpha 90.000000
_cell_angle_beta 30.000000
_cell_angle_gamma 90.000000
_cell_volume 2700.000000
_symmetry_space_group_name_H-M "C 2/M"
_symmetry_group_IT_number 12
_symmetry_cell_setting 'monoclinic'
loop_
_space_group_symop_operation_xyz
x,y,z
-x,y,-z
-x,-y,-z
x,-y,z
1/2+x,1/2+y,z
1/2-x,1/2+y,-z
1/2-x,1/2-y,-z
1/2+x,1/2-y,z
loop_
_atom_site_type_symbol
_atom_site_label
_atom_site_fract_x
_atom_site_fract_y
_atom_site_fract_z
Si Si1 0.839442 0.102093 0.373684
Si Si2 0.133638 0.293461 0.997355
Si Si3 0.756903 0.403833 0.178911
Si Si4 0.006812 0.403217 0.671533
Si Si5 0.679278 0.648102 0.518878
Si Si6 0.038457 0.852167 0.796861
Si Si7 0.281617 0.771256 0.337815
O O1 0.792613 0.105747 0.442365
O O2 0.719968 0.180616 0.386832
O O3 0.104597 0.122946 0.273738
O O4 0.793819 0.000000 0.374853
O O5 0.342229 0.340529 0.900531
O O6 0.250000 0.250000 0.000000
O O7 0.000000 0.251666 0.000000
O O8 0.943174 0.347636 0.089617
O O9 0.854570 0.500000 0.155096
O O10 0.565860 0.406650 0.207506
O O11 0.047428 0.500000 0.678023
O O12 0.174023 0.391554 0.571712
O O13 0.040136 0.323108 0.694305
O O14 0.756412 0.396365 0.740887
O O15 0.750000 0.750000 0.500000
O O16 0.420878 0.659703 0.595788
O O17 0.121090 0.761514 0.743118
#
# Coordination Sequence:
#
# PCOD9225617 Si02
#       7
#     8   8   8   8   8   8   8
#     4  10  22  41  65  92 124 163 212 267 324 385
#     4  10  23  38  68 100 129 171 216 267 333 402
#     4   9  20  40  64  93 126 162 211 268 328 391
#     4  12  26  41  63  93 127 170 223 271 325 394
#     4  12  23  40  61  88 126 171 211 269 326 385
#     4  10  22  39  65  93 126 164 212 273 323 391
#     4  11  23  41  64  86 129 167 213 265 328 389
#
# _framework density 10.370369999999999
#
# number of rings (size 3 to 8) (size 9 to 14) (size 15 to 20)
#    0.000    1.429    2.857    1.286    8.000    5.429 
#    0.000    0.714    0.000    0.429    0.000    0.000 
#    0.000    0.000    0.000    0.000    0.000    0.000 
#
# Total GULP energy -155949.753184 kJ/mol
# GULP energy per Si atom -5569.634042 kJ/mol
# Density = 1.034677 g / cm^3
# Si number density = 10.370370 Si / 1000 Ang^3
#
#
#
# Elastic Constant Matrix: (Units=GPa)
#
#
# Indices 1 2 3 4 5 6 
#
# 1 49.3869 18.8052 12.2553 -0.0005 -8.2425 -0.0005
# 2 18.8052 75.0678 5.4538 -0.0006 -4.5346 -0.0018
# 3 12.2553 5.4538 75.9921 0.0098 -12.0747 -0.0116
# 4 -0.0005 -0.0006 0.0098 3.1944 0.0018 13.3094
# 5 -8.2425 -4.5346 -12.0747 0.0018 36.0535 0.0011
# 6 -0.0005 -0.0018 -0.0116 13.3094 0.0011 4.9830
#
#
#
# Elastic Compliance Matrix: (Units=1/GPa)
#
#
# Indices 1 2 3 4 5 6 
#
# 1 0.023672 -0.005497 -0.002823 -0.000004 0.003775 0.000003
# 2 -0.005497 0.014739 -0.000081 0.000002 0.000570 0.000000
# 3 -0.002823 -0.000081 0.014276 0.000018 0.004126 -0.000015
# 4 -0.000004 0.000002 0.000018 -0.030908 0.000004 0.082553
# 5 0.003775 0.000570 0.004126 0.000004 0.030053 -0.000008
# 6 0.000003 0.000000 -0.000015 0.082553 -0.000008 -0.019813
#
#
# Mechanical properties :
#
#
# Convention : Reuss Voigt Hill
#
# Bulk Modulus (GPa) = 27.86704 30.38617 29.12661
# Shear Modulus (GPa) = 82.26152 19.77501 51.01827
#
# Velocity S-wave (km/s) = 6.30459 3.09113 4.96503
# Velocity P-wave (km/s) = 8.15244 5.23664 6.85145
#
# Compressibility (1/GPa) = 0.03588468
#
# Stress axis : x y z
#
# Youngs Moduli (GPa) = 42.24405 67.84892 70.04818
#
# Poissons Ratio (x) = 0.37296 0.19777
# Poissons Ratio (y) = 0.23221 0.00565
# Poissons Ratio (z) = 0.11927 0.00547
#
# Static dielectric constant tensor:
#      x y z
#    x 1.891820 0.000060 -0.033400 
#    y 0.000060 1.792660 0.000050 
#    z -0.033400 0.000050 1.906500 
# 
# From -- ./inp_files/374194.got.cif
#   From: 2010.05.17/outbox.ucp.g08.bks.cvg/sg12_188_cif.got.tgz:374194.got - 2010.06.11 11:47:21.
