data_PCOD9225308
_publ_section_title
;
Structure prediction by ZEFSAII (Michael W. Deem and Ramdas Pophale) SiO2 
 PCOD9225308
Probable space group: C 2/M
;
_chemical_formula_sum "Si O2"
_cell_formula_units_Z 28
_cell_length_a 18.000000
_cell_length_b 24.000000
_cell_length_c 9.000000
_cell_angle_alpha 90.000000
_cell_angle_beta 130.000000
_cell_angle_gamma 90.000000
_cell_volume 2978.380795
_symmetry_space_group_name_H-M "C 2/M"
_symmetry_group_IT_number 12
_symmetry_cell_setting 'monoclinic'
loop_
_space_group_symop_operation_xyz
x,y,z
-x,y,-z
-x,-y,-z
x,-y,z
1/2+x,1/2+y,z
1/2-x,1/2+y,-z
1/2-x,1/2-y,-z
1/2+x,1/2-y,z
loop_
_atom_site_type_symbol
_atom_site_label
_atom_site_fract_x
_atom_site_fract_y
_atom_site_fract_z
Si Si1 0.220162 0.065194 0.339833
Si Si2 0.395829 0.333259 0.948377
Si Si3 0.225863 0.268177 0.134925
Si Si4 0.891564 0.846258 0.301712
Si Si5 0.447263 0.937368 0.590368
Si Si6 0.758876 0.065011 0.281726
Si Si7 0.426235 0.864985 0.031057
O O1 0.150617 0.109576 0.172372
O O2 0.332522 0.075271 0.436738
O O3 0.213371 0.072660 0.509478
O O4 0.198192 0.000000 0.277908
O O5 0.318773 0.282285 0.826866
O O6 0.500000 0.323975 0.000000
O O7 0.400379 0.337481 0.134798
O O8 0.326564 0.299241 0.304420
O O9 0.250000 0.250000 0.000000
O O10 0.141425 0.313918 0.011714
O O11 0.831357 0.901689 0.266919
O O12 0.000000 0.848240 0.500000
O O13 0.500000 0.939282 0.500000
O O14 0.506725 0.892549 0.759195
O O15 0.454221 0.000000 0.666550
O O16 0.760329 0.000000 0.249085
O O17 0.650474 0.088917 0.123798
O O18 0.500000 0.846144 0.000000
#
# Coordination Sequence:
#
# PCOD9225308 Si02
#       7
#     8   8   8   8   8   8   8
#     4  10  22  40  60  91 124 157 202 249 299 364
#     4  11  23  43  64  86 124 157 201 252 303 357
#     4   9  22  41  60  88 121 154 204 253 297 363
#     4  10  22  42  63  88 119 156 203 253 297 358
#     4  10  22  36  57  92 130 161 200 244 299 369
#     4  10  21  37  61  90 123 159 202 248 299 362
#     4  11  20  37  62  89 122 162 202 249 306 353
#
# _framework density 9.4010809999999996
#
# number of rings (size 3 to 8) (size 9 to 14) (size 15 to 20)
#    0.000    1.857    1.429    1.714    6.000    1.714 
#    5.143    3.571    0.000    0.000    0.000    0.000 
#    0.000    0.000    0.000    0.000    0.000    0.000 
#
# Total GULP energy -156132.185998 kJ/mol
# GULP energy per Si atom -5576.149500 kJ/mol
# Density = 0.937968 g / cm^3
# Si number density = 9.401081 Si / 1000 Ang^3
#
#
#
# Elastic Constant Matrix: (Units=GPa)
#
#
# Indices 1 2 3 4 5 6 
#
# 1 157.5870 49.2644 28.4052 0.0000 15.3626 0.0000
# 2 49.2644 92.5476 29.2375 0.0000 8.6363 0.0000
# 3 28.4052 29.2375 38.5656 0.0000 11.0043 0.0000
# 4 0.0000 0.0000 0.0000 18.4482 0.0000 0.9819
# 5 15.3626 8.6363 11.0043 0.0000 30.3768 0.0000
# 6 0.0000 0.0000 0.0000 0.9819 0.0000 40.1740
#
#
#
# Elastic Compliance Matrix: (Units=1/GPa)
#
#
# Indices 1 2 3 4 5 6 
#
# 1 0.008073 -0.003172 -0.002937 0.000000 -0.002117 0.000000
# 2 -0.003172 0.015455 -0.009574 0.000000 0.000679 0.000000
# 3 -0.002937 -0.009574 0.038088 0.000000 -0.009590 0.000000
# 4 0.000000 0.000000 0.000000 0.054276 0.000000 -0.001327
# 5 -0.002117 0.000679 -0.009590 0.000000 0.037272 0.000000
# 6 0.000000 0.000000 0.000000 -0.001327 0.000000 0.024924
#
#
# Mechanical properties :
#
#
# Convention : Reuss Voigt Hill
#
# Bulk Modulus (GPa) = 33.05853 55.83493 44.44673
# Shear Modulus (GPa) = 22.77499 29.91935 26.34717
#
# Velocity S-wave (km/s) = 3.48414 3.99340 3.74743
# Velocity P-wave (km/s) = 5.81431 7.14307 6.51267
#
# Compressibility (1/GPa) = 0.03024938
#
# Stress axis : x y z
#
# Youngs Moduli (GPa) = 123.86746 64.70375 26.25477
#
# Poissons Ratio (x) = 0.20523 0.07712
# Poissons Ratio (y) = 0.39290 0.25137
# Poissons Ratio (z) = 0.36386 0.61949
#
# Static dielectric constant tensor:
#      x y z
#    x 1.619470 0.000000 -0.002960 
#    y 0.000000 1.685590 0.000000 
#    z -0.002960 0.000000 1.638440 
# 
# From -- ./inp_files/65300.got.cif
#   From: 2010.05.17/outbox.ucp.g08.bks.cvg/sg12_33_cif.got.tgz:65300.got - 2010.06.11 11:47:21.
