data_PCOD9225062
_publ_section_title
;
Structure prediction by ZEFSAII (Michael W. Deem and Ramdas Pophale) SiO2 
 PCOD9225062
Probable space group: C 2/M
;
_chemical_formula_sum "Si O2"
_cell_formula_units_Z 32
_cell_length_a 30.000000
_cell_length_b 9.000000
_cell_length_c 18.000000
_cell_angle_alpha 90.000000
_cell_angle_beta 140.000000
_cell_angle_gamma 90.000000
_cell_volume 3123.947783
_symmetry_space_group_name_H-M "C 2/M"
_symmetry_group_IT_number 12
_symmetry_cell_setting 'monoclinic'
loop_
_space_group_symop_operation_xyz
x,y,z
-x,y,-z
-x,-y,-z
x,-y,z
1/2+x,1/2+y,z
1/2-x,1/2+y,-z
1/2-x,1/2-y,-z
1/2+x,1/2-y,z
loop_
_atom_site_type_symbol
_atom_site_label
_atom_site_fract_x
_atom_site_fract_y
_atom_site_fract_z
Si Si1 0.344493 0.174190 0.482682
Si Si2 0.446852 0.823978 0.864738
Si Si3 0.298644 0.820578 0.743962
Si Si4 0.052174 0.826300 0.286327
Si Si5 0.920076 0.674434 0.423551
Si Si6 0.925074 0.673334 0.185258
Si Si7 0.807452 0.323210 0.922626
Si Si8 0.832829 0.175926 0.190645
O O1 0.272128 0.255339 0.377168
O O2 0.380341 0.239115 0.601033
O O3 0.397259 0.194513 0.479984
O O4 0.332529 0.000000 0.474729
O O5 0.369072 0.783522 0.790699
O O6 0.467259 0.728794 0.820017
O O7 0.448798 0.000000 0.848120
O O8 0.500000 0.802089 0.000000
O O9 0.304699 0.763339 0.836386
O O10 0.294757 0.000000 0.739911
O O11 0.991395 0.775778 0.263978
O O12 0.063200 0.000000 0.303558
O O13 0.904562 0.500000 0.385489
O O14 0.872684 0.788776 0.317850
O O15 0.000000 0.697566 0.500000
O O16 0.943941 0.500000 0.219032
O O17 0.873880 0.727712 0.183576
O O18 0.881445 0.692788 0.054333
O O19 0.794262 0.500000 0.900575
O O20 0.745572 0.268467 0.896268
O O21 0.834457 0.000000 0.174750
#
# Coordination Sequence:
#
# PCOD9225062 Si02
#       8
#     8   8   8   8   8   8   8   8
#     4  11  23  40  63  91 125 165 209 257 313 374
#     4  10  22  43  72  99 126 165 209 250 307 377
#     4  10  20  39  66  94 125 163 207 257 310 370
#     4  12  26  43  64  92 126 161 205 261 316 366
#     4  10  21  37  57  82 116 163 213 259 307 364
#     4  11  22  39  61  86 123 167 211 256 310 375
#     4   9  19  36  60  89 123 163 204 252 307 368
#     4  11  21  35  57  88 123 159 206 256 310 367
#
# _framework density 10.243449
#
# number of rings (size 3 to 8) (size 9 to 14) (size 15 to 20)
#    0.000    1.500    1.250    4.125    0.000    5.000 
#    0.000    4.375    0.000    0.000    0.000    0.000 
#    0.000    0.000    0.000    0.000    0.000    0.000 
#
# Total GULP energy -178738.908314 kJ/mol
# GULP energy per Si atom -5585.590885 kJ/mol
# Density = 1.022013 g / cm^3
# Si number density = 10.243449 Si / 1000 Ang^3
#
#
#
# Elastic Constant Matrix: (Units=GPa)
#
#
# Indices 1 2 3 4 5 6 
#
# 1 67.3295 21.9225 10.9796 0.0000 21.6299 0.0000
# 2 21.9225 -3.9550 -13.3242 0.0000 0.7978 0.0000
# 3 10.9796 -13.3242 -5.9329 0.0000 2.8530 0.0000
# 4 0.0000 0.0000 0.0000 24.1088 0.0000 2.2045
# 5 21.6299 0.7978 2.8530 0.0000 22.9340 0.0000
# 6 0.0000 0.0000 0.0000 2.2045 0.0000 26.5436
#
#
#
# Elastic Compliance Matrix: (Units=1/GPa)
#
#
# Indices 1 2 3 4 5 6 
#
# 1 0.017432 -0.002455 0.028220 0.000000 -0.019866 0.000000
# 2 -0.002455 0.040875 -0.090496 0.000000 0.012151 0.000000
# 3 0.028220 -0.090496 0.071356 0.000000 -0.032344 0.000000
# 4 0.000000 0.000000 0.000000 0.041796 0.000000 -0.003471
# 5 -0.019866 0.012151 -0.032344 0.000000 0.065940 0.000000
# 6 0.000000 0.000000 0.000000 -0.003471 0.000000 0.037962
#
#
# Mechanical properties :
#
#
# Convention : Reuss Voigt Hill
#
# Bulk Modulus (GPa) = 4994.86605 10.73305 2502.79955
# Shear Modulus (GPa) = 12.34900 17.24151 14.79526
#
# Velocity S-wave (km/s) = 2.45781 2.90416 2.69026
# Velocity P-wave (km/s) = 49.51187 4.06151 35.12778
#
# Compressibility (1/GPa) = 0.00020021
#
# Stress axis : x y z
#
# Youngs Moduli (GPa) = 57.36677 24.46493 14.01415
#
# Poissons Ratio (x) = 0.06006 -0.39548
# Poissons Ratio (y) = 0.14084 1.26823
# Poissons Ratio (z) = -1.61889 2.21399
#
# Static dielectric constant tensor:
#      x y z
#    x 1.745820 0.000000 -0.022190 
#    y 0.000000 1.673740 0.000000 
#    z -0.022190 0.000000 1.783390 
# 
# From -- ./inp_files/295715.got.cif
#   From: 2010.05.17/outbox.ucp.g08.bks.cvg/sg12_148_cif.got.tgz:295715.got - 2010.06.11 11:47:21.
