data_PCOD9225155
_publ_section_title
;
Structure prediction by ZEFSAII (Michael W. Deem and Ramdas Pophale) SiO2 
 PCOD9225155
Probable space group: C 2/M
;
_chemical_formula_sum "Si O2"
_cell_formula_units_Z 32
_cell_length_a 24.000000
_cell_length_b 15.000000
_cell_length_c 18.000000
_cell_angle_alpha 90.000000
_cell_angle_beta 30.000000
_cell_angle_gamma 90.000000
_cell_volume 3240.000000
_symmetry_space_group_name_H-M "C 2/M"
_symmetry_group_IT_number 12
_symmetry_cell_setting 'monoclinic'
loop_
_space_group_symop_operation_xyz
x,y,z
-x,y,-z
-x,-y,-z
x,-y,z
1/2+x,1/2+y,z
1/2-x,1/2+y,-z
1/2-x,1/2-y,-z
1/2+x,1/2-y,z
loop_
_atom_site_type_symbol
_atom_site_label
_atom_site_fract_x
_atom_site_fract_y
_atom_site_fract_z
Si Si1 0.091897 0.899645 0.338092
Si Si2 0.879298 0.773275 0.097099
Si Si3 0.177942 0.894642 0.567442
Si Si4 0.554246 0.832043 0.245679
Si Si5 0.353644 0.893451 0.020747
Si Si6 0.208375 0.282071 0.433499
Si Si7 0.748432 0.100406 0.126947
Si Si8 0.435070 0.371797 0.798075
O O1 0.220074 0.868820 0.177054
O O2 0.043375 0.903088 0.310938
O O3 0.000000 0.855527 0.500000
O O4 0.106565 0.000000 0.351088
O O5 0.899064 0.679619 0.028429
O O6 0.782522 0.771943 0.272974
O O7 0.821659 0.840212 0.101364
O O8 0.000000 0.795052 0.000000
O O9 0.206336 0.817976 0.472615
O O10 0.229154 0.851252 0.582952
O O11 0.043488 0.892225 0.721931
O O12 0.211112 0.000000 0.518181
O O13 0.420803 0.820283 0.420211
O O14 0.631358 0.862683 0.226681
O O15 0.586224 0.732341 0.186559
O O16 0.588102 0.882766 0.128754
O O17 0.364298 0.000000 0.027409
O O18 0.730215 0.000000 0.178088
O O19 0.826785 0.092915 0.963809
#
# Coordination Sequence:
#
# PCOD9225155 Si02
#       8
#     8   8   8   8   8   8   8   8
#     4  10  21  35  58  99 141 173 221 285 344 408
#     4  12  28  48  67  99 144 183 231 289 350 419
#     4  10  22  41  69  97 129 181 239 284 335 406
#     4  11  23  44  68 100 139 178 232 282 342 415
#     4  11  24  44  70 103 143 186 231 286 352 420
#     4  10  26  45  67 100 140 182 228 293 350 411
#     4  12  24  42  72 103 134 180 231 285 350 419
#     4  11  20  38  65  95 134 179 228 278 338 404
#
# _framework density 9.8765429999999999
#
# number of rings (size 3 to 8) (size 9 to 14) (size 15 to 20)
#    0.000    1.125    2.500    3.375    7.000    3.000 
#    0.000    0.625    0.000    0.000    0.000    0.000 
#    0.000    0.000    0.000    0.000    0.000    0.000 
#
# Total GULP energy -178229.004329 kJ/mol
# GULP energy per Si atom -5569.656385 kJ/mol
# Density = 0.985406 g / cm^3
# Si number density = 9.876543 Si / 1000 Ang^3
#
#
#
# Elastic Constant Matrix: (Units=GPa)
#
#
# Indices 1 2 3 4 5 6 
#
# 1 130.9977 50.1241 44.9792 0.0000 -12.1495 0.0000
# 2 50.1241 147.6615 17.4816 0.0000 -5.8252 0.0000
# 3 44.9792 17.4816 124.5635 0.0000 7.3014 0.0000
# 4 0.0000 0.0000 0.0000 21.2782 0.0000 0.5309
# 5 -12.1495 -5.8252 7.3014 0.0000 41.7720 0.0000
# 6 0.0000 0.0000 0.0000 0.5309 0.0000 20.7462
#
#
#
# Elastic Compliance Matrix: (Units=1/GPa)
#
#
# Indices 1 2 3 4 5 6 
#
# 1 0.010247 -0.002942 -0.003473 0.000000 0.003177 0.000000
# 2 -0.002942 0.007785 -0.000044 0.000000 0.000238 0.000000
# 3 -0.003473 -0.000044 0.009445 0.000000 -0.002667 0.000000
# 4 0.000000 0.000000 0.000000 0.047026 0.000000 -0.001204
# 5 0.003177 0.000238 -0.002667 0.000000 0.025363 0.000000
# 6 0.000000 0.000000 0.000000 -0.001204 0.000000 0.048232
#
#
# Mechanical properties :
#
#
# Convention : Reuss Voigt Hill
#
# Bulk Modulus (GPa) = 68.69057 69.82140 69.25599
# Shear Modulus (GPa) = 30.14405 36.13512 33.13959
#
# Velocity S-wave (km/s) = 3.91070 4.28172 4.10041
# Velocity P-wave (km/s) = 7.43246 7.73744 7.58648
#
# Compressibility (1/GPa) = 0.01455804
#
# Stress axis : x y z
#
# Youngs Moduli (GPa) = 97.59339 128.44479 105.87812
#
# Poissons Ratio (x) = 0.37784 0.36775
# Poissons Ratio (y) = 0.28709 0.00470
# Poissons Ratio (z) = 0.33898 0.00570
#
# Static dielectric constant tensor:
#      x y z
#    x 1.726420 0.000000 -0.012990 
#    y 0.000000 1.759500 0.000000 
#    z -0.012990 0.000000 1.716130 
# 
# From -- ./inp_files/290069.got.cif
#   From: 2010.05.17/outbox.ucp.g08.bks.cvg/sg12_146_cif.got.tgz:290069.got - 2010.06.11 11:47:21.
