data_PCOD9225813
_publ_section_title
;
Structure prediction by ZEFSAII (Michael W. Deem and Ramdas Pophale) SiO2 
 PCOD9225813
Probable space group: C 2/M
;
_chemical_formula_sum "Si O2"
_cell_formula_units_Z 28
_cell_length_a 15.000000
_cell_length_b 30.000000
_cell_length_c 12.000000
_cell_angle_alpha 90.000000
_cell_angle_beta 30.000000
_cell_angle_gamma 90.000000
_cell_volume 2700.000000
_symmetry_space_group_name_H-M "C 2/M"
_symmetry_group_IT_number 12
_symmetry_cell_setting 'monoclinic'
loop_
_space_group_symop_operation_xyz
x,y,z
-x,y,-z
-x,-y,-z
x,-y,z
1/2+x,1/2+y,z
1/2-x,1/2+y,-z
1/2-x,1/2-y,-z
1/2+x,1/2-y,z
loop_
_atom_site_type_symbol
_atom_site_label
_atom_site_fract_x
_atom_site_fract_y
_atom_site_fract_z
Si Si1 0.664594 0.374080 0.584172
Si Si2 0.524395 0.846934 0.164465
Si Si3 0.102612 0.171505 0.276262
Si Si4 0.147807 0.391017 0.250486
Si Si5 0.696334 0.687418 0.770878
Si Si6 0.985143 0.049466 0.882656
Si Si7 0.573178 0.242559 0.616676
O O1 0.488973 0.364645 0.704046
O O2 0.678794 0.341909 0.676841
O O3 0.644428 0.422646 0.656371
O O4 0.833738 0.361186 0.326446
O O5 0.553509 0.878669 0.238641
O O6 0.520320 0.797841 0.221087
O O7 0.701995 0.844698 0.903372
O O8 0.000000 0.176984 0.500000
O O9 0.059638 0.216816 0.255265
O O10 0.242417 0.346687 0.200000
O O11 0.000000 0.404982 0.500000
O O12 0.297630 0.426891 0.066668
O O13 0.842331 0.724697 0.590004
O O14 0.500000 0.706851 0.000000
O O15 0.986208 0.000000 0.838466
O O16 0.000000 0.050009 0.000000
O O17 0.750000 0.250000 0.500000
#
# Coordination Sequence:
#
# PCOD9225813 Si02
#       7
#     8   8   8   8   8   8   8
#     4  11  20  43  60  84 123 164 200 244 322 368
#     4  11  23  39  63  83 122 169 205 254 306 380
#     4  12  26  41  60  86 119 163 221 268 305 348
#     4  12  19  34  62  91 123 168 205 230 307 390
#     4  11  19  33  57  80 116 169 198 240 296 374
#     4  11  21  36  64 100 132 158 196 254 313 386
#     4  11  23  38  54  85 120 159 211 263 304 348
#
# _framework density 10.370369999999999
#
# number of rings (size 3 to 8) (size 9 to 14) (size 15 to 20)
#    0.000    0.714   10.000    0.429    2.000    2.000 
#    0.000    0.714    0.000    0.429    0.000    1.000 
#    0.000    0.000    0.000    0.000    0.000    0.000 
#
# Total GULP energy -156163.939278 kJ/mol
# GULP energy per Si atom -5577.283546 kJ/mol
# Density = 1.034677 g / cm^3
# Si number density = 10.370370 Si / 1000 Ang^3
#
#
#
# Elastic Constant Matrix: (Units=GPa)
#
#
# Indices 1 2 3 4 5 6 
#
# 1 10.3946 24.9232 35.3848 0.0009 13.8527 -0.0010
# 2 24.9232 86.6645 37.0550 0.0003 -0.9325 -0.0003
# 3 35.3848 37.0550 106.8855 0.0016 -31.3098 -0.0017
# 4 0.0009 0.0003 0.0016 88.5656 -0.0011 -74.3774
# 5 13.8527 -0.9325 -31.3098 -0.0011 6.2218 0.0012
# 6 -0.0010 -0.0003 -0.0017 -74.3774 0.0012 80.4583
#
#
#
# Elastic Compliance Matrix: (Units=1/GPa)
#
#
# Indices 1 2 3 4 5 6 
#
# 1 0.008705 -0.007643 0.013172 0.000000 0.045760 0.000000
# 2 -0.007643 0.016040 -0.005608 0.000000 -0.008799 0.000000
# 3 0.013172 -0.005608 0.004004 0.000000 -0.010021 0.000000
# 4 0.000000 0.000000 0.000000 0.050481 0.000000 0.046665
# 5 0.045760 -0.008799 -0.010021 0.000000 0.007092 0.000000
# 6 0.000000 0.000000 0.000000 0.046665 0.000000 0.055567
#
#
# Mechanical properties :
#
#
# Convention : Reuss Voigt Hill
#
# Bulk Modulus (GPa) = 34.97566 44.29673 39.63619
# Shear Modulus (GPa) = 32.98685 42.15456 37.57071
#
# Velocity S-wave (km/s) = 3.99236 4.51316 4.26072
# Velocity P-wave (km/s) = 6.17671 6.96864 6.58459
#
# Compressibility (1/GPa) = 0.02859131
#
# Stress axis : x y z
#
# Youngs Moduli (GPa) = 114.87718 62.34495 249.77574
#
# Poissons Ratio (x) = 0.47651 -3.29013
# Poissons Ratio (y) = 0.87802 1.40068
# Poissons Ratio (z) = -1.51320 0.34962
#
# Static dielectric constant tensor:
#      x y z
#    x 1.813480 0.000000 0.008640 
#    y 0.000000 1.794660 0.000000 
#    z 0.008640 0.000000 1.830740 
# 
# From -- ./inp_files/150413.got.cif
#   From: 2010.05.17/outbox.ucp.g08.bks.cvg/sg12_76_cif.got.tgz:150413.got - 2010.06.11 11:47:21.
