data_PCOD9225258
_publ_section_title
;
Structure prediction by ZEFSAII (Michael W. Deem and Ramdas Pophale) SiO2 
 PCOD9225258
Probable space group: C 2/M
;
_chemical_formula_sum "Si O2"
_cell_formula_units_Z 25
_cell_length_a 27.000000
_cell_length_b 9.000000
_cell_length_c 12.000000
_cell_angle_alpha 90.000000
_cell_angle_beta 60.000000
_cell_angle_gamma 90.000000
_cell_volume 2525.330077
_symmetry_space_group_name_H-M "C 2/M"
_symmetry_group_IT_number 12
_symmetry_cell_setting 'monoclinic'
loop_
_space_group_symop_operation_xyz
x,y,z
-x,y,-z
-x,-y,-z
x,-y,z
1/2+x,1/2+y,z
1/2-x,1/2+y,-z
1/2-x,1/2-y,-z
1/2+x,1/2-y,z
loop_
_atom_site_type_symbol
_atom_site_label
_atom_site_fract_x
_atom_site_fract_y
_atom_site_fract_z
Si Si1 0.113896 0.157084 0.305064
Si Si2 0.808700 0.174495 0.181830
Si Si3 0.001236 0.321433 0.129709
Si Si4 0.624409 0.174356 0.079530
Si Si5 0.115599 0.176597 0.694942
Si Si6 0.500000 0.500000 0.500000
Si Si7 0.800079 0.171477 0.587246
O O1 0.126470 0.287998 0.206767
O O2 0.048524 0.127512 0.413115
O O3 0.151589 0.170873 0.372310
O O4 0.131455 0.000000 0.227550
O O5 0.862331 0.198875 0.204630
O O6 0.753763 0.241493 0.305025
O O7 0.800619 0.000000 0.176660
O O8 0.825607 0.250166 0.047380
O O9 0.997863 0.500000 0.143583
O O10 0.061685 0.269698 0.110963
O O11 0.945845 0.250987 0.250244
O O12 0.000000 0.283819 0.000000
O O13 0.626770 0.000000 0.054891
O O14 0.166792 0.232330 0.558031
O O15 0.109687 0.000000 0.679434
O O16 0.782973 0.000000 0.583803
#
# Coordination Sequence:
#
# PCOD9225258 Si02
#       7
#     8   8   8   8   8   2   8
#     4   9  21  39  64  89 116 159 195 242 295 349
#     4  11  23  39  59  89 121 158 202 252 299 355
#     4  10  21  37  57  85 120 155 195 241 302 359
#     4  11  23  39  61  89 122 160 200 248 302 358
#     4  10  22  37  61  90 118 155 203 249 301 361
#     4   8  20  40  66  88 122 152 198 242 294 354
#     4  10  22  40  61  87 118 159 202 242 302 360
#
# _framework density 9.8996960000000005
#
# number of rings (size 3 to 8) (size 9 to 14) (size 15 to 20)
#    0.480    1.440    1.600    1.440    2.240    4.160 
#    0.000    0.400    0.000    0.000    0.000    0.000 
#    0.000    0.000    0.000    0.000    0.000    0.000 
#
# Total GULP energy -139186.059755 kJ/mol
# GULP energy per Si atom -5567.442390 kJ/mol
# Density = 0.987716 g / cm^3
# Si number density = 9.899696 Si / 1000 Ang^3
#
#
#
# Elastic Constant Matrix: (Units=GPa)
#
#
# Indices 1 2 3 4 5 6 
#
# 1 19.1184 15.8663 29.1330 0.0000 -10.0521 0.0000
# 2 15.8663 21.2156 31.0997 0.0000 -6.8567 0.0000
# 3 29.1330 31.0997 94.2413 0.0000 -27.6847 0.0000
# 4 0.0000 0.0000 0.0000 31.7336 0.0000 -8.0694
# 5 -10.0521 -6.8567 -27.6847 0.0000 28.8267 0.0000
# 6 0.0000 0.0000 0.0000 -8.0694 0.0000 24.8044
#
#
#
# Elastic Compliance Matrix: (Units=1/GPa)
#
#
# Indices 1 2 3 4 5 6 
#
# 1 0.162420 -0.097391 -0.011475 0.000000 0.022452 0.000000
# 2 -0.097391 0.151842 -0.026980 0.000000 -0.023755 0.000000
# 3 -0.011475 -0.026980 0.027861 0.000000 0.016339 0.000000
# 4 0.000000 0.000000 0.000000 0.034354 0.000000 0.011176
# 5 0.022452 -0.023755 0.016339 0.000000 0.052561 0.000000
# 6 0.000000 0.000000 0.000000 0.011176 0.000000 0.043951
#
#
# Mechanical properties :
#
#
# Convention : Reuss Voigt Hill
#
# Bulk Modulus (GPa) = 14.19785 31.86367 23.03076
# Shear Modulus (GPa) = 6.50908 20.97137 13.74022
#
# Velocity S-wave (km/s) = 1.81512 3.25805 2.63719
# Velocity P-wave (km/s) = 3.40284 5.50286 4.57497
#
# Compressibility (1/GPa) = 0.07043320
#
# Stress axis : x y z
#
# Youngs Moduli (GPa) = 6.15686 6.58580 35.89204
#
# Poissons Ratio (x) = 0.64140 0.41185
# Poissons Ratio (y) = 0.59962 0.96835
# Poissons Ratio (z) = 0.07065 0.17768
#
# Static dielectric constant tensor:
#      x y z
#    x 1.705610 0.000000 0.031080 
#    y 0.000000 1.701650 0.000000 
#    z 0.031080 0.000000 1.702090 
# 
# From -- ./inp_files/180544.got.cif
#   From: 2010.05.17/outbox.ucp.g08.bks.cvg/sg12_91_cif.got.tgz:180544.got - 2010.06.11 11:47:21.
