data_PCOD9225140
_publ_section_title
;
Structure prediction by ZEFSAII (Michael W. Deem and Ramdas Pophale) SiO2 
 PCOD9225140
Probable space group: C 2/M
;
_chemical_formula_sum "Si O2"
_cell_formula_units_Z 24
_cell_length_a 24.000000
_cell_length_b 9.000000
_cell_length_c 12.000000
_cell_angle_alpha 90.000000
_cell_angle_beta 70.000000
_cell_angle_gamma 90.000000
_cell_volume 2435.683273
_symmetry_space_group_name_H-M "C 2/M"
_symmetry_group_IT_number 12
_symmetry_cell_setting 'monoclinic'
loop_
_space_group_symop_operation_xyz
x,y,z
-x,y,-z
-x,-y,-z
x,-y,z
1/2+x,1/2+y,z
1/2-x,1/2+y,-z
1/2-x,1/2-y,-z
1/2+x,1/2-y,z
loop_
_atom_site_type_symbol
_atom_site_label
_atom_site_fract_x
_atom_site_fract_y
_atom_site_fract_z
Si Si1 0.117708 0.674751 0.959078
Si Si2 0.451274 0.324785 0.180011
Si Si3 0.438137 0.175140 0.776113
Si Si4 0.347218 0.178254 0.390108
Si Si5 0.355508 0.821798 0.643453
Si Si6 0.264711 0.176339 0.249629
O O1 0.110495 0.500000 0.936836
O O2 0.065580 0.759138 0.929534
O O3 0.180774 0.722070 0.866615
O O4 0.112309 0.690338 0.094674
O O5 0.456509 0.500000 0.168084
O O6 0.506824 0.258204 0.207667
O O7 0.395690 0.272148 0.291665
O O8 0.412140 0.229208 0.676373
O O9 0.453360 0.000000 0.756182
O O10 0.352273 0.218980 0.515748
O O11 0.286927 0.204321 0.361619
O O12 0.358995 0.000000 0.372192
O O13 0.295131 0.760311 0.735830
O O14 0.355646 0.000000 0.649695
O O15 0.255862 0.000000 0.243918
#
# Coordination Sequence:
#
# PCOD9225140 Si02
#       6
#     8   8   8   8   8   8
#     4   9  19  37  58  78 104 141 178 211 258 318
#     4  11  22  35  55  82 106 132 175 226 268 306
#     4  10  21  37  55  76 107 145 178 210 257 317
#     4   9  19  37  57  77 105 141 178 214 259 315
#     4  10  21  35  54  80 107 140 180 216 254 309
#     4   9  18  33  54  78 105 139 176 216 262 307
#
# _framework density 9.8534980000000001
#
# number of rings (size 3 to 8) (size 9 to 14) (size 15 to 20)
#    0.000    2.333    0.000    3.500    0.000    8.000 
#    0.000    3.333    0.000    0.000    0.000    0.000 
#    0.000    0.000    0.000    0.000    0.000    0.000 
#
# Total GULP energy -133823.129288 kJ/mol
# GULP energy per Si atom -5575.963720 kJ/mol
# Density = 0.983107 g / cm^3
# Si number density = 9.853498 Si / 1000 Ang^3
#
#
#
# Elastic Constant Matrix: (Units=GPa)
#
#
# Indices 1 2 3 4 5 6 
#
# 1 51.2141 15.9597 1.6811 0.0000 16.7121 0.0000
# 2 15.9597 9.5668 15.6891 0.0000 7.0986 0.0000
# 3 1.6811 15.6891 14.2739 0.0000 6.5279 0.0000
# 4 0.0000 0.0000 0.0000 5.2626 0.0000 -5.7110
# 5 16.7121 7.0986 6.5279 0.0000 22.0578 0.0000
# 6 0.0000 0.0000 0.0000 -5.7110 0.0000 30.6745
#
#
#
# Elastic Compliance Matrix: (Units=1/GPa)
#
#
# Indices 1 2 3 4 5 6 
#
# 1 0.015659 0.028911 -0.027688 0.000000 -0.012974 0.000000
# 2 0.028911 -0.076863 0.092272 0.000000 -0.024476 0.000000
# 3 -0.027688 0.092272 -0.027890 0.000000 -0.000463 0.000000
# 4 0.000000 0.000000 0.000000 0.238132 0.000000 0.044336
# 5 -0.012974 -0.024476 -0.000463 0.000000 0.063179 0.000000
# 6 0.000000 0.000000 0.000000 0.044336 0.000000 0.040855
#
#
# Mechanical properties :
#
#
# Convention : Reuss Voigt Hill
#
# Bulk Modulus (GPa) = 10.21491 15.74606 12.98049
# Shear Modulus (GPa) = 50.65184 14.38065 32.51624
#
# Velocity S-wave (km/s) = 5.07526 2.70427 4.06641
# Velocity P-wave (km/s) = 6.28800 4.21405 5.35244
#
# Compressibility (1/GPa) = 0.09789615
#
# Stress axis : x y z
#
# Youngs Moduli (GPa) = 63.86122 -13.01012 -35.85529
#
# Poissons Ratio (x) = 0.37613 -0.99276
# Poissons Ratio (y) = -1.84628 3.30846
# Poissons Ratio (z) = 1.76819 1.20047
#
# Static dielectric constant tensor:
#      x y z
#    x 1.683920 0.000000 -0.010360 
#    y 0.000000 1.656610 0.000000 
#    z -0.010360 0.000000 1.746890 
# 
# From -- ./inp_files/172109.got.cif
#   From: 2010.05.17/outbox.ucp.g08.bks.cvg/sg12_87_cif.got.tgz:172109.got - 2010.06.11 11:47:21.
