data_PCOD9225995
_publ_section_title
;
Structure prediction by ZEFSAII (Michael W. Deem and Ramdas Pophale) SiO2 
 PCOD9225995
Probable space group: P 2/C
;
_chemical_formula_sum "Si O2"
_cell_formula_units_Z 26
_cell_length_a 7.666631
_cell_length_b 30.333213
_cell_length_c 5.469546
_cell_angle_alpha 90.000000
_cell_angle_beta 111.451466
_cell_angle_gamma 90.000000
_cell_volume 1183.850575
_symmetry_space_group_name_H-M "P 2/C"
_symmetry_group_IT_number 13
_symmetry_cell_setting 'monoclinic'
loop_
_space_group_symop_operation_xyz
x,y,z
-x,y,1/2-z
-x,-y,-z
x,-y,1/2+z
loop_
_atom_site_type_symbol
_atom_site_label
_atom_site_fract_x
_atom_site_fract_y
_atom_site_fract_z
Si Si1 0.000000 0.858265 0.750000
Si Si2 0.378177 0.616832 0.438085
Si Si3 0.375461 0.713583 0.435845
Si Si4 0.282398 0.481623 0.886206
Si Si5 0.286040 0.805557 0.240196
Si Si6 0.294583 0.890860 0.547796
Si Si7 0.779017 0.979116 0.181179
O O1 0.862638 0.825913 0.525740
O O2 0.868773 0.890914 0.838018
O O3 0.500000 0.615954 0.250000
O O4 0.283145 0.665087 0.402963
O O5 0.269055 0.571077 0.376756
O O6 0.500000 0.614490 0.750000
O O7 0.500000 0.711529 0.250000
O O8 0.249953 0.756693 0.325499
O O9 0.500000 0.719579 0.750000
O O10 0.202700 0.500454 0.596364
O O11 0.500000 0.500000 0.000000
O O12 0.500000 0.805656 0.250000
O O13 0.286885 0.840943 0.454479
O O14 0.500000 0.899857 0.750000
O O15 0.255412 0.926878 0.321534
O O16 0.000000 0.986158 0.250000
O O17 0.704809 0.002956 0.383584
#
# Coordination Sequence:
#
# PCOD9225995 Si02
#       7
#     2   4   4   4   4   4   4
#     4  12  26  44  72 100 132 178 220 274 342 382
#     4  10  15  24  37  61  93 139 192 244 302 371
#     4   9  20  33  54  79 114 155 205 260 322 383
#     4  10  14  19  31  51  86 132 189 234 294 365
#     4  11  23  43  68  96 131 171 223 272 333 401
#     4  12  26  45  72 101 138 176 228 275 329 399
#     4  10  24  43  70 100 139 180 222 271 328 390
#
# _framework density 21.962232
#
# number of rings (size 3 to 8) (size 9 to 14) (size 15 to 20)
#    0.000    1.538    4.615    1.846    7.538    0.615 
#    0.000    0.000    0.000    0.000    0.000    0.000 
#    0.000    0.000    0.000    1.385    0.308    0.462 
#
# Total GULP energy -145077.162599 kJ/mol
# GULP energy per Si atom -5579.890869 kJ/mol
# Density = 2.191225 g / cm^3
# Si number density = 21.962232 Si / 1000 Ang^3
#
#
#
# Elastic Constant Matrix: (Units=GPa)
#
#
# Indices 1 2 3 4 5 6 
#
# 1 65.4516 7.7984 43.8714 0.0000 18.6539 0.0000
# 2 7.7984 144.7215 20.0653 0.0000 -9.2613 0.0000
# 3 43.8714 20.0653 118.8573 0.0000 -20.1990 0.0000
# 4 0.0000 0.0000 0.0000 16.4470 0.0000 -17.7334
# 5 18.6539 -9.2613 -20.1990 0.0000 32.0766 0.0000
# 6 0.0000 0.0000 0.0000 -17.7334 0.0000 1.8277
#
#
#
# Elastic Compliance Matrix: (Units=1/GPa)
#
#
# Indices 1 2 3 4 5 6 
#
# 1 0.039644 -0.001620 -0.020557 0.000000 -0.036467 0.000000
# 2 -0.001620 0.007202 -0.000117 0.000000 0.002948 0.000000
# 3 -0.020557 -0.000117 0.020209 0.000000 0.024647 0.000000
# 4 0.000000 0.000000 0.000000 -0.006426 0.000000 -0.062351
# 5 -0.036467 0.002948 0.024647 0.000000 0.068754 0.000000
# 6 0.000000 0.000000 0.000000 -0.062351 0.000000 -0.057828
#
#
# Mechanical properties :
#
#
# Convention : Reuss Voigt Hill
#
# Bulk Modulus (GPa) = 44.50760 52.50006 48.50383
# Shear Modulus (GPa) = 40.44296 27.22327 33.83312
#
# Velocity S-wave (km/s) = 4.29590 3.52454 3.92920
# Velocity P-wave (km/s) = 6.70193 6.36552 6.53589
#
# Compressibility (1/GPa) = 0.02246807
#
# Stress axis : x y z
#
# Youngs Moduli (GPa) = 25.22479 138.85109 49.48178
#
# Poissons Ratio (x) = 0.22490 1.01718
# Poissons Ratio (y) = 0.04086 0.00579
# Poissons Ratio (z) = 0.51854 0.01625
#
# Static dielectric constant tensor:
#      x y z
#    x 0.353810 0.000000 -0.172560 
#    y 0.000000 1.808480 0.000000 
#    z -0.172560 0.000000 1.847480 
# 
# From -- ./inp_files/2657.got.cif
#   From: 2010.05.17/outbox.cif.g08.bks.cpg/sg13_2_cif.got.tgz:2657.got - 2010.06.03 16:44:36.
