data_PCOD9225912
_publ_section_title
;
Structure prediction by ZEFSAII (Michael W. Deem and Ramdas Pophale) SiO2 
 PCOD9225912
Probable space group: C 2/M
;
_chemical_formula_sum "Si O2"
_cell_formula_units_Z 24
_cell_length_a 15.000000
_cell_length_b 9.000000
_cell_length_c 21.000000
_cell_angle_alpha 90.000000
_cell_angle_beta 110.000000
_cell_angle_gamma 90.000000
_cell_volume 2664.028580
_symmetry_space_group_name_H-M "C 2/M"
_symmetry_group_IT_number 12
_symmetry_cell_setting 'monoclinic'
loop_
_space_group_symop_operation_xyz
x,y,z
-x,y,-z
-x,-y,-z
x,-y,z
1/2+x,1/2+y,z
1/2-x,1/2+y,-z
1/2-x,1/2-y,-z
1/2+x,1/2-y,z
loop_
_atom_site_type_symbol
_atom_site_label
_atom_site_fract_x
_atom_site_fract_y
_atom_site_fract_z
Si Si1 0.393298 0.320639 0.995885
Si Si2 0.204447 0.821615 0.894798
Si Si3 0.277957 0.820055 0.359283
Si Si4 0.586198 0.179912 0.353229
Si Si5 0.894360 0.827254 0.502931
Si Si6 0.887096 0.819652 0.265674
O O1 0.389987 0.500000 0.989860
O O2 0.306879 0.253164 0.933042
O O3 0.500000 0.274435 0.000000
O O4 0.364958 0.281742 0.062418
O O5 0.158965 0.785809 0.814796
O O6 0.216957 0.000000 0.900003
O O7 0.173519 0.750835 0.336599
O O8 0.330385 0.758235 0.435639
O O9 0.328045 0.752307 0.309186
O O10 0.278819 0.000000 0.358905
O O11 0.599137 0.241169 0.428640
O O12 0.490390 0.246939 0.299993
O O13 0.586109 0.000000 0.352733
O O14 0.000000 0.832137 0.500000
O O15 0.862418 0.000000 0.503971
O O16 0.891943 0.000000 0.273859
#
# Coordination Sequence:
#
# PCOD9225912 Si02
#       6
#     8   8   8   8   8   8
#     4   9  18  35  60  89 119 153 194 235 280 340
#     4   9  20  37  58  86 120 155 190 238 289 340
#     4  12  25  41  62  87 117 155 202 251 304 357
#     4  12  25  41  62  88 119 156 201 247 301 360
#     4  11  22  39  64  88 117 154 196 249 305 354
#     4  11  23  41  60  85 123 160 200 246 297 353
#
# _framework density 9.0089120000000005
#
# number of rings (size 3 to 8) (size 9 to 14) (size 15 to 20)
#    0.000    1.333    1.667    4.500    0.000    3.667 
#    0.000    1.667    0.000    0.000    0.000    0.000 
#    0.000    0.000    0.000    0.000    0.000    0.000 
#
# Total GULP energy -134083.213144 kJ/mol
# GULP energy per Si atom -5586.800548 kJ/mol
# Density = 0.898841 g / cm^3
# Si number density = 9.008912 Si / 1000 Ang^3
#
#
#
# Elastic Constant Matrix: (Units=GPa)
#
#
# Indices 1 2 3 4 5 6 
#
# 1 168.0661 57.1106 74.0633 0.0000 25.6315 0.0000
# 2 57.1106 144.6108 65.5706 0.0000 12.6485 0.0000
# 3 74.0633 65.5706 161.2593 0.0000 24.6670 0.0000
# 4 0.0000 0.0000 0.0000 31.0088 0.0000 4.8304
# 5 25.6315 12.6485 24.6670 0.0000 9.8292 0.0000
# 6 0.0000 0.0000 0.0000 4.8304 0.0000 34.3807
#
#
#
# Elastic Compliance Matrix: (Units=1/GPa)
#
#
# Indices 1 2 3 4 5 6 
#
# 1 0.010356 -0.001845 -0.000387 0.000000 -0.023659 0.000000
# 2 -0.001845 0.008889 -0.002846 0.000000 0.000514 0.000000
# 3 -0.000387 -0.002846 0.011072 0.000000 -0.023114 0.000000
# 4 0.000000 0.000000 0.000000 0.032971 0.000000 -0.004632
# 5 -0.023659 0.000514 -0.023114 0.000000 0.220779 0.000000
# 6 0.000000 0.000000 0.000000 -0.004632 0.000000 0.029737
#
#
# Mechanical properties :
#
#
# Convention : Reuss Voigt Hill
#
# Bulk Modulus (GPa) = 49.59977 96.38056 72.99016
# Shear Modulus (GPa) = 15.12042 33.52318 24.32180
#
# Velocity S-wave (km/s) = 2.90002 4.31810 3.67805
# Velocity P-wave (km/s) = 6.22908 8.85828 7.65737
#
# Compressibility (1/GPa) = 0.02016139
#
# Stress axis : x y z
#
# Youngs Moduli (GPa) = 96.56496 112.49731 90.32066
#
# Poissons Ratio (x) = 0.20755 0.03495
# Poissons Ratio (y) = 0.17815 0.25702
# Poissons Ratio (z) = 0.03737 0.32013
#
# Static dielectric constant tensor:
#      x y z
#    x 1.651790 0.000000 -0.009240 
#    y 0.000000 1.601770 0.000000 
#    z -0.009240 0.000000 1.599120 
# 
# From -- ./inp_files/308600.got.cif
#   From: 2010.05.17/outbox.ucp.g08.bks.cvg/sg12_155_cif.got.tgz:308600.got - 2010.06.11 11:47:21.
