data_PCOD9225085
_publ_section_title
;
Structure prediction by ZEFSAII (Michael W. Deem and Ramdas Pophale) SiO2 
 PCOD9225085
Probable space group: C 2/M
;
_chemical_formula_sum "Si O2"
_cell_formula_units_Z 32
_cell_length_a 18.000000
_cell_length_b 9.000000
_cell_length_c 30.000000
_cell_angle_alpha 90.000000
_cell_angle_beta 40.000000
_cell_angle_gamma 90.000000
_cell_volume 3123.947783
_symmetry_space_group_name_H-M "C 2/M"
_symmetry_group_IT_number 12
_symmetry_cell_setting 'monoclinic'
loop_
_space_group_symop_operation_xyz
x,y,z
-x,y,-z
-x,-y,-z
x,-y,z
1/2+x,1/2+y,z
1/2-x,1/2+y,-z
1/2-x,1/2-y,-z
1/2+x,1/2-y,z
loop_
_atom_site_type_symbol
_atom_site_label
_atom_site_fract_x
_atom_site_fract_y
_atom_site_fract_z
Si Si1 0.670098 0.677677 0.998880
Si Si2 0.335076 0.329859 0.262996
Si Si3 0.825882 0.673575 0.359470
Si Si4 0.082761 0.669720 0.347156
Si Si5 0.590693 0.822682 0.496424
Si Si6 0.751774 0.675570 0.127672
Si Si7 0.576753 0.822193 0.868002
Si Si8 0.959675 0.829198 0.715030
O O1 0.667968 0.500000 0.004001
O O2 0.716900 0.726639 0.929035
O O3 0.750000 0.750000 0.000000
O O4 0.543607 0.746907 0.063476
O O5 0.377452 0.500000 0.244578
O O6 0.362248 0.245223 0.295686
O O7 0.195687 0.333189 0.326267
O O8 0.380381 0.250479 0.197781
O O9 0.811635 0.500000 0.361257
O O10 0.710610 0.743211 0.432532
O O11 0.933706 0.719624 0.339827
O O12 0.074613 0.500000 0.333108
O O13 0.109735 0.792974 0.297904
O O14 0.971452 0.706241 0.427984
O O15 0.500000 0.777353 0.500000
O O16 0.607914 0.000000 0.484918
O O17 0.762224 0.500000 0.111424
O O18 0.835947 0.704029 0.130920
O O19 0.623066 0.702106 0.205366
O O20 0.564463 0.000000 0.868286
O O21 0.996586 0.000000 0.699983
#
# Coordination Sequence:
#
# PCOD9225085 Si02
#       8
#     8   8   8   8   8   8   8   8
#     4  12  27  45  67  97 133 173 215 263 317 375
#     4  11  22  40  66  96 129 168 213 263 317 380
#     4  12  26  41  61  93 130 169 216 267 321 381
#     4  10  21  39  66  95 127 164 211 265 319 382
#     4  10  20  40  65  91 124 167 213 264 325 383
#     4  10  23  44  69  96 129 169 212 261 317 379
#     4  11  23  43  69  99 132 168 212 263 317 378
#     4  11  24  43  66  93 129 170 213 263 322 380
#
# _framework density 10.243449
#
# number of rings (size 3 to 8) (size 9 to 14) (size 15 to 20)
#    0.000    1.125    2.500    3.750    1.750    5.250 
#    0.000    0.000    0.000    0.000    0.000    0.000 
#    0.000    0.000    0.000    0.000    0.000    0.000 
#
# Total GULP energy -178811.440339 kJ/mol
# GULP energy per Si atom -5587.857511 kJ/mol
# Density = 1.022013 g / cm^3
# Si number density = 10.243449 Si / 1000 Ang^3
#
#
#
# Elastic Constant Matrix: (Units=GPa)
#
#
# Indices 1 2 3 4 5 6 
#
# 1 41.6780 25.6647 27.9898 0.0000 -6.4614 0.0000
# 2 25.6647 83.8071 65.5954 0.0001 0.3482 -0.0007
# 3 27.9898 65.5954 99.0380 0.0000 1.8132 -0.0001
# 4 0.0000 0.0001 0.0000 36.9243 0.0000 5.2674
# 5 -6.4614 0.3482 1.8132 0.0000 33.3283 0.0001
# 6 0.0000 -0.0007 -0.0001 5.2674 0.0001 26.6833
#
#
#
# Elastic Compliance Matrix: (Units=1/GPa)
#
#
# Indices 1 2 3 4 5 6 
#
# 1 0.032144 -0.005536 -0.005538 0.000000 0.006591 0.000000
# 2 -0.005536 0.025743 -0.015476 0.000000 -0.000500 0.000001
# 3 -0.005538 -0.015476 0.021951 0.000000 -0.002106 0.000000
# 4 0.000000 0.000000 0.000000 0.027867 0.000000 -0.005501
# 5 0.006591 -0.000500 -0.002106 0.000000 0.031402 0.000000
# 6 0.000000 0.000001 0.000000 -0.005501 0.000000 0.038563
#
#
# Mechanical properties :
#
#
# Convention : Reuss Voigt Hill
#
# Bulk Modulus (GPa) = 37.40238 51.44698 44.42468
# Shear Modulus (GPa) = 20.86082 26.40537 23.63309
#
# Velocity S-wave (km/s) = 3.19447 3.59401 3.40011
# Velocity P-wave (km/s) = 5.64823 6.51070 6.09474
#
# Compressibility (1/GPa) = 0.02673626
#
# Stress axis : x y z
#
# Youngs Moduli (GPa) = 31.11026 38.84559 45.55535
#
# Poissons Ratio (x) = 0.21506 0.25230
# Poissons Ratio (y) = 0.17223 0.70503
# Poissons Ratio (z) = 0.17230 0.60119
#
# Static dielectric constant tensor:
#      x y z
#    x 1.774310 0.000000 -0.024610 
#    y 0.000000 1.684700 0.000000 
#    z -0.024610 0.000000 1.690680 
# 
# From -- ./inp_files/378088.got.cif
#   From: 2010.05.17/outbox.ucp.g08.bks.cvg/sg12_190_cif.got.tgz:378088.got - 2010.06.11 11:47:21.
