data_PCOD9225730
_publ_section_title
;
Structure prediction by ZEFSAII (Michael W. Deem and Ramdas Pophale) SiO2 
 PCOD9225730
Probable space group: C 2/M
;
_chemical_formula_sum "Si O2"
_cell_formula_units_Z 20
_cell_length_a 9.000000
_cell_length_b 15.000000
_cell_length_c 30.000000
_cell_angle_alpha 90.000000
_cell_angle_beta 30.000000
_cell_angle_gamma 90.000000
_cell_volume 2025.000000
_symmetry_space_group_name_H-M "C 2/M"
_symmetry_group_IT_number 12
_symmetry_cell_setting 'monoclinic'
loop_
_space_group_symop_operation_xyz
x,y,z
-x,y,-z
-x,-y,-z
x,-y,z
1/2+x,1/2+y,z
1/2-x,1/2+y,-z
1/2-x,1/2-y,-z
1/2+x,1/2-y,z
loop_
_atom_site_type_symbol
_atom_site_label
_atom_site_fract_x
_atom_site_fract_y
_atom_site_fract_z
Si Si1 0.696709 0.178026 0.553122
Si Si2 0.150968 0.782418 0.860623
Si Si3 0.251198 0.106064 0.973786
Si Si4 0.789180 0.235511 0.732315
Si Si5 0.802545 0.597543 0.592057
O O1 0.750000 0.250000 0.500000
O O2 0.446475 0.215757 0.650806
O O3 0.538574 0.096329 0.570291
O O4 0.000000 0.159063 0.500000
O O5 0.450048 0.789828 0.811417
O O6 0.266495 0.797604 0.781009
O O7 0.912747 0.853810 0.939859
O O8 0.008640 0.681523 0.899234
O O9 0.334496 0.000000 0.955415
O O10 0.000000 0.112566 0.000000
O O11 0.016634 0.154016 0.680157
O O12 0.702901 0.500000 0.604047
O O13 0.000000 0.635634 0.500000
#
# Coordination Sequence:
#
# PCOD9225730 Si02
#       5
#     8   8   8   8   8
#     4  12  20  38  65  89 122 171 208 246 308 374
#     4  11  23  39  65  98 121 160 210 261 311 376
#     4  10  22  43  67  90 125 166 202 251 320 389
#     4  12  21  38  63  92 123 160 208 257 303 366
#     4  11  24  40  60  90 126 167 213 260 310 364
#
# _framework density 9.8765429999999999
#
# number of rings (size 3 to 8) (size 9 to 14) (size 15 to 20)
#    0.000    0.800    8.000    0.000    0.000    2.000 
#    0.000    3.000    0.000    0.000    0.000    0.000 
#    0.000    0.000    0.000    0.000    0.000    0.000 
#
# Total GULP energy -111355.756174 kJ/mol
# GULP energy per Si atom -5567.787809 kJ/mol
# Density = 0.985406 g / cm^3
# Si number density = 9.876543 Si / 1000 Ang^3
#
#
#
# Elastic Constant Matrix: (Units=GPa)
#
#
# Indices 1 2 3 4 5 6 
#
# 1 86.4302 20.7638 33.1337 -0.0026 -7.5434 0.0032
# 2 20.7638 87.6153 36.2428 -0.0020 6.3900 -0.0024
# 3 33.1337 36.2428 113.0250 -0.0041 6.3534 -0.0020
# 4 -0.0026 -0.0020 -0.0041 1.0857 -0.0002 8.7397
# 5 -7.5434 6.3900 6.3534 -0.0002 47.0233 -0.0001
# 6 0.0032 -0.0024 -0.0020 8.7397 -0.0001 0.4671
#
#
#
# Elastic Compliance Matrix: (Units=1/GPa)
#
#
# Indices 1 2 3 4 5 6 
#
# 1 0.013658 -0.001991 -0.003531 -0.000007 0.002939 0.000003
# 2 -0.001991 0.013520 -0.003658 0.000004 -0.001662 0.000000
# 3 -0.003531 -0.003658 0.011144 0.000003 -0.001575 0.000003
# 4 -0.000007 0.000004 0.000003 -0.006156 -0.000002 0.115185
# 5 0.002939 -0.001662 -0.001575 -0.000002 0.022176 0.000001
# 6 0.000003 0.000000 0.000003 0.115185 0.000001 -0.014309
#
#
# Mechanical properties :
#
#
# Convention : Reuss Voigt Hill
#
# Bulk Modulus (GPa) = 50.09293 51.92787 51.01040
# Shear Modulus (GPa) = 76.86696 22.84390 49.85543
#
# Velocity S-wave (km/s) = 6.24487 3.40438 5.02932
# Velocity P-wave (km/s) = 8.79843 6.46519 7.72046
#
# Compressibility (1/GPa) = 0.01996290
#
# Stress axis : x y z
#
# Youngs Moduli (GPa) = 73.21551 73.96563 89.73201
#
# Poissons Ratio (x) = 0.14724 0.31683
# Poissons Ratio (y) = 0.14574 0.32827
# Poissons Ratio (z) = 0.25851 0.27059
#
# Static dielectric constant tensor:
#      x y z
#    x 1.773440 -0.000020 0.024140 
#    y -0.000020 1.701250 0.000010 
#    z 0.024140 0.000010 1.664440 
# 
# From -- ./inp_files/194533.got.cif
#   From: 2010.05.17/outbox.ucp.g08.bks.cvg/sg12_98_cif.got.tgz:194533.got - 2010.06.11 11:47:21.
