data_PCOD9225433
_publ_section_title
;
Structure prediction by ZEFSAII (Michael W. Deem and Ramdas Pophale) SiO2 
 PCOD9225433
Probable space group: C 2/M
;
_chemical_formula_sum "Si O2"
_cell_formula_units_Z 32
_cell_length_a 30.000000
_cell_length_b 9.000000
_cell_length_c 24.000000
_cell_angle_alpha 90.000000
_cell_angle_beta 150.000000
_cell_angle_gamma 90.000000
_cell_volume 3240.000000
_symmetry_space_group_name_H-M "C 2/M"
_symmetry_group_IT_number 12
_symmetry_cell_setting 'monoclinic'
loop_
_space_group_symop_operation_xyz
x,y,z
-x,y,-z
-x,-y,-z
x,-y,z
1/2+x,1/2+y,z
1/2-x,1/2+y,-z
1/2-x,1/2-y,-z
1/2+x,1/2-y,z
loop_
_atom_site_type_symbol
_atom_site_label
_atom_site_fract_x
_atom_site_fract_y
_atom_site_fract_z
Si Si1 0.256727 0.825306 0.851942
Si Si2 0.333457 0.823183 0.619975
Si Si3 0.495282 0.328367 0.233254
Si Si4 0.287911 0.323076 0.320252
Si Si5 0.940873 0.169150 0.044447
Si Si6 0.133837 0.179760 0.223877
Si Si7 0.028366 0.321979 0.466722
Si Si8 0.892684 0.820201 0.232021
O O1 0.203949 0.799366 0.737437
O O2 0.203116 0.767188 0.847792
O O3 0.266484 0.000000 0.870289
O O4 0.352922 0.762042 0.943539
O O5 0.250000 0.750000 0.500000
O O6 0.420043 0.778881 0.677390
O O7 0.340482 0.747165 0.688233
O O8 0.326103 0.000000 0.617467
O O9 0.522800 0.500000 0.274931
O O10 0.461135 0.327762 0.132722
O O11 0.423232 0.284578 0.202156
O O12 0.287305 0.500000 0.330087
O O13 0.198525 0.249908 0.248145
O O14 0.373890 0.244052 0.438853
O O15 0.028710 0.217907 0.106094
O O16 0.922391 0.000000 0.007821
O O17 0.140892 0.000000 0.232346
O O18 0.028022 0.500000 0.460674
O O19 0.000000 0.286887 0.500000
O O20 0.962617 0.248331 0.351045
O O21 0.894266 0.000000 0.238290
#
# Coordination Sequence:
#
# PCOD9225433 Si02
#       8
#     8   8   8   8   8   8   8   8
#     4  10  22  38  59  87 117 154 199 245 289 348
#     4  11  22  37  58  84 116 154 194 240 294 348
#     4   9  20  39  60  84 116 154 196 240 291 350
#     4  11  23  39  60  87 119 157 198 240 295 354
#     4   9  20  39  61  84 115 153 192 245 300 347
#     4  10  22  41  61  85 117 152 196 244 293 352
#     4  11  23  38  58  85 119 156 195 245 296 346
#     4  10  21  39  61  85 118 158 198 239 290 351
#
# _framework density 9.8765429999999999
#
# number of rings (size 3 to 8) (size 9 to 14) (size 15 to 20)
#    0.000    1.875    1.250    3.000    1.750    6.000 
#    0.000    2.500    0.000    0.000    0.000    0.000 
#    0.000    0.000    0.000    0.000    0.000    0.000 
#
# Total GULP energy -178565.669990 kJ/mol
# GULP energy per Si atom -5580.177187 kJ/mol
# Density = 0.985406 g / cm^3
# Si number density = 9.876543 Si / 1000 Ang^3
#
#
#
# Elastic Constant Matrix: (Units=GPa)
#
#
# Indices 1 2 3 4 5 6 
#
# 1 82.8679 56.2858 9.1760 0.0000 41.8265 0.0000
# 2 56.2858 -8.2117 14.2693 0.0001 -8.4154 0.0000
# 3 9.1760 14.2693 43.6352 0.0000 22.8187 0.0000
# 4 0.0000 0.0001 0.0000 191.3521 0.0000 -26.2293
# 5 41.8265 -8.4154 22.8187 0.0000 19.3410 0.0000
# 6 0.0000 0.0000 0.0000 -26.2293 0.0000 37.7660
#
#
#
# Elastic Compliance Matrix: (Units=1/GPa)
#
#
# Indices 1 2 3 4 5 6 
#
# 1 0.003691 0.010436 -0.006239 0.000000 0.003921 0.000000
# 2 0.010436 0.008194 0.013222 0.000000 -0.034604 0.000000
# 3 -0.006239 0.013222 0.025693 0.000000 -0.011067 0.000000
# 4 0.000000 0.000000 0.000000 0.005776 0.000000 0.004011
# 5 0.003921 -0.034604 -0.011067 0.000000 0.041225 0.000000
# 6 0.000000 0.000000 0.000000 0.004011 0.000000 0.029265
#
#
# Mechanical properties :
#
#
# Convention : Reuss Voigt Hill
#
# Bulk Modulus (GPa) = 13.80935 30.86150 22.33543
# Shear Modulus (GPa) = 48.47559 52.26250 50.36905
#
# Velocity S-wave (km/s) = 4.95924 5.14930 5.05516
# Velocity P-wave (km/s) = 6.30858 7.14222 6.73831
#
# Compressibility (1/GPa) = 0.07241469
#
# Stress axis : x y z
#
# Youngs Moduli (GPa) = 270.95803 122.04707 38.92064
#
# Poissons Ratio (x) = -1.27373 0.24284
# Poissons Ratio (y) = -2.82782 -0.51459
# Poissons Ratio (z) = 1.69061 -1.61366
#
# Static dielectric constant tensor:
#      x y z
#    x 1.763370 0.000000 0.109260 
#    y 0.000000 1.674630 0.000000 
#    z 0.109260 0.000000 1.896760 
# 
# From -- ./inp_files/353457.got.cif
#   From: 2010.05.17/outbox.ucp.g08.bks.cvg/sg12_177_cif.got.tgz:353457.got - 2010.06.11 11:47:21.
