data_PCOD9225012
_publ_section_title
;
Structure prediction by ZEFSAII (Michael W. Deem and Ramdas Pophale) SiO2 
 PCOD9225012
Probable space group: C 2/M
;
_chemical_formula_sum "Si O2"
_cell_formula_units_Z 30
_cell_length_a 15.000000
_cell_length_b 21.000000
_cell_length_c 15.000000
_cell_angle_alpha 90.000000
_cell_angle_beta 140.000000
_cell_angle_gamma 90.000000
_cell_volume 3037.171456
_symmetry_space_group_name_H-M "C 2/M"
_symmetry_group_IT_number 12
_symmetry_cell_setting 'monoclinic'
loop_
_space_group_symop_operation_xyz
x,y,z
-x,y,-z
-x,-y,-z
x,-y,z
1/2+x,1/2+y,z
1/2-x,1/2+y,-z
1/2-x,1/2-y,-z
1/2+x,1/2-y,z
loop_
_atom_site_type_symbol
_atom_site_label
_atom_site_fract_x
_atom_site_fract_y
_atom_site_fract_z
Si Si1 0.488105 0.199331 0.382759
Si Si2 0.580372 0.662716 0.653224
Si Si3 0.912446 0.074683 0.629102
Si Si4 0.565568 0.652795 0.177096
Si Si5 0.621217 0.885831 0.344007
Si Si6 0.611277 0.798740 0.165397
Si Si7 0.781574 0.878331 0.880103
Si Si8 0.602892 0.000000 0.800957
O O1 0.500000 0.192810 0.500000
O O2 0.492119 0.273858 0.362665
O O3 0.600928 0.159576 0.414798
O O4 0.343107 0.170465 0.236653
O O5 0.500000 0.651521 0.500000
O O6 0.551832 0.601375 0.690566
O O7 0.738294 0.681711 0.756870
O O8 0.895694 0.116605 0.704301
O O9 0.779324 0.089845 0.465291
O O10 0.918470 0.000000 0.652407
O O11 0.611254 0.726227 0.201700
O O12 0.639727 0.614932 0.153687
O O13 0.399420 0.649733 0.035161
O O14 0.584112 0.845633 0.227487
O O15 0.516401 0.944342 0.274226
O O16 0.500000 0.802710 0.000000
O O17 0.717196 0.943410 0.866214
#
# Coordination Sequence:
#
# PCOD9225012 Si02
#       8
#     8   8   8   8   8   8   8   4
#     4  10  20  38  67 104 136 171 227 287 355 408
#     4  11  23  42  68 100 136 178 232 289 338 396
#     4  12  27  44  66 101 139 188 233 275 346 422
#     4  11  23  42  71 102 138 175 223 287 360 416
#     4  11  24  44  68  98 141 184 232 293 336 416
#     4  12  24  47  74 104 134 181 239 295 354 398
#     4  10  21  41  67  96 142 176 212 283 344 425
#     4  10  24  43  64  95 140 186 223 276 347 409
#
# _framework density 9.8776119999999992
#
# number of rings (size 3 to 8) (size 9 to 14) (size 15 to 20)
#    0.000    1.067    4.667    1.600    3.733    4.000 
#    1.200    7.000    0.000    0.000    0.000    0.000 
#    0.000    0.000    0.000    0.000    0.000    0.000 
#
# Total GULP energy -167018.301079 kJ/mol
# GULP energy per Si atom -5567.276703 kJ/mol
# Density = 0.985513 g / cm^3
# Si number density = 9.877612 Si / 1000 Ang^3
#
#
#
# Elastic Constant Matrix: (Units=GPa)
#
#
# Indices 1 2 3 4 5 6 
#
# 1 68.8132 61.1077 37.6234 0.0000 11.0909 0.0000
# 2 61.1077 103.4496 55.0013 0.0000 -5.6440 0.0000
# 3 37.6234 55.0013 85.8428 0.0000 5.9801 0.0000
# 4 0.0000 0.0000 0.0000 18.7442 0.0000 12.3586
# 5 11.0909 -5.6440 5.9801 0.0000 31.2311 0.0000
# 6 0.0000 0.0000 0.0000 12.3586 0.0000 25.0696
#
#
#
# Elastic Compliance Matrix: (Units=1/GPa)
#
#
# Indices 1 2 3 4 5 6 
#
# 1 0.038504 -0.023355 -0.000674 0.000000 -0.017765 0.000000
# 2 -0.023355 0.029482 -0.009732 0.000000 0.015485 0.000000
# 3 -0.000674 -0.009732 0.018533 0.000000 -0.005068 0.000000
# 4 0.000000 0.000000 0.000000 0.079041 0.000000 -0.038965
# 5 -0.017765 0.015485 -0.005068 0.000000 0.042097 0.000000
# 6 0.000000 0.000000 0.000000 -0.038965 0.000000 0.059097
#
#
# Mechanical properties :
#
#
# Convention : Reuss Voigt Hill
#
# Bulk Modulus (GPa) = 52.64157 62.84117 57.74137
# Shear Modulus (GPa) = 14.67964 21.96719 18.32341
#
# Velocity S-wave (km/s) = 2.72890 3.33824 3.04883
# Velocity P-wave (km/s) = 6.05260 6.83648 6.45644
#
# Compressibility (1/GPa) = 0.01899639
#
# Stress axis : x y z
#
# Youngs Moduli (GPa) = 25.97146 33.91942 53.95751
#
# Poissons Ratio (x) = 0.79220 0.03635
# Poissons Ratio (y) = 0.60657 0.52512
# Poissons Ratio (z) = 0.01750 0.33011
#
# Static dielectric constant tensor:
#      x y z
#    x 1.741200 0.000000 0.006900 
#    y 0.000000 1.663760 0.000000 
#    z 0.006900 0.000000 1.707370 
# 
# From -- ./inp_files/217926.got.cif
#   From: 2010.05.17/outbox.ucp.g08.bks.cvg/sg12_109_cif.got.tgz:217926.got - 2010.06.11 11:47:21.
