data_PCOD9225664
_publ_section_title
;
Structure prediction by ZEFSAII (Michael W. Deem and Ramdas Pophale) SiO2 
 PCOD9225664
Probable space group: C 2/M
;
_chemical_formula_sum "Si O2"
_cell_formula_units_Z 28
_cell_length_a 15.000000
_cell_length_b 9.000000
_cell_length_c 24.000000
_cell_angle_alpha 90.000000
_cell_angle_beta 120.000000
_cell_angle_gamma 90.000000
_cell_volume 2805.922308
_symmetry_space_group_name_H-M "C 2/M"
_symmetry_group_IT_number 12
_symmetry_cell_setting 'monoclinic'
loop_
_space_group_symop_operation_xyz
x,y,z
-x,y,-z
-x,-y,-z
x,-y,z
1/2+x,1/2+y,z
1/2-x,1/2+y,-z
1/2-x,1/2-y,-z
1/2+x,1/2-y,z
loop_
_atom_site_type_symbol
_atom_site_label
_atom_site_fract_x
_atom_site_fract_y
_atom_site_fract_z
Si Si1 0.515371 0.826545 0.843904
Si Si2 0.337369 0.323441 0.489572
Si Si3 0.489403 0.672484 0.372880
Si Si4 0.179248 0.334369 0.631990
Si Si5 0.725193 0.323547 0.933448
Si Si6 0.417653 0.334612 0.717370
Si Si7 0.581617 0.180139 0.071932
O O1 0.615598 0.728303 0.879654
O O2 0.463564 0.792332 0.769512
O O3 0.445380 0.777683 0.874100
O O4 0.539967 0.000000 0.858476
O O5 0.326314 0.500000 0.489131
O O6 0.250000 0.250000 0.500000
O O7 0.444804 0.285006 0.552542
O O8 0.331411 0.269407 0.424961
O O9 0.459758 0.500000 0.368482
O O10 0.390683 0.774213 0.340636
O O11 0.558029 0.687976 0.339778
O O12 0.148409 0.500000 0.605659
O O13 0.296444 0.335780 0.686559
O O14 0.732312 0.500000 0.941753
O O15 0.808054 0.271558 0.914347
O O16 0.750000 0.250000 0.000000
O O17 0.458295 0.500000 0.745194
O O18 0.578736 0.000000 0.069715
O O19 0.500000 0.232030 0.000000
#
# Coordination Sequence:
#
# PCOD9225664 Si02
#       7
#     8   8   8   8   8   8   8
#     4  11  23  40  62  89 118 154 203 246 290 357
#     4  11  21  37  62  91 122 159 203 254 309 363
#     4  10  22  41  62  86 121 163 202 245 306 368
#     4  11  23  40  62  91 123 158 203 255 305 359
#     4  11  21  37  62  90 120 155 192 239 298 352
#     4  10  23  44  61  81 122 164 198 244 303 358
#     4   9  18  36  60  85 118 154 187 230 290 356
#
# _framework density 9.9788940000000004
#
# number of rings (size 3 to 8) (size 9 to 14) (size 15 to 20)
#    0.000    1.571    2.857    2.143    0.000    5.714 
#    0.000    7.857    0.000    0.000    0.000    0.000 
#    0.000    0.000    0.000    0.000    0.000    0.000 
#
# Total GULP energy -156202.772266 kJ/mol
# GULP energy per Si atom -5578.670438 kJ/mol
# Density = 0.995618 g / cm^3
# Si number density = 9.978894 Si / 1000 Ang^3
#
#
#
# Elastic Constant Matrix: (Units=GPa)
#
#
# Indices 1 2 3 4 5 6 
#
# 1 24.3970 16.1529 -28.4392 0.0000 59.4521 0.0000
# 2 16.1529 11.3846 7.4496 0.0000 23.2851 0.0000
# 3 -28.4392 7.4496 29.1077 0.0000 24.2775 0.0000
# 4 0.0000 0.0000 0.0000 41.3723 0.0000 -6.1490
# 5 59.4521 23.2851 24.2775 0.0000 -21.2502 0.0000
# 6 0.0000 0.0000 0.0000 -6.1490 0.0000 24.8193
#
#
#
# Elastic Compliance Matrix: (Units=1/GPa)
#
#
# Indices 1 2 3 4 5 6 
#
# 1 -0.026257 0.091728 -0.036712 0.000000 -0.014889 0.000000
# 2 0.091728 -0.259853 0.091951 0.000000 0.076944 0.000000
# 3 -0.036712 0.091951 -0.011991 0.000000 -0.015653 0.000000
# 4 0.000000 0.000000 0.000000 0.025095 0.000000 0.006217
# 5 -0.014889 0.076944 -0.015653 0.000000 -0.022284 0.000000
# 6 0.000000 0.000000 0.000000 0.006217 0.000000 0.041832
#
#
# Mechanical properties :
#
#
# Convention : Reuss Voigt Hill
#
# Bulk Modulus (GPa) = -240.01044 6.13512 -116.93766
# Shear Modulus (GPa) = -9.11110 13.63669 2.26280
#
# Velocity S-wave (km/s) = -2.13895 2.61679 1.06595
# Velocity P-wave (km/s) = 11.25257 3.49440 7.56338
#
# Compressibility (1/GPa) = -0.00416649
#
# Stress axis : x y z
#
# Youngs Moduli (GPa) = -38.08549 -3.84833 -83.39545
#
# Poissons Ratio (x) = 0.35300 -3.06162
# Poissons Ratio (y) = 3.49352 7.66827
# Poissons Ratio (z) = -1.39820 0.35386
#
# Static dielectric constant tensor:
#      x y z
#    x 1.729060 0.000000 0.025020 
#    y 0.000000 1.706290 0.000000 
#    z 0.025020 0.000000 1.743730 
# 
# From -- ./inp_files/339000.got.cif
#   From: 2010.05.17/outbox.ucp.g08.bks.cvg/sg12_170_cif.got.tgz:339000.got - 2010.06.11 11:47:21.
