data_PCOD9225860
_publ_section_title
;
Structure prediction by ZEFSAII (Michael W. Deem and Ramdas Pophale) SiO2 
 PCOD9225860
Probable space group: C 2/M
;
_chemical_formula_sum "Si O2"
_cell_formula_units_Z 28
_cell_length_a 21.000000
_cell_length_b 18.000000
_cell_length_c 21.000000
_cell_angle_alpha 90.000000
_cell_angle_beta 20.000000
_cell_angle_gamma 90.000000
_cell_volume 2714.955898
_symmetry_space_group_name_H-M "C 2/M"
_symmetry_group_IT_number 12
_symmetry_cell_setting 'monoclinic'
loop_
_space_group_symop_operation_xyz
x,y,z
-x,y,-z
-x,-y,-z
x,-y,z
1/2+x,1/2+y,z
1/2-x,1/2+y,-z
1/2-x,1/2-y,-z
1/2+x,1/2-y,z
loop_
_atom_site_type_symbol
_atom_site_label
_atom_site_fract_x
_atom_site_fract_y
_atom_site_fract_z
Si Si1 0.060191 0.587308 0.588495
Si Si2 0.245771 0.323054 0.184994
Si Si3 0.836488 0.814270 0.246598
Si Si4 0.740648 0.150974 0.637300
Si Si5 0.717697 0.911783 0.793372
Si Si6 0.364408 0.668743 0.779699
Si Si7 0.409289 0.087246 0.872212
O O1 0.102737 0.500000 0.548511
O O2 0.227601 0.633466 0.398565
O O3 0.886389 0.608643 0.707210
O O4 0.990661 0.607063 0.725717
O O5 0.243186 0.307903 0.263548
O O6 0.177016 0.251576 0.208386
O O7 0.454643 0.339003 0.965611
O O8 0.840624 0.732553 0.273254
O O9 0.800646 0.121546 0.650534
O O10 0.581259 0.098553 0.759080
O O11 0.913709 0.158106 0.426790
O O12 0.799232 0.883238 0.782627
O O13 0.731422 0.000000 0.777153
O O14 0.500000 0.889265 0.000000
O O15 0.253093 0.640701 0.946762
O O16 0.351874 0.000000 0.925561
#
# Coordination Sequence:
#
# PCOD9225860 Si02
#       7
#     8   8   8   8   8   8   8
#     4  11  27  48  70  96 131 175 224 275 332 394
#     4  11  23  43  71 101 133 167 214 280 340 391
#     4  11  23  43  71 101 133 167 214 280 340 391
#     4  12  23  39  65  97 134 174 223 267 323 390
#     4  11  21  35  59  92 135 176 214 268 327 386
#     4  12  23  39  65  97 134 174 223 267 323 390
#     4  11  26  46  64  94 141 184 222 267 315 386
#
# _framework density 10.313243
#
# number of rings (size 3 to 8) (size 9 to 14) (size 15 to 20)
#    0.000    0.714    5.714    1.714    0.000    6.857 
#    0.000    4.286    0.000    0.000    0.000    0.000 
#    0.000    0.000    0.000    0.000    0.000    0.000 
#
# Total GULP energy -156529.180288 kJ/mol
# GULP energy per Si atom -5590.327867 kJ/mol
# Density = 1.028977 g / cm^3
# Si number density = 10.313243 Si / 1000 Ang^3
#
#
#
# Elastic Constant Matrix: (Units=GPa)
#
#
# Indices 1 2 3 4 5 6 
#
# 1 32.8684 6.2121 7.0009 0.0115 23.1932 -0.0085
# 2 6.2121 59.3009 16.7008 0.0110 22.9732 0.0030
# 3 7.0009 16.7008 75.6511 0.0304 25.2686 -0.0127
# 4 0.0115 0.0110 0.0304 23.9601 -0.0214 12.7437
# 5 23.1932 22.9732 25.2686 -0.0214 40.2126 -0.0011
# 6 -0.0085 0.0030 -0.0127 12.7437 -0.0011 29.5965
#
#
#
# Elastic Compliance Matrix: (Units=1/GPa)
#
#
# Indices 1 2 3 4 5 6 
#
# 1 0.057003 0.008350 0.006906 -0.000112 -0.041987 0.000065
# 2 0.008350 0.022919 0.000189 -0.000040 -0.018028 0.000017
# 3 0.006906 0.000189 0.017598 -0.000057 -0.015149 0.000034
# 4 -0.000112 -0.000040 -0.000057 0.054134 0.000151 -0.023309
# 5 -0.041987 -0.018028 -0.015149 0.000151 0.068903 -0.000079
# 6 0.000065 0.000017 0.000034 -0.023309 -0.000079 0.043824
#
#
# Mechanical properties :
#
#
# Convention : Reuss Voigt Hill
#
# Bulk Modulus (GPa) = 7.78756 25.29422 16.54089
# Shear Modulus (GPa) = 18.09658 27.94762 23.02210
#
# Velocity S-wave (km/s) = 2.96522 3.68494 3.34450
# Velocity P-wave (km/s) = 3.93790 5.51314 4.79071
#
# Compressibility (1/GPa) = 0.12840992
#
# Stress axis : x y z
#
# Youngs Moduli (GPa) = 17.54292 43.63120 56.82525
#
# Poissons Ratio (x) = -0.36430 -0.39243
# Poissons Ratio (y) = -0.14647 -0.01076
# Poissons Ratio (z) = -0.12115 -0.00826
#
# Static dielectric constant tensor:
#      x y z
#    x 1.730440 -0.000010 -0.017050 
#    y -0.000010 1.715850 0.000020 
#    z -0.017050 0.000020 1.774420 
# 
# From -- ./inp_files/322619.got.cif
#   From: 2010.05.17/outbox.ucp.g08.bks.cvg/sg12_162_cif.got.tgz:322619.got - 2010.06.11 11:47:21.
