data_PCOD9225495
_publ_section_title
;
Structure prediction by ZEFSAII (Michael W. Deem and Ramdas Pophale) SiO2 
 PCOD9225495
Probable space group: C 2/M
;
_chemical_formula_sum "Si O2"
_cell_formula_units_Z 20
_cell_length_a 18.000000
_cell_length_b 9.000000
_cell_length_c 27.000000
_cell_angle_alpha 90.000000
_cell_angle_beta 150.000000
_cell_angle_gamma 90.000000
_cell_volume 2187.000000
_symmetry_space_group_name_H-M "C 2/M"
_symmetry_group_IT_number 12
_symmetry_cell_setting 'monoclinic'
loop_
_space_group_symop_operation_xyz
x,y,z
-x,y,-z
-x,-y,-z
x,-y,z
1/2+x,1/2+y,z
1/2-x,1/2+y,-z
1/2-x,1/2-y,-z
1/2+x,1/2-y,z
loop_
_atom_site_type_symbol
_atom_site_label
_atom_site_fract_x
_atom_site_fract_y
_atom_site_fract_z
Si Si1 0.928615 0.677403 0.904655
Si Si2 0.587878 0.677703 0.903608
Si Si3 0.663973 0.824301 0.304784
Si Si4 0.180311 0.321946 0.509088
Si Si5 0.636595 0.327145 0.679629
O O1 0.950727 0.500000 0.907368
O O2 0.752843 0.704044 0.791787
O O3 0.010188 0.773829 0.910144
O O4 0.000000 0.706527 0.000000
O O5 0.595211 0.500000 0.903064
O O6 0.487884 0.746320 0.801469
O O7 0.750000 0.750000 0.000000
O O8 0.739952 0.747187 0.396107
O O9 0.771866 0.813576 0.318966
O O10 0.640326 0.000000 0.300836
O O11 0.197014 0.500000 0.518968
O O12 0.250000 0.250000 0.500000
O O13 0.006781 0.275949 0.407007
O O14 0.588951 0.500000 0.656730
#
# Coordination Sequence:
#
# PCOD9225495 Si02
#       5
#     8   8   8   8   8
#     4   9  19  37  60  85 115 151 190 234 285 336
#     4  11  22  37  58  85 118 153 192 234 279 334
#     4  10  21  40  63  85 112 147 189 235 286 342
#     4  12  25  39  57  83 116 151 190 236 286 338
#     4   9  19  37  60  84 113 149 188 233 285 340
#
# _framework density 9.1449470000000002
#
# number of rings (size 3 to 8) (size 9 to 14) (size 15 to 20)
#    0.000    1.800    0.000    6.000    0.000    8.400 
#    0.000    6.000    0.000    0.000    0.000    0.000 
#    0.000    0.000    0.000    0.000    0.000    0.000 
#
# Total GULP energy -111673.834948 kJ/mol
# GULP energy per Si atom -5583.691747 kJ/mol
# Density = 0.912413 g / cm^3
# Si number density = 9.144947 Si / 1000 Ang^3
#
#
#
# Elastic Constant Matrix: (Units=GPa)
#
#
# Indices 1 2 3 4 5 6 
#
# 1 50.1774 50.1093 61.0565 0.0000 -13.9992 0.0000
# 2 50.1093 168.5076 103.5764 0.0000 -3.0157 0.0000
# 3 61.0565 103.5764 195.8960 0.0001 -20.5912 0.0000
# 4 0.0000 0.0000 0.0001 39.8748 0.0000 -0.0279
# 5 -13.9992 -3.0157 -20.5912 0.0000 40.3360 0.0000
# 6 0.0000 0.0000 0.0000 -0.0279 0.0000 31.0578
#
#
#
# Elastic Compliance Matrix: (Units=1/GPa)
#
#
# Indices 1 2 3 4 5 6 
#
# 1 0.038040 -0.006579 -0.007441 0.000000 0.008912 0.000000
# 2 -0.006579 0.010057 -0.003622 0.000000 -0.003380 0.000000
# 3 -0.007441 -0.003622 0.009552 0.000000 0.002023 0.000000
# 4 0.000000 0.000000 0.000000 0.025079 0.000000 0.000023
# 5 0.008912 -0.003380 0.002023 0.000000 0.028665 0.000000
# 6 0.000000 0.000000 0.000000 0.000023 0.000000 0.032198
#
#
# Mechanical properties :
#
#
# Convention : Reuss Voigt Hill
#
# Bulk Modulus (GPa) = 44.71404 93.78504 69.24954
# Shear Modulus (GPa) = 26.83442 35.57631 31.20537
#
# Velocity S-wave (km/s) = 3.83452 4.41515 4.13504
# Velocity P-wave (km/s) = 6.64118 8.79657 7.79375
#
# Compressibility (1/GPa) = 0.02236434
#
# Stress axis : x y z
#
# Youngs Moduli (GPa) = 26.28835 99.43620 104.69268
#
# Poissons Ratio (x) = 0.65415 0.77903
# Poissons Ratio (y) = 0.17294 0.37922
# Poissons Ratio (z) = 0.19561 0.36018
#
# Static dielectric constant tensor:
#      x y z
#    x 1.629250 0.000000 0.020430 
#    y 0.000000 1.611150 0.000000 
#    z 0.020430 0.000000 1.629420 
# 
# From -- ./inp_files/280708.got.cif
#   From: 2010.05.17/outbox.ucp.g08.bks.cvg/sg12_141_cif.got.tgz:280708.got - 2010.06.11 11:47:21.
