data_PCOD9225877
_publ_section_title
;
Structure prediction by ZEFSAII (Michael W. Deem and Ramdas Pophale) SiO2 
 PCOD9225877
Probable space group: C 2/M
;
_chemical_formula_sum "Si O2"
_cell_formula_units_Z 32
_cell_length_a 30.000000
_cell_length_b 15.000000
_cell_length_c 21.000000
_cell_angle_alpha 90.000000
_cell_angle_beta 20.000000
_cell_angle_gamma 90.000000
_cell_volume 3232.090354
_symmetry_space_group_name_H-M "C 2/M"
_symmetry_group_IT_number 12
_symmetry_cell_setting 'monoclinic'
loop_
_space_group_symop_operation_xyz
x,y,z
-x,y,-z
-x,-y,-z
x,-y,z
1/2+x,1/2+y,z
1/2-x,1/2+y,-z
1/2-x,1/2-y,-z
1/2+x,1/2-y,z
loop_
_atom_site_type_symbol
_atom_site_label
_atom_site_fract_x
_atom_site_fract_y
_atom_site_fract_z
Si Si1 0.749480 0.101042 0.570289
Si Si2 0.328576 0.245319 0.556055
Si Si3 0.801646 0.600069 0.848371
Si Si4 0.450710 0.726731 0.633584
Si Si5 0.038111 0.860724 0.131256
Si Si6 0.871660 0.901276 0.129326
Si Si7 0.538389 0.835793 0.748459
Si Si8 0.213969 0.402270 0.980070
O O1 0.755721 0.170846 0.620487
O O2 0.642929 0.126289 0.658820
O O3 0.895937 0.105688 0.343916
O O4 0.724329 0.000000 0.625013
O O5 0.440641 0.273337 0.456283
O O6 0.229999 0.177162 0.721696
O O7 0.390013 0.193421 0.413020
O O8 0.828355 0.500000 0.789977
O O9 0.898273 0.673491 0.691668
O O10 0.651740 0.622119 0.030503
O O11 0.821877 0.603377 0.897251
O O12 0.500000 0.690457 0.500000
O O13 0.322312 0.672178 0.824649
O O14 0.019954 0.755486 0.145277
O O15 0.084560 0.900821 0.002623
O O16 0.817646 0.000000 0.217828
O O17 0.000000 0.887526 0.000000
O O18 0.413418 0.891682 0.893119
O O19 0.271956 0.500000 0.891056
#
# Coordination Sequence:
#
# PCOD9225877 Si02
#       8
#     8   8   8   8   8   8   8   8
#     4  11  23  40  65  98 127 161 214 266 315 371
#     4  11  24  40  64  95 131 170 208 256 319 376
#     4  11  22  39  65  94 125 164 208 259 316 376
#     4  12  25  42  63  91 129 171 209 262 312 378
#     4  11  21  38  65  92 126 164 206 257 318 376
#     4  11  23  39  61  94 132 166 204 252 314 385
#     4  11  21  40  66  91 126 162 210 265 315 376
#     4  11  23  41  66  91 120 166 216 261 312 369
#
# _framework density 9.9007129999999997
#
# number of rings (size 3 to 8) (size 9 to 14) (size 15 to 20)
#    0.000    0.875    2.500    7.125    0.000    4.500 
#    0.000    0.000    0.000    1.125    0.000    0.000 
#    0.000    0.000    0.000    0.000    0.000    0.000 
#
# Total GULP energy -178774.223623 kJ/mol
# GULP energy per Si atom -5586.694488 kJ/mol
# Density = 0.987818 g / cm^3
# Si number density = 9.900713 Si / 1000 Ang^3
#
#
#
# Elastic Constant Matrix: (Units=GPa)
#
#
# Indices 1 2 3 4 5 6 
#
# 1 108.5939 28.7651 40.8866 0.0000 -39.8729 0.0000
# 2 28.7651 119.3031 36.3659 -0.0001 -9.0391 0.0000
# 3 40.8866 36.3659 51.3956 -0.0001 -15.1299 0.0001
# 4 0.0000 -0.0001 -0.0001 -9.7699 0.0000 -6.8722
# 5 -39.8729 -9.0391 -15.1299 0.0000 41.4841 0.0000
# 6 0.0000 0.0000 0.0001 -6.8722 0.0000 54.3183
#
#
#
# Elastic Compliance Matrix: (Units=1/GPa)
#
#
# Indices 1 2 3 4 5 6 
#
# 1 0.018139 -0.000211 -0.010264 0.000000 0.013645 0.000000
# 2 -0.000211 0.010698 -0.007590 0.000000 -0.000640 0.000000
# 3 -0.010264 -0.007590 0.033162 0.000000 0.000576 0.000000
# 4 0.000000 0.000000 0.000000 -0.093991 0.000000 -0.011891
# 5 0.013645 -0.000640 0.000576 0.000000 0.037291 0.000000
# 6 0.000000 0.000000 0.000000 -0.011891 0.000000 0.016906
#
#
# Mechanical properties :
#
#
# Convention : Reuss Voigt Hill
#
# Bulk Modulus (GPa) = 38.65618 54.59198 46.62408
# Shear Modulus (GPa) = 74.67279 28.75818 51.71548
#
# Velocity S-wave (km/s) = 6.14757 3.81508 5.11603
# Velocity P-wave (km/s) = 8.36388 6.85828 7.64822
#
# Compressibility (1/GPa) = 0.02586909
#
# Stress axis : x y z
#
# Youngs Moduli (GPa) = 55.12918 93.47528 30.15484
#
# Poissons Ratio (x) = 0.01972 0.30951
# Poissons Ratio (y) = 0.01163 0.22888
# Poissons Ratio (z) = 0.56585 0.70949
#
# Static dielectric constant tensor:
#      x y z
#    x 1.672390 0.000000 0.008020 
#    y 0.000000 1.740970 0.000000 
#    z 0.008020 0.000000 1.684480 
# 
# From -- ./inp_files/156645.got.cif
#   From: 2010.05.17/outbox.ucp.g08.bks.cvg/sg12_79_cif.got.tgz:156645.got - 2010.06.11 11:47:21.
