data_PCOD9225837
_publ_section_title
;
Structure prediction by ZEFSAII (Michael W. Deem and Ramdas Pophale) SiO2 
 PCOD9225837
Probable space group: C 2/M
;
_chemical_formula_sum "Si O2"
_cell_formula_units_Z 28
_cell_length_a 15.000000
_cell_length_b 18.000000
_cell_length_c 18.000000
_cell_angle_alpha 90.000000
_cell_angle_beta 140.000000
_cell_angle_gamma 90.000000
_cell_volume 3123.947783
_symmetry_space_group_name_H-M "C 2/M"
_symmetry_group_IT_number 12
_symmetry_cell_setting 'monoclinic'
loop_
_space_group_symop_operation_xyz
x,y,z
-x,y,-z
-x,-y,-z
x,-y,z
1/2+x,1/2+y,z
1/2-x,1/2+y,-z
1/2-x,1/2-y,-z
1/2+x,1/2-y,z
loop_
_atom_site_type_symbol
_atom_site_label
_atom_site_fract_x
_atom_site_fract_y
_atom_site_fract_z
Si Si1 0.224765 0.677227 0.274156
Si Si2 0.065903 0.087373 0.682002
Si Si3 0.088160 0.088066 0.129137
Si Si4 0.083356 0.680270 0.858355
Si Si5 0.871464 0.225723 0.519395
Si Si6 0.629857 0.642261 0.888396
Si Si7 0.346412 0.809738 0.269071
O O1 0.312713 0.607243 0.300011
O O2 0.301411 0.714027 0.394415
O O3 0.249253 0.736678 0.222439
O O4 0.067087 0.662223 0.200964
O O5 0.115535 0.108528 0.797009
O O6 0.941739 0.146420 0.586261
O O7 0.029375 0.000000 0.654545
O O8 0.239351 0.127471 0.230560
O O9 0.985028 0.104692 0.131886
O O10 0.109579 0.000000 0.136270
O O11 0.000000 0.113861 0.000000
O O12 0.095111 0.769898 0.869943
O O13 0.112118 0.667957 0.788743
O O14 0.211072 0.639831 0.981485
O O15 0.750000 0.250000 0.500000
O O16 0.001935 0.283860 0.601931
#
# Coordination Sequence:
#
# PCOD9225837 Si02
#       7
#     8   8   8   8   8   8   8
#     4  11  22  40  64  92 124 159 208 264 310 375
#     4  11  24  42  62  91 129 171 204 251 326 386
#     4  11  23  38  58  86 124 169 206 252 317 376
#     4  11  21  36  64  95 118 160 209 259 311 359
#     4  11  22  41  67  93 121 159 216 271 311 363
#     4  11  21  38  61  92 127 157 210 261 300 383
#     4  11  20  38  61  88 120 159 205 259 311 369
#
# _framework density 8.9630179999999999
#
# number of rings (size 3 to 8) (size 9 to 14) (size 15 to 20)
#    0.000    1.000    7.143    2.143    0.000    1.714 
#    0.000    3.571    0.000    1.714    0.000    0.000 
#    0.000    0.000    0.000    0.000    0.000    0.000 
#
# Total GULP energy -156078.012520 kJ/mol
# GULP energy per Si atom -5574.214733 kJ/mol
# Density = 0.894262 g / cm^3
# Si number density = 8.963018 Si / 1000 Ang^3
#
#
#
# Elastic Constant Matrix: (Units=GPa)
#
#
# Indices 1 2 3 4 5 6 
#
# 1 169.2947 28.0814 51.3740 0.0000 25.5667 0.0000
# 2 28.0814 86.6908 24.4536 0.0000 16.3884 0.0000
# 3 51.3740 24.4536 79.7726 -0.0002 22.6374 -0.0001
# 4 0.0000 0.0000 -0.0002 20.5811 -0.0001 2.7194
# 5 25.5667 16.3884 22.6374 -0.0001 42.8958 0.0000
# 6 0.0000 0.0000 -0.0001 2.7194 0.0000 23.2666
#
#
#
# Elastic Compliance Matrix: (Units=1/GPa)
#
#
# Indices 1 2 3 4 5 6 
#
# 1 0.007591 -0.000938 -0.004021 0.000000 -0.002044 0.000000
# 2 -0.000938 0.013146 -0.002539 0.000000 -0.003123 0.000000
# 3 -0.004021 -0.002539 0.017581 0.000000 -0.005911 0.000000
# 4 0.000000 0.000000 0.000000 0.049350 0.000000 -0.005768
# 5 -0.002044 -0.003123 -0.005911 0.000000 0.028843 0.000000
# 6 0.000000 0.000000 0.000000 -0.005768 0.000000 0.043654
#
#
# Mechanical properties :
#
#
# Convention : Reuss Voigt Hill
#
# Bulk Modulus (GPa) = 42.88001 60.39734 51.63867
# Shear Modulus (GPa) = 27.33171 32.80531 30.06851
#
# Velocity S-wave (km/s) = 3.90897 4.28253 4.10001
# Velocity P-wave (km/s) = 6.65927 7.63015 7.16118
#
# Compressibility (1/GPa) = 0.02332089
#
# Stress axis : x y z
#
# Youngs Moduli (GPa) = 131.72648 76.06960 56.87905
#
# Poissons Ratio (x) = 0.07138 0.22873
# Poissons Ratio (y) = 0.12361 0.14443
# Poissons Ratio (z) = 0.52971 0.19315
#
# Static dielectric constant tensor:
#      x y z
#    x 1.622660 0.000000 -0.022330 
#    y 0.000000 1.619030 0.000000 
#    z -0.022330 0.000000 1.650470 
# 
# From -- ./inp_files/271465.got.cif
#   From: 2010.05.17/outbox.ucp.g08.bks.cvg/sg12_136_cif.got.tgz:271465.got - 2010.06.11 11:47:21.
