data_PCOD9225444
_publ_section_title
;
Structure prediction by ZEFSAII (Michael W. Deem and Ramdas Pophale) SiO2 
 PCOD9225444
Probable space group: C 2/M
;
_chemical_formula_sum "Si O2"
_cell_formula_units_Z 24
_cell_length_a 24.000000
_cell_length_b 9.000000
_cell_length_c 12.000000
_cell_angle_alpha 90.000000
_cell_angle_beta 110.000000
_cell_angle_gamma 90.000000
_cell_volume 2435.683273
_symmetry_space_group_name_H-M "C 2/M"
_symmetry_group_IT_number 12
_symmetry_cell_setting 'monoclinic'
loop_
_space_group_symop_operation_xyz
x,y,z
-x,y,-z
-x,-y,-z
x,-y,z
1/2+x,1/2+y,z
1/2-x,1/2+y,-z
1/2-x,1/2-y,-z
1/2+x,1/2-y,z
loop_
_atom_site_type_symbol
_atom_site_label
_atom_site_fract_x
_atom_site_fract_y
_atom_site_fract_z
Si Si1 0.258255 0.170905 0.887929
Si Si2 0.936910 0.174902 0.129663
Si Si3 0.429996 0.327029 0.711596
Si Si4 0.935382 0.667173 0.501291
Si Si5 0.651288 0.833805 0.765168
Si Si6 0.891527 0.669790 0.894664
O O1 0.211377 0.250888 0.777018
O O2 0.324789 0.182825 0.892217
O O3 0.241968 0.000000 0.887649
O O4 0.250000 0.250000 0.000000
O O5 0.885219 0.252797 0.163468
O O6 0.000655 0.212255 0.224182
O O7 0.928830 0.000000 0.130074
O O8 0.932244 0.229351 0.000450
O O9 0.422353 0.500000 0.730986
O O10 0.414480 0.284981 0.576309
O O11 0.394320 0.227306 0.772233
O O12 0.939941 0.500000 0.553781
O O13 0.891235 0.661524 0.368838
O O14 0.000000 0.707618 0.500000
O O15 0.664925 0.000000 0.813593
O O16 0.910964 0.500000 0.917408
#
# Coordination Sequence:
#
# PCOD9225444 Si02
#       6
#     8   8   8   8   8   8
#     4  11  23  39  61  88 119 156 198 247 295 351
#     4  11  22  36  58  89 124 156 191 243 300 354
#     4  11  24  39  59  89 123 158 197 244 300 354
#     4  10  21  39  62  87 119 157 198 244 292 352
#     4  11  22  37  61  91 119 154 199 243 294 350
#     4  11  24  40  60  86 119 160 201 241 296 358
#
# _framework density 9.8534980000000001
#
# number of rings (size 3 to 8) (size 9 to 14) (size 15 to 20)
#    0.000    1.167    3.333    3.000    0.000    7.667 
#    0.000    0.833    0.000    0.000    0.000    0.000 
#    0.000    0.000    0.000    0.000    0.000    0.000 
#
# Total GULP energy -134014.412977 kJ/mol
# GULP energy per Si atom -5583.933874 kJ/mol
# Density = 0.983107 g / cm^3
# Si number density = 9.853498 Si / 1000 Ang^3
#
#
#
# Elastic Constant Matrix: (Units=GPa)
#
#
# Indices 1 2 3 4 5 6 
#
# 1 19.3897 56.9069 20.3981 0.0000 -3.9196 0.0000
# 2 56.9069 47.0884 18.3822 0.0000 -7.6915 0.0000
# 3 20.3981 18.3822 49.9459 0.0000 5.1271 0.0000
# 4 0.0000 0.0000 0.0000 28.2660 0.0000 1.8040
# 5 -3.9196 -7.6915 5.1271 0.0000 9.8708 0.0000
# 6 0.0000 0.0000 0.0000 1.8040 0.0000 22.9773
#
#
#
# Elastic Compliance Matrix: (Units=1/GPa)
#
#
# Indices 1 2 3 4 5 6 
#
# 1 -0.018488 0.026203 -0.003629 0.000000 0.014962 0.000000
# 2 0.026203 -0.004357 -0.010371 0.000000 0.012397 0.000000
# 3 -0.003629 -0.010371 0.027779 0.000000 -0.023951 0.000000
# 4 0.000000 0.000000 0.000000 0.035556 0.000000 -0.002792
# 5 0.014962 0.012397 -0.023951 0.000000 0.129350 0.000000
# 6 0.000000 0.000000 0.000000 -0.002792 0.000000 0.043740
#
#
# Mechanical properties :
#
#
# Convention : Reuss Voigt Hill
#
# Bulk Modulus (GPa) = 34.08144 34.19983 34.14064
# Shear Modulus (GPa) = 25.13130 13.60529 19.36829
#
# Velocity S-wave (km/s) = 3.57493 2.63036 3.13839
# Velocity P-wave (km/s) = 5.86275 5.15915 5.52217
#
# Compressibility (1/GPa) = 0.02934148
#
# Stress axis : x y z
#
# Youngs Moduli (GPa) = -54.09022 -229.51493 35.99795
#
# Poissons Ratio (x) = 6.01404 0.13065
# Poissons Ratio (y) = 1.41734 0.37332
# Poissons Ratio (z) = -0.19631 -2.38019
#
# Static dielectric constant tensor:
#      x y z
#    x 1.717280 0.000000 0.003940 
#    y 0.000000 1.708330 0.000000 
#    z 0.003940 0.000000 1.710740 
# 
# From -- ./inp_files/172076.got.cif
#   From: 2010.05.17/outbox.ucp.g08.bks.cvg/sg12_87_cif.got.tgz:172076.got - 2010.06.11 11:47:21.
