data_PCOD9225885
_publ_section_title
;
Structure prediction by ZEFSAII (Michael W. Deem and Ramdas Pophale) SiO2 
 PCOD9225885
Probable space group: C 2/M
;
_chemical_formula_sum "Si O2"
_cell_formula_units_Z 32
_cell_length_a 12.000000
_cell_length_b 30.000000
_cell_length_c 18.000000
_cell_angle_alpha 90.000000
_cell_angle_beta 30.000000
_cell_angle_gamma 90.000000
_cell_volume 3240.000000
_symmetry_space_group_name_H-M "C 2/M"
_symmetry_group_IT_number 12
_symmetry_cell_setting 'monoclinic'
loop_
_space_group_symop_operation_xyz
x,y,z
-x,y,-z
-x,-y,-z
x,-y,z
1/2+x,1/2+y,z
1/2-x,1/2+y,-z
1/2-x,1/2-y,-z
1/2+x,1/2-y,z
loop_
_atom_site_type_symbol
_atom_site_label
_atom_site_fract_x
_atom_site_fract_y
_atom_site_fract_z
Si Si1 0.372959 0.870934 0.360952
Si Si2 0.652929 0.898532 0.337044
Si Si3 0.050905 0.888769 0.304028
Si Si4 0.977127 0.616745 0.894848
Si Si5 0.446696 0.448062 0.830120
Si Si6 0.329251 0.309314 0.874045
Si Si7 0.014482 0.268539 0.666052
Si Si8 0.099971 0.809815 0.858222
O O1 0.499355 0.899503 0.352199
O O2 0.452845 0.881992 0.232017
O O3 0.433955 0.818581 0.335445
O O4 0.115121 0.878370 0.532254
O O5 0.500000 0.892042 0.500000
O O6 0.809604 0.856698 0.225183
O O7 0.832675 0.937158 0.248854
O O8 0.301692 0.895777 0.187745
O O9 0.989759 0.931345 0.289442
O O10 0.045269 0.846939 0.249444
O O11 0.766978 0.582994 0.024990
O O12 0.900695 0.664672 0.973854
O O13 0.390976 0.500000 0.865468
O O14 0.389956 0.264777 0.794265
O O15 0.412651 0.298249 0.908183
O O16 0.250000 0.250000 0.500000
O O17 0.811705 0.277273 0.726067
O O18 0.000000 0.811772 0.000000
#
# Coordination Sequence:
#
# PCOD9225885 Si02
#       8
#     8   8   8   8   8   8   8   8
#     4  11  23  43  66  99 136 182 223 274 341 397
#     4  11  21  41  71  95 130 170 220 272 332 410
#     4  11  22  44  69  96 134 182 221 274 332 411
#     4  11  25  42  70  98 136 179 222 274 343 408
#     4  11  24  44  73 104 128 168 225 279 337 413
#     4  11  21  43  62  92 130 174 231 269 333 376
#     4  11  25  39  62  96 130 173 235 281 324 382
#     4  11  24  39  66  92 131 179 218 276 335 392
#
# _framework density 9.8765429999999999
#
# number of rings (size 3 to 8) (size 9 to 14) (size 15 to 20)
#    0.000    1.000    5.000    3.375    1.750    5.250 
#    2.250    1.875    0.000    1.500    0.000    0.000 
#    0.000    0.000    0.000    0.000    0.000    0.000 
#
# Total GULP energy -178357.482109 kJ/mol
# GULP energy per Si atom -5573.671316 kJ/mol
# Density = 0.985406 g / cm^3
# Si number density = 9.876543 Si / 1000 Ang^3
#
#
#
# Elastic Constant Matrix: (Units=GPa)
#
#
# Indices 1 2 3 4 5 6 
#
# 1 91.3201 35.7901 27.1245 0.0002 6.8569 0.0001
# 2 35.7901 79.0257 38.4041 -0.0001 -2.3582 -0.0001
# 3 27.1245 38.4041 123.4770 0.0005 11.4242 -0.0001
# 4 0.0002 -0.0001 0.0005 20.3886 -0.0002 -1.0155
# 5 6.8569 -2.3582 11.4242 -0.0002 42.8642 0.0000
# 6 0.0001 -0.0001 -0.0001 -1.0155 0.0000 19.9609
#
#
#
# Elastic Compliance Matrix: (Units=1/GPa)
#
#
# Indices 1 2 3 4 5 6 
#
# 1 0.013680 -0.005775 -0.001002 0.000000 -0.002239 0.000000
# 2 -0.005775 0.017534 -0.004470 0.000000 0.003080 0.000000
# 3 -0.001002 -0.004470 0.009962 0.000000 -0.002741 0.000000
# 4 0.000000 0.000000 0.000000 0.049172 0.000000 0.002502
# 5 -0.002239 0.003080 -0.002741 0.000000 0.024588 0.000000
# 6 0.000000 0.000000 0.000000 0.002502 0.000000 0.050225
#
#
# Mechanical properties :
#
#
# Convention : Reuss Voigt Hill
#
# Bulk Modulus (GPa) = 53.52604 55.16224 54.34414
# Shear Modulus (GPa) = 25.78901 29.47636 27.63269
#
# Velocity S-wave (km/s) = 3.61719 3.86714 3.74425
# Velocity P-wave (km/s) = 6.67845 6.92288 6.80176
#
# Compressibility (1/GPa) = 0.01868250
#
# Stress axis : x y z
#
# Youngs Moduli (GPa) = 73.10138 57.03277 100.37713
#
# Poissons Ratio (x) = 0.32939 0.10054
# Poissons Ratio (y) = 0.42220 0.44865
# Poissons Ratio (z) = 0.07322 0.25491
#
# Static dielectric constant tensor:
#      x y z
#    x 1.765000 0.000000 -0.043040 
#    y 0.000000 1.706260 0.000000 
#    z -0.043040 0.000000 1.700900 
# 
# From -- ./inp_files/266273.got.cif
#   From: 2010.05.17/outbox.ucp.g08.bks.cvg/sg12_134_cif.got.tgz:266273.got - 2010.06.11 11:47:21.
