data_PCOD9225706
_publ_section_title
;
Structure prediction by ZEFSAII (Michael W. Deem and Ramdas Pophale) SiO2 
 PCOD9225706
Probable space group: C 2/M
;
_chemical_formula_sum "Si O2"
_cell_formula_units_Z 28
_cell_length_a 30.000000
_cell_length_b 9.000000
_cell_length_c 12.000000
_cell_angle_alpha 90.000000
_cell_angle_beta 60.000000
_cell_angle_gamma 90.000000
_cell_volume 2805.922308
_symmetry_space_group_name_H-M "C 2/M"
_symmetry_group_IT_number 12
_symmetry_cell_setting 'monoclinic'
loop_
_space_group_symop_operation_xyz
x,y,z
-x,y,-z
-x,-y,-z
x,-y,z
1/2+x,1/2+y,z
1/2-x,1/2+y,-z
1/2-x,1/2-y,-z
1/2+x,1/2-y,z
loop_
_atom_site_type_symbol
_atom_site_label
_atom_site_fract_x
_atom_site_fract_y
_atom_site_fract_z
Si Si1 0.196254 0.825398 0.593308
Si Si2 0.552912 0.327958 0.001222
Si Si3 0.096391 0.177215 0.573736
Si Si4 0.102406 0.323346 0.333188
Si Si5 0.694949 0.824168 0.048942
Si Si6 0.344697 0.173930 0.149708
Si Si7 0.514722 0.823596 0.266276
O O1 0.250000 0.750000 0.500000
O O2 0.145825 0.776589 0.585645
O O3 0.186270 0.781674 0.732281
O O4 0.200695 0.000000 0.570023
O O5 0.569909 0.500000 0.973038
O O6 0.596247 0.217501 0.903479
O O7 0.500000 0.314810 0.000000
O O8 0.542510 0.275709 0.139188
O O9 0.107586 0.218164 0.432313
O O10 0.043860 0.267426 0.661251
O O11 0.087768 0.000000 0.601449
O O12 0.105202 0.500000 0.359845
O O13 0.149766 0.287588 0.192262
O O14 0.047798 0.303557 0.337937
O O15 0.703166 0.000000 0.046791
O O16 0.750000 0.750000 0.000000
O O17 0.671742 0.794941 0.956000
O O18 0.335754 0.000000 0.184633
O O19 0.517366 0.000000 0.236494
#
# Coordination Sequence:
#
# PCOD9225706 Si02
#       7
#     8   8   8   8   8   8   8
#     4  11  26  46  66  92 126 165 211 262 313 369
#     4  11  23  38  60  92 129 166 207 257 308 366
#     4  11  25  42  62  93 129 164 208 262 313 369
#     4  10  22  42  64  92 128 166 208 255 308 373
#     4  10  23  42  64  94 128 162 207 259 311 370
#     4  11  23  43  67  94 127 163 208 258 310 372
#     4  11  22  40  64  92 126 166 209 255 310 374
#
# _framework density 9.9788940000000004
#
# number of rings (size 3 to 8) (size 9 to 14) (size 15 to 20)
#    0.000    1.286    1.429    3.429    2.000   11.429 
#    0.000    0.000    0.000    0.000    0.000    0.000 
#    0.000    0.000    0.000    0.000    0.000    0.000 
#
# Total GULP energy -156395.951016 kJ/mol
# GULP energy per Si atom -5585.569679 kJ/mol
# Density = 0.995618 g / cm^3
# Si number density = 9.978894 Si / 1000 Ang^3
#
#
#
# Elastic Constant Matrix: (Units=GPa)
#
#
# Indices 1 2 3 4 5 6 
#
# 1 59.6550 29.9076 5.3346 0.0000 -26.8668 0.0000
# 2 29.9076 24.5688 -6.9169 0.0000 0.6021 0.0000
# 3 5.3346 -6.9169 41.7509 0.0000 -13.8086 0.0000
# 4 0.0000 0.0000 0.0000 29.8887 0.0000 -2.0926
# 5 -26.8668 0.6021 -13.8086 0.0000 28.6525 0.0000
# 6 0.0000 0.0000 0.0000 -2.0926 0.0000 42.4284
#
#
#
# Elastic Compliance Matrix: (Units=1/GPa)
#
#
# Indices 1 2 3 4 5 6 
#
# 1 -0.297436 0.370563 0.005446 0.000000 -0.284062 0.000000
# 2 0.370563 -0.418759 0.001318 0.000000 0.356904 0.000000
# 3 0.005446 0.001318 0.029923 0.000000 0.019500 0.000000
# 4 0.000000 0.000000 0.000000 0.033573 0.000000 0.001656
# 5 -0.284062 0.356904 0.019500 0.000000 -0.229561 0.000000
# 6 0.000000 0.000000 0.000000 0.001656 0.000000 0.023651
#
#
# Mechanical properties :
#
#
# Convention : Reuss Voigt Hill
#
# Bulk Modulus (GPa) = 14.62407 20.29167 17.45787
# Shear Modulus (GPa) = -3.14373 26.70388 11.78007
#
# Velocity S-wave (km/s) = -1.25643 3.66186 2.43214
# Velocity P-wave (km/s) = 2.28880 5.29796 4.08087
#
# Compressibility (1/GPa) = 0.06838042
#
# Stress axis : x y z
#
# Youngs Moduli (GPa) = -3.36207 -2.38801 33.41871
#
# Poissons Ratio (x) = 0.88491 -0.18198
# Poissons Ratio (y) = 1.24586 -0.04404
# Poissons Ratio (z) = 0.01831 0.00315
#
# Static dielectric constant tensor:
#      x y z
#    x 1.691100 0.000000 -0.038360 
#    y 0.000000 1.665050 0.000000 
#    z -0.038360 0.000000 1.780670 
# 
# From -- ./inp_files/187184.got.cif
#   From: 2010.05.17/outbox.ucp.g08.bks.cvg/sg12_94_cif.got.tgz:187184.got - 2010.06.11 11:47:21.
