data_PCOD9225906
_publ_section_title
;
Structure prediction by ZEFSAII (Michael W. Deem and Ramdas Pophale) SiO2 
 PCOD9225906
Probable space group: C 2/M
;
_chemical_formula_sum "Si O2"
_cell_formula_units_Z 32
_cell_length_a 15.000000
_cell_length_b 9.000000
_cell_length_c 30.000000
_cell_angle_alpha 90.000000
_cell_angle_beta 130.000000
_cell_angle_gamma 90.000000
_cell_volume 3102.479995
_symmetry_space_group_name_H-M "C 2/M"
_symmetry_group_IT_number 12
_symmetry_cell_setting 'monoclinic'
loop_
_space_group_symop_operation_xyz
x,y,z
-x,y,-z
-x,-y,-z
x,-y,z
1/2+x,1/2+y,z
1/2-x,1/2+y,-z
1/2-x,1/2-y,-z
1/2+x,1/2-y,z
loop_
_atom_site_type_symbol
_atom_site_label
_atom_site_fract_x
_atom_site_fract_y
_atom_site_fract_z
Si Si1 0.563368 0.321216 0.565608
Si Si2 0.018128 0.675974 0.893420
Si Si3 0.742273 0.833967 0.720883
Si Si4 0.854284 0.822504 0.142486
Si Si5 0.182543 0.178001 0.346471
Si Si6 0.117920 0.679940 0.014562
Si Si7 0.499386 0.322592 0.360166
Si Si8 0.710062 0.331962 0.161392
O O1 0.500000 0.282483 0.500000
O O2 0.579399 0.500000 0.572926
O O3 0.689468 0.245613 0.605867
O O4 0.484721 0.276939 0.583034
O O5 0.022585 0.500000 0.887117
O O6 0.044556 0.761682 0.856458
O O7 0.896761 0.718383 0.878117
O O8 0.111929 0.722935 0.960923
O O9 0.834826 0.793818 0.712128
O O10 0.633992 0.723915 0.689146
O O11 0.788251 0.843083 0.785001
O O12 0.697703 0.000000 0.694525
O O13 0.735171 0.780240 0.077620
O O14 0.828759 0.738293 0.180408
O O15 0.862868 0.000000 0.150999
O O16 0.087540 0.237619 0.351009
O O17 0.185659 0.000000 0.353468
O O18 0.112673 0.500000 0.013778
O O19 0.000000 0.736902 0.000000
O O20 0.507340 0.500000 0.360584
O O21 0.691731 0.500000 0.137756
#
# Coordination Sequence:
#
# PCOD9225906 Si02
#       8
#     8   8   8   8   8   8   8   8
#     4   9  18  32  49  75 112 146 176 216 262 309
#     4  11  22  38  59  83 112 143 178 221 270 326
#     4   9  20  37  55  75 103 135 172 223 271 314
#     4  11  22  38  59  82 110 143 179 221 270 324
#     4   9  18  34  54  76 102 136 178 221 263 310
#     4   9  17  34  58  81 107 141 178 217 264 322
#     4   9  18  33  54  78 104 139 182 219 261 319
#     4  11  23  39  56  80 111 142 180 225 277 332
#
# _framework density 10.314329000000001
#
# number of rings (size 3 to 8) (size 9 to 14) (size 15 to 20)
#    0.000    2.250    1.250    1.500    0.000    3.250 
#    0.000    3.750    0.000    0.000    0.000    0.000 
#    0.000    0.000    0.000    0.000    0.000    0.000 
#
# Total GULP energy -178223.856402 kJ/mol
# GULP energy per Si atom -5569.495513 kJ/mol
# Density = 1.029085 g / cm^3
# Si number density = 10.314329 Si / 1000 Ang^3
#
#
#
# Elastic Constant Matrix: (Units=GPa)
#
#
# Indices 1 2 3 4 5 6 
#
# 1 169.8612 32.0285 18.4610 0.0000 -27.9060 0.0000
# 2 32.0285 29.6823 10.2046 0.0000 -12.3447 0.0000
# 3 18.4610 10.2046 44.7702 0.0000 -22.2356 0.0000
# 4 0.0000 0.0000 0.0000 14.2677 0.0000 3.6018
# 5 -27.9060 -12.3447 -22.2356 0.0000 20.5738 0.0000
# 6 0.0000 0.0000 0.0000 3.6018 0.0000 27.5705
#
#
#
# Elastic Compliance Matrix: (Units=1/GPa)
#
#
# Indices 1 2 3 4 5 6 
#
# 1 0.008545 -0.005297 0.004019 0.000000 0.012755 0.000000
# 2 -0.005297 0.049154 0.004448 0.000000 0.027116 0.000000
# 3 0.004019 0.004448 0.051159 0.000000 0.063411 0.000000
# 4 0.000000 0.000000 0.000000 0.072479 0.000000 -0.009469
# 5 0.012755 0.027116 0.063411 0.000000 0.150709 0.000000
# 6 0.000000 0.000000 0.000000 -0.009469 0.000000 0.037508
#
#
# Mechanical properties :
#
#
# Convention : Reuss Voigt Hill
#
# Bulk Modulus (GPa) = 8.68079 40.63355 24.65717
# Shear Modulus (GPa) = 12.44979 24.72371 18.58675
#
# Velocity S-wave (km/s) = 2.45933 3.46571 3.00495
# Velocity P-wave (km/s) = 3.50452 5.97957 4.90086
#
# Compressibility (1/GPa) = 0.11519695
#
# Stress axis : x y z
#
# Youngs Moduli (GPa) = 117.03243 20.34421 19.54682
#
# Poissons Ratio (x) = 0.10776 -0.07856
# Poissons Ratio (y) = 0.61992 -0.08694
# Poissons Ratio (z) = -0.47034 -0.09048
#
# Static dielectric constant tensor:
#      x y z
#    x 1.751390 0.000000 -0.049370 
#    y 0.000000 1.722960 0.000000 
#    z -0.049370 0.000000 1.831760 
# 
# From -- ./inp_files/375113.got.cif
#   From: 2010.05.17/outbox.ucp.g08.bks.cvg/sg12_188_cif.got.tgz:375113.got - 2010.06.11 11:47:21.
