data_PCOD9225965
_publ_section_title
;
Structure prediction by ZEFSAII (Michael W. Deem and Ramdas Pophale) SiO2 
 PCOD9225965
Probable space group: C 2/M
;
_chemical_formula_sum "Si O2"
_cell_formula_units_Z 20
_cell_length_a 18.000000
_cell_length_b 9.000000
_cell_length_c 24.000000
_cell_angle_alpha 90.000000
_cell_angle_beta 150.000000
_cell_angle_gamma 90.000000
_cell_volume 1944.000000
_symmetry_space_group_name_H-M "C 2/M"
_symmetry_group_IT_number 12
_symmetry_cell_setting 'monoclinic'
loop_
_space_group_symop_operation_xyz
x,y,z
-x,y,-z
-x,-y,-z
x,-y,z
1/2+x,1/2+y,z
1/2-x,1/2+y,-z
1/2-x,1/2-y,-z
1/2+x,1/2-y,z
loop_
_atom_site_type_symbol
_atom_site_label
_atom_site_fract_x
_atom_site_fract_y
_atom_site_fract_z
Si Si1 0.102836 0.666463 0.620405
Si Si2 0.413540 0.672189 0.002384
Si Si3 0.591110 0.174886 0.212179
Si Si4 0.396255 0.668942 0.181054
Si Si5 0.399631 0.332575 0.578338
O O1 0.147754 0.500000 0.668705
O O2 0.246906 0.757293 0.694734
O O3 0.000000 0.652551 0.500000
O O4 0.999838 0.745914 0.598940
O O5 0.418536 0.500000 0.025269
O O6 0.499336 0.785206 0.097690
O O7 0.500000 0.676157 0.000000
O O8 0.244749 0.730286 0.894371
O O9 0.498805 0.256575 0.200675
O O10 0.600305 0.000000 0.228891
O O11 0.350743 0.500000 0.134948
O O12 0.498689 0.657093 0.301409
O O13 0.364642 0.500000 0.535456
O O14 0.250000 0.250000 0.500000
#
# Coordination Sequence:
#
# PCOD9225965 Si02
#       5
#     8   8   8   8   8
#     4  11  24  42  64  91 125 163 204 253 306 361
#     4  11  24  42  65  92 123 161 204 251 305 364
#     4  12  25  41  64  92 124 162 204 252 305 363
#     4  11  24  42  63  90 125 162 204 253 305 361
#     4  11  24  41  64  93 125 163 205 253 306 361
#
# _framework density 10.288066000000001
#
# number of rings (size 3 to 8) (size 9 to 14) (size 15 to 20)
#    0.000    0.800    0.000    7.200    0.000   14.400 
#    0.000    0.000    0.000    0.000    0.000    0.000 
#    0.000    0.000    0.000    0.000    0.000    0.000 
#
# Total GULP energy -111799.928393 kJ/mol
# GULP energy per Si atom -5589.996420 kJ/mol
# Density = 1.026465 g / cm^3
# Si number density = 10.288066 Si / 1000 Ang^3
#
#
#
# Elastic Constant Matrix: (Units=GPa)
#
#
# Indices 1 2 3 4 5 6 
#
# 1 162.2415 69.8365 28.8415 0.0000 31.4926 0.0000
# 2 69.8365 159.3916 15.5928 0.0000 24.3913 0.0000
# 3 28.8415 15.5928 78.9025 0.0001 26.9504 0.0000
# 4 0.0000 0.0000 0.0001 25.8868 0.0000 2.6499
# 5 31.4926 24.3913 26.9504 0.0000 46.3637 0.0000
# 6 0.0000 0.0000 0.0000 2.6499 0.0000 35.3029
#
#
#
# Elastic Compliance Matrix: (Units=1/GPa)
#
#
# Indices 1 2 3 4 5 6 
#
# 1 0.008340 -0.003019 -0.001322 0.000000 -0.003309 0.000000
# 2 -0.003019 0.007917 0.000326 0.000000 -0.002304 0.000000
# 3 -0.001322 0.000326 0.016027 0.000000 -0.008589 0.000000
# 4 0.000000 0.000000 0.000000 0.038929 0.000000 -0.002922
# 5 -0.003309 -0.002304 -0.008589 0.000000 0.030021 0.000000
# 6 0.000000 0.000000 0.000000 -0.002922 0.000000 0.028546
#
#
# Mechanical properties :
#
#
# Convention : Reuss Voigt Hill
#
# Bulk Modulus (GPa) = 41.22965 69.89748 55.56356
# Shear Modulus (GPa) = 34.27152 40.59500 37.43326
#
# Velocity S-wave (km/s) = 4.08560 4.44657 4.26990
# Velocity P-wave (km/s) = 6.50671 7.77217 7.16742
#
# Compressibility (1/GPa) = 0.02425439
#
# Stress axis : x y z
#
# Youngs Moduli (GPa) = 119.90060 126.30797 62.39651
#
# Poissons Ratio (x) = 0.38127 0.08249
# Poissons Ratio (y) = 0.36193 -0.02033
# Poissons Ratio (z) = 0.15851 -0.04115
#
# Static dielectric constant tensor:
#      x y z
#    x 1.573730 0.000000 -0.074770 
#    y 0.000000 1.794310 0.000000 
#    z -0.074770 0.000000 1.734820 
# 
# From -- ./inp_files/151938.got.cif
#   From: 2010.05.17/outbox.ucp.g08.bks.cvg/sg12_76_cif.got.tgz:151938.got - 2010.06.11 11:47:21.
