data_PCOD9225409
_publ_section_title
;
Structure prediction by ZEFSAII (Michael W. Deem and Ramdas Pophale) SiO2 
 PCOD9225409
Probable space group: C 2/M
;
_chemical_formula_sum "Si O2"
_cell_formula_units_Z 24
_cell_length_a 27.000000
_cell_length_b 15.000000
_cell_length_c 9.000000
_cell_angle_alpha 90.000000
_cell_angle_beta 140.000000
_cell_angle_gamma 90.000000
_cell_volume 2342.960837
_symmetry_space_group_name_H-M "C 2/M"
_symmetry_group_IT_number 12
_symmetry_cell_setting 'monoclinic'
loop_
_space_group_symop_operation_xyz
x,y,z
-x,y,-z
-x,-y,-z
x,-y,z
1/2+x,1/2+y,z
1/2-x,1/2+y,-z
1/2-x,1/2-y,-z
1/2+x,1/2-y,z
loop_
_atom_site_type_symbol
_atom_site_label
_atom_site_fract_x
_atom_site_fract_y
_atom_site_fract_z
Si Si1 0.324205 0.103711 0.007980
Si Si2 0.587345 0.600600 0.141238
Si Si3 0.855666 0.901861 0.399152
Si Si4 0.931808 0.277854 0.457261
Si Si5 0.571014 0.898459 0.274298
Si Si6 0.164232 0.719085 0.262953
O O1 0.234227 0.103667 0.842957
O O2 0.335320 0.153539 0.876666
O O3 0.350070 0.000000 0.059938
O O4 0.368061 0.162606 0.228788
O O5 0.594118 0.500000 0.088504
O O6 0.637719 0.600479 0.407018
O O7 0.613890 0.690464 0.118746
O O8 0.500000 0.610228 0.000000
O O9 0.899894 0.816917 0.438257
O O10 0.885751 0.000000 0.421209
O O11 0.956863 0.340610 0.650714
O O12 0.000000 0.262536 0.500000
O O13 0.632944 0.837677 0.330729
O O14 0.596785 0.000000 0.370481
O O15 0.500000 0.905976 0.000000
O O16 0.250000 0.750000 0.500000
#
# Coordination Sequence:
#
# PCOD9225409 Si02
#       6
#     8   8   8   8   8   8
#     4  11  24  42  65  92 132 170 205 258 321 381
#     4  10  21  38  63  90 123 163 208 258 312 371
#     4  10  22  43  65  89 125 169 209 257 320 374
#     4  12  25  41  65  95 126 168 213 263 318 378
#     4  11  24  42  64  91 126 167 214 263 312 374
#     4  12  22  38  65  97 124 160 211 260 314 375
#
# _framework density 10.243449
#
# number of rings (size 3 to 8) (size 9 to 14) (size 15 to 20)
#    0.000    1.000    3.333    3.000    2.333    3.667 
#    0.000    0.833    0.000    0.000    0.000    0.000 
#    0.000    0.000    0.000    0.000    0.000    0.000 
#
# Total GULP energy -134120.221721 kJ/mol
# GULP energy per Si atom -5588.342572 kJ/mol
# Density = 1.022013 g / cm^3
# Si number density = 10.243449 Si / 1000 Ang^3
#
#
#
# Elastic Constant Matrix: (Units=GPa)
#
#
# Indices 1 2 3 4 5 6 
#
# 1 71.2052 58.5209 -4.4792 0.0000 -5.4924 0.0000
# 2 58.5209 214.5091 10.9939 0.0000 -3.1347 0.0000
# 3 -4.4792 10.9939 44.1548 0.0000 -1.6010 0.0000
# 4 0.0000 0.0000 0.0000 26.1725 0.0000 2.3585
# 5 -5.4924 -3.1347 -1.6010 0.0000 29.9472 0.0000
# 6 0.0000 0.0000 0.0000 2.3585 0.0000 26.5558
#
#
#
# Elastic Compliance Matrix: (Units=1/GPa)
#
#
# Indices 1 2 3 4 5 6 
#
# 1 0.018812 -0.005258 0.003329 0.000000 0.003078 0.000000
# 2 -0.005258 0.006197 -0.002092 0.000000 -0.000427 0.000000
# 3 0.003329 -0.002092 0.023566 0.000000 0.001651 0.000000
# 4 0.000000 0.000000 0.000000 0.038516 0.000000 -0.003421
# 5 0.003078 -0.000427 0.001651 0.000000 0.034000 0.000000
# 6 0.000000 0.000000 0.000000 -0.003421 0.000000 0.037960
#
#
# Mechanical properties :
#
#
# Convention : Reuss Voigt Hill
#
# Bulk Modulus (GPa) = 24.67073 51.10448 37.88761
# Shear Modulus (GPa) = 27.68483 34.19068 30.93775
#
# Velocity S-wave (km/s) = 3.68005 4.08965 3.89025
# Velocity P-wave (km/s) = 5.48866 6.87746 6.22193
#
# Compressibility (1/GPa) = 0.04053386
#
# Stress axis : x y z
#
# Youngs Moduli (GPa) = 53.15784 161.36421 42.43402
#
# Poissons Ratio (x) = 0.84842 -0.14126
# Poissons Ratio (y) = 0.27949 0.08877
# Poissons Ratio (z) = -0.17696 0.33755
#
# Static dielectric constant tensor:
#      x y z
#    x 1.728390 0.000000 0.005310 
#    y 0.000000 1.743700 0.000000 
#    z 0.005310 0.000000 1.813450 
# 
# From -- ./inp_files/105052.got.cif
#   From: 2010.05.17/outbox.ucp.g08.bks.cvg/sg12_53_cif.got.tgz:105052.got - 2010.06.11 11:47:21.
