data_PCOD9225715
_publ_section_title
;
Structure prediction by ZEFSAII (Michael W. Deem and Ramdas Pophale) SiO2 
 PCOD9225715
Probable space group: C 2/M
;
_chemical_formula_sum "Si O2"
_cell_formula_units_Z 28
_cell_length_a 21.000000
_cell_length_b 18.000000
_cell_length_c 21.000000
_cell_angle_alpha 90.000000
_cell_angle_beta 20.000000
_cell_angle_gamma 90.000000
_cell_volume 2714.955898
_symmetry_space_group_name_H-M "C 2/M"
_symmetry_group_IT_number 12
_symmetry_cell_setting 'monoclinic'
loop_
_space_group_symop_operation_xyz
x,y,z
-x,y,-z
-x,-y,-z
x,-y,z
1/2+x,1/2+y,z
1/2-x,1/2+y,-z
1/2-x,1/2-y,-z
1/2+x,1/2-y,z
loop_
_atom_site_type_symbol
_atom_site_label
_atom_site_fract_x
_atom_site_fract_y
_atom_site_fract_z
Si Si1 0.480360 0.412810 0.094822
Si Si2 0.214484 0.418302 0.083212
Si Si3 0.827311 0.778427 0.316864
Si Si4 0.040835 0.635724 0.886169
Si Si5 0.177956 0.873606 0.151380
Si Si6 0.015334 0.267607 0.273045
Si Si7 0.563925 0.416702 0.506015
O O1 0.422074 0.500000 0.153277
O O2 0.351856 0.354795 0.254419
O O3 0.500000 0.395591 0.000000
O O4 0.668395 0.407443 0.961683
O O5 0.129051 0.500000 0.165761
O O6 0.070391 0.351999 0.209802
O O7 0.336336 0.412981 0.903568
O O8 0.620100 0.768045 0.538675
O O9 0.897561 0.714108 0.203331
O O10 0.933505 0.769229 0.285422
O O11 0.215722 0.584230 0.706855
O O12 0.860950 0.605709 0.018400
O O13 0.000000 0.641674 0.000000
O O14 0.186319 0.785299 0.130258
O O15 0.007914 0.885881 0.359513
O O16 0.500000 0.377447 0.500000
O O17 0.485847 0.500000 0.577805
#
# Coordination Sequence:
#
# PCOD9225715 Si02
#       7
#     8   8   8   8   8   8   8
#     4  10  22  42  66  94 129 169 221 280 341 401
#     4  11  23  41  66  96 128 173 219 271 341 400
#     4  11  22  41  65  96 130 173 218 275 334 394
#     4  12  24  40  65  96 130 173 224 265 323 393
#     4  12  22  43  67  92 134 176 217 277 326 389
#     4  11  23  40  66  96 134 166 220 281 326 396
#     4  11  25  44  63  95 138 174 219 272 325 390
#
# _framework density 10.313243
#
# number of rings (size 3 to 8) (size 9 to 14) (size 15 to 20)
#    0.000    0.857    5.714    2.143    0.000    2.000 
#    0.000    2.143    0.000    2.571    0.000    0.000 
#    0.000    0.000    0.000    0.000    0.000    0.000 
#
# Total GULP energy -156125.284554 kJ/mol
# GULP energy per Si atom -5575.903020 kJ/mol
# Density = 1.028977 g / cm^3
# Si number density = 10.313243 Si / 1000 Ang^3
#
#
#
# Elastic Constant Matrix: (Units=GPa)
#
#
# Indices 1 2 3 4 5 6 
#
# 1 132.0896 27.6671 37.2400 -0.0185 27.1267 0.0054
# 2 27.6671 98.1238 22.3623 -0.0368 9.7911 -0.0132
# 3 37.2400 22.3623 93.7382 -0.0755 20.3869 0.0177
# 4 -0.0185 -0.0368 -0.0755 20.7660 0.0246 4.1388
# 5 27.1267 9.7911 20.3869 0.0246 41.1155 0.0003
# 6 0.0054 -0.0132 0.0177 4.1388 0.0003 26.8547
#
#
#
# Elastic Compliance Matrix: (Units=1/GPa)
#
#
# Indices 1 2 3 4 5 6 
#
# 1 0.009563 -0.001684 -0.002368 0.000003 -0.004734 -0.000002
# 2 -0.001684 0.011151 -0.001855 0.000011 -0.000624 0.000005
# 3 -0.002368 -0.001855 0.013020 0.000051 -0.004452 -0.000017
# 4 0.000003 0.000011 0.000051 0.049682 -0.000059 -0.007657
# 5 -0.004734 -0.000624 -0.004452 -0.000059 0.029801 0.000012
# 6 -0.000002 0.000005 -0.000017 -0.007657 0.000012 0.038418
#
#
# Mechanical properties :
#
#
# Convention : Reuss Voigt Hill
#
# Bulk Modulus (GPa) = 45.62243 55.38781 50.50512
# Shear Modulus (GPa) = 29.28148 33.52604 31.40376
#
# Velocity S-wave (km/s) = 3.77185 4.03598 3.90615
# Velocity P-wave (km/s) = 6.41370 6.97352 6.69946
#
# Compressibility (1/GPa) = 0.02191904
#
# Stress axis : x y z
#
# Youngs Moduli (GPa) = 104.56698 89.67589 76.80785
#
# Poissons Ratio (x) = 0.15105 0.18186
# Poissons Ratio (y) = 0.17614 0.14250
# Poissons Ratio (z) = 0.24759 0.16638
#
# Static dielectric constant tensor:
#      x y z
#    x 1.751010 -0.000040 -0.025980 
#    y -0.000040 1.759830 0.000050 
#    z -0.025980 0.000050 1.758080 
# 
# From -- ./inp_files/322670.got.cif
#   From: 2010.05.17/outbox.ucp.g08.bks.cvg/sg12_162_cif.got.tgz:322670.got - 2010.06.11 11:47:21.
