data_PCOD9225117
_publ_section_title
;
Structure prediction by ZEFSAII (Michael W. Deem and Ramdas Pophale) SiO2 
 PCOD9225117
Probable space group: C 2/M
;
_chemical_formula_sum "Si O2"
_cell_formula_units_Z 28
_cell_length_a 15.000000
_cell_length_b 27.000000
_cell_length_c 9.000000
_cell_angle_alpha 90.000000
_cell_angle_beta 60.000000
_cell_angle_gamma 90.000000
_cell_volume 3156.662597
_symmetry_space_group_name_H-M "C 2/M"
_symmetry_group_IT_number 12
_symmetry_cell_setting 'monoclinic'
loop_
_space_group_symop_operation_xyz
x,y,z
-x,y,-z
-x,-y,-z
x,-y,z
1/2+x,1/2+y,z
1/2-x,1/2+y,-z
1/2-x,1/2-y,-z
1/2+x,1/2-y,z
loop_
_atom_site_type_symbol
_atom_site_label
_atom_site_fract_x
_atom_site_fract_y
_atom_site_fract_z
Si Si1 0.603972 0.352586 0.337627
Si Si2 0.582439 0.761652 0.302078
Si Si3 0.315112 0.708957 0.189379
Si Si4 0.872142 0.059170 0.257657
Si Si5 0.252821 0.858226 0.482079
Si Si6 0.400662 0.610735 0.956897
Si Si7 0.939646 0.308100 0.183148
O O1 0.500000 0.372556 0.500000
O O2 0.579226 0.297820 0.299014
O O3 0.690155 0.347807 0.386589
O O4 0.642353 0.385613 0.171477
O O5 0.500000 0.775439 0.500000
O O6 0.701389 0.778535 0.218187
O O7 0.530766 0.784519 0.202444
O O8 0.287717 0.681418 0.365259
O O9 0.373692 0.760445 0.177022
O O10 0.379577 0.665945 0.046288
O O11 0.786714 0.088077 0.426295
O O12 0.980914 0.091060 0.170251
O O13 0.884045 0.000000 0.275480
O O14 0.846420 0.070708 0.107066
O O15 0.369108 0.844165 0.341649
O O16 0.000000 0.334667 0.000000
#
# Coordination Sequence:
#
# PCOD9225117 Si02
#       7
#     8   8   8   8   8   8   8
#     4  11  20  33  52  85 121 161 190 237 292 347
#     4  11  22  35  55  79 124 173 212 231 269 347
#     4  11  22  38  55  85 124 171 207 234 284 354
#     4  10  22  42  64  85 112 153 203 257 310 361
#     4  11  22  39  57  82 121 159 200 250 296 349
#     4  10  21  33  59  87 117 151 192 241 298 361
#     4  12  25  35  54  87 126 163 206 242 290 353
#
# _framework density 8.8701279999999993
#
# number of rings (size 3 to 8) (size 9 to 14) (size 15 to 20)
#    0.000    1.143    4.286    3.857   10.000    1.143 
#    0.000    2.143    0.000    0.429    0.000    9.000 
#    0.000    0.000    0.000    0.000    0.000    0.000 
#
# Total GULP energy -155912.943351 kJ/mol
# GULP energy per Si atom -5568.319405 kJ/mol
# Density = 0.884994 g / cm^3
# Si number density = 8.870128 Si / 1000 Ang^3
#
#
#
# Elastic Constant Matrix: (Units=GPa)
#
#
# Indices 1 2 3 4 5 6 
#
# 1 74.8543 -1.0307 21.4070 0.0000 1.3971 0.0000
# 2 -1.0307 35.0588 59.7113 0.0000 -42.6158 0.0000
# 3 21.4070 59.7113 92.2334 0.0000 24.6006 0.0000
# 4 0.0000 0.0000 0.0000 15.1791 0.0000 -7.3549
# 5 1.3971 -42.6158 24.6006 0.0000 1.0024 0.0000
# 6 0.0000 0.0000 0.0000 -7.3549 0.0000 8.9752
#
#
#
# Elastic Compliance Matrix: (Units=1/GPa)
#
#
# Indices 1 2 3 4 5 6 
#
# 1 0.013945 -0.000695 -0.001852 0.000000 -0.003504 0.000000
# 2 -0.000695 0.001666 0.003619 0.000000 -0.017007 0.000000
# 3 -0.001852 0.003619 0.005913 0.000000 0.011307 0.000000
# 4 0.000000 0.000000 0.000000 0.109266 0.000000 0.089540
# 5 -0.003504 -0.017007 0.011307 0.000000 0.001936 0.000000
# 6 0.000000 0.000000 0.000000 0.089540 0.000000 0.184794
#
#
# Mechanical properties :
#
#
# Convention : Reuss Voigt Hill
#
# Bulk Modulus (GPa) = 42.25079 40.25797 41.25438
# Shear Modulus (GPa) = 15.46715 13.16862 14.31788
#
# Velocity S-wave (km/s) = 2.95594 2.72748 2.84401
# Velocity P-wave (km/s) = 5.95971 5.71499 5.83863
#
# Compressibility (1/GPa) = 0.02366820
#
# Stress axis : x y z
#
# Youngs Moduli (GPa) = 71.71107 600.17485 169.11038
#
# Poissons Ratio (x) = 0.41684 0.31325
# Poissons Ratio (y) = 0.04981 -0.61197
# Poissons Ratio (z) = 0.13283 -2.17190
#
# Static dielectric constant tensor:
#      x y z
#    x 1.657430 0.000000 0.020870 
#    y 0.000000 1.583280 0.000000 
#    z 0.020870 0.000000 1.867710 
# 
# From -- ./inp_files/66867.got.cif
#   From: 2010.05.17/outbox.ucp.g08.bks.cvg/sg12_34_cif.got.tgz:66867.got - 2010.06.11 11:47:21.
