data_PCOD9225824
_publ_section_title
;
Structure prediction by ZEFSAII (Michael W. Deem and Ramdas Pophale) SiO2 
 PCOD9225824
Probable space group: C 2/M
;
_chemical_formula_sum "Si O2"
_cell_formula_units_Z 20
_cell_length_a 24.000000
_cell_length_b 9.000000
_cell_length_c 21.000000
_cell_angle_alpha 90.000000
_cell_angle_beta 150.000000
_cell_angle_gamma 90.000000
_cell_volume 2268.000000
_symmetry_space_group_name_H-M "C 2/M"
_symmetry_group_IT_number 12
_symmetry_cell_setting 'monoclinic'
loop_
_space_group_symop_operation_xyz
x,y,z
-x,y,-z
-x,-y,-z
x,-y,z
1/2+x,1/2+y,z
1/2-x,1/2+y,-z
1/2-x,1/2-y,-z
1/2+x,1/2-y,z
loop_
_atom_site_type_symbol
_atom_site_label
_atom_site_fract_x
_atom_site_fract_y
_atom_site_fract_z
Si Si1 0.081906 0.330014 0.178571
Si Si2 0.588868 0.322651 0.506276
Si Si3 0.375400 0.825542 0.319995
Si Si4 0.836226 0.330387 0.884541
Si Si5 0.240877 0.175980 0.422504
O O1 0.111562 0.500000 0.226385
O O2 0.136414 0.303008 0.162979
O O3 0.124955 0.216381 0.273272
O O4 0.951192 0.323629 0.036035
O O5 0.595420 0.500000 0.519164
O O6 0.616217 0.242940 0.600458
O O7 0.464784 0.266581 0.368476
O O8 0.670882 0.258253 0.535340
O O9 0.251197 0.787210 0.176754
O O10 0.399258 0.000000 0.343842
O O11 0.792398 0.500000 0.845130
O O12 0.250000 0.250000 0.500000
O O13 0.258917 0.000000 0.442571
#
# Coordination Sequence:
#
# PCOD9225824 Si02
#       5
#     8   8   8   8   8
#     4   9  18  33  53  78 108 142 180 218 263 318
#     4  11  21  35  53  75 106 143 181 220 268 320
#     4  11  20  31  51  81 112 140 174 221 270 320
#     4   9  17  31  53  79 110 144 174 214 269 322
#     4  12  24  38  56  79 108 143 182 224 265 316
#
# _framework density 8.8183419999999995
#
# number of rings (size 3 to 8) (size 9 to 14) (size 15 to 20)
#    0.000    1.600    2.000    7.800    0.000    0.800 
#    0.000    2.000    0.000    1.200    0.000    0.000 
#    0.000    0.000    0.000    0.000    0.000    0.000 
#
# Total GULP energy -111548.837437 kJ/mol
# GULP energy per Si atom -5577.441872 kJ/mol
# Density = 0.879827 g / cm^3
# Si number density = 8.818342 Si / 1000 Ang^3
#
#
#
# Elastic Constant Matrix: (Units=GPa)
#
#
# Indices 1 2 3 4 5 6 
#
# 1 43.5246 27.1679 27.8002 0.0000 -6.3945 0.0000
# 2 27.1679 127.4913 39.6896 0.0000 -4.0865 0.0000
# 3 27.8002 39.6896 61.7514 0.0000 6.8172 0.0000
# 4 0.0000 0.0000 0.0000 28.0950 0.0000 -0.9825
# 5 -6.3945 -4.0865 6.8172 0.0000 23.5710 0.0000
# 6 0.0000 0.0000 0.0000 -0.9825 0.0000 18.4666
#
#
#
# Elastic Compliance Matrix: (Units=1/GPa)
#
#
# Indices 1 2 3 4 5 6 
#
# 1 0.037390 -0.002189 -0.017048 0.000000 0.014694 0.000000
# 2 -0.002189 0.010246 -0.005919 0.000000 0.002894 0.000000
# 3 -0.017048 -0.005919 0.029230 0.000000 -0.014105 0.000000
# 4 0.000000 0.000000 0.000000 0.035660 0.000000 0.001897
# 5 0.014694 0.002894 -0.014105 0.000000 0.050993 0.000000
# 6 0.000000 0.000000 0.000000 0.001897 0.000000 0.054253
#
#
# Mechanical properties :
#
#
# Convention : Reuss Voigt Hill
#
# Bulk Modulus (GPa) = 37.66006 46.89806 42.27906
# Shear Modulus (GPa) = 18.05480 23.23382 20.64431
#
# Velocity S-wave (km/s) = 3.20301 3.63348 3.42502
# Velocity P-wave (km/s) = 5.92273 6.65220 6.29804
#
# Compressibility (1/GPa) = 0.02655333
#
# Stress axis : x y z
#
# Youngs Moduli (GPa) = 26.74527 97.60208 34.21107
#
# Poissons Ratio (x) = 0.21370 0.58322
# Poissons Ratio (y) = 0.05856 0.20250
# Poissons Ratio (z) = 0.45595 0.57771
#
# Static dielectric constant tensor:
#      x y z
#    x 1.647070 0.000000 0.061210 
#    y 0.000000 1.596370 0.000000 
#    z 0.061210 0.000000 1.699010 
# 
# From -- ./inp_files/179661.got.cif
#   From: 2010.05.17/outbox.ucp.g08.bks.cvg/sg12_90_cif.got.tgz:179661.got - 2010.06.11 11:47:21.
