data_PCOD9225337
_publ_section_title
;
Structure prediction by ZEFSAII (Michael W. Deem and Ramdas Pophale) SiO2 
 PCOD9225337
Probable space group: C 2/M
;
_chemical_formula_sum "Si O2"
_cell_formula_units_Z 32
_cell_length_a 9.000000
_cell_length_b 18.000000
_cell_length_c 30.000000
_cell_angle_alpha 90.000000
_cell_angle_beta 140.000000
_cell_angle_gamma 90.000000
_cell_volume 3123.947783
_symmetry_space_group_name_H-M "C 2/M"
_symmetry_group_IT_number 12
_symmetry_cell_setting 'monoclinic'
loop_
_space_group_symop_operation_xyz
x,y,z
-x,y,-z
-x,-y,-z
x,-y,z
1/2+x,1/2+y,z
1/2-x,1/2+y,-z
1/2-x,1/2-y,-z
1/2+x,1/2-y,z
loop_
_atom_site_type_symbol
_atom_site_label
_atom_site_fract_x
_atom_site_fract_y
_atom_site_fract_z
Si Si1 0.832372 0.089087 0.543952
Si Si2 0.482716 0.792962 0.068703
Si Si3 0.736257 0.807391 0.697169
Si Si4 0.188963 0.659065 0.338204
Si Si5 0.474819 0.692512 0.147772
Si Si6 0.341305 0.089050 0.397257
Si Si7 0.762642 0.588417 0.071750
Si Si8 0.674200 0.911829 0.812582
O O1 0.610331 0.113831 0.464069
O O2 0.777765 0.108667 0.583078
O O3 0.085696 0.118220 0.591436
O O4 0.833725 0.000000 0.541743
O O5 0.565039 0.751815 0.132728
O O6 0.699357 0.798518 0.085841
O O7 0.415133 0.874702 0.068981
O O8 0.250000 0.750000 0.000000
O O9 0.729023 0.734006 0.666291
O O10 0.494974 0.823090 0.665962
O O11 0.780331 0.873750 0.672663
O O12 0.922435 0.798544 0.779297
O O13 0.041850 0.615221 0.266610
O O14 0.588893 0.617149 0.155353
O O15 0.337465 0.000000 0.392354
O O16 0.778195 0.500000 0.074532
O O17 0.828482 0.614924 0.136631
O O18 0.500000 0.610273 0.000000
O O19 0.672858 0.000000 0.813100
#
# Coordination Sequence:
#
# PCOD9225337 Si02
#       8
#     8   8   8   8   8   8   8   8
#     4   9  19  38  62  85 115 155 200 250 301 361
#     4  12  23  39  63  90 119 158 201 243 294 351
#     4  11  23  37  57  84 118 156 193 246 300 355
#     4  11  22  37  58  85 118 156 199 245 301 361
#     4  11  23  38  59  86 120 154 196 246 293 353
#     4   9  20  39  61  87 118 155 200 249 303 361
#     4  10  21  38  59  83 115 153 195 242 291 350
#     4  10  22  40  61  87 120 156 195 246 306 361
#
# _framework density 10.243449
#
# number of rings (size 3 to 8) (size 9 to 14) (size 15 to 20)
#    0.000    1.625    0.000    6.750    0.000    5.000 
#    0.000    2.500    0.000    3.750    0.000    0.000 
#    0.000    0.000    0.000    0.000    0.000    0.000 
#
# Total GULP energy -178697.240543 kJ/mol
# GULP energy per Si atom -5584.288767 kJ/mol
# Density = 1.022013 g / cm^3
# Si number density = 10.243449 Si / 1000 Ang^3
#
#
#
# Elastic Constant Matrix: (Units=GPa)
#
#
# Indices 1 2 3 4 5 6 
#
# 1 58.7694 13.0775 5.4070 0.0000 18.6457 -0.0001
# 2 13.0775 42.1252 6.4733 0.0000 2.8157 0.0000
# 3 5.4070 6.4733 51.5667 -0.0001 3.8284 0.0000
# 4 0.0000 0.0000 -0.0001 16.0517 0.0000 4.7841
# 5 18.6457 2.8157 3.8284 0.0000 38.1926 0.0000
# 6 -0.0001 0.0000 0.0000 4.7841 0.0000 24.6743
#
#
#
# Elastic Compliance Matrix: (Units=1/GPa)
#
#
# Indices 1 2 3 4 5 6 
#
# 1 0.021582 -0.005911 -0.000777 0.000000 -0.010023 0.000000
# 2 -0.005911 0.025909 -0.002725 0.000000 0.001249 0.000000
# 3 -0.000777 -0.002725 0.019921 0.000000 -0.001417 0.000000
# 4 0.000000 0.000000 0.000000 0.066120 0.000000 -0.012820
# 5 -0.010023 0.001249 -0.001417 0.000000 0.031126 0.000000
# 6 0.000000 0.000000 0.000000 -0.012820 0.000000 0.043014
#
#
# Mechanical properties :
#
#
# Convention : Reuss Voigt Hill
#
# Bulk Modulus (GPa) = 20.58185 22.48631 21.53408
# Shear Modulus (GPa) = 20.60210 24.28396 22.44303
#
# Velocity S-wave (km/s) = 3.17460 3.44661 3.31340
# Velocity P-wave (km/s) = 4.84825 5.18060 5.01718
#
# Compressibility (1/GPa) = 0.04858650
#
# Stress axis : x y z
#
# Youngs Moduli (GPa) = 46.33409 38.59653 50.19800
#
# Poissons Ratio (x) = 0.22814 0.03900
# Poissons Ratio (y) = 0.27387 0.13681
# Poissons Ratio (z) = 0.03600 0.10519
#
# Static dielectric constant tensor:
#      x y z
#    x 1.741830 0.000000 -0.005650 
#    y 0.000000 1.733210 0.000000 
#    z -0.005650 0.000000 1.734720 
# 
# From -- ./inp_files/372993.got.cif
#   From: 2010.05.17/outbox.ucp.g08.bks.cvg/sg12_187_cif.got.tgz:372993.got - 2010.06.11 11:47:21.
