data_PCOD9225972
_publ_section_title
;
Structure prediction by ZEFSAII (Michael W. Deem and Ramdas Pophale) SiO2 
 PCOD9225972
Probable space group: C 2/M
;
_chemical_formula_sum "Si O2"
_cell_formula_units_Z 26
_cell_length_a 24.000000
_cell_length_b 12.000000
_cell_length_c 12.000000
_cell_angle_alpha 90.000000
_cell_angle_beta 130.000000
_cell_angle_gamma 90.000000
_cell_volume 2647.449595
_symmetry_space_group_name_H-M "C 2/M"
_symmetry_group_IT_number 12
_symmetry_cell_setting 'monoclinic'
loop_
_space_group_symop_operation_xyz
x,y,z
-x,y,-z
-x,-y,-z
x,-y,z
1/2+x,1/2+y,z
1/2-x,1/2+y,-z
1/2-x,1/2-y,-z
1/2+x,1/2-y,z
loop_
_atom_site_type_symbol
_atom_site_label
_atom_site_fract_x
_atom_site_fract_y
_atom_site_fract_z
Si Si1 0.104716 0.500000 0.347996
Si Si2 0.378559 0.000000 0.887095
Si Si3 0.671088 0.788016 0.550827
Si Si4 0.079719 0.286125 0.658307
Si Si5 0.415386 0.632955 0.129883
Si Si6 0.055949 0.500000 0.780102
Si Si7 0.583912 0.366634 0.279543
Si Si8 0.837423 0.753117 0.823579
O O1 0.085760 0.500000 0.191743
O O2 0.148912 0.391134 0.442812
O O3 0.031178 0.500000 0.324998
O O4 0.338545 0.119220 0.834875
O O5 0.419593 0.000000 0.059155
O O6 0.634529 0.798587 0.625602
O O7 0.636257 0.680797 0.444046
O O8 0.757186 0.785284 0.679135
O O9 0.095013 0.182191 0.759670
O O10 0.080658 0.392228 0.742337
O O11 0.000000 0.276628 0.500000
O O12 0.404813 0.500000 0.112935
O O13 0.499734 0.656514 0.203483
O O14 0.362698 0.692652 0.972945
O O15 0.592128 0.500000 0.275184
O O16 0.606349 0.301009 0.196401
#
# Coordination Sequence:
#
# PCOD9225972 Si02
#       8
#     4   4   8   8   8   4   8   8
#     4  12  24  42  72 107 134 179 224 281 349 399
#     4  12  27  43  74 102 137 174 224 284 347 401
#     4  12  27  42  69 102 139 183 227 278 340 405
#     4  12  23  45  70  99 137 180 232 280 335 402
#     4  11  25  46  71 101 132 179 231 279 338 403
#     4  12  23  46  71 106 136 172 228 292 333 403
#     4  11  24  44  73  98 135 178 225 282 339 404
#     4  12  27  46  66 102 140 176 224 282 347 408
#
# _framework density 9.8207719999999998
#
# number of rings (size 3 to 8) (size 9 to 14) (size 15 to 20)
#    0.000    0.308    6.154    2.308    3.231    4.000 
#    0.000    0.000    0.000    0.000    0.000    0.000 
#    0.000    0.000    0.000    0.000    0.000    0.000 
#
# Total GULP energy -145408.615013 kJ/mol
# GULP energy per Si atom -5592.639039 kJ/mol
# Density = 0.979842 g / cm^3
# Si number density = 9.820772 Si / 1000 Ang^3
#
#
#
# Elastic Constant Matrix: (Units=GPa)
#
#
# Indices 1 2 3 4 5 6 
#
# 1 30.9856 16.3610 21.1931 0.0000 -18.3739 0.0000
# 2 16.3610 115.0405 38.0684 0.0000 -7.5956 0.0000
# 3 21.1931 38.0684 113.3502 0.0000 -20.2441 0.0000
# 4 0.0000 0.0000 0.0000 37.8665 0.0000 -14.8096
# 5 -18.3739 -7.5956 -20.2441 0.0000 39.1887 0.0000
# 6 0.0000 0.0000 0.0000 -14.8096 0.0000 12.0479
#
#
#
# Elastic Compliance Matrix: (Units=1/GPa)
#
#
# Indices 1 2 3 4 5 6 
#
# 1 0.049352 -0.004304 -0.004184 0.000000 0.020144 0.000000
# 2 -0.004304 0.010157 -0.002881 0.000000 -0.001538 0.000000
# 3 -0.004184 -0.002881 0.011151 0.000000 0.003240 0.000000
# 4 0.000000 0.000000 0.000000 0.050859 0.000000 0.062517
# 5 0.020144 -0.001538 0.003240 0.000000 0.036338 0.000000
# 6 0.000000 0.000000 0.000000 0.062517 0.000000 0.159850
#
#
# Mechanical properties :
#
#
# Convention : Reuss Voigt Hill
#
# Bulk Modulus (GPa) = 20.86773 45.62457 33.24615
# Shear Modulus (GPa) = 14.02844 30.07085 22.04965
#
# Velocity S-wave (km/s) = 2.67539 3.91702 3.35416
# Velocity P-wave (km/s) = 4.49344 6.61335 5.65365
#
# Compressibility (1/GPa) = 0.04792089
#
# Stress axis : x y z
#
# Youngs Moduli (GPa) = 20.26240 98.45869 89.67989
#
# Poissons Ratio (x) = 0.42379 0.37525
# Poissons Ratio (y) = 0.08721 0.25836
# Poissons Ratio (z) = 0.08478 0.28365
#
# Static dielectric constant tensor:
#      x y z
#    x 1.679290 0.000000 -0.001150 
#    y 0.000000 1.695520 0.000000 
#    z -0.001150 0.000000 1.661640 
# 
# From -- ./inp_files/175358.got.cif
#   From: 2010.05.17/outbox.ucp.g08.bks.cvg/sg12_88_cif.got.tgz:175358.got - 2010.06.11 11:47:21.
