data_PCOD9225953
_publ_section_title
;
Structure prediction by ZEFSAII (Michael W. Deem and Ramdas Pophale) SiO2 
 PCOD9225953
Probable space group: C 2/M
;
_chemical_formula_sum "Si O2"
_cell_formula_units_Z 28
_cell_length_a 9.000000
_cell_length_b 24.000000
_cell_length_c 15.000000
_cell_angle_alpha 90.000000
_cell_angle_beta 60.000000
_cell_angle_gamma 90.000000
_cell_volume 2805.922308
_symmetry_space_group_name_H-M "C 2/M"
_symmetry_group_IT_number 12
_symmetry_cell_setting 'monoclinic'
loop_
_space_group_symop_operation_xyz
x,y,z
-x,y,-z
-x,-y,-z
x,-y,z
1/2+x,1/2+y,z
1/2-x,1/2+y,-z
1/2-x,1/2-y,-z
1/2+x,1/2-y,z
loop_
_atom_site_type_symbol
_atom_site_label
_atom_site_fract_x
_atom_site_fract_y
_atom_site_fract_z
Si Si1 0.189248 0.226847 0.423532
Si Si2 0.728649 0.156611 0.311306
Si Si3 0.357126 0.564302 0.409132
Si Si4 0.011993 0.787189 0.890127
Si Si5 0.243546 0.937679 0.237470
Si Si6 0.366229 0.111760 0.362898
Si Si7 0.831509 0.325319 0.108127
O O1 0.250000 0.250000 0.500000
O O2 0.191978 0.281712 0.361746
O O3 0.289681 0.172625 0.361419
O O4 0.000000 0.205954 0.500000
O O5 0.815782 0.114094 0.353346
O O6 0.854596 0.169040 0.191590
O O7 0.550419 0.127062 0.345113
O O8 0.305824 0.500000 0.401401
O O9 0.563489 0.563941 0.345506
O O10 0.256310 0.582451 0.527975
O O11 0.090891 0.724801 0.853742
O O12 0.827294 0.797323 0.898879
O O13 0.000000 0.794018 0.000000
O O14 0.382783 0.927158 0.272274
O O15 0.260591 0.882933 0.170777
O O16 0.257029 0.000000 0.193004
O O17 0.000000 0.340290 0.000000
#
# Coordination Sequence:
#
# PCOD9225953 Si02
#       7
#     8   8   8   8   8   8   8
#     4  12  22  38  58  94 134 169 215 265 334 394
#     4  12  25  40  63  96 133 172 217 274 331 396
#     4  11  23  44  65  90 131 180 225 270 321 387
#     4  11  25  43  71 104 131 169 214 275 343 400
#     4  11  25  44  68  98 131 179 227 270 325 388
#     4  12  25  38  64  94 134 175 222 267 320 394
#     4  11  24  45  74 100 134 168 214 277 337 397
#
# _framework density 9.9788940000000004
#
# number of rings (size 3 to 8) (size 9 to 14) (size 15 to 20)
#    0.000    0.571    4.286    4.714    6.000    3.143 
#    0.000    0.000    0.000    0.857    0.000    0.000 
#    0.000    0.000    0.000    0.000    0.000    0.000 
#
# Total GULP energy -156242.319274 kJ/mol
# GULP energy per Si atom -5580.082831 kJ/mol
# Density = 0.995618 g / cm^3
# Si number density = 9.978894 Si / 1000 Ang^3
#
#
#
# Elastic Constant Matrix: (Units=GPa)
#
#
# Indices 1 2 3 4 5 6 
#
# 1 61.2194 29.5563 27.2453 0.0000 -9.0614 0.0000
# 2 29.5563 126.0424 35.1922 0.0000 1.6658 0.0000
# 3 27.2453 35.1922 86.1377 0.0000 -4.5667 0.0000
# 4 0.0000 0.0000 0.0000 34.5925 0.0000 -3.9084
# 5 -9.0614 1.6658 -4.5667 0.0000 18.5700 0.0000
# 6 0.0000 0.0000 0.0000 -3.9084 0.0000 27.4002
#
#
#
# Elastic Compliance Matrix: (Units=1/GPa)
#
#
# Indices 1 2 3 4 5 6 
#
# 1 0.021800 -0.003908 -0.004779 0.000000 0.009813 0.000000
# 2 -0.003908 0.009711 -0.002917 0.000000 -0.003495 0.000000
# 3 -0.004779 -0.002917 0.014390 0.000000 0.001469 0.000000
# 4 0.000000 0.000000 0.000000 0.029381 0.000000 0.004191
# 5 0.009813 -0.003495 0.001469 0.000000 0.059313 0.000000
# 6 0.000000 0.000000 0.000000 0.004191 0.000000 0.037094
#
#
# Mechanical properties :
#
#
# Convention : Reuss Voigt Hill
#
# Bulk Modulus (GPa) = 44.06164 50.82079 47.44121
# Shear Modulus (GPa) = 24.69605 28.20626 26.45115
#
# Velocity S-wave (km/s) = 3.52151 3.76346 3.64449
# Velocity P-wave (km/s) = 6.21772 6.66365 6.44454
#
# Compressibility (1/GPa) = 0.02269548
#
# Stress axis : x y z
#
# Youngs Moduli (GPa) = 45.87058 102.97918 69.49098
#
# Poissons Ratio (x) = 0.40239 0.33208
# Poissons Ratio (y) = 0.17924 0.20269
# Poissons Ratio (z) = 0.21921 0.30036
#
# Static dielectric constant tensor:
#      x y z
#    x 1.767690 0.000000 0.024390 
#    y 0.000000 1.771330 0.000000 
#    z 0.024390 0.000000 1.733690 
# 
# From -- ./inp_files/198781.got.cif
#   From: 2010.05.17/outbox.ucp.g08.bks.cvg/sg12_100_cif.got.tgz:198781.got - 2010.06.11 11:47:21.
