data_PCOD9225836
_publ_section_title
;
Structure prediction by ZEFSAII (Michael W. Deem and Ramdas Pophale) SiO2 
 PCOD9225836
Probable space group: C 2/M
;
_chemical_formula_sum "Si O2"
_cell_formula_units_Z 24
_cell_length_a 12.000000
_cell_length_b 21.000000
_cell_length_c 15.000000
_cell_angle_alpha 90.000000
_cell_angle_beta 140.000000
_cell_angle_gamma 90.000000
_cell_volume 2429.737165
_symmetry_space_group_name_H-M "C 2/M"
_symmetry_group_IT_number 12
_symmetry_cell_setting 'monoclinic'
loop_
_space_group_symop_operation_xyz
x,y,z
-x,y,-z
-x,-y,-z
x,-y,z
1/2+x,1/2+y,z
1/2-x,1/2+y,-z
1/2-x,1/2-y,-z
1/2+x,1/2-y,z
loop_
_atom_site_type_symbol
_atom_site_label
_atom_site_fract_x
_atom_site_fract_y
_atom_site_fract_z
Si Si1 0.824508 0.870664 0.616344
Si Si2 0.210174 0.500000 0.272942
Si Si3 0.404644 0.500000 0.570457
Si Si4 0.568759 0.718089 0.645212
Si Si5 0.848228 0.076350 0.832746
Si Si6 0.965240 0.649740 0.286889
Si Si7 0.079631 0.638030 0.149738
O O1 0.890911 0.937221 0.619330
O O2 0.843385 0.881617 0.736124
O O3 0.634989 0.861329 0.454231
O O4 0.937055 0.816385 0.634332
O O5 0.248943 0.500000 0.402598
O O6 0.405855 0.500000 0.356354
O O7 0.113749 0.562869 0.181696
O O8 0.500000 0.725935 0.500000
O O9 0.610000 0.784860 0.717866
O O10 0.738000 0.674721 0.739893
O O11 0.670281 0.093967 0.774336
O O12 0.857018 0.000000 0.817162
O O13 0.000000 0.090087 0.000000
O O14 0.996896 0.655372 0.198232
O O15 0.000000 0.649145 0.000000
#
# Coordination Sequence:
#
# PCOD9225836 Si02
#       7
#     8   4   4   8   8   8   8
#     4  12  23  45  72 105 136 179 237 282 340 407
#     4  11  21  44  65 106 141 179 223 290 349 397
#     4  11  20  36  75 103 134 176 231 288 341 395
#     4  12  25  48  73 102 140 180 232 288 343 404
#     4  11  28  48  68 101 144 185 227 282 349 410
#     4  12  28  45  75 100 137 187 232 285 337 414
#     4  12  28  45  69 108 141 179 231 286 347 410
#
# _framework density 9.8776119999999992
#
# number of rings (size 3 to 8) (size 9 to 14) (size 15 to 20)
#    0.000    0.333    5.833    2.250    7.000    2.000 
#    0.000    0.000    0.000    0.000    0.000    0.000 
#    0.000    0.000    0.000    0.000    0.000    0.000 
#
# Total GULP energy -133825.884433 kJ/mol
# GULP energy per Si atom -5576.078518 kJ/mol
# Density = 0.985513 g / cm^3
# Si number density = 9.877612 Si / 1000 Ang^3
#
#
#
# Elastic Constant Matrix: (Units=GPa)
#
#
# Indices 1 2 3 4 5 6 
#
# 1 124.2802 17.9326 52.8793 0.0000 -28.8089 0.0000
# 2 17.9326 84.9491 5.6819 0.0000 -6.4258 0.0000
# 3 52.8793 5.6819 126.6751 0.0000 -34.8354 0.0000
# 4 0.0000 0.0000 0.0000 13.2509 0.0000 -16.4111
# 5 -28.8089 -6.4258 -34.8354 0.0000 45.4207 0.0000
# 6 0.0000 0.0000 0.0000 -16.4111 0.0000 22.1955
#
#
#
# Elastic Compliance Matrix: (Units=1/GPa)
#
#
# Indices 1 2 3 4 5 6 
#
# 1 0.010602 -0.001719 -0.003252 0.000000 0.003987 0.000000
# 2 -0.001719 0.012179 0.000438 0.000000 0.000968 0.000000
# 3 -0.003252 0.000438 0.011003 -0.000001 0.006437 -0.000001
# 4 0.000000 0.000000 -0.000001 0.895545 -0.000001 0.662157
# 5 0.003987 0.000968 0.006437 -0.000001 0.029620 -0.000001
# 6 0.000000 0.000000 -0.000001 0.662157 -0.000001 0.534647
#
#
# Mechanical properties :
#
#
# Convention : Reuss Voigt Hill
#
# Bulk Modulus (GPa) = 40.45944 54.32134 47.39039
# Shear Modulus (GPa) = 3.30928 33.46746 18.38837
#
# Velocity S-wave (km/s) = 1.29568 4.12042 3.05423
# Velocity P-wave (km/s) = 4.77108 7.08477 6.03975
#
# Compressibility (1/GPa) = 0.02471611
#
# Stress axis : x y z
#
# Youngs Moduli (GPa) = 94.31788 82.11118 90.88843
#
# Poissons Ratio (x) = 0.14115 0.29560
# Poissons Ratio (y) = 0.16213 -0.03977
# Poissons Ratio (z) = 0.30675 -0.03593
#
# Static dielectric constant tensor:
#      x y z
#    x 1.747380 0.000000 0.025650 
#    y 0.000000 1.672680 0.000000 
#    z 0.025650 0.000000 1.743200 
# 
# From -- ./inp_files/208045.got.cif
#   From: 2010.05.17/outbox.ucp.g08.bks.cvg/sg12_105_cif.got.tgz:208045.got - 2010.06.11 11:47:21.
