data_PCOD9225904
_publ_section_title
;
Structure prediction by ZEFSAII (Michael W. Deem and Ramdas Pophale) SiO2 
 PCOD9225904
Probable space group: C 2/M
;
_chemical_formula_sum "Si O2"
_cell_formula_units_Z 32
_cell_length_a 30.000000
_cell_length_b 18.000000
_cell_length_c 12.000000
_cell_angle_alpha 90.000000
_cell_angle_beta 30.000000
_cell_angle_gamma 90.000000
_cell_volume 3240.000000
_symmetry_space_group_name_H-M "C 2/M"
_symmetry_group_IT_number 12
_symmetry_cell_setting 'monoclinic'
loop_
_space_group_symop_operation_xyz
x,y,z
-x,y,-z
-x,-y,-z
x,-y,z
1/2+x,1/2+y,z
1/2-x,1/2+y,-z
1/2-x,1/2-y,-z
1/2+x,1/2-y,z
loop_
_atom_site_type_symbol
_atom_site_label
_atom_site_fract_x
_atom_site_fract_y
_atom_site_fract_z
Si Si1 0.052948 0.644065 0.271809
Si Si2 0.743305 0.914843 0.925100
Si Si3 0.771747 0.409947 0.385844
Si Si4 0.018742 0.586021 0.119326
Si Si5 0.161554 0.338297 0.537285
Si Si6 0.969010 0.816932 0.700134
Si Si7 0.290184 0.413323 0.083477
Si Si8 0.358825 0.329275 0.508384
O O1 0.000000 0.644631 0.500000
O O2 0.000437 0.602323 0.288570
O O3 0.061472 0.730940 0.219736
O O4 0.143534 0.601143 0.102545
O O5 0.798568 0.850955 0.744187
O O6 0.768667 0.000000 0.837225
O O7 0.760056 0.908249 0.019997
O O8 0.763423 0.500000 0.421988
O O9 0.778871 0.361103 0.483831
O O10 0.690405 0.382414 0.480671
O O11 0.874364 0.397152 0.119613
O O12 0.007954 0.500000 0.114144
O O13 0.939366 0.630224 0.229204
O O14 0.212559 0.379094 0.326670
O O15 0.152201 0.252181 0.521858
O O16 0.043233 0.833145 0.638613
O O17 0.000000 0.825039 0.500000
O O18 0.883096 0.869645 0.898945
O O19 0.302702 0.500000 0.083856
#
# Coordination Sequence:
#
# PCOD9225904 Si02
#       8
#     8   8   8   8   8   8   8   8
#     4  11  22  37  61  98 134 167 209 268 337 403
#     4  11  23  40  65  97 134 174 218 271 335 400
#     4  11  25  46  71  96 129 174 224 276 332 398
#     4  11  22  40  66  97 131 170 213 267 335 404
#     4  12  25  43  67  97 135 171 217 277 333 399
#     4  11  24  43  65  95 135 180 220 266 328 394
#     4  11  25  41  64  96 133 179 224 275 328 388
#     4  12  24  43  67  97 129 175 226 273 325 386
#
# _framework density 9.8765429999999999
#
# number of rings (size 3 to 8) (size 9 to 14) (size 15 to 20)
#    0.000    0.750    3.750    4.125    1.750    5.250 
#    0.000    0.625    0.000    1.500    0.000    0.000 
#    0.000    0.000    0.000    0.000    0.000    0.000 
#
# Total GULP energy -178415.673590 kJ/mol
# GULP energy per Si atom -5575.489800 kJ/mol
# Density = 0.985406 g / cm^3
# Si number density = 9.876543 Si / 1000 Ang^3
#
#
#
# Elastic Constant Matrix: (Units=GPa)
#
#
# Indices 1 2 3 4 5 6 
#
# 1 156.3402 38.9467 26.4671 0.0000 -17.8765 0.0000
# 2 38.9467 102.5213 45.4006 0.0000 -1.5294 0.0000
# 3 26.4671 45.4006 64.0111 0.0000 -5.7961 0.0000
# 4 0.0000 0.0000 0.0000 18.0980 0.0000 -2.4822
# 5 -17.8765 -1.5294 -5.7961 0.0000 29.4504 0.0000
# 6 0.0000 0.0000 0.0000 -2.4822 0.0000 31.3866
#
#
#
# Elastic Compliance Matrix: (Units=1/GPa)
#
#
# Indices 1 2 3 4 5 6 
#
# 1 0.007664 -0.002357 -0.001107 0.000000 0.004312 0.000000
# 2 -0.002357 0.014992 -0.009894 0.000000 -0.002599 0.000000
# 3 -0.001107 -0.009894 0.023407 0.000000 0.003421 0.000000
# 4 0.000000 0.000000 0.000000 0.055861 0.000000 0.004418
# 5 0.004312 -0.002599 0.003421 0.000000 0.037111 0.000000
# 6 0.000000 0.000000 0.000000 0.004418 0.000000 0.032210
#
#
# Mechanical properties :
#
#
# Convention : Reuss Voigt Hill
#
# Bulk Modulus (GPa) = 51.68616 60.50015 56.09315
# Shear Modulus (GPa) = 24.46063 29.92421 27.19242
#
# Velocity S-wave (km/s) = 3.52279 3.89641 3.71430
# Velocity P-wave (km/s) = 6.53985 7.13704 6.84496
#
# Compressibility (1/GPa) = 0.01934754
#
# Stress axis : x y z
#
# Youngs Moduli (GPa) = 130.48271 66.70113 42.72187
#
# Poissons Ratio (x) = 0.15722 0.04728
# Poissons Ratio (y) = 0.30755 0.42270
# Poissons Ratio (z) = 0.14440 0.65996
#
# Static dielectric constant tensor:
#      x y z
#    x 1.742390 0.000000 0.003860 
#    y 0.000000 1.687100 0.000000 
#    z 0.003860 0.000000 1.748860 
# 
# From -- ./inp_files/190028.got.cif
#   From: 2010.05.17/outbox.ucp.g08.bks.cvg/sg12_96_cif.got.tgz:190028.got - 2010.06.11 11:47:21.
