data_PCOD9225903
_publ_section_title
;
Structure prediction by ZEFSAII (Michael W. Deem and Ramdas Pophale) SiO2 
 PCOD9225903
Probable space group: C 2/M
;
_chemical_formula_sum "Si O2"
_cell_formula_units_Z 24
_cell_length_a 15.000000
_cell_length_b 9.000000
_cell_length_c 18.000000
_cell_angle_alpha 90.000000
_cell_angle_beta 90.000000
_cell_angle_gamma 90.000000
_cell_volume 2430.000000
_symmetry_space_group_name_H-M "C 2/M"
_symmetry_group_IT_number 12
_symmetry_cell_setting 'monoclinic'
loop_
_space_group_symop_operation_xyz
x,y,z
-x,y,-z
-x,-y,-z
x,-y,z
1/2+x,1/2+y,z
1/2-x,1/2+y,-z
1/2-x,1/2-y,-z
1/2+x,1/2-y,z
loop_
_atom_site_type_symbol
_atom_site_label
_atom_site_fract_x
_atom_site_fract_y
_atom_site_fract_z
Si Si1 0.348463 0.321794 0.499597
Si Si2 0.650193 0.671752 0.663450
Si Si3 0.133949 0.327149 0.351440
Si Si4 0.756066 0.677689 0.919358
Si Si5 0.910217 0.323181 0.810626
Si Si6 0.386544 0.173438 0.183594
O O1 0.341736 0.500000 0.502916
O O2 0.250000 0.250000 0.500000
O O3 0.386560 0.284937 0.417935
O O4 0.392598 0.260320 0.574345
O O5 0.625594 0.500000 0.679293
O O6 0.758141 0.675599 0.656583
O O7 0.623718 0.776213 0.730999
O O8 0.107193 0.500000 0.359719
O O9 0.099328 0.262993 0.273238
O O10 0.761046 0.500000 0.927232
O O11 0.840811 0.732975 0.871218
O O12 0.673259 0.725347 0.868692
O O13 0.750000 0.750000 0.000000
O O14 0.890728 0.500000 0.802193
O O15 0.010522 0.307903 0.837079
O O16 0.362027 0.000000 0.175945
#
# Coordination Sequence:
#
# PCOD9225903 Si02
#       6
#     8   8   8   8   8   8
#     4   9  17  28  46  76 111 150 194 239 287 334
#     4   9  17  32  53  77 113 157 193 235 293 339
#     4   9  16  32  55  77 107 153 198 234 283 337
#     4  11  23  44  67  88 118 151 185 229 287 346
#     4   9  20  39  61  84 118 158 189 228 287 349
#     4  11  22  37  61  91 116 149 197 237 279 339
#
# _framework density 9.8765429999999999
#
# number of rings (size 3 to 8) (size 9 to 14) (size 15 to 20)
#    0.000    2.333    1.667    2.500    0.000    4.000 
#    0.000    9.167    0.000    5.000    0.000    0.000 
#    0.000    0.000    0.000    0.000    0.000    0.000 
#
# Total GULP energy -133892.555667 kJ/mol
# GULP energy per Si atom -5578.856486 kJ/mol
# Density = 0.985406 g / cm^3
# Si number density = 9.876543 Si / 1000 Ang^3
#
#
#
# Elastic Constant Matrix: (Units=GPa)
#
#
# Indices 1 2 3 4 5 6 
#
# 1 26.3413 13.4873 32.3758 0.0000 10.2444 0.0000
# 2 13.4873 50.2175 43.5101 0.0000 4.4323 0.0000
# 3 32.3758 43.5101 149.9604 0.0000 -3.2591 0.0000
# 4 0.0000 0.0000 0.0000 41.2646 0.0000 2.9207
# 5 10.2444 4.4323 -3.2591 0.0000 -26.4012 0.0000
# 6 0.0000 0.0000 0.0000 2.9207 0.0000 15.4861
#
#
#
# Elastic Compliance Matrix: (Units=1/GPa)
#
#
# Indices 1 2 3 4 5 6 
#
# 1 0.043768 -0.007148 -0.007014 0.000000 0.016649 0.000000
# 2 -0.007148 0.027017 -0.006240 0.000000 0.002532 0.000000
# 3 -0.007014 -0.006240 0.009885 0.000000 -0.004989 0.000000
# 4 0.000000 0.000000 0.000000 0.024562 0.000000 -0.004632
# 5 0.016649 0.002532 -0.004989 0.000000 -0.030376 0.000000
# 6 0.000000 0.000000 0.000000 -0.004632 0.000000 0.065448
#
#
# Mechanical properties :
#
#
# Convention : Reuss Voigt Hill
#
# Bulk Modulus (GPa) = 25.08410 45.02951 35.05681
# Shear Modulus (GPa) = 25.72066 15.21296 20.46681
#
# Velocity S-wave (km/s) = 3.61239 2.77818 3.22239
# Velocity P-wave (km/s) = 5.48867 5.75645 5.62416
#
# Compressibility (1/GPa) = 0.03986589
#
# Stress axis : x y z
#
# Youngs Moduli (GPa) = 22.84749 37.01440 101.16506
#
# Poissons Ratio (x) = 0.26457 0.70954
# Poissons Ratio (y) = 0.16331 0.63131
# Poissons Ratio (z) = 0.16024 0.23099
#
# Static dielectric constant tensor:
#      x y z
#    x 1.733000 0.000000 0.019860 
#    y 0.000000 1.669830 0.000000 
#    z 0.019860 0.000000 1.706510 
# 
# From -- ./inp_files/267724.got.cif
#   From: 2010.05.17/outbox.ucp.g08.bks.cvg/sg12_134_cif.got.tgz:267724.got - 2010.06.11 11:47:21.
