data_PCOD9225066
_publ_section_title
;
Structure prediction by ZEFSAII (Michael W. Deem and Ramdas Pophale) SiO2 
 PCOD9225066
Probable space group: C 2/M
;
_chemical_formula_sum "Si O2"
_cell_formula_units_Z 32
_cell_length_a 15.000000
_cell_length_b 15.000000
_cell_length_c 18.000000
_cell_angle_alpha 90.000000
_cell_angle_beta 50.000000
_cell_angle_gamma 90.000000
_cell_volume 3102.479995
_symmetry_space_group_name_H-M "C 2/M"
_symmetry_group_IT_number 12
_symmetry_cell_setting 'monoclinic'
loop_
_space_group_symop_operation_xyz
x,y,z
-x,y,-z
-x,-y,-z
x,-y,z
1/2+x,1/2+y,z
1/2-x,1/2+y,-z
1/2-x,1/2-y,-z
1/2+x,1/2-y,z
loop_
_atom_site_type_symbol
_atom_site_label
_atom_site_fract_x
_atom_site_fract_y
_atom_site_fract_z
Si Si1 0.351838 0.160499 0.014562
Si Si2 0.401647 0.754741 0.709350
Si Si3 0.880208 0.393861 0.607433
Si Si4 0.196114 0.893634 0.347653
Si Si5 0.140447 0.808735 0.536201
Si Si6 0.128473 0.897806 0.690703
Si Si7 0.602979 0.309738 0.126029
Si Si8 0.404211 0.900650 0.143909
O O1 0.378853 0.253458 0.958341
O O2 0.457244 0.101677 0.926324
O O3 0.219978 0.130379 0.068624
O O4 0.369080 0.162932 0.094357
O O5 0.357241 0.844962 0.697263
O O6 0.355276 0.665524 0.692254
O O7 0.534032 0.755691 0.611101
O O8 0.384298 0.749972 0.806093
O O9 0.884646 0.500000 0.612845
O O10 0.761532 0.366641 0.629309
O O11 0.000000 0.369036 0.500000
O O12 0.154349 0.849848 0.446921
O O13 0.334804 0.882865 0.256935
O O14 0.168747 0.000000 0.360491
O O15 0.250000 0.750000 0.500000
O O16 0.112554 0.886133 0.611020
O O17 0.025175 0.850078 0.791808
O O18 0.123268 0.000000 0.715150
O O19 0.367119 0.000000 0.139827
#
# Coordination Sequence:
#
# PCOD9225066 Si02
#       8
#     8   8   8   8   8   8   8   8
#     4  10  20  40  58  86 117 155 195 248 301 365
#     4  11  22  38  59  88 117 163 195 244 305 357
#     4  10  21  39  60  82 116 162 209 242 283 352
#     4  11  23  38  59  93 125 158 201 248 299 368
#     4  11  23  37  59  88 126 161 197 246 302 368
#     4  10  22  38  59  88 120 161 202 251 307 361
#     4  10  23  36  60  90 118 152 202 246 312 365
#     4  10  22  38  63  90 116 156 197 243 308 366
#
# _framework density 10.314329000000001
#
# number of rings (size 3 to 8) (size 9 to 14) (size 15 to 20)
#    0.000    1.625    1.250    3.750    5.250    4.000 
#    0.000    1.875    0.000    0.750    0.000    8.750 
#    0.000    0.000    0.000    0.000    0.000    0.000 
#
# Total GULP energy -178135.982519 kJ/mol
# GULP energy per Si atom -5566.749454 kJ/mol
# Density = 1.029085 g / cm^3
# Si number density = 10.314329 Si / 1000 Ang^3
#
#
#
# Elastic Constant Matrix: (Units=GPa)
#
#
# Indices 1 2 3 4 5 6 
#
# 1 57.4861 22.3984 27.9130 0.0000 -10.8510 0.0000
# 2 22.3984 21.5805 11.8630 0.0000 -2.3083 0.0000
# 3 27.9130 11.8630 103.8938 0.0000 -0.6814 0.0000
# 4 0.0000 0.0000 0.0000 13.9040 0.0000 -7.2386
# 5 -10.8510 -2.3083 -0.6814 0.0000 31.2116 0.0000
# 6 0.0000 0.0000 0.0000 -7.2386 0.0000 10.1110
#
#
#
# Elastic Compliance Matrix: (Units=1/GPa)
#
#
# Indices 1 2 3 4 5 6 
#
# 1 0.034038 -0.031294 -0.005510 0.000000 0.009399 0.000000
# 2 -0.031294 0.078605 -0.000601 0.000000 -0.005079 0.000000
# 3 -0.005510 -0.000601 0.011163 0.000000 -0.001716 0.000000
# 4 0.000000 0.000000 0.000000 0.114656 0.000000 0.082084
# 5 0.009399 -0.005079 -0.001716 0.000000 0.034894 0.000000
# 6 0.000000 0.000000 0.000000 0.082084 0.000000 0.157668
#
#
# Mechanical properties :
#
#
# Convention : Reuss Voigt Hill
#
# Bulk Modulus (GPa) = 20.40974 34.14547 27.27761
# Shear Modulus (GPa) = 9.57549 19.09771 14.33660
#
# Velocity S-wave (km/s) = 2.15683 3.04597 2.63912
# Velocity P-wave (km/s) = 4.01471 5.38135 4.74747
#
# Compressibility (1/GPa) = 0.04899621
#
# Stress axis : x y z
#
# Youngs Moduli (GPa) = 29.37875 12.72180 89.58186
#
# Poissons Ratio (x) = 0.39812 0.49360
# Poissons Ratio (y) = 0.91938 0.05385
# Poissons Ratio (z) = 0.16188 0.00765
#
# Static dielectric constant tensor:
#      x y z
#    x 1.942750 0.000000 -0.065840 
#    y 0.000000 1.791180 0.000000 
#    z -0.065840 0.000000 1.737090 
# 
# From -- ./inp_files/270659.got.cif
#   From: 2010.05.17/outbox.ucp.g08.bks.cvg/sg12_136_cif.got.tgz:270659.got - 2010.06.11 11:47:21.
