data_PCOD9225188
_publ_section_title
;
Structure prediction by ZEFSAII (Michael W. Deem and Ramdas Pophale) SiO2 
 PCOD9225188
Probable space group: C 2/M
;
_chemical_formula_sum "Si O2"
_cell_formula_units_Z 28
_cell_length_a 21.000000
_cell_length_b 9.000000
_cell_length_c 30.000000
_cell_angle_alpha 90.000000
_cell_angle_beta 150.000000
_cell_angle_gamma 90.000000
_cell_volume 2835.000000
_symmetry_space_group_name_H-M "C 2/M"
_symmetry_group_IT_number 12
_symmetry_cell_setting 'monoclinic'
loop_
_space_group_symop_operation_xyz
x,y,z
-x,y,-z
-x,-y,-z
x,-y,z
1/2+x,1/2+y,z
1/2-x,1/2+y,-z
1/2-x,1/2-y,-z
1/2+x,1/2-y,z
loop_
_atom_site_type_symbol
_atom_site_label
_atom_site_fract_x
_atom_site_fract_y
_atom_site_fract_z
Si Si1 0.299780 0.324344 0.771695
Si Si2 0.246358 0.821627 0.925047
Si Si3 0.066334 0.176062 0.890946
Si Si4 0.851573 0.323148 0.401818
Si Si5 0.951332 0.324484 0.624030
Si Si6 0.220127 0.822139 0.808692
Si Si7 0.274876 0.324587 0.444007
O O1 0.289871 0.500000 0.775638
O O2 0.420184 0.299350 0.812895
O O3 0.183090 0.277304 0.669477
O O4 0.309588 0.237577 0.823650
O O5 0.115715 0.780769 0.871839
O O6 0.254126 0.768415 0.879073
O O7 0.255077 0.000000 0.929008
O O8 0.353518 0.759344 0.022715
O O9 0.091407 0.000000 0.910867
O O10 0.824669 0.500000 0.388702
O O11 0.776082 0.240311 0.395117
O O12 0.000000 0.298588 0.500000
O O13 0.973886 0.500000 0.631505
O O14 0.856563 0.303503 0.608614
O O15 0.879722 0.260100 0.537438
O O16 0.081626 0.240670 0.712531
O O17 0.219140 0.000000 0.807980
O O18 0.302610 0.500000 0.460020
#
# Coordination Sequence:
#
# PCOD9225188 Si02
#       7
#     8   8   8   8   8   8   8
#     4  10  22  38  58  84 118 156 196 240 286 346
#     4   9  20  38  60  86 115 148 188 238 294 345
#     4   9  19  38  61  85 112 150 195 236 285 346
#     4  10  21  36  56  81 112 155 197 235 285 340
#     4  10  21  37  56  81 115 150 191 236 285 345
#     4  11  23  37  58  86 117 152 188 238 294 342
#     4  10  21  36  56  83 111 147 192 242 290 335
#
# _framework density 9.8765429999999999
#
# number of rings (size 3 to 8) (size 9 to 14) (size 15 to 20)
#    0.000    2.143    0.000    2.143    2.000    6.000 
#    0.000    2.857    0.000    0.000    0.000    0.000 
#    0.000    0.000    0.000    0.000    0.000    0.000 
#
# Total GULP energy -156308.153907 kJ/mol
# GULP energy per Si atom -5582.434068 kJ/mol
# Density = 0.985406 g / cm^3
# Si number density = 9.876543 Si / 1000 Ang^3
#
#
#
# Elastic Constant Matrix: (Units=GPa)
#
#
# Indices 1 2 3 4 5 6 
#
# 1 100.0817 35.8957 20.6555 0.0000 -29.2703 0.0000
# 2 35.8957 29.7514 9.0976 0.0000 -3.2164 0.0001
# 3 20.6555 9.0976 28.5876 0.0002 -12.3184 0.0001
# 4 0.0000 0.0000 0.0002 21.5275 0.0001 -1.8847
# 5 -29.2703 -3.2164 -12.3184 0.0001 27.7961 0.0000
# 6 0.0000 0.0001 0.0001 -1.8847 0.0000 34.6722
#
#
#
# Elastic Compliance Matrix: (Units=1/GPa)
#
#
# Indices 1 2 3 4 5 6 
#
# 1 0.030069 -0.033572 0.001147 0.000000 0.028288 0.000000
# 2 -0.033572 0.074748 -0.013642 0.000000 -0.032749 0.000000
# 3 0.001147 -0.013642 0.047381 -0.000001 0.020627 0.000000
# 4 0.000000 0.000000 -0.000001 0.046674 0.000000 0.002537
# 5 0.028288 -0.032749 0.020627 0.000000 0.071116 0.000000
# 6 0.000000 0.000000 0.000000 0.002537 0.000000 0.028980
#
#
# Mechanical properties :
#
#
# Convention : Reuss Voigt Hill
#
# Bulk Modulus (GPa) = 16.64885 32.19093 24.41989
# Shear Modulus (GPa) = 12.16176 22.98393 17.57285
#
# Velocity S-wave (km/s) = 2.48400 3.41480 2.98589
# Velocity P-wave (km/s) = 4.08335 5.64623 4.92715
#
# Compressibility (1/GPa) = 0.06006420
#
# Stress axis : x y z
#
# Youngs Moduli (GPa) = 33.25661 13.37823 21.10534
#
# Poissons Ratio (x) = 0.44913 -0.02421
# Poissons Ratio (y) = 1.11648 0.28793
# Poissons Ratio (z) = -0.03814 0.18251
#
# Static dielectric constant tensor:
#      x y z
#    x 1.722880 0.000000 0.024840 
#    y 0.000000 1.664850 0.000000 
#    z 0.024840 0.000000 1.691230 
# 
# From -- ./inp_files/237397.got.cif
#   From: 2010.05.17/outbox.ucp.g08.bks.cvg/sg12_119_cif.got.tgz:237397.got - 2010.06.11 11:47:21.
