data_PCOD9225463
_publ_section_title
;
Structure prediction by ZEFSAII (Michael W. Deem and Ramdas Pophale) SiO2 
 PCOD9225463
Probable space group: C 2/M
;
_chemical_formula_sum "Si O2"
_cell_formula_units_Z 24
_cell_length_a 21.000000
_cell_length_b 21.000000
_cell_length_c 12.000000
_cell_angle_alpha 90.000000
_cell_angle_beta 30.000000
_cell_angle_gamma 90.000000
_cell_volume 2646.000000
_symmetry_space_group_name_H-M "C 2/M"
_symmetry_group_IT_number 12
_symmetry_cell_setting 'monoclinic'
loop_
_space_group_symop_operation_xyz
x,y,z
-x,y,-z
-x,-y,-z
x,-y,z
1/2+x,1/2+y,z
1/2-x,1/2+y,-z
1/2-x,1/2-y,-z
1/2+x,1/2-y,z
loop_
_atom_site_type_symbol
_atom_site_label
_atom_site_fract_x
_atom_site_fract_y
_atom_site_fract_z
Si Si1 0.317687 0.326141 0.519629
Si Si2 0.185138 0.574848 0.348661
Si Si3 0.813320 0.702211 0.068539
Si Si4 0.510577 0.574154 0.115153
Si Si5 0.606381 0.819083 0.653247
Si Si6 0.141651 0.683274 0.258987
O O1 0.279481 0.335056 0.706530
O O2 0.426874 0.374619 0.310637
O O3 0.354169 0.251294 0.451313
O O4 0.193514 0.333382 0.628699
O O5 0.149605 0.500000 0.417292
O O6 0.137949 0.622823 0.519364
O O7 0.137404 0.612154 0.312667
O O8 0.337768 0.576678 0.099359
O O9 0.751032 0.773254 0.151902
O O10 0.827237 0.682007 0.918811
O O11 0.955624 0.691597 0.900927
O O12 0.468402 0.500000 0.197373
O O13 0.500000 0.588970 0.000000
O O14 0.000000 0.711397 0.500000
#
# Coordination Sequence:
#
# PCOD9225463 Si02
#       6
#     8   8   8   8   8   8
#     4  11  22  35  64  91 127 158 197 265 305 372
#     4  11  22  40  63  89 122 162 215 256 293 365
#     4  11  22  39  60  89 128 156 200 261 315 365
#     4  10  21  39  63  89 122 167 206 242 301 371
#     4  11  22  37  58  95 126 157 206 247 320 366
#     4  11  22  40  61  87 121 167 213 251 306 369
#
# _framework density 9.0702949999999998
#
# number of rings (size 3 to 8) (size 9 to 14) (size 15 to 20)
#    0.000    1.167    5.000    1.500    0.000    1.667 
#    0.000    1.667    0.000    4.000    0.000    0.000 
#    0.000    0.000    0.000    0.000    0.000    0.000 
#
# Total GULP energy -133733.058885 kJ/mol
# GULP energy per Si atom -5572.210787 kJ/mol
# Density = 0.904965 g / cm^3
# Si number density = 9.070295 Si / 1000 Ang^3
#
#
#
# Elastic Constant Matrix: (Units=GPa)
#
#
# Indices 1 2 3 4 5 6 
#
# 1 33.9001 34.1519 41.1017 -0.0002 8.0622 0.0000
# 2 34.1519 136.4129 60.3599 0.0003 8.9547 0.0000
# 3 41.1017 60.3599 123.9676 0.0003 8.8150 0.0000
# 4 -0.0002 0.0003 0.0003 67.2347 -0.0003 4.4956
# 5 8.0622 8.9547 8.8150 -0.0003 43.1930 0.0001
# 6 0.0000 0.0000 0.0000 4.4956 0.0001 25.9419
#
#
#
# Elastic Compliance Matrix: (Units=1/GPa)
#
#
# Indices 1 2 3 4 5 6 
#
# 1 0.055798 -0.007112 -0.014613 0.000000 -0.005958 0.000000
# 2 -0.007112 0.010295 -0.002635 0.000000 -0.000269 0.000000
# 3 -0.014613 -0.002635 0.014168 0.000000 0.000383 0.000000
# 4 0.000000 0.000000 0.000000 0.015048 0.000000 -0.002608
# 5 -0.005958 -0.000269 0.000383 0.000000 0.024242 0.000000
# 6 0.000000 0.000000 0.000000 -0.002608 0.000000 0.039000
#
#
# Mechanical properties :
#
#
# Convention : Reuss Voigt Hill
#
# Bulk Modulus (GPa) = 31.70688 62.83416 47.27052
# Shear Modulus (GPa) = 22.95838 37.85173 30.40505
#
# Velocity S-wave (km/s) = 3.56136 4.57286 4.09844
# Velocity P-wave (km/s) = 5.86749 7.91163 6.96496
#
# Compressibility (1/GPa) = 0.03153890
#
# Stress axis : x y z
#
# Youngs Moduli (GPa) = 17.92166 97.13378 70.58279
#
# Poissons Ratio (x) = 0.69084 1.03146
# Poissons Ratio (y) = 0.12746 0.18602
# Poissons Ratio (z) = 0.26190 0.25599
#
# Static dielectric constant tensor:
#      x y z
#    x 1.729530 0.000000 -0.044690 
#    y 0.000000 1.609140 0.000000 
#    z -0.044690 0.000000 1.649830 
# 
# From -- ./inp_files/132977.got.cif
#   From: 2010.05.17/outbox.ucp.g08.bks.cvg/sg12_67_cif.got.tgz:132977.got - 2010.06.11 11:47:21.
