data_PCOD9225472
_publ_section_title
;
Structure prediction by ZEFSAII (Michael W. Deem and Ramdas Pophale) SiO2 
 PCOD9225472
Probable space group: C 2/M
;
_chemical_formula_sum "Si O2"
_cell_formula_units_Z 32
_cell_length_a 30.000000
_cell_length_b 9.000000
_cell_length_c 18.000000
_cell_angle_alpha 90.000000
_cell_angle_beta 140.000000
_cell_angle_gamma 90.000000
_cell_volume 3123.947783
_symmetry_space_group_name_H-M "C 2/M"
_symmetry_group_IT_number 12
_symmetry_cell_setting 'monoclinic'
loop_
_space_group_symop_operation_xyz
x,y,z
-x,y,-z
-x,-y,-z
x,-y,z
1/2+x,1/2+y,z
1/2-x,1/2+y,-z
1/2-x,1/2-y,-z
1/2+x,1/2-y,z
loop_
_atom_site_type_symbol
_atom_site_label
_atom_site_fract_x
_atom_site_fract_y
_atom_site_fract_z
Si Si1 0.416533 0.675866 0.576676
Si Si2 0.293534 0.667312 0.771390
Si Si3 0.799395 0.166817 0.240436
Si Si4 0.782956 0.331607 0.473833
Si Si5 0.078355 0.669491 0.572176
Si Si6 0.048571 0.820938 0.992548
Si Si7 0.541393 0.179222 0.824205
Si Si8 0.692850 0.832248 0.974619
O O1 0.420678 0.500000 0.591053
O O2 0.348263 0.741059 0.527565
O O3 0.415835 0.722585 0.490059
O O4 0.482163 0.756358 0.696786
O O5 0.284522 0.500000 0.791414
O O6 0.233822 0.770346 0.727479
O O7 0.277382 0.660930 0.664463
O O8 0.371402 0.715389 0.887179
O O9 0.862364 0.272759 0.296079
O O10 0.731942 0.164804 0.102925
O O11 0.825912 0.000000 0.279473
O O12 0.805342 0.500000 0.518874
O O13 0.750000 0.250000 0.500000
O O14 0.094450 0.500000 0.570834
O O15 0.000000 0.674103 0.500000
O O16 0.043386 0.000000 0.976097
O O17 0.030154 0.739874 0.892813
O O18 0.000000 0.780270 0.000000
O O19 0.541562 0.000000 0.824704
O O20 0.616588 0.231585 0.889715
O O21 0.684963 0.000000 0.936040
O O22 0.750000 0.750000 0.000000
#
# Coordination Sequence:
#
# PCOD9225472 Si02
#       8
#     8   8   8   8   8   8   8   8
#     4  12  26  44  66  93 127 168 214 265 317 377
#     4  10  21  39  64  91 125 166 209 258 314 373
#     4  11  22  40  65  94 125 161 211 263 311 374
#     4  11  24  42  65  96 131 170 214 260 315 377
#     4  11  25  44  66  94 127 166 209 259 321 384
#     4  10  22  40  64  95 127 165 210 258 311 372
#     4  11  24  44  64  91 129 168 209 259 317 379
#     4  10  24  42  63  93 127 164 209 258 311 375
#
# _framework density 10.243449
#
# number of rings (size 3 to 8) (size 9 to 14) (size 15 to 20)
#    0.000    1.250    2.500    2.625    3.500    3.750 
#    0.000    0.000    0.000    0.000    0.000    0.000 
#    0.000    0.000    0.000    0.000    0.000    0.000 
#
# Total GULP energy -178612.264615 kJ/mol
# GULP energy per Si atom -5581.633269 kJ/mol
# Density = 1.022013 g / cm^3
# Si number density = 10.243449 Si / 1000 Ang^3
#
#
#
# Elastic Constant Matrix: (Units=GPa)
#
#
# Indices 1 2 3 4 5 6 
#
# 1 70.4923 19.9697 13.3758 0.0000 3.5857 0.0000
# 2 19.9697 47.7373 17.8403 0.0000 -0.0290 0.0000
# 3 13.3758 17.8403 84.8282 0.0000 20.1380 0.0000
# 4 0.0000 0.0000 0.0000 25.4908 0.0000 7.0119
# 5 3.5857 -0.0290 20.1380 0.0000 23.6674 0.0000
# 6 0.0000 0.0000 0.0000 7.0119 0.0000 18.8901
#
#
#
# Elastic Compliance Matrix: (Units=1/GPa)
#
#
# Indices 1 2 3 4 5 6 
#
# 1 0.016271 -0.006524 -0.000760 0.000000 -0.001826 0.000000
# 2 -0.006524 0.025859 -0.005830 0.000000 0.005980 0.000000
# 3 -0.000760 -0.005830 0.016427 0.000000 -0.013869 0.000000
# 4 0.000000 0.000000 0.000000 0.043691 0.000000 -0.016218
# 5 -0.001826 0.005980 -0.013869 0.000000 0.054337 0.000000
# 6 0.000000 0.000000 0.000000 -0.016218 0.000000 0.058958
#
#
# Mechanical properties :
#
#
# Convention : Reuss Voigt Hill
#
# Bulk Modulus (GPa) = 30.93028 33.93660 32.43344
# Shear Modulus (GPa) = 19.79830 23.73446 21.76638
#
# Velocity S-wave (km/s) = 3.11205 3.40739 3.26307
# Velocity P-wave (km/s) = 5.29561 5.66405 5.48293
#
# Compressibility (1/GPa) = 0.03233078
#
# Stress axis : x y z
#
# Youngs Moduli (GPa) = 61.45843 38.67087 60.87570
#
# Poissons Ratio (x) = 0.25228 0.04627
# Poissons Ratio (y) = 0.40094 0.35488
# Poissons Ratio (z) = 0.04671 0.22543
#
# Static dielectric constant tensor:
#      x y z
#    x 1.666130 0.000000 -0.007940 
#    y 0.000000 1.765320 0.000000 
#    z -0.007940 0.000000 1.751330 
# 
# From -- ./inp_files/295705.got.cif
#   From: 2010.05.17/outbox.ucp.g08.bks.cvg/sg12_148_cif.got.tgz:295705.got - 2010.06.11 11:47:21.
