data_PCOD9225412
_publ_section_title
;
Structure prediction by ZEFSAII (Michael W. Deem and Ramdas Pophale) SiO2 
 PCOD9225412
Probable space group: C 2/M
;
_chemical_formula_sum "Si O2"
_cell_formula_units_Z 24
_cell_length_a 15.000000
_cell_length_b 15.000000
_cell_length_c 12.000000
_cell_angle_alpha 90.000000
_cell_angle_beta 120.000000
_cell_angle_gamma 90.000000
_cell_volume 2338.268590
_symmetry_space_group_name_H-M "C 2/M"
_symmetry_group_IT_number 12
_symmetry_cell_setting 'monoclinic'
loop_
_space_group_symop_operation_xyz
x,y,z
-x,y,-z
-x,-y,-z
x,-y,z
1/2+x,1/2+y,z
1/2-x,1/2+y,-z
1/2-x,1/2-y,-z
1/2+x,1/2-y,z
loop_
_atom_site_type_symbol
_atom_site_label
_atom_site_fract_x
_atom_site_fract_y
_atom_site_fract_z
Si Si1 0.783725 0.707197 0.652452
Si Si2 0.260628 0.355014 0.983199
Si Si3 0.195731 0.898953 0.241825
Si Si4 0.070986 0.237280 0.441784
Si Si5 0.017910 0.099381 0.783460
Si Si6 0.615171 0.101871 0.085164
O O1 0.770884 0.813737 0.665478
O O2 0.870488 0.697500 0.610209
O O3 0.668157 0.679790 0.548583
O O4 0.822339 0.660794 0.788116
O O5 0.261518 0.380468 0.854435
O O6 0.250000 0.250000 0.000000
O O7 0.370406 0.387334 0.096399
O O8 0.171156 0.397217 0.001464
O O9 0.071386 0.894018 0.178161
O O10 0.224929 0.000000 0.294618
O O11 0.000000 0.271039 0.500000
O O12 0.002362 0.173688 0.321667
O O13 0.009332 0.000000 0.729857
O O14 0.608952 0.000000 0.122307
O O15 0.500000 0.138176 0.000000
#
# Coordination Sequence:
#
# PCOD9225412 Si02
#       6
#     8   8   8   8   8   8
#     4  10  22  40  60  89 120 158 202 250 298 357
#     4  12  23  35  62  93 122 162 194 245 302 365
#     4  10  21  38  63  92 124 155 195 250 305 358
#     4  10  22  37  61  88 115 158 200 249 300 356
#     4  10  22  39  61  93 123 152 199 256 307 359
#     4  11  25  41  59  87 124 164 204 242 292 363
#
# _framework density 10.264004999999999
#
# number of rings (size 3 to 8) (size 9 to 14) (size 15 to 20)
#    0.000    1.500    1.667    3.000    4.667    2.333 
#    0.000    2.500    0.000    1.000    0.000    0.000 
#    0.000    0.000    0.000    0.000    0.000    0.000 
#
# Total GULP energy -133901.231042 kJ/mol
# GULP energy per Si atom -5579.217960 kJ/mol
# Density = 1.024064 g / cm^3
# Si number density = 10.264005 Si / 1000 Ang^3
#
#
#
# Elastic Constant Matrix: (Units=GPa)
#
#
# Indices 1 2 3 4 5 6 
#
# 1 110.1041 -14.1655 24.8651 0.0000 -36.6472 0.0000
# 2 -14.1655 58.0825 -1.3982 0.0000 -7.7137 0.0000
# 3 24.8651 -1.3982 56.1677 0.0000 -10.4962 0.0000
# 4 0.0000 0.0000 0.0000 -25.9616 0.0000 8.4037
# 5 -36.6472 -7.7137 -10.4962 0.0000 29.7991 0.0000
# 6 0.0000 0.0000 0.0000 8.4037 0.0000 25.3891
#
#
#
# Elastic Compliance Matrix: (Units=1/GPa)
#
#
# Indices 1 2 3 4 5 6 
#
# 1 0.018847 0.007677 -0.003693 0.000000 0.023865 0.000000
# 2 0.007677 0.021060 -0.000098 0.000000 0.014859 0.000000
# 3 -0.003693 -0.000098 0.019892 0.000000 0.002440 0.000000
# 4 0.000000 0.000000 0.000000 -0.034791 0.000000 0.011516
# 5 0.023865 0.014859 0.002440 0.000000 0.067613 0.000000
# 6 0.000000 0.000000 0.000000 0.011516 0.000000 0.035575
#
#
# Mechanical properties :
#
#
# Convention : Reuss Voigt Hill
#
# Bulk Modulus (GPa) = 14.79883 26.99524 20.89704
# Shear Modulus (GPa) = 34.97767 20.18217 27.57992
#
# Velocity S-wave (km/s) = 4.13231 3.13893 3.66939
# Velocity P-wave (km/s) = 5.47656 5.12993 5.30608
#
# Compressibility (1/GPa) = 0.06757289
#
# Stress axis : x y z
#
# Youngs Moduli (GPa) = 53.05813 47.48296 50.27116
#
# Poissons Ratio (x) = -0.36453 0.18564
# Poissons Ratio (y) = -0.40733 0.00491
# Poissons Ratio (z) = 0.19593 0.00464
#
# Static dielectric constant tensor:
#      x y z
#    x 1.738160 0.000000 -0.001480 
#    y 0.000000 1.756110 0.000000 
#    z -0.001480 0.000000 1.751900 
# 
# From -- ./inp_files/143903.got.cif
#   From: 2010.05.17/outbox.ucp.g08.bks.cvg/sg12_72_cif.got.tgz:143903.got - 2010.06.11 11:47:21.
