data_PCOD9225298
_publ_section_title
;
Structure prediction by ZEFSAII (Michael W. Deem and Ramdas Pophale) SiO2 
 PCOD9225298
Probable space group: C 2/M
;
_chemical_formula_sum "Si O2"
_cell_formula_units_Z 32
_cell_length_a 21.000000
_cell_length_b 21.000000
_cell_length_c 9.000000
_cell_angle_alpha 90.000000
_cell_angle_beta 60.000000
_cell_angle_gamma 90.000000
_cell_volume 3437.254828
_symmetry_space_group_name_H-M "C 2/M"
_symmetry_group_IT_number 12
_symmetry_cell_setting 'monoclinic'
loop_
_space_group_symop_operation_xyz
x,y,z
-x,y,-z
-x,-y,-z
x,-y,z
1/2+x,1/2+y,z
1/2-x,1/2+y,-z
1/2-x,1/2-y,-z
1/2+x,1/2-y,z
loop_
_atom_site_type_symbol
_atom_site_label
_atom_site_fract_x
_atom_site_fract_y
_atom_site_fract_z
Si Si1 0.703333 0.798666 0.744596
Si Si2 0.788933 0.073072 0.649016
Si Si3 0.086666 0.736887 0.641419
Si Si4 0.419214 0.232212 0.904613
Si Si5 0.825566 0.699748 0.733868
Si Si6 0.434117 0.613991 0.314534
Si Si7 0.758197 0.925677 0.039863
Si Si8 0.911879 0.118770 0.987275
O O1 0.744516 0.863527 0.645475
O O2 0.657591 0.765426 0.666624
O O3 0.760293 0.748880 0.757174
O O4 0.634424 0.812370 0.935179
O O5 0.872877 0.079993 0.488838
O O6 0.765282 0.000000 0.636514
O O7 0.774813 0.079452 0.843295
O O8 0.116956 0.695536 0.469287
O O9 0.072079 0.811814 0.628869
O O10 0.005798 0.714404 0.793359
O O11 0.376089 0.232690 0.799702
O O12 0.414883 0.304168 0.972506
O O13 0.792893 0.632583 0.835601
O O14 0.521005 0.596369 0.199663
O O15 0.416511 0.606176 0.158806
O O16 0.734679 0.000000 0.095786
O O17 0.836716 0.911847 0.022294
#
# Coordination Sequence:
#
# PCOD9225298 Si02
#       8
#     8   8   8   8   8   8   8   8
#     4  12  21  38  65  91 122 158 204 254 302 354
#     4  11  25  41  59  86 121 162 202 247 302 358
#     4  11  23  36  61  96 127 154 196 256 310 353
#     4  11  21  38  62  91 127 157 197 250 308 361
#     4  12  22  38  63  94 121 159 208 250 301 355
#     4  10  21  38  58  90 127 156 194 245 300 366
#     4  11  24  41  59  84 120 162 202 250 303 358
#     4  10  21  37  60  90 123 160 196 239 303 363
#
# _framework density 9.3097549999999991
#
# number of rings (size 3 to 8) (size 9 to 14) (size 15 to 20)
#    0.000    1.000    5.000    2.250    1.750    1.500 
#    0.000    2.500    0.000    4.500    0.000    0.000 
#    0.000    0.000    0.000    0.000    0.000    0.000 
#
# Total GULP energy -178295.980616 kJ/mol
# GULP energy per Si atom -5571.749394 kJ/mol
# Density = 0.928857 g / cm^3
# Si number density = 9.309755 Si / 1000 Ang^3
#
#
#
# Elastic Constant Matrix: (Units=GPa)
#
#
# Indices 1 2 3 4 5 6 
#
# 1 56.8250 8.8486 0.4172 0.0000 -12.2188 0.0000
# 2 8.8486 89.1549 23.9299 0.0000 -15.9270 0.0000
# 3 0.4172 23.9299 96.4945 0.0000 -24.0271 0.0000
# 4 0.0000 0.0000 0.0000 24.6852 0.0000 -6.2895
# 5 -12.2188 -15.9270 -24.0271 0.0000 35.7010 0.0000
# 6 0.0000 0.0000 0.0000 -6.2895 0.0000 22.0456
#
#
#
# Elastic Compliance Matrix: (Units=1/GPa)
#
#
# Indices 1 2 3 4 5 6 
#
# 1 0.019376 -0.001136 0.002070 0.000000 0.007518 0.000000
# 2 -0.001136 0.012586 -0.002180 0.000000 0.003759 0.000000
# 3 0.002070 -0.002180 0.013009 0.000000 0.008491 0.000000
# 4 0.000000 0.000000 0.000000 0.043686 0.000000 0.012463
# 5 0.007518 0.003759 0.008491 0.000000 0.037975 0.000000
# 6 0.000000 0.000000 0.000000 0.012463 0.000000 0.048916
#
#
# Mechanical properties :
#
#
# Convention : Reuss Voigt Hill
#
# Bulk Modulus (GPa) = 23.54109 34.31842 28.92975
# Shear Modulus (GPa) = 26.01458 30.43826 28.22642
#
# Velocity S-wave (km/s) = 3.74193 4.04759 3.89776
# Velocity P-wave (km/s) = 5.59822 6.34944 5.98563
#
# Compressibility (1/GPa) = 0.04247891
#
# Stress axis : x y z
#
# Youngs Moduli (GPa) = 51.61008 79.45434 76.86801
#
# Poissons Ratio (x) = 0.09023 -0.15910
# Poissons Ratio (y) = 0.05861 0.16760
# Poissons Ratio (z) = -0.10682 0.17324
#
# Static dielectric constant tensor:
#      x y z
#    x 1.685050 0.000000 0.044530 
#    y 0.000000 1.644660 0.000000 
#    z 0.044530 0.000000 1.735100 
# 
# From -- ./inp_files/89589.got.cif
#   From: 2010.05.17/outbox.ucp.g08.bks.cvg/sg12_45_cif.got.tgz:89589.got - 2010.06.11 11:47:21.
