data_PCOD9225421
_publ_section_title
;
Structure prediction by ZEFSAII (Michael W. Deem and Ramdas Pophale) SiO2 
 PCOD9225421
Probable space group: C 2/M
;
_chemical_formula_sum "Si O2"
_cell_formula_units_Z 28
_cell_length_a 15.000000
_cell_length_b 24.000000
_cell_length_c 9.000000
_cell_angle_alpha 90.000000
_cell_angle_beta 60.000000
_cell_angle_gamma 90.000000
_cell_volume 2805.922308
_symmetry_space_group_name_H-M "C 2/M"
_symmetry_group_IT_number 12
_symmetry_cell_setting 'monoclinic'
loop_
_space_group_symop_operation_xyz
x,y,z
-x,y,-z
-x,-y,-z
x,-y,z
1/2+x,1/2+y,z
1/2-x,1/2+y,-z
1/2-x,1/2-y,-z
1/2+x,1/2-y,z
loop_
_atom_site_type_symbol
_atom_site_label
_atom_site_fract_x
_atom_site_fract_y
_atom_site_fract_z
Si Si1 0.222942 0.162780 0.710980
Si Si2 0.940604 0.500000 0.241806
Si Si3 0.934206 0.609365 0.424981
Si Si4 0.997358 0.284064 0.770794
Si Si5 0.320508 0.785396 0.146811
Si Si6 0.699837 0.381843 0.067019
Si Si7 0.321605 0.000000 0.025529
Si Si8 0.478491 0.659641 0.342823
O O1 0.327973 0.139959 0.553594
O O2 0.231057 0.229345 0.743515
O O3 0.126123 0.150906 0.675238
O O4 0.214767 0.134188 0.880723
O O5 0.910259 0.559364 0.334975
O O6 0.874983 0.500000 0.143616
O O7 0.067011 0.500000 0.151191
O O8 0.011920 0.658621 0.308885
O O9 0.000000 0.581477 0.500000
O O10 0.093333 0.298888 0.800102
O O11 0.017396 0.227241 0.667163
O O12 0.893912 0.270123 0.947221
O O13 0.251202 0.836115 0.140366
O O14 0.753156 0.443102 0.053694
O O15 0.576278 0.372581 0.189224
O O16 0.500000 0.645384 0.500000
#
# Coordination Sequence:
#
# PCOD9225421 Si02
#       8
#     8   4   8   8   8   8   4   8
#     4  11  25  43  67 104 141 182 226 287 356 417
#     4  11  25  48  67 102 144 179 232 293 333 406
#     4  12  25  39  69 102 142 181 233 280 351 411
#     4  10  21  39  62 100 139 176 228 280 349 411
#     4  10  21  38  67  97 137 182 222 287 348 410
#     4  12  24  44  71  98 137 184 239 282 343 412
#     4  11  26  46  77  99 132 188 239 279 346 407
#     4  11  26  41  67  97 142 179 230 291 347 406
#
# _framework density 9.9788940000000004
#
# number of rings (size 3 to 8) (size 9 to 14) (size 15 to 20)
#    0.000    1.000    1.429    4.929    8.000    4.000 
#    0.000    2.500    0.000    0.000    0.000    0.000 
#    0.000    0.000    0.000    0.000    0.000    0.000 
#
# Total GULP energy -155984.143343 kJ/mol
# GULP energy per Si atom -5570.862262 kJ/mol
# Density = 0.995618 g / cm^3
# Si number density = 9.978894 Si / 1000 Ang^3
#
#
#
# Elastic Constant Matrix: (Units=GPa)
#
#
# Indices 1 2 3 4 5 6 
#
# 1 131.4404 47.9148 23.0228 0.0000 -0.7129 0.0000
# 2 47.9148 132.6092 41.8904 0.0000 -6.4692 0.0000
# 3 23.0228 41.8904 84.4036 0.0000 -4.6849 0.0000
# 4 0.0000 0.0000 0.0000 -39.3979 0.0000 39.7370
# 5 -0.7129 -6.4692 -4.6849 0.0000 32.2319 0.0000
# 6 0.0000 0.0000 0.0000 39.7370 0.0000 25.0627
#
#
#
# Elastic Compliance Matrix: (Units=1/GPa)
#
#
# Indices 1 2 3 4 5 6 
#
# 1 0.008839 -0.002904 -0.000999 0.000000 -0.000533 0.000000
# 2 -0.002904 0.009940 -0.004067 0.000000 0.001340 0.000000
# 3 -0.000999 -0.004067 0.014207 0.000000 0.001227 0.000000
# 4 0.000000 0.000000 0.000000 -0.009766 0.000000 0.015483
# 5 -0.000533 0.001340 0.001227 0.000000 0.031461 0.000000
# 6 0.000000 0.000000 0.000000 0.015483 0.000000 0.015351
#
#
# Mechanical properties :
#
#
# Convention : Reuss Voigt Hill
#
# Bulk Modulus (GPa) = 58.66610 63.78991 61.22801
# Shear Modulus (GPa) = 54.55269 19.28771 36.92020
#
# Velocity S-wave (km/s) = 5.23387 3.11211 4.30573
# Velocity P-wave (km/s) = 8.12302 6.70414 7.44744
#
# Compressibility (1/GPa) = 0.01704562
#
# Stress axis : x y z
#
# Youngs Moduli (GPa) = 113.13814 100.60030 70.38793
#
# Poissons Ratio (x) = 0.29214 0.07033
# Poissons Ratio (y) = 0.32855 0.28627
# Poissons Ratio (z) = 0.11305 0.40914
#
# Static dielectric constant tensor:
#      x y z
#    x 1.717030 0.000000 0.016990 
#    y 0.000000 1.686990 0.000000 
#    z 0.016990 0.000000 1.831080 
# 
# From -- ./inp_files/65804.got.cif
#   From: 2010.05.17/outbox.ucp.g08.bks.cvg/sg12_33_cif.got.tgz:65804.got - 2010.06.11 11:47:21.
