data_PCOD9225423
_publ_section_title
;
Structure prediction by ZEFSAII (Michael W. Deem and Ramdas Pophale) SiO2 
 PCOD9225423
Probable space group: C 2/M
;
_chemical_formula_sum "Si O2"
_cell_formula_units_Z 28
_cell_length_a 24.000000
_cell_length_b 9.000000
_cell_length_c 15.000000
_cell_angle_alpha 90.000000
_cell_angle_beta 110.000000
_cell_angle_gamma 90.000000
_cell_volume 3044.604091
_symmetry_space_group_name_H-M "C 2/M"
_symmetry_group_IT_number 12
_symmetry_cell_setting 'monoclinic'
loop_
_space_group_symop_operation_xyz
x,y,z
-x,y,-z
-x,-y,-z
x,-y,z
1/2+x,1/2+y,z
1/2-x,1/2+y,-z
1/2-x,1/2-y,-z
1/2+x,1/2-y,z
loop_
_atom_site_type_symbol
_atom_site_label
_atom_site_fract_x
_atom_site_fract_y
_atom_site_fract_z
Si Si1 0.496660 0.177292 0.748782
Si Si2 0.170681 0.176383 0.065685
Si Si3 0.559145 0.173620 0.091144
Si Si4 0.799895 0.180659 0.456685
Si Si5 0.775199 0.177910 0.237983
Si Si6 0.054784 0.179271 0.458694
Si Si7 0.624941 0.321274 0.847117
O O1 0.457019 0.202641 0.815167
O O2 0.468548 0.256131 0.647635
O O3 0.561918 0.241086 0.805691
O O4 0.500358 0.000000 0.736427
O O5 0.110249 0.222332 0.082010
O O6 0.223478 0.250715 0.150229
O O7 0.179378 0.000000 0.070824
O O8 0.160930 0.222790 0.956668
O O9 0.577288 0.000000 0.092106
O O10 0.500000 0.193237 0.000000
O O11 0.750000 0.250000 0.500000
O O12 0.778541 0.220626 0.344086
O O13 0.872672 0.219885 0.496718
O O14 0.797578 0.000000 0.465989
O O15 0.836285 0.211650 0.219279
O O16 0.767405 0.000000 0.231392
O O17 0.000000 0.221475 0.500000
O O18 0.054969 0.000000 0.460112
O O19 0.615617 0.500000 0.846568
#
# Coordination Sequence:
#
# PCOD9225423 Si02
#       7
#     8   8   8   8   8   8   8
#     4  11  23  37  61  92 121 156 199 248 300 351
#     4  11  23  36  58  91 121 153 198 249 294 346
#     4  10  21  39  58  81 119 163 198 237 295 361
#     4  10  23  42  64  89 118 158 204 253 305 362
#     4  10  22  41  63  84 116 161 200 238 296 365
#     4  10  22  43  68  91 120 160 206 254 310 372
#     4  10  21  39  61  88 122 159 198 241 294 358
#
# _framework density 9.1965979999999998
#
# number of rings (size 3 to 8) (size 9 to 14) (size 15 to 20)
#    0.000    1.714    1.429    2.143    2.000    6.286 
#    0.000    1.429    0.000    0.000    0.000    0.000 
#    0.000    0.000    0.000    0.000    0.000    0.000 
#
# Total GULP energy -156105.502980 kJ/mol
# GULP energy per Si atom -5575.196535 kJ/mol
# Density = 0.917567 g / cm^3
# Si number density = 9.196598 Si / 1000 Ang^3
#
#
#
# Elastic Constant Matrix: (Units=GPa)
#
#
# Indices 1 2 3 4 5 6 
#
# 1 102.3175 25.2096 50.3887 0.0000 -10.2256 0.0000
# 2 25.2096 19.3126 28.0456 0.0000 -4.8266 0.0000
# 3 50.3887 28.0456 142.4206 0.0000 -10.6601 0.0000
# 4 0.0000 0.0000 0.0000 32.5030 0.0000 0.7766
# 5 -10.2256 -4.8266 -10.6601 0.0000 38.3591 0.0000
# 6 0.0000 0.0000 0.0000 0.7766 0.0000 33.8257
#
#
#
# Elastic Compliance Matrix: (Units=1/GPa)
#
#
# Indices 1 2 3 4 5 6 
#
# 1 0.014875 -0.016218 -0.001966 0.000000 0.001378 0.000000
# 2 -0.016218 0.091255 -0.011945 0.000000 0.003840 0.000000
# 3 -0.001966 -0.011945 0.010128 0.000000 0.000788 0.000000
# 4 0.000000 0.000000 0.000000 0.030783 0.000000 -0.000707
# 5 0.001378 0.003840 0.000788 0.000000 0.027139 0.000000
# 6 0.000000 0.000000 0.000000 -0.000707 0.000000 0.029580
#
#
# Mechanical properties :
#
#
# Convention : Reuss Voigt Hill
#
# Bulk Modulus (GPa) = 17.85669 52.37093 35.11381
# Shear Modulus (GPa) = 17.68753 31.63135 24.65944
#
# Velocity S-wave (km/s) = 3.10439 4.15146 3.66551
# Velocity P-wave (km/s) = 4.75174 7.17735 6.08660
#
# Compressibility (1/GPa) = 0.05600142
#
# Stress axis : x y z
#
# Youngs Moduli (GPa) = 67.22525 10.95828 98.73413
#
# Poissons Ratio (x) = 0.17772 0.19413
# Poissons Ratio (y) = 1.09024 1.17936
# Poissons Ratio (z) = 0.13218 0.13089
#
# Static dielectric constant tensor:
#      x y z
#    x 1.649100 0.000000 -0.004710 
#    y 0.000000 1.621570 0.000000 
#    z -0.004710 0.000000 1.631520 
# 
# From -- ./inp_files/237855.got.cif
#   From: 2010.05.17/outbox.ucp.g08.bks.cvg/sg12_119_cif.got.tgz:237855.got - 2010.06.11 11:47:21.
