data_PCOD9225034
_publ_section_title
;
Structure prediction by ZEFSAII (Michael W. Deem and Ramdas Pophale) SiO2 
 PCOD9225034
Probable space group: C 2/M
;
_chemical_formula_sum "Si O2"
_cell_formula_units_Z 20
_cell_length_a 24.000000
_cell_length_b 9.000000
_cell_length_c 18.000000
_cell_angle_alpha 90.000000
_cell_angle_beta 30.000000
_cell_angle_gamma 90.000000
_cell_volume 1944.000000
_symmetry_space_group_name_H-M "C 2/M"
_symmetry_group_IT_number 12
_symmetry_cell_setting 'monoclinic'
loop_
_space_group_symop_operation_xyz
x,y,z
-x,y,-z
-x,-y,-z
x,-y,z
1/2+x,1/2+y,z
1/2-x,1/2+y,-z
1/2-x,1/2-y,-z
1/2+x,1/2-y,z
loop_
_atom_site_type_symbol
_atom_site_label
_atom_site_fract_x
_atom_site_fract_y
_atom_site_fract_z
Si Si1 0.139187 0.328134 0.932434
Si Si2 0.296229 0.820928 0.870621
Si Si3 0.545417 0.820000 0.602845
Si Si4 0.785048 0.823210 0.296791
Si Si5 0.904141 0.672992 0.287811
O O1 0.173491 0.500000 0.889747
O O2 0.222772 0.235959 0.887605
O O3 0.140463 0.258950 0.849472
O O4 0.018671 0.322350 0.109322
O O5 0.425144 0.772769 0.713433
O O6 0.291430 0.000000 0.881379
O O7 0.250000 0.750000 0.000000
O O8 0.656491 0.778803 0.430572
O O9 0.565251 0.773410 0.665196
O O10 0.542900 0.000000 0.607006
O O11 0.818017 0.771315 0.341154
O O12 0.796476 0.000000 0.277435
O O13 0.867302 0.500000 0.334122
#
# Coordination Sequence:
#
# PCOD9225034 Si02
#       5
#     8   8   8   8   8
#     4  11  23  40  61  86 119 158 195 239 293 345
#     4  11  21  39  64  89 116 151 196 241 289 348
#     4   9  20  39  61  85 118 157 191 234 297 351
#     4  11  23  38  58  88 121 153 195 243 290 345
#     4  10  20  39  62  83 115 159 198 236 290 349
#
# _framework density 10.288066000000001
#
# number of rings (size 3 to 8) (size 9 to 14) (size 15 to 20)
#    0.000    1.600    2.000    3.000    0.000    4.800 
#    0.000    9.000    0.000    0.000    0.000    0.000 
#    0.000    0.000    0.000    0.000    0.000    0.000 
#
# Total GULP energy -111744.566236 kJ/mol
# GULP energy per Si atom -5587.228312 kJ/mol
# Density = 1.026465 g / cm^3
# Si number density = 10.288066 Si / 1000 Ang^3
#
#
#
# Elastic Constant Matrix: (Units=GPa)
#
#
# Indices 1 2 3 4 5 6 
#
# 1 62.8773 13.9460 4.3887 0.0001 -12.9761 -0.0001
# 2 13.9460 71.6289 24.4690 0.0005 -8.3806 -0.0003
# 3 4.3887 24.4690 60.7528 0.0004 -10.7681 -0.0002
# 4 0.0001 0.0005 0.0004 21.1015 -0.0001 0.2483
# 5 -12.9761 -8.3806 -10.7681 -0.0001 36.3445 0.0001
# 6 -0.0001 -0.0003 -0.0002 0.2483 0.0001 35.3080
#
#
#
# Elastic Compliance Matrix: (Units=1/GPa)
#
#
# Indices 1 2 3 4 5 6 
#
# 1 0.017745 -0.003111 0.001020 0.000000 0.005920 0.000000
# 2 -0.003111 0.016859 -0.006410 0.000000 0.000878 0.000000
# 3 0.001020 -0.006410 0.019811 0.000000 0.004756 0.000000
# 4 0.000000 0.000000 0.000000 0.047394 0.000000 -0.000333
# 5 0.005920 0.000878 0.004756 0.000000 0.031240 0.000000
# 6 0.000000 0.000000 0.000000 -0.000333 0.000000 0.028325
#
#
# Mechanical properties :
#
#
# Convention : Reuss Voigt Hill
#
# Bulk Modulus (GPa) = 26.72787 31.20736 28.96761
# Shear Modulus (GPa) = 26.19938 28.71449 27.45694
#
# Velocity S-wave (km/s) = 3.57219 3.73972 3.65692
# Velocity P-wave (km/s) = 5.48015 5.81782 5.65151
#
# Compressibility (1/GPa) = 0.03741413
#
# Stress axis : x y z
#
# Youngs Moduli (GPa) = 56.35539 59.31605 50.47686
#
# Poissons Ratio (x) = 0.18452 -0.05151
# Poissons Ratio (y) = 0.17531 0.32355
# Poissons Ratio (z) = -0.05751 0.38021
#
# Static dielectric constant tensor:
#      x y z
#    x 1.717610 0.000000 -0.011780 
#    y 0.000000 1.692070 0.000000 
#    z -0.011780 0.000000 1.763360 
# 
# From -- ./inp_files/162363.got.cif
#   From: 2010.05.17/outbox.ucp.g08.bks.cvg/sg12_82_cif.got.tgz:162363.got - 2010.06.11 11:47:21.
