data_PCOD9225685
_publ_section_title
;
Structure prediction by ZEFSAII (Michael W. Deem and Ramdas Pophale) SiO2 
 PCOD9225685
Probable space group: C 2/M
;
_chemical_formula_sum "Si O2"
_cell_formula_units_Z 28
_cell_length_a 24.000000
_cell_length_b 9.000000
_cell_length_c 15.000000
_cell_angle_alpha 90.000000
_cell_angle_beta 60.000000
_cell_angle_gamma 90.000000
_cell_volume 2805.922308
_symmetry_space_group_name_H-M "C 2/M"
_symmetry_group_IT_number 12
_symmetry_cell_setting 'monoclinic'
loop_
_space_group_symop_operation_xyz
x,y,z
-x,y,-z
-x,-y,-z
x,-y,z
1/2+x,1/2+y,z
1/2-x,1/2+y,-z
1/2-x,1/2-y,-z
1/2+x,1/2-y,z
loop_
_atom_site_type_symbol
_atom_site_label
_atom_site_fract_x
_atom_site_fract_y
_atom_site_fract_z
Si Si1 0.573174 0.323931 0.698411
Si Si2 0.745523 0.171849 0.783384
Si Si3 0.520614 0.172210 0.086058
Si Si4 0.501893 0.824721 0.392826
Si Si5 0.789551 0.678202 0.387815
Si Si6 0.843699 0.175498 0.001719
Si Si7 0.874031 0.169008 0.777544
O O1 0.582313 0.500000 0.695613
O O2 0.521789 0.270951 0.813513
O O3 0.548523 0.273372 0.621370
O O4 0.638135 0.235874 0.664674
O O5 0.734407 0.222627 0.691567
O O6 0.820725 0.173418 0.744283
O O7 0.722742 0.000000 0.809237
O O8 0.709661 0.266161 0.887637
O O9 0.592440 0.232145 0.030456
O O10 0.516225 0.000000 0.117901
O O11 0.500000 0.182438 0.000000
O O12 0.500000 0.793092 0.500000
O O13 0.569800 0.781191 0.292972
O O14 0.489373 0.000000 0.390668
O O15 0.785986 0.500000 0.397353
O O16 0.750000 0.750000 0.500000
O O17 0.836683 0.196898 0.900603
O O18 0.852925 0.000000 0.009013
O O19 0.901018 0.000000 0.762734
#
# Coordination Sequence:
#
# PCOD9225685 Si02
#       7
#     8   8   8   8   8   8   8
#     4  12  25  43  67  95 128 169 213 265 320 378
#     4  10  23  42  64  91 128 172 214 258 316 381
#     4  11  23  39  62  91 127 170 212 262 319 377
#     4  11  25  43  66  98 129 166 213 265 321 383
#     4  11  25  45  67  94 127 169 217 267 321 378
#     4  11  22  37  61  95 129 165 210 259 315 379
#     4  10  22  41  64  95 130 168 210 257 317 383
#
# _framework density 9.9788940000000004
#
# number of rings (size 3 to 8) (size 9 to 14) (size 15 to 20)
#    0.000    1.143    1.429    4.286    2.000    8.000 
#    0.000    0.000    0.000    0.000    0.000    0.000 
#    0.000    0.000    0.000    0.000    0.000    0.000 
#
# Total GULP energy -156465.557359 kJ/mol
# GULP energy per Si atom -5588.055620 kJ/mol
# Density = 0.995618 g / cm^3
# Si number density = 9.978894 Si / 1000 Ang^3
#
#
#
# Elastic Constant Matrix: (Units=GPa)
#
#
# Indices 1 2 3 4 5 6 
#
# 1 76.7822 12.2708 9.5251 0.0000 22.1646 0.0000
# 2 12.2708 49.7690 28.8631 0.0000 14.8760 0.0000
# 3 9.5251 28.8631 47.3269 0.0000 24.7740 0.0000
# 4 0.0000 0.0000 0.0000 45.4771 0.0000 -6.5616
# 5 22.1646 14.8760 24.7740 0.0000 26.3643 0.0000
# 6 0.0000 0.0000 0.0000 -6.5616 0.0000 21.5908
#
#
#
# Elastic Compliance Matrix: (Units=1/GPa)
#
#
# Indices 1 2 3 4 5 6 
#
# 1 0.019450 -0.004088 0.011672 0.000000 -0.025013 0.000000
# 2 -0.004088 0.031952 -0.021698 0.000000 0.005798 0.000000
# 3 0.011672 -0.021698 0.060501 0.000000 -0.054421 0.000000
# 4 0.000000 0.000000 0.000000 0.022998 0.000000 0.006989
# 5 -0.025013 0.005798 -0.054421 0.000000 0.106826 0.000000
# 6 0.000000 0.000000 0.000000 0.006989 0.000000 0.048440
#
#
# Mechanical properties :
#
#
# Convention : Reuss Voigt Hill
#
# Bulk Modulus (GPa) = 11.95125 30.57735 21.26430
# Shear Modulus (GPa) = 14.43893 26.90103 20.66998
#
# Velocity S-wave (km/s) = 2.69266 3.67535 3.22170
# Velocity P-wave (km/s) = 3.95835 5.77627 4.95145
#
# Compressibility (1/GPa) = 0.08367324
#
# Stress axis : x y z
#
# Youngs Moduli (GPa) = 51.41493 31.29733 16.52856
#
# Poissons Ratio (x) = 0.12795 -0.19292
# Poissons Ratio (y) = 0.21020 0.35864
# Poissons Ratio (z) = -0.60012 0.67910
#
# Static dielectric constant tensor:
#      x y z
#    x 1.625000 0.000000 -0.202700 
#    y 0.000000 1.681010 0.000000 
#    z -0.202700 0.000000 1.505100 
# 
# From -- ./inp_files/238418.got.cif
#   From: 2010.05.17/outbox.ucp.g08.bks.cvg/sg12_120_cif.got.tgz:238418.got - 2010.06.11 11:47:21.
