data_PCOD9225917
_publ_section_title
;
Structure prediction by ZEFSAII (Michael W. Deem and Ramdas Pophale) SiO2 
 PCOD9225917
Probable space group: C 2/M
;
_chemical_formula_sum "Si O2"
_cell_formula_units_Z 24
_cell_length_a 18.000000
_cell_length_b 18.000000
_cell_length_c 21.000000
_cell_angle_alpha 90.000000
_cell_angle_beta 160.000000
_cell_angle_gamma 90.000000
_cell_volume 2327.105055
_symmetry_space_group_name_H-M "C 2/M"
_symmetry_group_IT_number 12
_symmetry_cell_setting 'monoclinic'
loop_
_space_group_symop_operation_xyz
x,y,z
-x,y,-z
-x,-y,-z
x,-y,z
1/2+x,1/2+y,z
1/2-x,1/2+y,-z
1/2-x,1/2-y,-z
1/2+x,1/2-y,z
loop_
_atom_site_type_symbol
_atom_site_label
_atom_site_fract_x
_atom_site_fract_y
_atom_site_fract_z
Si Si1 0.019260 0.679144 0.089442
Si Si2 0.555591 0.585607 0.201053
Si Si3 0.030361 0.811771 0.746017
Si Si4 0.385264 0.085900 0.235528
Si Si5 0.653745 0.163061 0.344883
Si Si6 0.190487 0.677530 0.694229
O O1 0.137838 0.651640 0.254266
O O2 0.126397 0.758769 0.159312
O O3 0.000000 0.643611 0.000000
O O4 0.775376 0.683089 0.919380
O O5 0.591388 0.500000 0.245042
O O6 0.533130 0.629158 0.249799
O O7 0.735129 0.614575 0.296170
O O8 0.338153 0.593609 0.983708
O O9 0.886254 0.818285 0.565210
O O10 0.988950 0.734770 0.749863
O O11 0.559777 0.102014 0.319596
O O12 0.372472 0.141582 0.287313
O O13 0.405338 0.000000 0.273937
O O14 0.000000 0.715417 0.500000
#
# Coordination Sequence:
#
# PCOD9225917 Si02
#       6
#     8   8   8   8   8   8
#     4  12  25  40  64  91 131 168 215 276 323 376
#     4  11  22  40  65  93 132 179 218 262 326 391
#     4  11  23  41  64  93 129 171 220 271 322 381
#     4  11  24  43  66  96 135 176 215 264 326 396
#     4  11  23  40  66  94 125 173 221 265 323 387
#     4  12  25  38  59  98 139 175 216 261 323 396
#
# _framework density 10.313243
#
# number of rings (size 3 to 8) (size 9 to 14) (size 15 to 20)
#    0.000    0.667    3.333    5.500    4.667    4.667 
#    0.000    0.000    0.000    2.000    0.000    2.333 
#    0.000    0.000    0.000    0.000    0.000    0.000 
#
# Total GULP energy -133744.288378 kJ/mol
# GULP energy per Si atom -5572.678682 kJ/mol
# Density = 1.028977 g / cm^3
# Si number density = 10.313243 Si / 1000 Ang^3
#
#
#
# Elastic Constant Matrix: (Units=GPa)
#
#
# Indices 1 2 3 4 5 6 
#
# 1 158.5795 27.7216 33.4995 0.0048 -36.3338 -0.0083
# 2 27.7216 48.7893 -3.3955 -0.0219 0.7180 -0.0166
# 3 33.4995 -3.3955 85.3080 -0.1597 -19.4746 -0.0258
# 4 0.0048 -0.0219 -0.1597 8.6025 -0.0219 -0.3828
# 5 -36.3338 0.7180 -19.4746 -0.0219 41.9118 -0.0078
# 6 -0.0083 -0.0166 -0.0258 -0.3828 -0.0078 32.4531
#
#
#
# Elastic Compliance Matrix: (Units=1/GPa)
#
#
# Indices 1 2 3 4 5 6 
#
# 1 0.009420 -0.005617 -0.002278 -0.000044 0.007204 -0.000001
# 2 -0.005617 0.023902 0.002184 0.000094 -0.004264 0.000013
# 3 -0.002278 0.002184 0.013698 0.000273 0.004353 0.000016
# 4 -0.000044 0.000094 0.000273 0.116311 0.000149 0.001372
# 5 0.007204 -0.004264 0.004353 0.000149 0.032200 0.000013
# 6 -0.000001 0.000013 0.000016 0.001372 0.000013 0.030830
#
#
# Mechanical properties :
#
#
# Convention : Reuss Voigt Hill
#
# Bulk Modulus (GPa) = 28.09158 45.36979 36.73069
# Shear Modulus (GPa) = 20.02809 32.25024 26.13917
#
# Velocity S-wave (km/s) = 3.11945 3.95845 3.56372
# Velocity P-wave (km/s) = 5.15978 6.55256 5.89743
#
# Compressibility (1/GPa) = 0.03559785
#
# Stress axis : x y z
#
# Youngs Moduli (GPa) = 106.16176 41.83675 73.00389
#
# Poissons Ratio (x) = 0.23498 0.16631
# Poissons Ratio (y) = 0.59628 -0.15943
# Poissons Ratio (z) = 0.24185 -0.09136
#
# Static dielectric constant tensor:
#      x y z
#    x 1.728170 0.000000 0.022710 
#    y 0.000000 1.756950 -0.000030 
#    z 0.022710 -0.000030 1.936810 
# 
# From -- ./inp_files/285350.got.cif
#   From: 2010.05.17/outbox.ucp.g08.bks.cvg/sg12_143_cif.got.tgz:285350.got - 2010.06.11 11:47:21.
