data_PCOD9225865
_publ_section_title
;
Structure prediction by ZEFSAII (Michael W. Deem and Ramdas Pophale) SiO2 
 PCOD9225865
Probable space group: C 2/M
;
_chemical_formula_sum "Si O2"
_cell_formula_units_Z 24
_cell_length_a 18.000000
_cell_length_b 12.000000
_cell_length_c 12.000000
_cell_angle_alpha 90.000000
_cell_angle_beta 110.000000
_cell_angle_gamma 90.000000
_cell_volume 2435.683273
_symmetry_space_group_name_H-M "C 2/M"
_symmetry_group_IT_number 12
_symmetry_cell_setting 'monoclinic'
loop_
_space_group_symop_operation_xyz
x,y,z
-x,y,-z
-x,-y,-z
x,-y,z
1/2+x,1/2+y,z
1/2-x,1/2+y,-z
1/2-x,1/2-y,-z
1/2+x,1/2-y,z
loop_
_atom_site_type_symbol
_atom_site_label
_atom_site_fract_x
_atom_site_fract_y
_atom_site_fract_z
Si Si1 0.415691 0.865240 0.003361
Si Si2 0.433688 0.251664 0.639730
Si Si3 0.411593 0.868719 0.258641
Si Si4 0.169337 0.368852 0.256081
Si Si5 0.559966 0.500000 0.361539
Si Si6 0.823335 0.234616 0.367176
Si Si7 0.382585 0.500000 0.363020
O O1 0.347414 0.836298 0.880134
O O2 0.419537 0.000000 0.001642
O O3 0.500000 0.823176 0.000000
O O4 0.402362 0.835966 0.124640
O O5 0.521748 0.212349 0.654733
O O6 0.409551 0.158469 0.716558
O O7 0.429713 0.377760 0.686249
O O8 0.378067 0.250037 0.502937
O O9 0.335232 0.837805 0.291545
O O10 0.430353 0.000000 0.276577
O O11 0.187699 0.500000 0.274491
O O12 0.232813 0.289817 0.347424
O O13 0.470688 0.500000 0.361694
O O14 0.614138 0.500000 0.500303
O O15 0.844203 0.118023 0.314103
#
# Coordination Sequence:
#
# PCOD9225865 Si02
#       7
#     8   8   8   8   4   8   4
#     4   9  18  36  60  83 107 146 195 237 276 327
#     4  11  21  36  58  85 116 152 190 231 281 338
#     4  11  22  37  60  87 115 148 192 239 280 329
#     4  11  22  38  61  84 112 151 195 236 280 338
#     4   9  18  32  56  78 109 151 190 223 267 335
#     4  11  22  36  55  86 120 148 182 232 290 343
#     4   9  16  34  54  77 109 146 189 223 265 343
#
# _framework density 9.8534980000000001
#
# number of rings (size 3 to 8) (size 9 to 14) (size 15 to 20)
#    0.000    1.667    4.167    1.500    0.000    2.667 
#    1.500    0.000    0.000    3.000    0.000    0.000 
#    0.000    0.000    0.000    0.000    0.000    0.000 
#
# Total GULP energy -133647.022969 kJ/mol
# GULP energy per Si atom -5568.625957 kJ/mol
# Density = 0.983107 g / cm^3
# Si number density = 9.853498 Si / 1000 Ang^3
#
#
#
# Elastic Constant Matrix: (Units=GPa)
#
#
# Indices 1 2 3 4 5 6 
#
# 1 30.8970 12.2614 9.7083 0.0000 -3.9320 0.0000
# 2 12.2614 77.0650 27.9407 0.0000 -2.6185 0.0000
# 3 9.7083 27.9407 77.8510 0.0000 -3.9663 0.0000
# 4 0.0000 0.0000 0.0000 21.0195 0.0000 0.6508
# 5 -3.9320 -2.6185 -3.9663 0.0000 17.2046 0.0000
# 6 0.0000 0.0000 0.0000 0.6508 0.0000 35.3092
#
#
#
# Elastic Compliance Matrix: (Units=1/GPa)
#
#
# Indices 1 2 3 4 5 6 
#
# 1 0.035838 -0.004569 -0.002477 0.000000 0.006924 0.000000
# 2 -0.004569 0.015518 -0.004991 0.000000 0.000167 0.000000
# 3 -0.002477 -0.004991 0.015055 0.000000 0.002145 0.000000
# 4 0.000000 0.000000 0.000000 0.047602 0.000000 -0.000877
# 5 0.006924 0.000167 0.002145 0.000000 0.060226 0.000000
# 6 0.000000 0.000000 0.000000 -0.000877 0.000000 0.028337
#
#
# Mechanical properties :
#
#
# Convention : Reuss Voigt Hill
#
# Bulk Modulus (GPa) = 23.61971 31.73709 27.67840
# Shear Modulus (GPa) = 20.76734 23.76683 22.26709
#
# Velocity S-wave (km/s) = 3.24976 3.47653 3.36506
# Velocity P-wave (km/s) = 5.10810 5.67930 5.40126
#
# Compressibility (1/GPa) = 0.04233752
#
# Stress axis : x y z
#
# Youngs Moduli (GPa) = 27.90327 64.44003 66.42520
#
# Poissons Ratio (x) = 0.29442 0.16451
# Poissons Ratio (y) = 0.12749 0.33155
# Poissons Ratio (z) = 0.06910 0.32164
#
# Static dielectric constant tensor:
#      x y z
#    x 1.746350 0.000000 0.035410 
#    y 0.000000 1.684180 0.000000 
#    z 0.035410 0.000000 1.689320 
# 
# From -- ./inp_files/154334.got.cif
#   From: 2010.05.17/outbox.ucp.g08.bks.cvg/sg12_78_cif.got.tgz:154334.got - 2010.06.11 11:47:21.
