data_PCOD9225555
_publ_section_title
;
Structure prediction by ZEFSAII (Michael W. Deem and Ramdas Pophale) SiO2 
 PCOD9225555
Probable space group: C 2/M
;
_chemical_formula_sum "Si O2"
_cell_formula_units_Z 28
_cell_length_a 12.000000
_cell_length_b 30.000000
_cell_length_c 15.000000
_cell_angle_alpha 90.000000
_cell_angle_beta 30.000000
_cell_angle_gamma 90.000000
_cell_volume 2700.000000
_symmetry_space_group_name_H-M "C 2/M"
_symmetry_group_IT_number 12
_symmetry_cell_setting 'monoclinic'
loop_
_space_group_symop_operation_xyz
x,y,z
-x,y,-z
-x,-y,-z
x,-y,z
1/2+x,1/2+y,z
1/2-x,1/2+y,-z
1/2-x,1/2-y,-z
1/2+x,1/2-y,z
loop_
_atom_site_type_symbol
_atom_site_label
_atom_site_fract_x
_atom_site_fract_y
_atom_site_fract_z
Si Si1 0.068054 0.694624 0.096724
Si Si2 0.571932 0.172642 0.612970
Si Si3 0.655105 0.101356 0.811665
Si Si4 0.254938 0.048356 0.625112
Si Si5 0.930775 0.214276 0.245012
Si Si6 0.178063 0.090074 0.492554
Si Si7 0.839201 0.129444 0.192744
O O1 0.071009 0.688515 0.203105
O O2 0.947164 0.651404 0.137799
O O3 0.927523 0.740127 0.191158
O O4 0.318489 0.705985 0.888771
O O5 0.715584 0.208786 0.458611
O O6 0.754797 0.139765 0.525989
O O7 0.410932 0.141443 0.665487
O O8 0.678256 0.080017 0.696361
O O9 0.912165 0.094533 0.663564
O O10 0.500000 0.083748 0.000000
O O11 0.500000 0.047799 0.500000
O O12 0.246255 0.057863 0.525901
O O13 0.139189 0.089401 0.753326
O O14 0.152462 0.000000 0.713917
O O15 0.912293 0.173874 0.190281
O O16 0.000000 0.119521 0.000000
#
# Coordination Sequence:
#
# PCOD9225555 Si02
#       7
#     8   8   8   8   8   8   8
#     4  10  23  38  58  94 126 177 227 269 312 370
#     4  11  20  40  61  87 127 176 213 265 327 386
#     4  10  22  40  65  94 128 176 216 267 317 387
#     4  11  23  43  71  99 129 165 213 278 346 415
#     4  11  21  38  58  89 135 172 222 273 317 379
#     4  10  21  41  67  95 124 165 222 257 330 397
#     4  12  23  39  64  95 132 171 214 272 340 403
#
# _framework density 10.370369999999999
#
# number of rings (size 3 to 8) (size 9 to 14) (size 15 to 20)
#    0.000    1.286    4.286    1.714    0.000    0.857 
#   12.857    1.429    0.000    0.857    0.000    0.000 
#    0.000    0.000    0.000    0.000    0.000    0.000 
#
# Total GULP energy -156037.267817 kJ/mol
# GULP energy per Si atom -5572.759565 kJ/mol
# Density = 1.034677 g / cm^3
# Si number density = 10.370370 Si / 1000 Ang^3
#
#
#
# Elastic Constant Matrix: (Units=GPa)
#
#
# Indices 1 2 3 4 5 6 
#
# 1 91.8884 36.2693 43.2837 0.0000 16.2535 0.0000
# 2 36.2693 23.1781 8.6630 0.0000 22.5093 0.0000
# 3 43.2837 8.6630 124.6280 0.0001 18.1990 0.0000
# 4 0.0000 0.0000 0.0001 -53.1061 0.0000 22.2547
# 5 16.2535 22.5093 18.1990 0.0000 31.8245 0.0000
# 6 0.0000 0.0000 0.0000 22.2547 0.0000 -20.0647
#
#
#
# Elastic Compliance Matrix: (Units=1/GPa)
#
#
# Indices 1 2 3 4 5 6 
#
# 1 -0.045670 0.167355 0.019757 0.000000 -0.106342 0.000000
# 2 0.167355 -0.472457 -0.067210 0.000000 0.287129 0.000000
# 3 0.019757 -0.067210 0.000399 0.000000 0.037219 0.000000
# 4 0.000000 0.000000 0.000000 -0.035184 0.000000 -0.039024
# 5 -0.106342 0.287129 0.037219 0.000000 -0.138634 0.000000
# 6 0.000000 0.000000 0.000000 -0.039024 0.000000 -0.093122
#
#
# Mechanical properties :
#
#
# Convention : Reuss Voigt Hill
#
# Bulk Modulus (GPa) = -3.59809 46.23627 21.31909
# Shear Modulus (GPa) = -4.47582 1.82930 -1.32326
#
# Velocity S-wave (km/s) = -1.47060 0.94016 -0.79962
# Velocity P-wave (km/s) = 2.14991 4.84968 3.07386
#
# Compressibility (1/GPa) = -0.27792505
#
# Stress axis : x y z
#
# Youngs Moduli (GPa) = -21.89609 -2.11659 2505.81020
#
# Poissons Ratio (x) = 0.35422 -49.50785
# Poissons Ratio (y) = 3.66441 168.41600
# Poissons Ratio (z) = 0.43261 -0.14226
#
# Static dielectric constant tensor:
#      x y z
#    x 1.838380 0.000000 -0.011310 
#    y 0.000000 1.743890 0.000000 
#    z -0.011310 0.000000 1.836080 
# 
# From -- ./inp_files/209986.got.cif
#   From: 2010.05.17/outbox.ucp.g08.bks.cvg/sg12_105_cif.got.tgz:209986.got - 2010.06.11 11:47:21.
