data_PCOD9225076
_publ_section_title
;
Structure prediction by ZEFSAII (Michael W. Deem and Ramdas Pophale) SiO2 
 PCOD9225076
Probable space group: C 2/M
;
_chemical_formula_sum "Si O2"
_cell_formula_units_Z 26
_cell_length_a 9.000000
_cell_length_b 30.000000
_cell_length_c 15.000000
_cell_angle_alpha 90.000000
_cell_angle_beta 40.000000
_cell_angle_gamma 90.000000
_cell_volume 2603.289819
_symmetry_space_group_name_H-M "C 2/M"
_symmetry_group_IT_number 12
_symmetry_cell_setting 'monoclinic'
loop_
_space_group_symop_operation_xyz
x,y,z
-x,y,-z
-x,-y,-z
x,-y,z
1/2+x,1/2+y,z
1/2-x,1/2+y,-z
1/2-x,1/2-y,-z
1/2+x,1/2-y,z
loop_
_atom_site_type_symbol
_atom_site_label
_atom_site_fract_x
_atom_site_fract_y
_atom_site_fract_z
Si Si1 0.081190 0.155481 0.562939
Si Si2 0.064115 0.098818 0.205007
Si Si3 0.053147 0.311504 0.288865
Si Si4 0.275768 0.000000 0.859795
Si Si5 0.802458 0.271744 0.239796
Si Si6 0.224795 0.902262 0.833952
Si Si7 0.749852 0.000000 0.922685
Si Si8 0.500000 0.164421 0.000000
O O1 0.348399 0.169728 0.445177
O O2 0.000000 0.142209 0.500000
O O3 0.017285 0.116363 0.661162
O O4 0.935597 0.200336 0.648330
O O5 0.125570 0.046242 0.163536
O O6 0.863609 0.106527 0.225155
O O7 0.284216 0.130885 0.082927
O O8 0.929129 0.279057 0.275012
O O9 0.248746 0.279782 0.242017
O O10 0.139988 0.357302 0.202423
O O11 0.339521 0.951855 0.787703
O O12 0.000000 0.000000 0.000000
O O13 0.328553 0.000000 0.938495
O O14 0.951565 0.300995 0.102033
O O15 0.000000 0.904782 0.000000
O O16 0.500000 0.000000 0.000000
#
# Coordination Sequence:
#
# PCOD9225076 Si02
#       8
#     8   8   8   4   8   8   4   4
#     4   9  22  43  61  83 127 179 215 263 309 376
#     4  11  21  39  64  95 127 165 213 264 323 383
#     4  11  24  40  62  89 126 173 219 262 323 374
#     4  10  20  40  63  89 133 157 201 250 324 390
#     4  10  23  39  61  88 127 166 215 267 318 383
#     4  11  22  39  66  94 127 164 210 264 325 387
#     4  12  22  36  68 103 126 162 207 264 325 394
#     4  10  22  37  58  92 132 157 208 268 328 378
#
# _framework density 9.9873630000000002
#
# number of rings (size 3 to 8) (size 9 to 14) (size 15 to 20)
#    0.000    1.538    3.846    1.385    5.385    2.462 
#    0.000    1.154    0.000    1.846    0.000    0.000 
#    0.000    0.000    0.000    0.000    0.000    0.000 
#
# Total GULP energy -144886.762424 kJ/mol
# GULP energy per Si atom -5572.567786 kJ/mol
# Density = 0.996463 g / cm^3
# Si number density = 9.987363 Si / 1000 Ang^3
#
#
#
# Elastic Constant Matrix: (Units=GPa)
#
#
# Indices 1 2 3 4 5 6 
#
# 1 81.8014 30.7660 12.7561 0.0000 11.6985 0.0000
# 2 30.7660 154.5769 35.1337 0.0000 2.1829 0.0000
# 3 12.7561 35.1337 69.6330 0.0000 12.2729 0.0000
# 4 0.0000 0.0000 0.0000 11.6256 0.0000 8.2713
# 5 11.6985 2.1829 12.2729 0.0000 22.8161 0.0000
# 6 0.0000 0.0000 0.0000 8.2713 0.0000 17.8599
#
#
#
# Elastic Compliance Matrix: (Units=1/GPa)
#
#
# Indices 1 2 3 4 5 6 
#
# 1 0.014263 -0.002743 0.000015 0.000000 -0.007059 0.000000
# 2 -0.002743 0.007876 -0.003962 0.000000 0.002784 0.000000
# 3 0.000015 -0.003962 0.017998 0.000000 -0.009310 0.000000
# 4 0.000000 0.000000 0.000000 0.128288 0.000000 -0.059413
# 5 -0.007059 0.002784 -0.009310 0.000000 0.052190 0.000000
# 6 0.000000 0.000000 0.000000 -0.059413 0.000000 0.083507
#
#
# Mechanical properties :
#
#
# Convention : Reuss Voigt Hill
#
# Bulk Modulus (GPa) = 37.37155 51.48033 44.42594
# Shear Modulus (GPa) = 15.31761 25.61737 20.46749
#
# Velocity S-wave (km/s) = 2.77221 3.58507 3.20452
# Velocity P-wave (km/s) = 5.38488 6.55482 5.99844
#
# Compressibility (1/GPa) = 0.02675833
#
# Stress axis : x y z
#
# Youngs Moduli (GPa) = 70.10945 126.96104 55.56058
#
# Poissons Ratio (x) = 0.34821 -0.00084
# Poissons Ratio (y) = 0.19228 0.22015
# Poissons Ratio (z) = -0.00105 0.50306
#
# Static dielectric constant tensor:
#      x y z
#    x 1.741170 0.000000 0.001810 
#    y 0.000000 1.675750 0.000000 
#    z 0.001810 0.000000 1.759230 
# 
# From -- ./inp_files/201210.got.cif
#   From: 2010.05.17/outbox.ucp.g08.bks.cvg/sg12_101_cif.got.tgz:201210.got - 2010.06.11 11:47:21.
