data_PCOD9225949
_publ_section_title
;
Structure prediction by ZEFSAII (Michael W. Deem and Ramdas Pophale) SiO2 
 PCOD9225949
Probable space group: C 2/M
;
_chemical_formula_sum "Si O2"
_cell_formula_units_Z 32
_cell_length_a 9.000000
_cell_length_b 18.000000
_cell_length_c 30.000000
_cell_angle_alpha 90.000000
_cell_angle_beta 40.000000
_cell_angle_gamma 90.000000
_cell_volume 3123.947783
_symmetry_space_group_name_H-M "C 2/M"
_symmetry_group_IT_number 12
_symmetry_cell_setting 'monoclinic'
loop_
_space_group_symop_operation_xyz
x,y,z
-x,y,-z
-x,-y,-z
x,-y,z
1/2+x,1/2+y,z
1/2-x,1/2+y,-z
1/2-x,1/2-y,-z
1/2+x,1/2-y,z
loop_
_atom_site_type_symbol
_atom_site_label
_atom_site_fract_x
_atom_site_fract_y
_atom_site_fract_z
Si Si1 0.563507 0.170147 0.247420
Si Si2 0.459976 0.680392 0.628710
Si Si3 0.986734 0.237811 0.050217
Si Si4 0.876454 0.912494 0.482204
Si Si5 0.809522 0.591647 0.870909
Si Si6 0.253914 0.827726 0.181687
Si Si7 0.277776 0.587765 0.279646
Si Si8 0.898217 0.665366 0.593298
O O1 0.299001 0.180978 0.292818
O O2 0.668280 0.114878 0.186116
O O3 0.669718 0.253452 0.227457
O O4 0.613993 0.130464 0.282447
O O5 0.460954 0.609211 0.596037
O O6 0.680378 0.676607 0.610524
O O7 0.467231 0.755026 0.597703
O O8 0.890036 0.152722 0.069425
O O9 0.838352 0.285971 0.117968
O O10 0.250000 0.250000 0.000000
O O11 0.000000 0.275709 0.000000
O O12 0.639365 0.871103 0.523282
O O13 0.000000 0.887336 0.500000
O O14 0.835710 0.000000 0.495434
O O15 0.781952 0.500000 0.882888
O O16 0.040225 0.623781 0.843158
O O17 0.036681 0.879125 0.219634
O O18 0.275062 0.500000 0.272687
O O19 0.186461 0.609439 0.349129
#
# Coordination Sequence:
#
# PCOD9225949 Si02
#       8
#     8   8   8   8   8   8   8   8
#     4  11  23  42  67  98 132 179 222 273 331 403
#     4  12  25  42  70  94 129 175 230 274 331 406
#     4  11  23  44  69  98 128 177 221 267 321 396
#     4  11  25  45  67  94 132 174 219 281 347 402
#     4  11  24  42  67 100 137 174 222 279 332 388
#     4  11  23  42  70  95 132 177 225 269 327 400
#     4  12  25  41  66 100 138 172 218 281 339 392
#     4  12  25  43  66  98 129 174 225 279 334 404
#
# _framework density 10.243449
#
# number of rings (size 3 to 8) (size 9 to 14) (size 15 to 20)
#    0.000    0.625    2.500    6.375    1.750    3.750 
#    0.000    0.000    0.000    1.875    0.000    0.000 
#    0.000    0.000    0.000    0.000    0.000    0.000 
#
# Total GULP energy -178409.306435 kJ/mol
# GULP energy per Si atom -5575.290826 kJ/mol
# Density = 1.022013 g / cm^3
# Si number density = 10.243449 Si / 1000 Ang^3
#
#
#
# Elastic Constant Matrix: (Units=GPa)
#
#
# Indices 1 2 3 4 5 6 
#
# 1 119.9420 41.8071 24.9944 0.0123 -8.8863 0.0041
# 2 41.8071 118.3015 21.7005 0.0040 -3.8988 -0.0002
# 3 24.9944 21.7005 78.8974 -0.0211 -7.5648 -0.0001
# 4 0.0123 0.0040 -0.0211 189.6788 0.0011 39.5135
# 5 -8.8863 -3.8988 -7.5648 0.0011 34.2842 0.0008
# 6 0.0041 -0.0002 -0.0001 39.5135 0.0008 40.0090
#
#
#
# Elastic Compliance Matrix: (Units=1/GPa)
#
#
# Indices 1 2 3 4 5 6 
#
# 1 0.009989 -0.003078 -0.002149 -0.000001 0.001765 0.000000
# 2 -0.003078 0.009858 -0.001742 0.000000 -0.000061 0.000001
# 3 -0.002149 -0.001742 0.014060 0.000002 0.002347 -0.000002
# 4 -0.000001 0.000000 0.000002 0.006638 0.000000 -0.006555
# 5 0.001765 -0.000061 0.002347 0.000000 0.030136 -0.000001
# 6 0.000000 0.000001 -0.000002 -0.006555 -0.000001 0.031469
#
#
# Mechanical properties :
#
#
# Convention : Reuss Voigt Hill
#
# Bulk Modulus (GPa) = 50.07707 54.90502 52.49104
# Shear Modulus (GPa) = 40.73558 68.03698 54.38628
#
# Velocity S-wave (km/s) = 4.46395 5.76906 5.15795
# Velocity P-wave (km/s) = 7.14603 8.44005 7.81985
#
# Compressibility (1/GPa) = 0.01996922
#
# Stress axis : x y z
#
# Youngs Moduli (GPa) = 100.11404 101.43858 71.12557
#
# Poissons Ratio (x) = 0.31219 0.15282
# Poissons Ratio (y) = 0.30811 0.12393
# Poissons Ratio (z) = 0.21511 0.17674
#
# Static dielectric constant tensor:
#      x y z
#    x 1.682840 0.000000 0.071970 
#    y 0.000000 1.680920 0.000000 
#    z 0.071970 0.000000 1.742380 
# 
# From -- ./inp_files/372952.got.cif
#   From: 2010.05.17/outbox.ucp.g08.bks.cvg/sg12_187_cif.got.tgz:372952.got - 2010.06.11 11:47:21.
