data_PCOD9225698
_publ_section_title
;
Structure prediction by ZEFSAII (Michael W. Deem and Ramdas Pophale) SiO2 
 PCOD9225698
Probable space group: C 2/M
;
_chemical_formula_sum "Si O2"
_cell_formula_units_Z 24
_cell_length_a 15.000000
_cell_length_b 15.000000
_cell_length_c 12.000000
_cell_angle_alpha 90.000000
_cell_angle_beta 120.000000
_cell_angle_gamma 90.000000
_cell_volume 2338.268590
_symmetry_space_group_name_H-M "C 2/M"
_symmetry_group_IT_number 12
_symmetry_cell_setting 'monoclinic'
loop_
_space_group_symop_operation_xyz
x,y,z
-x,y,-z
-x,-y,-z
x,-y,z
1/2+x,1/2+y,z
1/2-x,1/2+y,-z
1/2-x,1/2-y,-z
1/2+x,1/2-y,z
loop_
_atom_site_type_symbol
_atom_site_label
_atom_site_fract_x
_atom_site_fract_y
_atom_site_fract_z
Si Si1 0.365010 0.263113 0.110833
Si Si2 0.789737 0.602147 0.351906
Si Si3 0.392597 0.280885 0.375940
Si Si4 0.002710 0.396910 0.135424
Si Si5 0.881211 0.093610 0.938488
Si Si6 0.723473 0.103100 0.390124
O O1 0.383062 0.306839 0.241471
O O2 0.424396 0.170675 0.141875
O O3 0.250000 0.250000 0.000000
O O4 0.394402 0.328794 0.033134
O O5 0.822333 0.500000 0.353947
O O6 0.871081 0.675276 0.365132
O O7 0.685740 0.616607 0.213440
O O8 0.777179 0.613960 0.476794
O O9 0.500000 0.301936 0.500000
O O10 0.303576 0.329160 0.388255
O O11 0.975046 0.500000 0.136618
O O12 0.113659 0.381795 0.261836
O O13 0.000000 0.381648 0.000000
O O14 0.832908 0.000000 0.951312
O O15 0.000000 0.077252 0.000000
O O16 0.752283 0.000000 0.385275
#
# Coordination Sequence:
#
# PCOD9225698 Si02
#       6
#     8   8   8   8   8   8
#     4  12  24  39  62  94 132 163 196 255 317 365
#     4  10  22  43  66  88 121 165 213 256 298 363
#     4  12  26  39  61  98 130 163 200 253 324 373
#     4  10  22  41  67  93 121 166 215 253 299 366
#     4  10  23  41  65  91 118 165 213 251 301 364
#     4  10  23  44  67  91 121 165 214 256 301 366
#
# _framework density 10.264004999999999
#
# number of rings (size 3 to 8) (size 9 to 14) (size 15 to 20)
#    0.000    1.333    1.667    3.000    4.667    2.667 
#    0.000    0.000    0.000    0.000    0.000    0.000 
#    0.000    0.000    0.000    0.000    0.000    0.000 
#
# Total GULP energy -133703.239795 kJ/mol
# GULP energy per Si atom -5570.968325 kJ/mol
# Density = 1.024064 g / cm^3
# Si number density = 10.264005 Si / 1000 Ang^3
#
#
#
# Elastic Constant Matrix: (Units=GPa)
#
#
# Indices 1 2 3 4 5 6 
#
# 1 33.6380 59.7308 14.2976 0.0000 -2.2869 0.0000
# 2 59.7308 71.0821 40.9078 0.0000 -1.1013 0.0000
# 3 14.2976 40.9078 135.9759 0.0000 -2.8109 0.0000
# 4 0.0000 0.0000 0.0000 27.0636 0.0000 -10.0249
# 5 -2.2869 -1.1013 -2.8109 0.0000 14.0669 0.0000
# 6 0.0000 0.0000 0.0000 -10.0249 0.0000 28.2561
#
#
#
# Elastic Compliance Matrix: (Units=1/GPa)
#
#
# Indices 1 2 3 4 5 6 
#
# 1 -0.049120 0.046298 -0.008890 0.000000 -0.006137 0.000000
# 2 0.046298 -0.026622 0.003267 0.000000 0.006095 0.000000
# 3 -0.008890 0.003267 0.007312 0.000000 0.000272 0.000000
# 4 0.000000 0.000000 0.000000 0.042541 0.000000 0.015093
# 5 -0.006137 0.006095 0.000272 0.000000 0.070623 0.000000
# 6 0.000000 0.000000 0.000000 0.015093 0.000000 0.040745
#
#
# Mechanical properties :
#
#
# Convention : Reuss Voigt Hill
#
# Bulk Modulus (GPa) = 77.41154 52.28538 64.84846
# Shear Modulus (GPa) = 592.67185 22.26130 307.46657
#
# Velocity S-wave (km/s) = 17.01001 3.29665 12.25170
# Velocity P-wave (km/s) = 20.58105 6.32583 15.22491
#
# Compressibility (1/GPa) = 0.01291797
#
# Stress axis : x y z
#
# Youngs Moduli (GPa) = -20.35811 -37.56348 136.76455
#
# Poissons Ratio (x) = 1.73910 1.21589
# Poissons Ratio (y) = 0.94253 -0.44679
# Poissons Ratio (z) = -0.18099 0.12272
#
# Static dielectric constant tensor:
#      x y z
#    x 1.705110 0.000000 -0.034390 
#    y 0.000000 1.660400 0.000000 
#    z -0.034390 0.000000 1.679970 
# 
# From -- ./inp_files/143861.got.cif
#   From: 2010.05.17/outbox.ucp.g08.bks.cvg/sg12_72_cif.got.tgz:143861.got - 2010.06.11 11:47:21.
