data_PCOD9225681
_publ_section_title
;
Structure prediction by ZEFSAII (Michael W. Deem and Ramdas Pophale) SiO2 
 PCOD9225681
Probable space group: C 2/M
;
_chemical_formula_sum "Si O2"
_cell_formula_units_Z 20
_cell_length_a 18.000000
_cell_length_b 9.000000
_cell_length_c 12.000000
_cell_angle_alpha 90.000000
_cell_angle_beta 80.000000
_cell_angle_gamma 90.000000
_cell_volume 1914.466272
_symmetry_space_group_name_H-M "C 2/M"
_symmetry_group_IT_number 12
_symmetry_cell_setting 'monoclinic'
loop_
_space_group_symop_operation_xyz
x,y,z
-x,y,-z
-x,-y,-z
x,-y,z
1/2+x,1/2+y,z
1/2-x,1/2+y,-z
1/2-x,1/2-y,-z
1/2+x,1/2-y,z
loop_
_atom_site_type_symbol
_atom_site_label
_atom_site_fract_x
_atom_site_fract_y
_atom_site_fract_z
Si Si1 0.782807 0.178004 0.168033
Si Si2 0.879409 0.170844 0.788582
Si Si3 0.988376 0.335446 0.372712
Si Si4 0.689314 0.818374 0.602416
Si Si5 0.086793 0.670542 0.013190
O O1 0.697432 0.235999 0.171375
O O2 0.793219 0.227833 0.291568
O O3 0.847372 0.270401 0.085908
O O4 0.788910 0.000000 0.148273
O O5 0.942313 0.235996 0.688622
O O6 0.861616 0.000000 0.767676
O O7 0.918509 0.198428 0.895540
O O8 0.995234 0.500000 0.316357
O O9 0.900642 0.289472 0.387926
O O10 0.000000 0.349690 0.500000
O O11 0.750000 0.750000 0.500000
O O12 0.698312 0.000000 0.605935
O O13 0.107871 0.500000 0.042406
O O14 0.000000 0.657474 0.000000
#
# Coordination Sequence:
#
# PCOD9225681 Si02
#       5
#     8   8   8   8   8
#     4  12  25  42  64  90 125 165 208 257 308 365
#     4  12  25  41  64  93 125 161 206 257 309 368
#     4  10  22  41  64  91 125 164 204 250 307 366
#     4  11  23  40  64  94 128 165 207 254 306 366
#     4  11  24  43  66  92 125 163 204 252 308 369
#
# _framework density 10.446776
#
# number of rings (size 3 to 8) (size 9 to 14) (size 15 to 20)
#    0.000    0.800    0.000    7.800    0.000   10.000 
#    0.000    0.000    0.000    0.000    0.000    0.000 
#    0.000    0.000    0.000    0.000    0.000    0.000 
#
# Total GULP energy -111409.862012 kJ/mol
# GULP energy per Si atom -5570.493101 kJ/mol
# Density = 1.042300 g / cm^3
# Si number density = 10.446776 Si / 1000 Ang^3
#
#
#
# Elastic Constant Matrix: (Units=GPa)
#
#
# Indices 1 2 3 4 5 6 
#
# 1 120.8563 49.3854 18.0994 0.0000 -23.6575 0.0000
# 2 49.3854 127.2714 19.9804 0.0000 -25.8373 0.0000
# 3 18.0994 19.9804 89.1770 0.0000 -35.6727 0.0000
# 4 0.0000 0.0000 0.0000 110.3085 0.0000 -59.9169
# 5 -23.6575 -25.8373 -35.6727 0.0000 47.6598 0.0000
# 6 0.0000 0.0000 0.0000 -59.9169 0.0000 76.0120
#
#
#
# Elastic Compliance Matrix: (Units=1/GPa)
#
#
# Indices 1 2 3 4 5 6 
#
# 1 0.010276 -0.003317 -0.000030 0.000000 0.003280 0.000000
# 2 -0.003317 0.009900 -0.000081 0.000000 0.003660 0.000000
# 3 -0.000030 -0.000081 0.016007 0.000000 0.011922 0.000000
# 4 0.000000 0.000000 0.000000 0.015853 0.000000 0.012496
# 5 0.003280 0.003660 0.011922 0.000000 0.033518 0.000000
# 6 0.000000 0.000000 0.000000 0.012496 0.000000 0.023006
#
#
# Mechanical properties :
#
#
# Convention : Reuss Voigt Hill
#
# Bulk Modulus (GPa) = 34.09827 56.91501 45.50664
# Shear Modulus (GPa) = 39.93846 63.45201 51.69523
#
# Velocity S-wave (km/s) = 4.37684 5.51680 4.97955
# Velocity P-wave (km/s) = 6.47284 8.23892 7.40869
#
# Compressibility (1/GPa) = 0.02932700
#
# Stress axis : x y z
#
# Youngs Moduli (GPa) = 97.31148 101.01017 62.47253
#
# Poissons Ratio (x) = 0.33504 0.00190
# Poissons Ratio (y) = 0.32277 0.00505
# Poissons Ratio (z) = 0.00296 0.00817
#
# Static dielectric constant tensor:
#      x y z
#    x 1.293970 0.000000 0.175520 
#    y 0.000000 1.883680 0.000000 
#    z 0.175520 0.000000 2.006260 
# 
# From -- ./inp_files/151722.got.cif
#   From: 2010.05.17/outbox.ucp.g08.bks.cvg/sg12_76_cif.got.tgz:151722.got - 2010.06.11 11:47:21.
