data_PCOD9225168
_publ_section_title
;
Structure prediction by ZEFSAII (Michael W. Deem and Ramdas Pophale) SiO2 
 PCOD9225168
Probable space group: C 2/M
;
_chemical_formula_sum "Si O2"
_cell_formula_units_Z 32
_cell_length_a 30.000000
_cell_length_b 9.000000
_cell_length_c 24.000000
_cell_angle_alpha 90.000000
_cell_angle_beta 30.000000
_cell_angle_gamma 90.000000
_cell_volume 3240.000000
_symmetry_space_group_name_H-M "C 2/M"
_symmetry_group_IT_number 12
_symmetry_cell_setting 'monoclinic'
loop_
_space_group_symop_operation_xyz
x,y,z
-x,y,-z
-x,-y,-z
x,-y,z
1/2+x,1/2+y,z
1/2-x,1/2+y,-z
1/2-x,1/2-y,-z
1/2+x,1/2-y,z
loop_
_atom_site_type_symbol
_atom_site_label
_atom_site_fract_x
_atom_site_fract_y
_atom_site_fract_z
Si Si1 0.154474 0.821236 0.119810
Si Si2 0.247880 0.677344 0.561863
Si Si3 0.561051 0.822187 0.328358
Si Si4 0.596403 0.679318 0.063899
Si Si5 0.920120 0.178440 0.194372
Si Si6 0.128313 0.824269 0.474907
Si Si7 0.795744 0.172633 0.237311
Si Si8 0.260458 0.825057 0.823915
O O1 0.108688 0.738142 0.220854
O O2 0.089463 0.798978 0.137090
O O3 0.163448 0.000000 0.119293
O O4 0.250000 0.750000 0.000000
O O5 0.238802 0.500000 0.569559
O O6 0.250000 0.750000 0.500000
O O7 0.162515 0.747698 0.684494
O O8 0.338093 0.710651 0.498707
O O9 0.464053 0.752723 0.440290
O O10 0.637357 0.774137 0.290417
O O11 0.549970 0.000000 0.339609
O O12 0.600347 0.500000 0.050840
O O13 0.513705 0.734488 0.116932
O O14 0.692811 0.742899 0.941699
O O15 0.890770 0.206567 0.162398
O O16 0.918954 0.000000 0.204446
O O17 0.213744 0.770281 0.347579
O O18 0.117573 0.000000 0.481291
O O19 0.793984 0.186245 0.173629
O O20 0.775120 0.000000 0.273803
O O21 0.270764 0.000000 0.826498
#
# Coordination Sequence:
#
# PCOD9225168 Si02
#       8
#     8   8   8   8   8   8   8   8
#     4  11  21  36  56  79 113 151 186 226 276 327
#     4  10  21  36  54  76 106 143 180 224 274 326
#     4  11  22  37  57  82 112 147 187 228 275 330
#     4   9  18  33  54  81 113 144 176 221 273 323
#     4   9  18  33  55  82 109 140 179 224 272 323
#     4  10  22  39  56  78 111 146 181 227 282 329
#     4   9  18  35  59  83 108 141 185 230 272 326
#     4   9  18  34  56  82 111 144 182 227 276 321
#
# _framework density 9.8765429999999999
#
# number of rings (size 3 to 8) (size 9 to 14) (size 15 to 20)
#    0.000    2.250    1.250    1.500    1.750    2.500 
#    0.000    6.875    0.000    0.000    0.000    3.500 
#    0.000    0.000    0.000    0.000    0.000    0.000 
#
# Total GULP energy -178210.997988 kJ/mol
# GULP energy per Si atom -5569.093687 kJ/mol
# Density = 0.985406 g / cm^3
# Si number density = 9.876543 Si / 1000 Ang^3
#
#
#
# Elastic Constant Matrix: (Units=GPa)
#
#
# Indices 1 2 3 4 5 6 
#
# 1 83.6486 25.8395 19.9195 0.0049 -39.8716 0.0010
# 2 25.8395 15.5556 -7.8303 0.0129 10.7702 -0.0043
# 3 19.9195 -7.8303 24.3632 0.0145 -15.0866 -0.0039
# 4 0.0049 0.0129 0.0145 23.5234 -0.0077 -3.3124
# 5 -39.8716 10.7702 -15.0866 -0.0077 11.8096 0.0012
# 6 0.0010 -0.0043 -0.0039 -3.3124 0.0012 16.1774
#
#
#
# Elastic Compliance Matrix: (Units=1/GPa)
#
#
# Indices 1 2 3 4 5 6 
#
# 1 0.000125 0.010475 -0.011439 -0.000006 -0.023745 0.000001
# 2 0.010475 0.025563 0.034053 -0.000018 0.055555 0.000006
# 3 -0.011439 0.034053 0.087090 -0.000054 0.041579 0.000016
# 4 -0.000006 -0.000018 -0.000054 0.043773 -0.000047 0.008963
# 5 -0.023745 0.055555 0.041579 -0.000047 0.006960 0.000016
# 6 0.000001 0.000006 0.000016 0.008963 0.000016 0.063650
#
#
# Mechanical properties :
#
#
# Convention : Reuss Voigt Hill
#
# Bulk Modulus (GPa) = 5.58800 22.15831 13.87315
# Shear Modulus (GPa) = 22.66192 16.01132 19.33662
#
# Velocity S-wave (km/s) = 3.39080 2.85014 3.13216
# Velocity P-wave (km/s) = 4.26205 4.69820 4.48543
#
# Compressibility (1/GPa) = 0.17895494
#
# Stress axis : x y z
#
# Youngs Moduli (GPa) = 8012.03219 39.11942 11.48235
#
# Poissons Ratio (x) = -0.40977 0.13135
# Poissons Ratio (y) = -83.92517 -0.39101
# Poissons Ratio (z) = 91.65186 -1.33213
#
# Static dielectric constant tensor:
#      x y z
#    x 1.755070 0.000000 0.015770 
#    y 0.000000 1.676840 0.000000 
#    z 0.015770 0.000000 1.689070 
# 
# From -- ./inp_files/249164.got.cif
#   From: 2010.05.17/outbox.ucp.g08.bks.cvg/sg12_125_cif.got.tgz:249164.got - 2010.06.11 11:47:21.
