data_PCOD9225160
_publ_section_title
;
Structure prediction by ZEFSAII (Michael W. Deem and Ramdas Pophale) SiO2 
 PCOD9225160
Probable space group: C 2/M
;
_chemical_formula_sum "Si O2"
_cell_formula_units_Z 28
_cell_length_a 18.000000
_cell_length_b 18.000000
_cell_length_c 27.000000
_cell_angle_alpha 90.000000
_cell_angle_beta 160.000000
_cell_angle_gamma 90.000000
_cell_volume 2991.992214
_symmetry_space_group_name_H-M "C 2/M"
_symmetry_group_IT_number 12
_symmetry_cell_setting 'monoclinic'
loop_
_space_group_symop_operation_xyz
x,y,z
-x,y,-z
-x,-y,-z
x,-y,z
1/2+x,1/2+y,z
1/2-x,1/2+y,-z
1/2-x,1/2-y,-z
1/2+x,1/2-y,z
loop_
_atom_site_type_symbol
_atom_site_label
_atom_site_fract_x
_atom_site_fract_y
_atom_site_fract_z
Si Si1 0.459638 0.190757 0.420058
Si Si2 0.634682 0.413261 0.180229
Si Si3 0.086427 0.588582 0.742669
Si Si4 0.220554 0.589901 0.171557
Si Si5 0.693692 0.333142 0.443908
Si Si6 0.287676 0.181653 0.082299
Si Si7 0.558764 0.199559 0.151508
O O1 0.500000 0.218587 0.500000
O O2 0.329447 0.113309 0.337322
O O3 0.688966 0.176670 0.536262
O O4 0.272344 0.246540 0.281343
O O5 0.597946 0.500000 0.158846
O O6 0.728104 0.396009 0.183144
O O7 0.414409 0.372303 0.057700
O O8 0.097805 0.500000 0.761891
O O9 0.119584 0.643419 0.810012
O O10 0.854314 0.609751 0.573251
O O11 0.265614 0.500000 0.202286
O O12 0.443524 0.635352 0.292989
O O13 0.140184 0.626518 0.173343
O O14 0.000000 0.599126 0.000000
O O15 0.750000 0.250000 0.500000
O O16 0.466654 0.188143 0.150308
O O17 0.153475 0.259077 0.005779
#
# Coordination Sequence:
#
# PCOD9225160 Si02
#       7
#     8   8   8   8   8   8   8
#     4  10  22  39  61  91 121 159 210 266 313 367
#     4   9  19  36  56  88 126 162 208 258 311 374
#     4  10  21  37  61  93 124 159 211 270 321 375
#     4  11  26  45  66  92 127 169 212 259 316 391
#     4  11  23  41  67  93 119 165 212 262 312 378
#     4  10  21  35  60  91 127 169 208 256 315 383
#     4  10  23  39  58  90 128 164 215 263 308 383
#
# _framework density 9.3583130000000008
#
# number of rings (size 3 to 8) (size 9 to 14) (size 15 to 20)
#    0.000    1.857    1.429    1.286    4.000    5.429 
#    0.000    1.429    0.000    2.143    0.000    0.000 
#    0.000    0.000    0.000    0.000    0.000    0.000 
#
# Total GULP energy -155875.892806 kJ/mol
# GULP energy per Si atom -5566.996172 kJ/mol
# Density = 0.933701 g / cm^3
# Si number density = 9.358313 Si / 1000 Ang^3
#
#
#
# Elastic Constant Matrix: (Units=GPa)
#
#
# Indices 1 2 3 4 5 6 
#
# 1 69.5661 36.8115 32.7593 -0.0009 27.3142 0.0017
# 2 36.8115 96.2868 26.6953 -0.0050 12.1513 0.0028
# 3 32.7593 26.6953 88.4618 -0.0192 24.2197 -0.0030
# 4 -0.0009 -0.0050 -0.0192 31.4873 0.0094 4.6976
# 5 27.3142 12.1513 24.2197 0.0094 40.9335 0.0014
# 6 0.0017 0.0028 -0.0030 4.6976 0.0014 31.4292
#
#
#
# Elastic Compliance Matrix: (Units=1/GPa)
#
#
# Indices 1 2 3 4 5 6 
#
# 1 0.024475 -0.006803 -0.003690 0.000001 -0.012129 -0.000001
# 2 -0.006803 0.013314 -0.001980 0.000000 0.001759 -0.000001
# 3 -0.003690 -0.001980 0.014837 0.000010 -0.005729 0.000000
# 4 0.000001 0.000000 0.000010 0.032483 -0.000014 -0.004855
# 5 -0.012129 0.001759 -0.005729 -0.000014 0.035391 0.000000
# 6 -0.000001 -0.000001 0.000000 -0.004855 0.000000 0.032543
#
#
# Mechanical properties :
#
#
# Convention : Reuss Voigt Hill
#
# Bulk Modulus (GPa) = 36.12848 49.64965 42.88907
# Shear Modulus (GPa) = 26.70745 31.30656 29.00701
#
# Velocity S-wave (km/s) = 3.78158 4.09425 3.94102
# Velocity P-wave (km/s) = 6.19773 6.99537 6.60860
#
# Compressibility (1/GPa) = 0.02767899
#
# Stress axis : x y z
#
# Youngs Moduli (GPa) = 40.85881 75.11149 67.40078
#
# Poissons Ratio (x) = 0.51101 0.24869
# Poissons Ratio (y) = 0.27797 0.13344
# Poissons Ratio (z) = 0.15076 0.14871
#
# Static dielectric constant tensor:
#      x y z
#    x 1.676710 0.000000 -0.030040 
#    y 0.000000 1.678060 -0.000010 
#    z -0.030040 -0.000010 1.672740 
# 
# From -- ./inp_files/364498.got.cif
#   From: 2010.05.17/outbox.ucp.g08.bks.cvg/sg12_183_cif.got.tgz:364498.got - 2010.06.11 11:47:21.
