data_PCOD9225641
_publ_section_title
;
Structure prediction by ZEFSAII (Michael W. Deem and Ramdas Pophale) SiO2 
 PCOD9225641
Probable space group: C 2/M
;
_chemical_formula_sum "Si O2"
_cell_formula_units_Z 28
_cell_length_a 30.000000
_cell_length_b 9.000000
_cell_length_c 21.000000
_cell_angle_alpha 90.000000
_cell_angle_beta 150.000000
_cell_angle_gamma 90.000000
_cell_volume 2835.000000
_symmetry_space_group_name_H-M "C 2/M"
_symmetry_group_IT_number 12
_symmetry_cell_setting 'monoclinic'
loop_
_space_group_symop_operation_xyz
x,y,z
-x,y,-z
-x,-y,-z
x,-y,z
1/2+x,1/2+y,z
1/2-x,1/2+y,-z
1/2-x,1/2-y,-z
1/2+x,1/2-y,z
loop_
_atom_site_type_symbol
_atom_site_label
_atom_site_fract_x
_atom_site_fract_y
_atom_site_fract_z
Si Si1 0.595355 0.333503 0.586090
Si Si2 0.865629 0.679323 0.870270
Si Si3 0.661977 0.679905 0.924532
Si Si4 0.539631 0.680822 0.374664
Si Si5 0.745677 0.323714 0.161516
Si Si6 0.057742 0.678956 0.162492
Si Si7 0.343061 0.180488 0.590360
O O1 0.500000 0.346061 0.500000
O O2 0.634853 0.500000 0.627887
O O3 0.572452 0.275840 0.486560
O O4 0.656049 0.244903 0.711674
O O5 0.856154 0.500000 0.862916
O O6 0.793353 0.763854 0.820792
O O7 0.871532 0.724024 0.803908
O O8 0.960286 0.722956 0.018791
O O9 0.666474 0.500000 0.924366
O O10 0.563412 0.723378 0.774331
O O11 0.750000 0.750000 0.000000
O O12 0.681401 0.720878 0.022969
O O13 0.541814 0.500000 0.374247
O O14 0.613022 0.750972 0.418275
O O15 0.751149 0.500000 0.166690
O O16 0.057129 0.500000 0.160133
O O17 0.086144 0.723876 0.267022
O O18 0.250000 0.250000 0.500000
O O19 0.335810 0.000000 0.577537
#
# Coordination Sequence:
#
# PCOD9225641 Si02
#       7
#     8   8   8   8   8   8   8
#     4  10  22  41  64  86 112 155 206 247 288 351
#     4   9  17  34  59  82 105 144 191 235 279 335
#     4  10  22  40  63  90 121 155 196 248 304 363
#     4  10  22  41  63  88 120 159 205 253 299 354
#     4  11  23  36  55  88 123 148 181 236 302 357
#     4   8  17  34  56  80 108 143 192 240 277 326
#     4  11  23  38  57  84 119 160 203 246 295 354
#
# _framework density 9.8765429999999999
#
# number of rings (size 3 to 8) (size 9 to 14) (size 15 to 20)
#    0.000    2.143    0.000    3.429    2.000    3.714 
#    0.000    2.857    0.000    0.000    0.000    0.000 
#    0.000    0.000    0.000    0.000    0.000    0.000 
#
# Total GULP energy -156014.347640 kJ/mol
# GULP energy per Si atom -5571.940987 kJ/mol
# Density = 0.985406 g / cm^3
# Si number density = 9.876543 Si / 1000 Ang^3
#
#
#
# Elastic Constant Matrix: (Units=GPa)
#
#
# Indices 1 2 3 4 5 6 
#
# 1 71.3508 2.6061 -3.4438 0.0000 -7.3440 0.0000
# 2 2.6061 24.2291 12.7306 0.0000 -1.5381 0.0000
# 3 -3.4438 12.7306 55.2406 0.0000 -6.3080 0.0000
# 4 0.0000 0.0000 0.0000 24.4910 0.0000 14.3432
# 5 -7.3440 -1.5381 -6.3080 0.0000 39.3825 0.0000
# 6 0.0000 0.0000 0.0000 14.3432 0.0000 10.2383
#
#
#
# Elastic Compliance Matrix: (Units=1/GPa)
#
#
# Indices 1 2 3 4 5 6 
#
# 1 0.014482 -0.002301 0.001763 0.000000 0.002893 0.000000
# 2 -0.002301 0.047325 -0.011090 0.000000 -0.000357 0.000000
# 3 0.001763 -0.011090 0.021143 0.000000 0.003282 0.000000
# 4 0.000000 0.000000 0.000000 0.227425 0.000000 -0.318608
# 5 0.002893 -0.000357 0.003282 0.000000 0.026443 0.000000
# 6 0.000000 0.000000 0.000000 -0.318608 0.000000 0.544023
#
#
# Mechanical properties :
#
#
# Convention : Reuss Voigt Hill
#
# Bulk Modulus (GPa) = 16.75187 19.40070 18.07628
# Shear Modulus (GPa) = 5.41128 24.08422 14.74775
#
# Velocity S-wave (km/s) = 1.65693 3.49558 2.73537
# Velocity P-wave (km/s) = 3.48706 5.11225 4.37577
#
# Compressibility (1/GPa) = 0.05969482
#
# Stress axis : x y z
#
# Youngs Moduli (GPa) = 69.05034 21.13060 47.29645
#
# Poissons Ratio (x) = 0.04861 -0.08340
# Poissons Ratio (y) = 0.15885 0.52454
# Poissons Ratio (z) = -0.12176 0.23435
#
# Static dielectric constant tensor:
#      x y z
#    x 1.744360 0.000000 0.035980 
#    y 0.000000 1.679680 0.000000 
#    z 0.035980 0.000000 1.776480 
# 
# From -- ./inp_files/329673.got.cif
#   From: 2010.05.17/outbox.ucp.g08.bks.cvg/sg12_165_cif.got.tgz:329673.got - 2010.06.11 11:47:21.
