data_PCOD9225488
_publ_section_title
;
Structure prediction by ZEFSAII (Michael W. Deem and Ramdas Pophale) SiO2 
 PCOD9225488
Probable space group: C 2/M
;
_chemical_formula_sum "Si O2"
_cell_formula_units_Z 28
_cell_length_a 21.000000
_cell_length_b 30.000000
_cell_length_c 9.000000
_cell_angle_alpha 90.000000
_cell_angle_beta 150.000000
_cell_angle_gamma 90.000000
_cell_volume 2835.000000
_symmetry_space_group_name_H-M "C 2/M"
_symmetry_group_IT_number 12
_symmetry_cell_setting 'monoclinic'
loop_
_space_group_symop_operation_xyz
x,y,z
-x,y,-z
-x,-y,-z
x,-y,z
1/2+x,1/2+y,z
1/2-x,1/2+y,-z
1/2-x,1/2-y,-z
1/2+x,1/2-y,z
loop_
_atom_site_type_symbol
_atom_site_label
_atom_site_fract_x
_atom_site_fract_y
_atom_site_fract_z
Si Si1 0.075617 0.170290 0.307613
Si Si2 0.836554 0.337736 0.954655
Si Si3 0.043933 0.092897 0.758047
Si Si4 0.594802 0.500000 0.045633
Si Si5 0.282590 0.159411 0.199989
Si Si6 0.397469 0.000000 0.658900
Si Si7 0.977467 0.596760 0.775827
Si Si8 0.042152 0.737916 0.414349
O O1 0.227906 0.173413 0.616300
O O2 0.037257 0.214936 0.321223
O O3 0.055437 0.122887 0.350008
O O4 0.000000 0.169446 0.000000
O O5 0.799315 0.339459 0.054176
O O6 0.891233 0.386566 0.029278
O O7 0.940999 0.298515 0.151592
O O8 0.000000 0.082991 0.500000
O O9 0.154709 0.131105 0.970166
O O10 0.073101 0.046146 0.904737
O O11 0.746656 0.500000 0.394715
O O12 0.500000 0.500000 0.000000
O O13 0.379308 0.130030 0.495869
O O14 0.321491 0.211088 0.317940
O O15 0.430356 0.953229 0.646620
O O16 0.500000 0.000000 0.000000
O O17 0.000000 0.601551 0.000000
O O18 0.000000 0.745878 0.500000
#
# Coordination Sequence:
#
# PCOD9225488 Si02
#       8
#     8   8   8   4   8   4   8   8
#     4  12  27  40  63 101 140 179 236 288 350 416
#     4  10  23  43  63  94 131 178 231 281 343 410
#     4  12  25  46  71 101 136 187 234 284 347 422
#     4  12  27  49  77 104 146 185 229 292 360 419
#     4  10  21  43  68  91 134 172 231 279 341 410
#     4  10  22  41  66 101 130 175 224 272 350 420
#     4  10  21  39  68  92 127 169 217 281 349 408
#     4   9  22  41  66  93 127 183 226 284 348 408
#
# _framework density 9.8765429999999999
#
# number of rings (size 3 to 8) (size 9 to 14) (size 15 to 20)
#    0.000    1.429    2.857    2.357    4.000    6.286 
#    0.000    2.143    0.000    0.000    0.000    0.000 
#    0.000    0.000    0.000    0.000    0.000    0.000 
#
# Total GULP energy -155933.462139 kJ/mol
# GULP energy per Si atom -5569.052219 kJ/mol
# Density = 0.985406 g / cm^3
# Si number density = 9.876543 Si / 1000 Ang^3
#
#
#
# Elastic Constant Matrix: (Units=GPa)
#
#
# Indices 1 2 3 4 5 6 
#
# 1 45.2155 30.6846 31.2395 0.0000 -5.5284 0.0000
# 2 30.6846 131.8609 21.0546 0.0000 -3.6312 0.0000
# 3 31.2395 21.0546 117.5908 0.0000 -8.8466 0.0000
# 4 0.0000 0.0000 0.0000 27.0152 0.0000 4.6941
# 5 -5.5284 -3.6312 -8.8466 0.0000 35.0182 0.0000
# 6 0.0000 0.0000 0.0000 4.6941 0.0000 11.9289
#
#
#
# Elastic Compliance Matrix: (Units=1/GPa)
#
#
# Indices 1 2 3 4 5 6 
#
# 1 0.031470 -0.006124 -0.007072 0.000000 0.002547 0.000000
# 2 -0.006124 0.009006 0.000012 0.000000 -0.000030 0.000000
# 3 -0.007072 0.000012 0.010496 0.000000 0.001536 0.000000
# 4 0.000000 0.000000 0.000000 0.039733 0.000000 -0.015635
# 5 0.002547 -0.000030 0.001536 0.000000 0.029344 0.000000
# 6 0.000000 0.000000 0.000000 -0.015635 0.000000 0.089983
#
#
# Mechanical properties :
#
#
# Convention : Reuss Voigt Hill
#
# Bulk Modulus (GPa) = 40.64359 51.18050 45.91205
# Shear Modulus (GPa) = 20.44145 28.90501 24.67323
#
# Velocity S-wave (km/s) = 3.22040 3.82948 3.53807
# Velocity P-wave (km/s) = 5.86928 6.74682 6.32329
#
# Compressibility (1/GPa) = 0.02460413
#
# Stress axis : x y z
#
# Youngs Moduli (GPa) = 31.77662 111.03676 95.27140
#
# Poissons Ratio (x) = 0.67996 0.67379
# Poissons Ratio (y) = 0.19459 -0.00115
# Poissons Ratio (z) = 0.22473 -0.00134
#
# Static dielectric constant tensor:
#      x y z
#    x 1.733570 0.000000 0.064560 
#    y 0.000000 1.684230 0.000000 
#    z 0.064560 0.000000 1.764910 
# 
# From -- ./inp_files/91665.got.cif
#   From: 2010.05.17/outbox.ucp.g08.bks.cvg/sg12_46_cif.got.tgz:91665.got - 2010.06.11 11:47:21.
