data_PCOD9225485
_publ_section_title
;
Structure prediction by ZEFSAII (Michael W. Deem and Ramdas Pophale) SiO2 
 PCOD9225485
Probable space group: C 2/M
;
_chemical_formula_sum "Si O2"
_cell_formula_units_Z 24
_cell_length_a 15.000000
_cell_length_b 15.000000
_cell_length_c 30.000000
_cell_angle_alpha 90.000000
_cell_angle_beta 20.000000
_cell_angle_gamma 90.000000
_cell_volume 2308.635967
_symmetry_space_group_name_H-M "C 2/M"
_symmetry_group_IT_number 12
_symmetry_cell_setting 'monoclinic'
loop_
_space_group_symop_operation_xyz
x,y,z
-x,y,-z
-x,-y,-z
x,-y,z
1/2+x,1/2+y,z
1/2-x,1/2+y,-z
1/2-x,1/2-y,-z
1/2+x,1/2-y,z
loop_
_atom_site_type_symbol
_atom_site_label
_atom_site_fract_x
_atom_site_fract_y
_atom_site_fract_z
Si Si1 0.401095 0.206522 0.760651
Si Si2 0.740255 0.597678 0.152439
Si Si3 0.111579 0.155864 0.052654
Si Si4 0.296745 0.598450 0.287462
Si Si5 0.928790 0.770673 0.458858
Si Si6 0.438300 0.895059 0.225256
O O1 0.307225 0.309777 0.800199
O O2 0.699305 0.202255 0.601564
O O3 0.432481 0.163834 0.795228
O O4 0.155701 0.159681 0.851254
O O5 0.761549 0.500000 0.165542
O O6 0.485677 0.595064 0.240988
O O7 0.000000 0.606700 0.000000
O O8 0.995683 0.116393 0.152985
O O9 0.250000 0.250000 0.000000
O O10 0.347090 0.108230 0.915369
O O11 0.174000 0.500000 0.339121
O O12 0.090113 0.678430 0.390780
O O13 0.750000 0.750000 0.500000
O O14 0.159740 0.845331 0.345764
O O15 0.397555 0.000000 0.256217
#
# Coordination Sequence:
#
# PCOD9225485 Si02
#       6
#     8   8   8   8   8   8
#     4  12  24  42  71  95 140 178 221 279 338 405
#     4  10  21  39  66 100 132 169 221 280 340 396
#     4  12  22  44  72  98 138 178 225 279 336 395
#     4  11  23  41  68  98 132 172 222 277 335 401
#     4  12  25  47  65  95 136 179 222 276 336 402
#     4  12  27  45  69 103 137 179 229 278 339 408
#
# _framework density 10.395749
#
# number of rings (size 3 to 8) (size 9 to 14) (size 15 to 20)
#    0.000    0.500    5.000    3.500    0.000    4.667 
#    0.000    5.833    0.000    0.000    0.000    0.000 
#    0.000    0.000    0.000    0.000    0.000    0.000 
#
# Total GULP energy -133957.713043 kJ/mol
# GULP energy per Si atom -5581.571377 kJ/mol
# Density = 1.037209 g / cm^3
# Si number density = 10.395749 Si / 1000 Ang^3
#
#
#
# Elastic Constant Matrix: (Units=GPa)
#
#
# Indices 1 2 3 4 5 6 
#
# 1 33.5786 -7.0794 -10.5690 0.0828 -14.5257 0.0378
# 2 -7.0794 116.1045 22.7885 0.1107 -11.5411 0.0505
# 3 -10.5690 22.7885 131.0408 -0.2134 -14.4235 -0.0881
# 4 0.0828 0.1107 -0.2134 29.5582 0.0289 -2.8400
# 5 -14.5257 -11.5411 -14.4235 0.0289 41.1281 0.0311
# 6 0.0378 0.0505 -0.0881 -2.8400 0.0311 10.6341
#
#
#
# Elastic Compliance Matrix: (Units=1/GPa)
#
#
# Indices 1 2 3 4 5 6 
#
# 1 0.038770 0.003109 0.004357 -0.000123 0.016094 -0.000197
# 2 0.003109 0.009334 -0.001002 -0.000063 0.003366 -0.000090
# 3 0.004357 -0.001002 0.008629 0.000056 0.004284 0.000063
# 4 -0.000123 -0.000063 0.000056 0.034724 -0.000073 0.009275
# 5 0.016094 0.003366 0.004284 -0.000073 0.032445 -0.000152
# 6 -0.000197 -0.000090 0.000063 0.009275 -0.000152 0.096516
#
#
# Mechanical properties :
#
#
# Convention : Reuss Voigt Hill
#
# Bulk Modulus (GPa) = 14.35530 32.33378 23.34454
# Shear Modulus (GPa) = 21.67223 34.63631 28.15427
#
# Velocity S-wave (km/s) = 3.23206 4.08596 3.68383
# Velocity P-wave (km/s) = 4.56593 6.15185 5.41724
#
# Compressibility (1/GPa) = 0.06966068
#
# Stress axis : x y z
#
# Youngs Moduli (GPa) = 25.79295 107.13693 115.89396
#
# Poissons Ratio (x) = -0.33305 -0.50500
# Poissons Ratio (y) = -0.08018 0.11614
# Poissons Ratio (z) = -0.11239 0.10737
#
# Static dielectric constant tensor:
#      x y z
#    x 1.812880 0.000000 0.054220 
#    y 0.000000 1.807510 0.000000 
#    z 0.054220 0.000000 1.724870 
# 
# From -- ./inp_files/376556.got.cif
#   From: 2010.05.17/outbox.ucp.g08.bks.cvg/sg12_189_cif.got.tgz:376556.got - 2010.06.11 11:47:21.
