data_PCOD9225234
_publ_section_title
;
Structure prediction by ZEFSAII (Michael W. Deem and Ramdas Pophale) SiO2 
 PCOD9225234
Probable space group: C 2/M
;
_chemical_formula_sum "Si O2"
_cell_formula_units_Z 30
_cell_length_a 18.000000
_cell_length_b 30.000000
_cell_length_c 18.000000
_cell_angle_alpha 90.000000
_cell_angle_beta 20.000000
_cell_angle_gamma 90.000000
_cell_volume 3324.435793
_symmetry_space_group_name_H-M "C 2/M"
_symmetry_group_IT_number 12
_symmetry_cell_setting 'monoclinic'
loop_
_space_group_symop_operation_xyz
x,y,z
-x,y,-z
-x,-y,-z
x,-y,z
1/2+x,1/2+y,z
1/2-x,1/2+y,-z
1/2-x,1/2-y,-z
1/2+x,1/2-y,z
loop_
_atom_site_type_symbol
_atom_site_label
_atom_site_fract_x
_atom_site_fract_y
_atom_site_fract_z
Si Si1 0.306324 0.311211 0.874336
Si Si2 0.627873 0.646598 0.453876
Si Si3 0.416402 0.233635 0.160223
Si Si4 0.046649 0.372734 0.717883
Si Si5 0.320989 0.051569 0.826601
Si Si6 0.436394 0.615104 0.144085
Si Si7 0.840674 0.192494 0.340986
Si Si8 0.500000 0.925705 0.500000
O O1 0.437842 0.334013 0.684065
O O2 0.487336 0.290990 0.759120
O O3 0.133365 0.277187 0.003105
O O4 0.166008 0.348877 0.048769
O O5 0.500000 0.627235 0.500000
O O6 0.777834 0.687876 0.284622
O O7 0.786573 0.621055 0.366758
O O8 0.281500 0.268397 0.338446
O O9 0.500000 0.248382 0.000000
O O10 0.161233 0.336221 0.555232
O O11 0.969266 0.416070 0.741252
O O12 0.399681 0.049921 0.666095
O O13 0.311104 0.000000 0.862501
O O14 0.085790 0.075681 0.037642
O O15 0.457348 0.656454 0.178684
O O16 0.186972 0.601977 0.365888
O O17 0.500000 0.626083 0.000000
#
# Coordination Sequence:
#
# PCOD9225234 Si02
#       8
#     8   8   8   8   8   8   8   4
#     4  10  21  38  59  78 116 149 199 243 290 346
#     4  10  21  40  60  86 115 152 199 243 292 353
#     4  11  22  36  56  85 114 156 201 242 284 335
#     4  10  22  38  61  86 115 155 195 239 303 351
#     4  11  22  39  61  87 115 153 200 245 290 351
#     4  10  21  37  55  81 115 157 196 234 286 344
#     4  11  21  37  55  81 117 154 196 238 292 335
#     4  10  21  38  58  84 118 156 194 234 284 336
#
# _framework density 9.0240880000000008
#
# number of rings (size 3 to 8) (size 9 to 14) (size 15 to 20)
#    0.000    1.600    4.000    1.000    0.000    8.800 
#    1.200    0.000    0.000    0.400    0.000    0.933 
#    0.000    0.000    0.000    0.000    0.000    0.000 
#
# Total GULP energy -167072.691992 kJ/mol
# GULP energy per Si atom -5569.089733 kJ/mol
# Density = 0.900355 g / cm^3
# Si number density = 9.024088 Si / 1000 Ang^3
#
#
#
# Elastic Constant Matrix: (Units=GPa)
#
#
# Indices 1 2 3 4 5 6 
#
# 1 134.6152 35.3333 17.8435 -0.0465 -4.9516 -0.0334
# 2 35.3333 55.7521 4.9591 0.0393 -3.8725 -0.0488
# 3 17.8435 4.9591 56.3617 -0.2034 -1.8933 0.0044
# 4 -0.0465 0.0393 -0.2034 2.7411 0.0130 -0.0575
# 5 -4.9516 -3.8725 -1.8933 0.0130 35.8474 0.0393
# 6 -0.0334 -0.0488 0.0044 -0.0575 0.0393 20.6675
#
#
#
# Elastic Compliance Matrix: (Units=1/GPa)
#
#
# Indices 1 2 3 4 5 6 
#
# 1 0.009239 -0.005603 -0.002414 0.000056 0.000543 0.000001
# 2 -0.005603 0.021603 -0.000076 -0.000417 0.001556 0.000038
# 3 -0.002414 -0.000076 0.018540 0.001332 0.000637 -0.000006
# 4 0.000056 -0.000417 0.001332 0.364941 -0.000100 0.001015
# 5 0.000543 0.001556 0.000637 -0.000100 0.028173 -0.000049
# 6 0.000001 0.000038 -0.000006 0.001015 -0.000049 0.048388
#
#
# Mechanical properties :
#
#
# Convention : Reuss Voigt Hill
#
# Bulk Modulus (GPa) = 30.12415 40.33340 35.22878
# Shear Modulus (GPa) = 9.65002 24.42407 17.03704
#
# Velocity S-wave (km/s) = 2.31483 3.68267 3.07575
# Velocity P-wave (km/s) = 4.88587 6.36231 5.67233
#
# Compressibility (1/GPa) = 0.03319595
#
# Stress axis : x y z
#
# Youngs Moduli (GPa) = 108.23490 46.29060 53.93869
#
# Poissons Ratio (x) = 0.25937 0.13018
# Poissons Ratio (y) = 0.60644 0.00411
# Poissons Ratio (z) = 0.26123 0.00353
#
# Static dielectric constant tensor:
#      x y z
#    x 1.642910 -0.000040 0.000530 
#    y -0.000040 1.621850 0.000160 
#    z 0.000530 0.000160 1.670930 
# 
# From -- ./inp_files/279636.got.cif
#   From: 2010.05.17/outbox.ucp.g08.bks.cvg/sg12_140_cif.got.tgz:279636.got - 2010.06.11 11:47:21.
