data_PCOD9225486
_publ_section_title
;
Structure prediction by ZEFSAII (Michael W. Deem and Ramdas Pophale) SiO2 
 PCOD9225486
Probable space group: C 2/M
;
_chemical_formula_sum "Si O2"
_cell_formula_units_Z 32
_cell_length_a 9.000000
_cell_length_b 18.000000
_cell_length_c 30.000000
_cell_angle_alpha 90.000000
_cell_angle_beta 40.000000
_cell_angle_gamma 90.000000
_cell_volume 3123.947783
_symmetry_space_group_name_H-M "C 2/M"
_symmetry_group_IT_number 12
_symmetry_cell_setting 'monoclinic'
loop_
_space_group_symop_operation_xyz
x,y,z
-x,y,-z
-x,-y,-z
x,-y,z
1/2+x,1/2+y,z
1/2-x,1/2+y,-z
1/2-x,1/2-y,-z
1/2+x,1/2-y,z
loop_
_atom_site_type_symbol
_atom_site_label
_atom_site_fract_x
_atom_site_fract_y
_atom_site_fract_z
Si Si1 0.034177 0.589072 0.753187
Si Si2 0.140821 0.712581 0.568074
Si Si3 0.580589 0.912206 0.431895
Si Si4 0.446775 0.356230 0.718015
Si Si5 0.870025 0.672406 0.982194
Si Si6 0.973386 0.086024 0.114412
Si Si7 0.812936 0.708728 0.344052
Si Si8 0.722708 0.586732 0.152412
O O1 0.035811 0.500000 0.748824
O O2 0.215591 0.616416 0.747859
O O3 0.110824 0.628750 0.689984
O O4 0.782694 0.618085 0.825215
O O5 0.250000 0.750000 0.500000
O O6 0.264101 0.710810 0.586840
O O7 0.074963 0.630228 0.568004
O O8 0.906556 0.758825 0.631428
O O9 0.500000 0.888921 0.500000
O O10 0.839679 0.887409 0.360248
O O11 0.561019 0.000000 0.433545
O O12 0.485109 0.268133 0.711250
O O13 0.436664 0.389149 0.769911
O O14 0.054147 0.639731 0.904778
O O15 0.750000 0.750000 0.000000
O O16 0.655204 0.617812 0.038220
O O17 0.000000 0.676370 0.000000
O O18 0.081588 0.093057 0.138865
O O19 0.945936 0.000000 0.110789
O O20 0.791370 0.500000 0.141753
#
# Coordination Sequence:
#
# PCOD9225486 Si02
#       8
#     8   8   8   8   8   8   8   8
#     4  11  24  41  63  93 130 165 204 262 321 369
#     4  11  22  42  63  88 120 162 210 257 315 381
#     4  10  22  39  64  92 123 163 209 260 317 377
#     4  11  23  42  64  92 127 163 212 262 312 377
#     4  10  22  40  60  90 125 163 203 252 302 366
#     4   9  21  40  63  88 122 161 202 251 310 372
#     4  11  24  40  62  90 122 166 207 259 313 378
#     4  10  21  39  67  93 120 162 209 258 311 372
#
# _framework density 10.243449
#
# number of rings (size 3 to 8) (size 9 to 14) (size 15 to 20)
#    0.000    1.625    1.250    3.375    5.250    3.000 
#    0.000    0.000    0.000    4.500    0.000    0.000 
#    0.000    0.000    0.000    0.000    0.000    0.000 
#
# Total GULP energy -178572.257868 kJ/mol
# GULP energy per Si atom -5580.383058 kJ/mol
# Density = 1.022013 g / cm^3
# Si number density = 10.243449 Si / 1000 Ang^3
#
#
#
# Elastic Constant Matrix: (Units=GPa)
#
#
# Indices 1 2 3 4 5 6 
#
# 1 25.7261 20.8544 6.7473 -0.0001 -4.7444 0.0038
# 2 20.8544 57.2657 8.4168 0.0062 -15.4628 0.0021
# 3 6.7473 8.4168 72.5199 0.0106 -2.2257 0.0088
# 4 -0.0001 0.0062 0.0106 28.4719 -0.0037 -4.0254
# 5 -4.7444 -15.4628 -2.2257 -0.0037 11.8322 -0.0047
# 6 0.0038 0.0021 0.0088 -4.0254 -0.0047 15.6508
#
#
#
# Elastic Compliance Matrix: (Units=1/GPa)
#
#
# Indices 1 2 3 4 5 6 
#
# 1 0.056056 -0.021737 -0.002891 0.000004 -0.006474 -0.000010
# 2 -0.021737 0.035723 -0.000964 -0.000001 0.037788 0.000012
# 3 -0.002891 -0.000964 0.014178 -0.000006 0.000248 -0.000009
# 4 0.000004 -0.000001 -0.000006 0.036448 0.000014 0.009374
# 5 -0.006474 0.037788 0.000248 0.000014 0.131348 0.000039
# 6 -0.000010 0.000012 -0.000009 0.009374 0.000039 0.066306
#
#
# Mechanical properties :
#
#
# Convention : Reuss Voigt Hill
#
# Bulk Modulus (GPa) = 18.25721 25.28318 21.77020
# Shear Modulus (GPa) = 12.20996 19.15718 15.68357
#
# Velocity S-wave (km/s) = 2.44394 3.06125 2.76984
# Velocity P-wave (km/s) = 4.11032 4.98627 4.56934
#
# Compressibility (1/GPa) = 0.05477289
#
# Stress axis : x y z
#
# Youngs Moduli (GPa) = 17.83923 27.99280 70.53271
#
# Poissons Ratio (x) = 0.60848 0.20394
# Poissons Ratio (y) = 0.38777 0.06799
# Poissons Ratio (z) = 0.05158 0.02698
#
# Static dielectric constant tensor:
#      x y z
#    x 1.723930 0.000010 -0.006840 
#    y 0.000010 1.856040 -0.000040 
#    z -0.006840 -0.000040 1.748350 
# 
# From -- ./inp_files/372926.got.cif
#   From: 2010.05.17/outbox.ucp.g08.bks.cvg/sg12_187_cif.got.tgz:372926.got - 2010.06.11 11:47:21.
