data_PCOD9225963
_publ_section_title
;
Structure prediction by ZEFSAII (Michael W. Deem and Ramdas Pophale) SiO2 
 PCOD9225963
Probable space group: C 2/M
;
_chemical_formula_sum "Si O2"
_cell_formula_units_Z 24
_cell_length_a 27.000000
_cell_length_b 9.000000
_cell_length_c 15.000000
_cell_angle_alpha 90.000000
_cell_angle_beta 140.000000
_cell_angle_gamma 90.000000
_cell_volume 2342.960837
_symmetry_space_group_name_H-M "C 2/M"
_symmetry_group_IT_number 12
_symmetry_cell_setting 'monoclinic'
loop_
_space_group_symop_operation_xyz
x,y,z
-x,y,-z
-x,-y,-z
x,-y,z
1/2+x,1/2+y,z
1/2-x,1/2+y,-z
1/2-x,1/2-y,-z
1/2+x,1/2-y,z
loop_
_atom_site_type_symbol
_atom_site_label
_atom_site_fract_x
_atom_site_fract_y
_atom_site_fract_z
Si Si1 0.375738 0.671334 0.831171
Si Si2 0.234526 0.173083 0.572948
Si Si3 0.498084 0.671258 0.842628
Si Si4 0.186963 0.323525 0.847700
Si Si5 0.013395 0.673760 0.676759
Si Si6 0.368656 0.321793 0.408463
O O1 0.347075 0.500000 0.789968
O O2 0.308846 0.789990 0.734908
O O3 0.427025 0.692117 0.812661
O O4 0.428662 0.687567 0.990999
O O5 0.250000 0.250000 0.500000
O O6 0.165241 0.223505 0.541031
O O7 0.224517 0.000000 0.541971
O O8 0.495082 0.500000 0.806640
O O9 0.501524 0.775902 0.762585
O O10 0.202208 0.500000 0.860525
O O11 0.178763 0.250976 0.738133
O O12 0.102368 0.302530 0.774160
O O13 0.250000 0.250000 0.000000
O O14 0.995524 0.500000 0.641337
O O15 0.956078 0.765398 0.534397
O O16 0.364388 0.500000 0.395203
#
# Coordination Sequence:
#
# PCOD9225963 Si02
#       6
#     8   8   8   8   8   8
#     4   9  19  36  57  85 122 162 209 258 306 369
#     4  11  24  39  59  89 126 164 209 259 309 370
#     4   9  19  36  59  88 122 163 208 254 310 374
#     4  11  26  46  68  96 129 164 209 264 319 378
#     4  11  24  41  64  94 127 161 208 263 314 374
#     4  11  25  44  66  94 129 169 214 262 314 376
#
# _framework density 10.243449
#
# number of rings (size 3 to 8) (size 9 to 14) (size 15 to 20)
#    0.000    1.667    0.000    4.500    2.333   12.667 
#    0.000    1.667    0.000    0.000    0.000    0.000 
#    0.000    0.000    0.000    0.000    0.000    0.000 
#
# Total GULP energy -134142.087462 kJ/mol
# GULP energy per Si atom -5589.253644 kJ/mol
# Density = 1.022013 g / cm^3
# Si number density = 10.243449 Si / 1000 Ang^3
#
#
#
# Elastic Constant Matrix: (Units=GPa)
#
#
# Indices 1 2 3 4 5 6 
#
# 1 82.1360 55.1936 48.8094 0.0000 -18.5457 0.0000
# 2 55.1936 67.3131 57.6486 0.0000 -6.2092 0.0000
# 3 48.8094 57.6486 103.8374 0.0000 -5.5906 0.0000
# 4 0.0000 0.0000 0.0000 41.8147 0.0000 -5.4089
# 5 -18.5457 -6.2092 -5.5906 0.0000 31.2137 0.0000
# 6 0.0000 0.0000 0.0000 -5.4089 0.0000 31.1340
#
#
#
# Elastic Compliance Matrix: (Units=1/GPa)
#
#
# Indices 1 2 3 4 5 6 
#
# 1 0.032326 -0.024475 -0.000843 0.000000 0.014187 0.000000
# 2 -0.024475 0.047106 -0.015071 0.000000 -0.007871 0.000000
# 3 -0.000843 -0.015071 0.018383 0.000000 -0.000206 0.000000
# 4 0.000000 0.000000 0.000000 0.024465 0.000000 0.004250
# 5 0.014187 -0.007871 -0.000206 0.000000 0.038864 0.000000
# 6 0.000000 0.000000 0.000000 0.004250 0.000000 0.032858
#
#
# Mechanical properties :
#
#
# Convention : Reuss Voigt Hill
#
# Bulk Modulus (GPa) = 58.70039 64.06551 61.38295
# Shear Modulus (GPa) = 17.82794 26.94149 22.38471
#
# Velocity S-wave (km/s) = 2.95314 3.63031 3.30909
# Velocity P-wave (km/s) = 6.35160 6.99368 6.68036
#
# Compressibility (1/GPa) = 0.01703566
#
# Stress axis : x y z
#
# Youngs Moduli (GPa) = 30.93492 21.22874 54.39816
#
# Poissons Ratio (x) = 0.51958 0.04586
# Poissons Ratio (y) = 0.75714 0.81986
# Poissons Ratio (z) = 0.02608 0.31995
#
# Static dielectric constant tensor:
#      x y z
#    x 1.759190 0.000000 0.031510 
#    y 0.000000 1.700420 0.000000 
#    z 0.031510 0.000000 1.726990 
# 
# From -- ./inp_files/244911.got.cif
#   From: 2010.05.17/outbox.ucp.g08.bks.cvg/sg12_123_cif.got.tgz:244911.got - 2010.06.11 11:47:21.
