data_PCOD9225339
_publ_section_title
;
Structure prediction by ZEFSAII (Michael W. Deem and Ramdas Pophale) SiO2 
 PCOD9225339
Probable space group: C 2/M
;
_chemical_formula_sum "Si O2"
_cell_formula_units_Z 28
_cell_length_a 9.000000
_cell_length_b 18.000000
_cell_length_c 18.000000
_cell_angle_alpha 90.000000
_cell_angle_beta 70.000000
_cell_angle_gamma 90.000000
_cell_volume 2740.143682
_symmetry_space_group_name_H-M "C 2/M"
_symmetry_group_IT_number 12
_symmetry_cell_setting 'monoclinic'
loop_
_space_group_symop_operation_xyz
x,y,z
-x,y,-z
-x,-y,-z
x,-y,z
1/2+x,1/2+y,z
1/2-x,1/2+y,-z
1/2-x,1/2-y,-z
1/2+x,1/2-y,z
loop_
_atom_site_type_symbol
_atom_site_label
_atom_site_fract_x
_atom_site_fract_y
_atom_site_fract_z
Si Si1 0.661513 0.840234 0.295361
Si Si2 0.728837 0.188302 0.872939
Si Si3 0.840624 0.084620 0.986155
Si Si4 0.510011 0.311085 0.300569
Si Si5 0.877558 0.084793 0.588375
Si Si6 0.124303 0.658868 0.127613
Si Si7 0.059264 0.585928 0.567058
O O1 0.546155 0.769762 0.328776
O O2 0.639449 0.856611 0.212303
O O3 0.591033 0.907348 0.354116
O O4 0.838926 0.819877 0.291054
O O5 0.781208 0.130171 0.925870
O O6 0.853775 0.181383 0.784735
O O7 0.762256 0.269314 0.902017
O O8 0.551821 0.178049 0.871352
O O9 0.871243 0.000000 0.959116
O O10 0.698686 0.092376 0.068864
O O11 0.000000 0.112200 0.000000
O O12 0.545009 0.370247 0.358126
O O13 0.713239 0.116381 0.583347
O O14 0.000000 0.083776 0.500000
O O15 0.847481 0.000000 0.618524
O O16 0.101615 0.500000 0.543809
O O17 0.000000 0.621222 0.500000
#
# Coordination Sequence:
#
# PCOD9225339 Si02
#       7
#     8   8   8   8   8   8   8
#     4  11  22  38  60  86 116 149 190 236 284 336
#     4  11  22  39  62  86 115 150 190 233 282 339
#     4  11  24  41  60  85 117 151 190 235 282 333
#     4  11  22  38  60  86 116 149 190 236 284 336
#     4  10  21  38  59  84 115 151 191 234 283 339
#     4  11  22  39  62  86 115 150 190 233 282 339
#     4  10  21  38  59  84 115 151 191 234 283 339
#
# _framework density 10.218442
#
# number of rings (size 3 to 8) (size 9 to 14) (size 15 to 20)
#    0.000    1.286    0.000    8.571    0.000    4.571 
#    0.000    2.857    0.000    0.000    0.000    0.000 
#    0.000    0.000    0.000    0.000    0.000    0.000 
#
# Total GULP energy -156277.763527 kJ/mol
# GULP energy per Si atom -5581.348697 kJ/mol
# Density = 1.019518 g / cm^3
# Si number density = 10.218442 Si / 1000 Ang^3
#
#
#
# Elastic Constant Matrix: (Units=GPa)
#
#
# Indices 1 2 3 4 5 6 
#
# 1 187.4366 18.8134 32.4415 0.0000 11.2960 0.0000
# 2 18.8134 39.4628 39.1040 0.0000 13.0068 0.0000
# 3 32.4415 39.1040 54.9084 0.0000 18.9598 0.0000
# 4 0.0000 0.0000 0.0000 19.8376 0.0000 -7.7277
# 5 11.2960 13.0068 18.9598 0.0000 40.4230 0.0000
# 6 0.0000 0.0000 0.0000 -7.7277 0.0000 19.3030
#
#
#
# Elastic Compliance Matrix: (Units=1/GPa)
#
#
# Indices 1 2 3 4 5 6 
#
# 1 0.005999 0.002217 -0.005129 0.000000 0.000016 0.000000
# 2 0.002217 0.086974 -0.063687 0.000000 0.001267 0.000000
# 3 -0.005129 -0.063687 0.070435 0.000000 -0.011111 0.000000
# 4 0.000000 0.000000 0.000000 0.059723 0.000000 0.023909
# 5 0.000016 0.001267 -0.011111 0.000000 0.029538 0.000000
# 6 0.000000 0.000000 0.000000 0.023909 0.000000 0.061377
#
#
# Mechanical properties :
#
#
# Convention : Reuss Voigt Hill
#
# Bulk Modulus (GPa) = 33.10172 51.39176 42.24674
# Shear Modulus (GPa) = 10.93337 28.67599 19.80468
#
# Velocity S-wave (km/s) = 2.31548 3.74993 3.11636
# Velocity P-wave (km/s) = 4.83537 6.62951 5.80221
#
# Compressibility (1/GPa) = 0.03020991
#
# Stress axis : x y z
#
# Youngs Moduli (GPa) = 166.68406 11.49764 14.19746
#
# Poissons Ratio (x) = -0.02549 0.07282
# Poissons Ratio (y) = -0.36952 0.90420
# Poissons Ratio (z) = 0.85490 0.73226
#
# Static dielectric constant tensor:
#      x y z
#    x 1.705020 0.000000 -0.000550 
#    y 0.000000 1.799100 0.000000 
#    z -0.000550 0.000000 1.774210 
# 
# From -- ./inp_files/256989.got.cif
#   From: 2010.05.17/outbox.ucp.g08.bks.cvg/sg12_129_cif.got.tgz:256989.got - 2010.06.11 11:47:21.
