data_PCOD9225251
_publ_section_title
;
Structure prediction by ZEFSAII (Michael W. Deem and Ramdas Pophale) SiO2 
 PCOD9225251
Probable space group: C 2/M
;
_chemical_formula_sum "Si O2"
_cell_formula_units_Z 24
_cell_length_a 30.000000
_cell_length_b 9.000000
_cell_length_c 9.000000
_cell_angle_alpha 90.000000
_cell_angle_beta 90.000000
_cell_angle_gamma 90.000000
_cell_volume 2430.000000
_symmetry_space_group_name_H-M "C 2/M"
_symmetry_group_IT_number 12
_symmetry_cell_setting 'monoclinic'
loop_
_space_group_symop_operation_xyz
x,y,z
-x,y,-z
-x,-y,-z
x,-y,z
1/2+x,1/2+y,z
1/2-x,1/2+y,-z
1/2-x,1/2-y,-z
1/2+x,1/2-y,z
loop_
_atom_site_type_symbol
_atom_site_label
_atom_site_fract_x
_atom_site_fract_y
_atom_site_fract_z
Si Si1 0.320512 0.178178 0.844797
Si Si2 0.517847 0.678063 0.163891
Si Si3 0.736849 0.678794 0.656184
Si Si4 0.347661 0.321388 0.155886
Si Si5 0.931070 0.178266 0.347571
Si Si6 0.405285 0.176927 0.659808
O O1 0.272246 0.222633 0.783596
O O2 0.355814 0.216144 0.715278
O O3 0.321175 0.000000 0.864068
O O4 0.334650 0.251163 0.999202
O O5 0.525808 0.500000 0.165639
O O6 0.479974 0.712779 0.285859
O O7 0.561781 0.762764 0.213187
O O8 0.500000 0.715951 0.000000
O O9 0.738790 0.500000 0.640515
O O10 0.750000 0.750000 0.500000
O O11 0.688368 0.719930 0.717940
O O12 0.346643 0.500000 0.139055
O O13 0.395798 0.278703 0.219737
O O14 0.918685 0.251872 0.503152
O O15 0.928266 0.000000 0.366299
O O16 0.408699 0.000000 0.648366
#
# Coordination Sequence:
#
# PCOD9225251 Si02
#       6
#     8   8   8   8   8   8
#     4  10  22  38  55  80 114 147 179 221 275 327
#     4  10  21  38  59  81 108 143 181 225 276 323
#     4  10  21  37  57  83 113 145 183 224 269 323
#     4  10  21  37  59  85 109 140 186 230 267 319
#     4  10  21  37  57  82 110 141 181 227 273 321
#     4  11  23  37  55  81 112 146 183 222 268 325
#
# _framework density 9.8765429999999999
#
# number of rings (size 3 to 8) (size 9 to 14) (size 15 to 20)
#    0.000    1.833    0.000    3.500    0.000    7.667 
#    0.000    0.000    0.000    0.000    0.000    0.000 
#    0.000    0.000    0.000    0.000    0.000    0.000 
#
# Total GULP energy -134130.667159 kJ/mol
# GULP energy per Si atom -5588.777798 kJ/mol
# Density = 0.985406 g / cm^3
# Si number density = 9.876543 Si / 1000 Ang^3
#
#
#
# Elastic Constant Matrix: (Units=GPa)
#
#
# Indices 1 2 3 4 5 6 
#
# 1 51.5187 9.7129 -29.7199 0.0000 3.1372 0.0000
# 2 9.7129 4.7544 7.2187 0.0000 -5.2812 0.0000
# 3 -29.7199 7.2187 60.5065 0.0000 -2.3078 0.0000
# 4 0.0000 0.0000 0.0000 37.6071 0.0000 2.7511
# 5 3.1372 -5.2812 -2.3078 0.0000 30.1800 0.0000
# 6 0.0000 0.0000 0.0000 2.7511 0.0000 21.1038
#
#
#
# Elastic Compliance Matrix: (Units=1/GPa)
#
#
# Indices 1 2 3 4 5 6 
#
# 1 -0.042416 0.188375 -0.042005 0.000000 0.034161 0.000000
# 2 0.188375 -0.509851 0.149641 0.000000 -0.097358 0.000000
# 3 -0.042005 0.149641 -0.020853 0.000000 0.028958 0.000000
# 4 0.000000 0.000000 0.000000 0.026847 0.000000 -0.003500
# 5 0.034161 -0.097358 0.028958 0.000000 0.014761 0.000000
# 6 0.000000 0.000000 0.000000 -0.003500 0.000000 0.047841
#
#
# Mechanical properties :
#
#
# Convention : Reuss Voigt Hill
#
# Bulk Modulus (GPa) = 52.90323 10.13366 31.51844
# Shear Modulus (GPa) = -4.67555 26.41606 10.87025
#
# Velocity S-wave (km/s) = -1.54017 3.66090 2.34841
# Velocity P-wave (km/s) = 4.86596 4.79696 4.83158
#
# Compressibility (1/GPa) = 0.01890244
#
# Stress axis : x y z
#
# Youngs Moduli (GPa) = -23.57593 -1.96136 -47.95363
#
# Poissons Ratio (x) = 0.36947 -2.01430
# Poissons Ratio (y) = 4.44113 7.17583
# Poissons Ratio (z) = -0.99031 0.29350
#
# Static dielectric constant tensor:
#      x y z
#    x 1.702100 0.000000 -0.003400 
#    y 0.000000 1.663310 0.000000 
#    z -0.003400 0.000000 1.646790 
# 
# From -- ./inp_files/108572.got.cif
#   From: 2010.05.17/outbox.ucp.g08.bks.cvg/sg12_55_cif.got.tgz:108572.got - 2010.06.11 11:47:21.
