data_PCOD9225535
_publ_section_title
;
Structure prediction by ZEFSAII (Michael W. Deem and Ramdas Pophale) SiO2 
 PCOD9225535
Probable space group: C 2/M
;
_chemical_formula_sum "Si O2"
_cell_formula_units_Z 22
_cell_length_a 27.000000
_cell_length_b 15.000000
_cell_length_c 9.000000
_cell_angle_alpha 90.000000
_cell_angle_beta 140.000000
_cell_angle_gamma 90.000000
_cell_volume 2342.960837
_symmetry_space_group_name_H-M "C 2/M"
_symmetry_group_IT_number 12
_symmetry_cell_setting 'monoclinic'
loop_
_space_group_symop_operation_xyz
x,y,z
-x,y,-z
-x,-y,-z
x,-y,z
1/2+x,1/2+y,z
1/2-x,1/2+y,-z
1/2-x,1/2-y,-z
1/2+x,1/2-y,z
loop_
_atom_site_type_symbol
_atom_site_label
_atom_site_fract_x
_atom_site_fract_y
_atom_site_fract_z
Si Si1 0.180664 0.105752 0.435577
Si Si2 0.500000 0.162437 0.000000
Si Si3 0.430007 0.294352 0.599094
Si Si4 0.833920 0.252782 0.106494
Si Si5 0.856547 0.605575 0.887171
Si Si6 0.408133 0.393063 0.074798
O O1 0.139814 0.151836 0.482466
O O2 0.271540 0.125848 0.620924
O O3 0.175212 0.000000 0.446082
O O4 0.130255 0.126999 0.173964
O O5 0.457750 0.223648 0.783350
O O6 0.429302 0.118999 0.939110
O O7 0.396993 0.243438 0.381397
O O8 0.504142 0.355434 0.727203
O O9 0.855246 0.160137 0.070925
O O10 0.750000 0.250000 0.000000
O O11 0.851654 0.329883 0.022790
O O12 0.857346 0.500000 0.929970
O O13 0.408304 0.500000 0.098668
#
# Coordination Sequence:
#
# PCOD9225535 Si02
#       6
#     8   4   8   8   8   8
#     4  10  21  40  68  99 131 173 221 273 330 390
#     4  12  25  42  73  96 128 180 229 280 325 390
#     4  12  22  40  68  98 136 173 215 271 342 399
#     4  12  26  42  66  96 138 179 219 268 339 399
#     4  11  25  47  68  96 134 179 231 277 322 386
#     4  11  24  42  67 102 135 169 218 274 337 406
#
# _framework density 9.3898279999999996
#
# number of rings (size 3 to 8) (size 9 to 14) (size 15 to 20)
#    0.000    0.727    5.455    1.364    2.545    5.818 
#    0.000    2.727    0.000    0.000    0.000    0.000 
#    0.000    0.000    0.000    0.000    0.000    0.000 
#
# Total GULP energy -122695.346396 kJ/mol
# GULP energy per Si atom -5577.061200 kJ/mol
# Density = 0.936846 g / cm^3
# Si number density = 9.389828 Si / 1000 Ang^3
#
#
#
# Elastic Constant Matrix: (Units=GPa)
#
#
# Indices 1 2 3 4 5 6 
#
# 1 168.4554 58.5794 41.2607 0.0000 26.2193 0.0000
# 2 58.5794 90.6714 44.2733 0.0000 -0.4323 0.0000
# 3 41.2607 44.2733 123.6565 0.0000 2.9207 0.0000
# 4 0.0000 0.0000 0.0000 26.9267 0.0000 4.8138
# 5 26.2193 -0.4323 2.9207 0.0000 42.2243 0.0000
# 6 0.0000 0.0000 0.0000 4.8138 0.0000 39.2806
#
#
#
# Elastic Compliance Matrix: (Units=1/GPa)
#
#
# Indices 1 2 3 4 5 6 
#
# 1 0.008861 -0.005296 -0.000931 0.000000 -0.005492 0.000000
# 2 -0.005296 0.016541 -0.004243 0.000000 0.003752 0.000000
# 3 -0.000931 -0.004243 0.009920 0.000000 -0.000152 0.000000
# 4 0.000000 0.000000 0.000000 0.037970 0.000000 -0.004653
# 5 -0.005492 0.003752 -0.000152 0.000000 0.027142 0.000000
# 6 0.000000 0.000000 0.000000 -0.004653 0.000000 0.026028
#
#
# Mechanical properties :
#
#
# Convention : Reuss Voigt Hill
#
# Bulk Modulus (GPa) = 69.53725 74.55667 72.04696
# Shear Modulus (GPa) = 32.85230 37.59763 35.22496
#
# Velocity S-wave (km/s) = 4.18707 4.47927 4.33563
# Velocity P-wave (km/s) = 7.77713 8.15713 7.96939
#
# Compressibility (1/GPa) = 0.01438078
#
# Stress axis : x y z
#
# Youngs Moduli (GPa) = 112.85611 60.45747 100.80334
#
# Poissons Ratio (x) = 0.32021 0.09381
# Poissons Ratio (y) = 0.59774 0.42775
# Poissons Ratio (z) = 0.10502 0.25655
#
# Static dielectric constant tensor:
#      x y z
#    x 1.666540 0.000000 -0.007690 
#    y 0.000000 1.657960 0.000000 
#    z -0.007690 0.000000 1.690390 
# 
# From -- ./inp_files/104810.got.cif
#   From: 2010.05.17/outbox.ucp.g08.bks.cvg/sg12_53_cif.got.tgz:104810.got - 2010.06.11 11:47:21.
