data_PCOD9225919
_publ_section_title
;
Structure prediction by ZEFSAII (Michael W. Deem and Ramdas Pophale) SiO2 
 PCOD9225919
Probable space group: C 2/M
;
_chemical_formula_sum "Si O2"
_cell_formula_units_Z 32
_cell_length_a 21.000000
_cell_length_b 24.000000
_cell_length_c 18.000000
_cell_angle_alpha 90.000000
_cell_angle_beta 20.000000
_cell_angle_gamma 90.000000
_cell_volume 3102.806740
_symmetry_space_group_name_H-M "C 2/M"
_symmetry_group_IT_number 12
_symmetry_cell_setting 'monoclinic'
loop_
_space_group_symop_operation_xyz
x,y,z
-x,y,-z
-x,-y,-z
x,-y,z
1/2+x,1/2+y,z
1/2-x,1/2+y,-z
1/2-x,1/2-y,-z
1/2+x,1/2-y,z
loop_
_atom_site_type_symbol
_atom_site_label
_atom_site_fract_x
_atom_site_fract_y
_atom_site_fract_z
Si Si1 0.908220 0.373542 0.176906
Si Si2 0.407152 0.065004 0.713398
Si Si3 0.760888 0.647778 0.098552
Si Si4 0.046160 0.062872 0.537159
Si Si5 0.157728 0.787331 0.538312
Si Si6 0.793390 0.838406 0.997382
Si Si7 0.288261 0.565963 0.233451
Si Si8 0.091304 0.257337 0.323058
O O1 0.758108 0.420123 0.320865
O O2 0.806710 0.325068 0.332890
O O3 0.000000 0.353648 0.000000
O O4 0.078554 0.389521 0.043101
O O5 0.620070 0.087649 0.470759
O O6 0.303171 0.068906 0.747853
O O7 0.417899 0.000000 0.721096
O O8 0.279187 0.099780 0.908535
O O9 0.584748 0.608014 0.280695
O O10 0.808409 0.677430 0.968651
O O11 0.696446 0.698524 0.221564
O O12 0.000000 0.067397 0.500000
O O13 0.009214 0.000000 0.601447
O O14 0.250000 0.750000 0.500000
O O15 0.006357 0.825318 0.747058
O O16 0.052861 0.755139 0.586047
O O17 0.728500 0.802716 0.138597
O O18 0.306070 0.500000 0.232708
O O19 0.500000 0.589139 0.000000
O O20 0.000000 0.275634 0.500000
#
# Coordination Sequence:
#
# PCOD9225919 Si02
#       8
#     8   8   8   8   8   8   8   8
#     4  12  22  39  72  95 123 170 223 267 329 405
#     4   9  19  36  59  86 122 165 209 255 318 389
#     4  11  22  43  64  91 129 175 211 265 342 402
#     4  11  23  41  65  98 135 170 221 280 331 399
#     4  11  23  43  63  96 132 170 221 278 340 410
#     4  11  23  40  62  92 134 173 211 274 337 392
#     4   8  15  33  60  84 113 157 205 257 310 366
#     4  11  22  40  67  93 128 170 222 277 330 400
#
# _framework density 10.313243
#
# number of rings (size 3 to 8) (size 9 to 14) (size 15 to 20)
#    0.000    1.500    3.750    4.875    1.750    1.250 
#    4.500    0.000    0.000    0.000    0.000    0.000 
#    0.000    0.000    0.000    0.000    0.000    0.000 
#
# Total GULP energy -178450.065913 kJ/mol
# GULP energy per Si atom -5576.564560 kJ/mol
# Density = 1.028977 g / cm^3
# Si number density = 10.313243 Si / 1000 Ang^3
#
#
#
# Elastic Constant Matrix: (Units=GPa)
#
#
# Indices 1 2 3 4 5 6 
#
# 1 49.1849 15.3983 41.3405 0.2182 -2.9475 -0.0735
# 2 15.3983 65.1261 41.6246 0.0842 7.0348 0.0053
# 3 41.3405 41.6246 140.1170 0.2775 7.9024 -0.0515
# 4 0.2182 0.0842 0.2775 -56.6484 -0.0832 26.4734
# 5 -2.9475 7.0348 7.9024 -0.0832 47.2597 0.0194
# 6 -0.0735 0.0053 -0.0515 26.4734 0.0194 15.7345
#
#
#
# Elastic Compliance Matrix: (Units=1/GPa)
#
#
# Indices 1 2 3 4 5 6 
#
# 1 0.027671 -0.001929 -0.007778 0.000060 0.003314 -0.000001
# 2 -0.001929 0.019258 -0.005031 -0.000008 -0.002146 -0.000016
# 3 -0.007778 -0.005031 0.011015 0.000011 -0.001578 -0.000016
# 4 0.000060 -0.000008 0.000011 -0.009882 -0.000021 0.016627
# 5 0.003314 -0.002146 -0.001578 -0.000021 0.021950 0.000020
# 6 -0.000001 -0.000016 -0.000016 0.016627 0.000020 0.035579
#
#
# Mechanical properties :
#
#
# Convention : Reuss Voigt Hill
#
# Bulk Modulus (GPa) = 35.12671 50.12832 42.62752
# Shear Modulus (GPa) = 34.58836 11.67347 23.13092
#
# Velocity S-wave (km/s) = 4.09943 2.38154 3.35239
# Velocity P-wave (km/s) = 6.28283 5.64960 5.97461
#
# Compressibility (1/GPa) = 0.02846837
#
# Stress axis : x y z
#
# Youngs Moduli (GPa) = 36.13845 51.92610 90.78348
#
# Poissons Ratio (x) = 0.10018 0.70612
# Poissons Ratio (y) = 0.06972 0.45671
# Poissons Ratio (z) = 0.28109 0.26123
#
# Static dielectric constant tensor:
#      x y z
#    x 1.780590 -0.000020 0.030530 
#    y -0.000020 1.736270 0.000010 
#    z 0.030530 0.000010 1.875960 
# 
# From -- ./inp_files/286418.got.cif
#   From: 2010.05.17/outbox.ucp.g08.bks.cvg/sg12_144_cif.got.tgz:286418.got - 2010.06.11 11:47:21.
