data_PCOD9225989
_publ_section_title
;
Structure prediction by ZEFSAII (Michael W. Deem and Ramdas Pophale) SiO2 
 PCOD9225989
Probable space group: C 2/M
;
_chemical_formula_sum "Si O2"
_cell_formula_units_Z 16
_cell_length_a 15.000000
_cell_length_b 21.000000
_cell_length_c 15.000000
_cell_angle_alpha 90.000000
_cell_angle_beta 20.000000
_cell_angle_gamma 90.000000
_cell_volume 1616.045177
_symmetry_space_group_name_H-M "C 2/M"
_symmetry_group_IT_number 12
_symmetry_cell_setting 'monoclinic'
loop_
_space_group_symop_operation_xyz
x,y,z
-x,y,-z
-x,-y,-z
x,-y,z
1/2+x,1/2+y,z
1/2-x,1/2+y,-z
1/2-x,1/2-y,-z
1/2+x,1/2-y,z
loop_
_atom_site_type_symbol
_atom_site_label
_atom_site_fract_x
_atom_site_fract_y
_atom_site_fract_z
Si Si1 0.788385 0.271790 0.564490
Si Si2 0.226587 0.370917 0.711293
Si Si3 0.189799 0.000000 0.999244
Si Si4 0.164490 0.856807 0.937038
Si Si5 0.738258 0.000000 0.576563
O O1 0.750000 0.250000 0.500000
O O2 0.754378 0.203126 0.648836
O O3 0.056592 0.315566 0.328821
O O4 0.536230 0.316183 0.815768
O O5 0.500000 0.383334 0.500000
O O6 0.210991 0.432537 0.658204
O O7 0.000000 0.372950 0.000000
O O8 0.172537 0.931127 0.963089
O O9 0.483608 0.000000 0.756108
O O10 0.988415 0.000000 0.273607
O O11 0.000000 0.857741 0.000000
#
# Coordination Sequence:
#
# PCOD9225989 Si02
#       5
#     8   8   4   8   4
#     4  12  25  43  68  99 133 174 221 273 330 393
#     4  12  24  43  68  98 133 173 217 271 330 394
#     4  12  25  45  68  96 133 176 221 274 329 390
#     4  12  25  44  68  98 133 174 222 274 330 392
#     4  12  26  45  67  98 133 174 221 270 329 396
#
# _framework density 9.9007129999999997
#
# number of rings (size 3 to 8) (size 9 to 14) (size 15 to 20)
#    0.000    0.000    0.000   12.375    0.000    0.000 
#    0.000    3.750    0.000    0.000    0.000    0.000 
#    0.000    0.000    0.000    0.000    0.000    0.000 
#
# Total GULP energy -89079.324506 kJ/mol
# GULP energy per Si atom -5567.457782 kJ/mol
# Density = 0.987818 g / cm^3
# Si number density = 9.900713 Si / 1000 Ang^3
#
#
#
# Elastic Constant Matrix: (Units=GPa)
#
#
# Indices 1 2 3 4 5 6 
#
# 1 74.0276 37.4290 10.6355 -0.2946 -0.4552 0.3407
# 2 37.4290 198.9996 36.8641 -0.1885 4.5360 0.2751
# 3 10.6355 36.8641 135.0078 -0.5341 -1.3726 0.3800
# 4 -0.2946 -0.1885 -0.5341 49.3032 -0.1027 -0.4472
# 5 -0.4552 4.5360 -1.3726 -0.1027 41.0370 0.0047
# 6 0.3407 0.2751 0.3800 -0.4472 0.0047 66.8848
#
#
#
# Elastic Compliance Matrix: (Units=1/GPa)
#
#
# Indices 1 2 3 4 5 6 
#
# 1 0.014961 -0.002746 -0.000424 0.000075 0.000455 -0.000062
# 2 -0.002746 0.005813 -0.001378 -0.000011 -0.000719 -0.000002
# 3 -0.000424 -0.001378 0.007821 0.000077 0.000409 -0.000036
# 4 0.000075 -0.000011 0.000077 0.020285 0.000055 0.000135
# 5 0.000455 -0.000719 0.000409 0.000055 0.024467 -0.000003
# 6 -0.000062 -0.000002 -0.000036 0.000135 -0.000003 0.014953
#
#
# Mechanical properties :
#
#
# Convention : Reuss Voigt Hill
#
# Bulk Modulus (GPa) = 51.28226 64.21025 57.74626
# Shear Modulus (GPa) = 48.12527 52.98544 50.55536
#
# Velocity S-wave (km/s) = 4.93525 5.17846 5.05832
# Velocity P-wave (km/s) = 7.64396 8.26152 7.95873
#
# Compressibility (1/GPa) = 0.01949992
#
# Stress axis : x y z
#
# Youngs Moduli (GPa) = 66.84059 172.01988 127.85596
#
# Poissons Ratio (x) = 0.47231 0.05418
# Poissons Ratio (y) = 0.18352 0.17623
# Poissons Ratio (z) = 0.02832 0.23711
#
# Static dielectric constant tensor:
#      x y z
#    x 1.797450 -0.000140 0.065910 
#    y -0.000140 1.766330 -0.000020 
#    z 0.065910 -0.000020 1.719400 
# 
# From -- ./inp_files/217830.got.cif
#   From: 2010.05.17/outbox.ucp.g08.bks.cvg/sg12_109_cif.got.tgz:217830.got - 2010.06.11 11:47:21.
