data_PCOD9225466
_publ_section_title
;
Structure prediction by ZEFSAII (Michael W. Deem and Ramdas Pophale) SiO2 
 PCOD9225466
Probable space group: C 2/M
;
_chemical_formula_sum "Si O2"
_cell_formula_units_Z 21
_cell_length_a 18.000000
_cell_length_b 9.000000
_cell_length_c 15.000000
_cell_angle_alpha 90.000000
_cell_angle_beta 70.000000
_cell_angle_gamma 90.000000
_cell_volume 2283.453069
_symmetry_space_group_name_H-M "C 2/M"
_symmetry_group_IT_number 12
_symmetry_cell_setting 'monoclinic'
loop_
_space_group_symop_operation_xyz
x,y,z
-x,y,-z
-x,-y,-z
x,-y,z
1/2+x,1/2+y,z
1/2-x,1/2+y,-z
1/2-x,1/2-y,-z
1/2+x,1/2-y,z
loop_
_atom_site_type_symbol
_atom_site_label
_atom_site_fract_x
_atom_site_fract_y
_atom_site_fract_z
Si Si1 0.275224 0.321022 0.711915
Si Si2 0.701302 0.820166 0.103958
Si Si3 0.406370 0.178856 0.529079
Si Si4 0.500000 0.500000 0.000000
Si Si5 0.886762 0.678150 0.329586
Si Si6 0.531716 0.665369 0.168244
O O1 0.281214 0.500000 0.719531
O O2 0.270366 0.243611 0.811376
O O3 0.350088 0.259200 0.624350
O O4 0.195134 0.288548 0.688362
O O5 0.610117 0.766067 0.135450
O O6 0.708230 0.000000 0.099096
O O7 0.750000 0.750000 0.000000
O O8 0.500000 0.214451 0.500000
O O9 0.382020 0.215703 0.436921
O O10 0.398189 0.000000 0.544861
O O11 0.493161 0.627290 0.923071
O O12 0.900326 0.500000 0.318633
O O13 0.960136 0.761311 0.252507
O O14 0.551253 0.500000 0.198981
#
# Coordination Sequence:
#
# PCOD9225466 Si02
#       6
#     8   8   8   2   8   8
#     4  11  24  40  61  94 128 165 212 260 310 370
#     4  12  26  43  65  90 125 166 211 260 313 369
#     4  10  21  39  63  90 124 166 210 259 316 375
#     4   8  24  40  66  92 130 156 214 256 302 380
#     4  10  22  39  62  93 130 165 210 257 311 374
#     4  10  22  41  64  92 124 161 206 253 309 370
#
# _framework density 9.1965979999999998
#
# number of rings (size 3 to 8) (size 9 to 14) (size 15 to 20)
#    0.571    0.952    0.000    4.571    2.667    4.190 
#    0.000    0.952    0.000    0.000    0.000    0.000 
#    0.000    0.000    0.000    0.000    0.000    0.000 
#
# Total GULP energy -117015.634119 kJ/mol
# GULP energy per Si atom -5572.173053 kJ/mol
# Density = 0.917567 g / cm^3
# Si number density = 9.196598 Si / 1000 Ang^3
#
#
#
# Elastic Constant Matrix: (Units=GPa)
#
#
# Indices 1 2 3 4 5 6 
#
# 1 112.1671 55.0684 81.1522 0.0000 -7.1737 0.0000
# 2 55.0684 124.5674 74.9317 0.0000 -7.1563 0.0000
# 3 81.1522 74.9317 178.2494 0.0000 4.7230 0.0000
# 4 0.0000 0.0000 0.0000 43.5646 0.0000 -4.9584
# 5 -7.1737 -7.1563 4.7230 0.0000 43.7096 0.0000
# 6 0.0000 0.0000 0.0000 -4.9584 0.0000 32.2397
#
#
#
# Elastic Compliance Matrix: (Units=1/GPa)
#
#
# Indices 1 2 3 4 5 6 
#
# 1 0.014437 -0.003009 -0.005373 0.000000 0.002457 0.000000
# 2 -0.003009 0.011598 -0.003553 0.000000 0.001789 0.000000
# 3 -0.005373 -0.003553 0.009616 0.000000 -0.002503 0.000000
# 4 0.000000 0.000000 0.000000 0.023363 0.000000 0.003593
# 5 0.002457 0.001789 -0.002503 0.000000 0.023845 0.000000
# 6 0.000000 0.000000 0.000000 0.003593 0.000000 0.031570
#
#
# Mechanical properties :
#
#
# Convention : Reuss Voigt Hill
#
# Bulk Modulus (GPa) = 84.88092 93.03204 88.95648
# Shear Modulus (GPa) = 35.15508 37.49157 36.32332
#
# Velocity S-wave (km/s) = 4.37659 4.51969 4.44872
# Velocity P-wave (km/s) = 8.47276 8.82758 8.65199
#
# Compressibility (1/GPa) = 0.01178121
#
# Stress axis : x y z
#
# Youngs Moduli (GPa) = 69.26618 86.22147 103.99128
#
# Poissons Ratio (x) = 0.25945 0.55874
# Poissons Ratio (y) = 0.20843 0.36948
# Poissons Ratio (z) = 0.37217 0.30634
#
# Static dielectric constant tensor:
#      x y z
#    x 1.644140 0.000000 0.020430 
#    y 0.000000 1.631500 0.000000 
#    z 0.020430 0.000000 1.602640 
# 
# From -- ./inp_files/220718.got.cif
#   From: 2010.05.17/outbox.ucp.g08.bks.cvg/sg12_111_cif.got.tgz:220718.got - 2010.06.11 11:47:21.
