data_PCOD9225907
_publ_section_title
;
Structure prediction by ZEFSAII (Michael W. Deem and Ramdas Pophale) SiO2 
 PCOD9225907
Probable space group: C 2/M
;
_chemical_formula_sum "Si O2"
_cell_formula_units_Z 24
_cell_length_a 15.000000
_cell_length_b 9.000000
_cell_length_c 27.000000
_cell_angle_alpha 90.000000
_cell_angle_beta 40.000000
_cell_angle_gamma 90.000000
_cell_volume 2342.960837
_symmetry_space_group_name_H-M "C 2/M"
_symmetry_group_IT_number 12
_symmetry_cell_setting 'monoclinic'
loop_
_space_group_symop_operation_xyz
x,y,z
-x,y,-z
-x,-y,-z
x,-y,z
1/2+x,1/2+y,z
1/2-x,1/2+y,-z
1/2-x,1/2-y,-z
1/2+x,1/2-y,z
loop_
_atom_site_type_symbol
_atom_site_label
_atom_site_fract_x
_atom_site_fract_y
_atom_site_fract_z
Si Si1 0.883016 0.829468 0.896264
Si Si2 0.081388 0.177785 0.314592
Si Si3 0.613859 0.678608 0.990966
Si Si4 0.307601 0.670466 0.272297
Si Si5 0.647942 0.176784 0.646126
Si Si6 0.574976 0.679991 0.518197
O O1 0.907365 0.775225 0.942490
O O2 0.030118 0.829192 0.807715
O O3 0.832432 0.000000 0.920940
O O4 0.769165 0.735288 0.915593
O O5 0.226770 0.259023 0.260516
O O6 0.991916 0.237121 0.307175
O O7 0.998265 0.225171 0.400069
O O8 0.094614 0.000000 0.307519
O O9 0.609555 0.500000 0.991489
O O10 0.500000 0.733369 0.000000
O O11 0.262786 0.500000 0.300059
O O12 0.289978 0.773299 0.327788
O O13 0.764357 0.219984 0.556193
O O14 0.627308 0.000000 0.654103
O O15 0.500000 0.734197 0.500000
O O16 0.567988 0.500000 0.520240
#
# Coordination Sequence:
#
# PCOD9225907 Si02
#       6
#     8   8   8   8   8   8
#     4   9  20  37  56  82 116 147 180 227 272 323
#     4  11  22  38  59  83 113 148 190 238 291 345
#     4   9  18  35  60  87 112 143 183 222 268 327
#     4  11  23  39  56  81 118 155 192 232 280 335
#     4  11  22  38  59  82 111 148 192 241 292 340
#     4   9  17  34  58  81 107 143 188 240 290 340
#
# _framework density 10.243449
#
# number of rings (size 3 to 8) (size 9 to 14) (size 15 to 20)
#    0.000    2.000    1.667    2.000    0.000    3.000 
#    0.000    5.000    0.000    0.000    0.000    0.000 
#    0.000    0.000    0.000    0.000    0.000    0.000 
#
# Total GULP energy -133894.127557 kJ/mol
# GULP energy per Si atom -5578.921982 kJ/mol
# Density = 1.022013 g / cm^3
# Si number density = 10.243449 Si / 1000 Ang^3
#
#
#
# Elastic Constant Matrix: (Units=GPa)
#
#
# Indices 1 2 3 4 5 6 
#
# 1 130.9832 26.3743 4.1319 0.0000 -25.1207 0.0000
# 2 26.3743 41.6028 11.9046 0.0000 -11.1634 0.0000
# 3 4.1319 11.9046 29.7607 0.0000 -14.4204 0.0000
# 4 0.0000 0.0000 0.0000 19.9740 0.0000 -2.2740
# 5 -25.1207 -11.1634 -14.4204 0.0000 20.5569 0.0000
# 6 0.0000 0.0000 0.0000 -2.2740 0.0000 30.4722
#
#
#
# Elastic Compliance Matrix: (Units=1/GPa)
#
#
# Indices 1 2 3 4 5 6 
#
# 1 0.011895 -0.005324 0.009272 0.000000 0.018148 0.000000
# 2 -0.005324 0.031205 -0.010127 0.000000 0.003336 0.000000
# 3 0.009272 -0.010127 0.059370 0.000000 0.047479 0.000000
# 4 0.000000 0.000000 0.000000 0.050494 0.000000 0.003768
# 5 0.018148 0.003336 0.047479 0.000000 0.105940 0.000000
# 6 0.000000 0.000000 0.000000 0.003768 0.000000 0.033098
#
#
# Mechanical properties :
#
#
# Convention : Reuss Voigt Hill
#
# Bulk Modulus (GPa) = 11.09725 31.90762 21.50243
# Shear Modulus (GPa) = 14.95225 24.86301 19.90763
#
# Velocity S-wave (km/s) = 2.70449 3.48746 3.12063
# Velocity P-wave (km/s) = 3.89627 5.64136 4.84798
#
# Compressibility (1/GPa) = 0.09011245
#
# Stress axis : x y z
#
# Youngs Moduli (GPa) = 84.07085 32.04619 16.84338
#
# Poissons Ratio (x) = 0.17062 -0.15617
# Poissons Ratio (y) = 0.44760 0.17057
# Poissons Ratio (z) = -0.77950 0.32452
#
# Static dielectric constant tensor:
#      x y z
#    x 1.731700 0.000000 -0.012660 
#    y 0.000000 1.687440 0.000000 
#    z -0.012660 0.000000 1.786160 
# 
# From -- ./inp_files/308276.got.cif
#   From: 2010.05.17/outbox.ucp.g08.bks.cvg/sg12_155_cif.got.tgz:308276.got - 2010.06.11 11:47:21.
