data_PCOD9225269
_publ_section_title
;
Structure prediction by ZEFSAII (Michael W. Deem and Ramdas Pophale) SiO2 
 PCOD9225269
Probable space group: C 2/M
;
_chemical_formula_sum "Si O2"
_cell_formula_units_Z 32
_cell_length_a 30.000000
_cell_length_b 9.000000
_cell_length_c 15.000000
_cell_angle_alpha 90.000000
_cell_angle_beta 120.000000
_cell_angle_gamma 90.000000
_cell_volume 3507.402885
_symmetry_space_group_name_H-M "C 2/M"
_symmetry_group_IT_number 12
_symmetry_cell_setting 'monoclinic'
loop_
_space_group_symop_operation_xyz
x,y,z
-x,y,-z
-x,-y,-z
x,-y,z
1/2+x,1/2+y,z
1/2-x,1/2+y,-z
1/2-x,1/2-y,-z
1/2+x,1/2-y,z
loop_
_atom_site_type_symbol
_atom_site_label
_atom_site_fract_x
_atom_site_fract_y
_atom_site_fract_z
Si Si1 0.529525 0.681286 0.437932
Si Si2 0.216818 0.679290 0.048572
Si Si3 0.609123 0.326331 0.993504
Si Si4 0.252842 0.321730 0.286390
Si Si5 0.925383 0.321637 0.854154
Si Si6 0.145806 0.178918 0.517290
Si Si7 0.497118 0.673040 0.205670
Si Si8 0.328529 0.679697 0.659713
O O1 0.500000 0.729677 0.500000
O O2 0.528669 0.500000 0.440154
O O3 0.589070 0.732559 0.488122
O O4 0.506371 0.722765 0.317201
O O5 0.215006 0.500000 0.035322
O O6 0.159356 0.746559 0.003213
O O7 0.240471 0.710701 0.170897
O O8 0.250000 0.750000 0.000000
O O9 0.620946 0.500000 0.026216
O O10 0.586164 0.248464 0.059837
O O11 0.562992 0.322904 0.876571
O O12 0.244998 0.500000 0.291512
O O13 0.311566 0.283718 0.367292
O O14 0.217995 0.237484 0.324800
O O15 0.927408 0.500000 0.863480
O O16 0.877516 0.262365 0.749425
O O17 0.973542 0.262247 0.843690
O O18 0.168623 0.220544 0.442613
O O19 0.141389 0.000000 0.508885
O O20 0.515080 0.500000 0.217299
O O21 0.331904 0.500000 0.669966
#
# Coordination Sequence:
#
# PCOD9225269 Si02
#       8
#     8   8   8   8   8   8   8   8
#     4   9  17  32  57  86 114 146 190 238 284 337
#     4  11  24  41  61  85 119 158 202 247 289 342
#     4  11  23  39  62  89 119 153 193 243 295 350
#     4  10  21  37  58  86 117 150 190 238 292 347
#     4  12  23  36  58  87 120 157 193 237 292 353
#     4   9  18  33  56  86 118 149 185 236 291 345
#     4  10  21  38  60  89 119 152 194 239 290 350
#     4  11  20  34  59  86 117 152 187 235 292 352
#
# _framework density 9.1235599999999994
#
# number of rings (size 3 to 8) (size 9 to 14) (size 15 to 20)
#    0.000    1.625    2.500    3.000    0.000    4.000 
#    0.000    4.375    0.000    0.375    0.000    0.000 
#    0.000    0.000    0.000    0.000    0.000    0.000 
#
# Total GULP energy -178433.774154 kJ/mol
# GULP energy per Si atom -5576.055442 kJ/mol
# Density = 0.910279 g / cm^3
# Si number density = 9.123560 Si / 1000 Ang^3
#
#
#
# Elastic Constant Matrix: (Units=GPa)
#
#
# Indices 1 2 3 4 5 6 
#
# 1 168.5682 54.7941 90.3064 0.0000 -21.9648 0.0000
# 2 54.7941 82.9435 39.6408 0.0000 -6.7639 0.0000
# 3 90.3064 39.6408 107.0377 0.0000 1.0899 0.0000
# 4 0.0000 0.0000 0.0000 15.8514 0.0000 -3.9503
# 5 -21.9648 -6.7639 1.0899 0.0000 34.1561 0.0000
# 6 0.0000 0.0000 0.0000 -3.9503 0.0000 34.3933
#
#
#
# Elastic Compliance Matrix: (Units=1/GPa)
#
#
# Indices 1 2 3 4 5 6 
#
# 1 0.013710 -0.003398 -0.010395 0.000000 0.008475 0.000000
# 2 -0.003398 0.015822 -0.003003 0.000000 0.001044 0.000000
# 3 -0.010395 -0.003003 0.019305 0.000000 -0.007895 0.000000
# 4 0.000000 0.000000 0.000000 0.064945 0.000000 0.007459
# 5 0.008475 0.001044 -0.007895 0.000000 0.035186 0.000000
# 6 0.000000 0.000000 0.000000 0.007459 0.000000 0.029932
#
#
# Mechanical properties :
#
#
# Convention : Reuss Voigt Hill
#
# Bulk Modulus (GPa) = 65.59687 80.89245 73.24466
# Shear Modulus (GPa) = 22.98075 28.46737 25.72406
#
# Velocity S-wave (km/s) = 3.55268 3.95410 3.75875
# Velocity P-wave (km/s) = 7.27021 8.07926 7.68539
#
# Compressibility (1/GPa) = 0.01524463
#
# Stress axis : x y z
#
# Youngs Moduli (GPa) = 72.93972 63.20461 51.79986
#
# Poissons Ratio (x) = 0.21477 0.53845
# Poissons Ratio (y) = 0.24785 0.15557
# Poissons Ratio (z) = 0.75819 0.18982
#
# Static dielectric constant tensor:
#      x y z
#    x 1.633670 0.000000 0.026330 
#    y 0.000000 1.625100 0.000000 
#    z 0.026330 0.000000 1.655440 
# 
# From -- ./inp_files/248978.got.cif
#   From: 2010.05.17/outbox.ucp.g08.bks.cvg/sg12_125_cif.got.tgz:248978.got - 2010.06.11 11:47:21.
