data_PCOD9225845
_publ_section_title
;
Structure prediction by ZEFSAII (Michael W. Deem and Ramdas Pophale) SiO2 
 PCOD9225845
Probable space group: C 2/M
;
_chemical_formula_sum "Si O2"
_cell_formula_units_Z 32
_cell_length_a 9.000000
_cell_length_b 27.000000
_cell_length_c 15.000000
_cell_angle_alpha 90.000000
_cell_angle_beta 100.000000
_cell_angle_gamma 90.000000
_cell_volume 3589.624260
_symmetry_space_group_name_H-M "C 2/M"
_symmetry_group_IT_number 12
_symmetry_cell_setting 'monoclinic'
loop_
_space_group_symop_operation_xyz
x,y,z
-x,y,-z
-x,-y,-z
x,-y,z
1/2+x,1/2+y,z
1/2-x,1/2+y,-z
1/2-x,1/2-y,-z
1/2+x,1/2-y,z
loop_
_atom_site_type_symbol
_atom_site_label
_atom_site_fract_x
_atom_site_fract_y
_atom_site_fract_z
Si Si1 0.960340 0.941916 0.887358
Si Si2 0.242267 0.649202 0.867898
Si Si3 0.895153 0.754340 0.845298
Si Si4 0.533682 0.686620 0.398298
Si Si5 0.606051 0.206235 0.598413
Si Si6 0.194932 0.192084 0.931835
Si Si7 0.943590 0.341476 0.743603
Si Si8 0.360494 0.618295 0.236330
O O1 0.829698 0.901299 0.857938
O O2 0.073049 0.928397 0.814388
O O3 0.921837 0.000000 0.876041
O O4 0.000000 0.935134 0.000000
O O5 0.298219 0.696509 0.815663
O O6 0.065561 0.643597 0.831944
O O7 0.291450 0.666571 0.971812
O O8 0.835758 0.725990 0.925645
O O9 0.890084 0.713824 0.767313
O O10 0.056466 0.773384 0.890443
O O11 0.500000 0.672586 0.500000
O O12 0.434827 0.737248 0.374472
O O13 0.714629 0.698053 0.404349
O O14 0.474909 0.646150 0.318235
O O15 0.500000 0.200542 0.500000
O O16 0.538061 0.167441 0.663255
O O17 0.179504 0.151492 0.853795
O O18 0.801668 0.378955 0.728683
#
# Coordination Sequence:
#
# PCOD9225845 Si02
#       8
#     8   8   8   8   8   8   8   8
#     4  11  23  43  65  83 109 156 208 260 308 357
#     4  12  22  37  52  82 116 153 206 240 294 343
#     4  11  21  32  47  78 118 154 190 224 282 339
#     4  11  22  37  61  84 121 164 204 248 290 352
#     4  11  22  37  53  84 123 165 207 237 286 353
#     4  11  22  32  50  77 117 160 186 239 272 354
#     4  11  25  34  56  85 120 165 192 246 287 360
#     4  11  22  40  58  84 116 151 208 244 305 352
#
# _framework density 8.9145819999999993
#
# number of rings (size 3 to 8) (size 9 to 14) (size 15 to 20)
#    0.000    0.875    3.750    5.250    5.250    1.500 
#    0.000    0.625    0.000    1.875    0.000    0.000 
#    0.000    4.500    0.000    0.000    0.000    0.000 
#
# Total GULP energy -178291.655075 kJ/mol
# GULP energy per Si atom -5571.614221 kJ/mol
# Density = 0.889429 g / cm^3
# Si number density = 8.914582 Si / 1000 Ang^3
#
#
#
# Elastic Constant Matrix: (Units=GPa)
#
#
# Indices 1 2 3 4 5 6 
#
# 1 105.2676 26.9512 18.4870 0.0000 -3.3362 0.0000
# 2 26.9512 88.3610 12.0933 0.0000 -4.9006 0.0000
# 3 18.4870 12.0933 73.9309 0.0000 -7.1522 0.0000
# 4 0.0000 0.0000 0.0000 22.5395 0.0000 -7.9427
# 5 -3.3362 -4.9006 -7.1522 0.0000 33.8398 0.0000
# 6 0.0000 0.0000 0.0000 -7.9427 0.0000 17.0314
#
#
#
# Elastic Compliance Matrix: (Units=1/GPa)
#
#
# Indices 1 2 3 4 5 6 
#
# 1 0.010637 -0.002939 -0.002163 0.000000 0.000166 0.000000
# 2 -0.002939 0.012445 -0.001179 0.000000 0.001263 0.000000
# 3 -0.002163 -0.001179 0.014520 0.000000 0.002685 0.000000
# 4 0.000000 0.000000 0.000000 0.053092 0.000000 0.024760
# 5 0.000166 0.001263 0.002685 0.000000 0.030318 0.000000
# 6 0.000000 0.000000 0.000000 0.024760 0.000000 0.070262
#
#
# Mechanical properties :
#
#
# Convention : Reuss Voigt Hill
#
# Bulk Modulus (GPa) = 39.93581 42.51363 41.22472
# Shear Modulus (GPa) = 23.56471 28.68401 26.12436
#
# Velocity S-wave (km/s) = 3.63946 4.01537 3.83202
# Velocity P-wave (km/s) = 6.33314 6.73753 6.53846
#
# Compressibility (1/GPa) = 0.02504018
#
# Stress axis : x y z
#
# Youngs Moduli (GPa) = 94.00920 80.35303 68.87263
#
# Poissons Ratio (x) = 0.23618 0.14898
# Poissons Ratio (y) = 0.27632 0.08117
# Poissons Ratio (z) = 0.20335 0.09470
#
# Static dielectric constant tensor:
#      x y z
#    x 1.733560 0.000000 -0.043810 
#    y 0.000000 1.607750 0.000000 
#    z -0.043810 0.000000 1.663480 
# 
# From -- ./inp_files/199862.got.cif
#   From: 2010.05.17/outbox.ucp.g08.bks.cvg/sg12_100_cif.got.tgz:199862.got - 2010.06.11 11:47:21.
