data_PCOD9225233
_publ_section_title
;
Structure prediction by ZEFSAII (Michael W. Deem and Ramdas Pophale) SiO2 
 PCOD9225233
Probable space group: C 2/M
;
_chemical_formula_sum "Si O2"
_cell_formula_units_Z 28
_cell_length_a 27.000000
_cell_length_b 9.000000
_cell_length_c 12.000000
_cell_angle_alpha 90.000000
_cell_angle_beta 70.000000
_cell_angle_gamma 90.000000
_cell_volume 2740.143682
_symmetry_space_group_name_H-M "C 2/M"
_symmetry_group_IT_number 12
_symmetry_cell_setting 'monoclinic'
loop_
_space_group_symop_operation_xyz
x,y,z
-x,y,-z
-x,-y,-z
x,-y,z
1/2+x,1/2+y,z
1/2-x,1/2+y,-z
1/2-x,1/2-y,-z
1/2+x,1/2-y,z
loop_
_atom_site_type_symbol
_atom_site_label
_atom_site_fract_x
_atom_site_fract_y
_atom_site_fract_z
Si Si1 0.864039 0.678233 0.437803
Si Si2 0.657513 0.325770 0.768853
Si Si3 0.231673 0.167729 0.903737
Si Si4 0.840853 0.669272 0.693781
Si Si5 0.058484 0.825862 0.982863
Si Si6 0.425694 0.178931 0.804357
Si Si7 0.977729 0.822659 0.391419
O O1 0.864685 0.500000 0.426643
O O2 0.835580 0.743923 0.352052
O O3 0.837375 0.731835 0.573203
O O4 0.922965 0.741229 0.409311
O O5 0.671970 0.500000 0.747183
O O6 0.688803 0.265745 0.852370
O O7 0.596021 0.316188 0.847646
O O8 0.284251 0.161629 0.790711
O O9 0.214091 0.000000 0.946965
O O10 0.250000 0.250000 0.000000
O O11 0.860611 0.500000 0.662457
O O12 0.881511 0.735511 0.751251
O O13 0.055352 0.000000 0.017599
O O14 0.083659 0.735611 0.064407
O O15 0.000000 0.772315 0.000000
O O16 0.479765 0.252109 0.723425
O O17 0.427814 0.000000 0.801550
O O18 0.000000 0.797146 0.500000
O O19 0.972272 0.000000 0.379909
#
# Coordination Sequence:
#
# PCOD9225233 Si02
#       7
#     8   8   8   8   8   8   8
#     4  11  22  38  60  85 118 156 196 238 289 354
#     4  10  22  39  59  85 119 157 196 246 300 345
#     4  10  21  40  63  86 116 153 196 246 297 349
#     4   9  20  37  57  84 117 151 187 239 297 342
#     4  10  21  37  55  78 114 153 191 240 295 348
#     4  11  21  35  58  85 115 150 194 242 288 347
#     4  11  22  36  56  84 119 156 192 234 286 344
#
# _framework density 10.218442
#
# number of rings (size 3 to 8) (size 9 to 14) (size 15 to 20)
#    0.000    1.714    1.429    3.000    0.000    3.714 
#    0.000    2.143    0.000    0.000    0.000    0.000 
#    0.000    0.000    0.000    0.000    0.000    0.000 
#
# Total GULP energy -156199.152721 kJ/mol
# GULP energy per Si atom -5578.541169 kJ/mol
# Density = 1.019518 g / cm^3
# Si number density = 10.218442 Si / 1000 Ang^3
#
#
#
# Elastic Constant Matrix: (Units=GPa)
#
#
# Indices 1 2 3 4 5 6 
#
# 1 78.7405 17.8551 45.6054 0.0000 31.8152 0.0000
# 2 17.8551 46.1396 39.1145 0.0000 18.4931 0.0000
# 3 45.6054 39.1145 115.1925 0.0000 27.9547 0.0000
# 4 0.0000 0.0000 0.0000 22.8090 0.0000 14.2805
# 5 31.8152 18.4931 27.9547 0.0000 34.9350 0.0000
# 6 0.0000 0.0000 0.0000 14.2805 0.0000 20.4832
#
#
#
# Elastic Compliance Matrix: (Units=1/GPa)
#
#
# Indices 1 2 3 4 5 6 
#
# 1 0.022328 0.003176 -0.005678 0.000000 -0.017471 0.000000
# 2 0.003176 0.033807 -0.009546 0.000000 -0.013150 0.000000
# 3 -0.005678 -0.009546 0.014506 0.000000 -0.001384 0.000000
# 4 0.000000 0.000000 0.000000 0.077803 0.000000 -0.054243
# 5 -0.017471 -0.013150 -0.001384 0.000000 0.052604 0.000000
# 6 0.000000 0.000000 0.000000 -0.054243 0.000000 0.086638
#
#
# Mechanical properties :
#
#
# Convention : Reuss Voigt Hill
#
# Bulk Modulus (GPa) = 21.48443 49.46918 35.47680
# Shear Modulus (GPa) = 15.27665 24.81195 20.04430
#
# Velocity S-wave (km/s) = 2.73702 3.48814 3.13515
# Velocity P-wave (km/s) = 4.53031 6.36249 5.52291
#
# Compressibility (1/GPa) = 0.04654534
#
# Stress axis : x y z
#
# Youngs Moduli (GPa) = 44.78707 29.57955 68.93601
#
# Poissons Ratio (x) = -0.09394 0.39143
# Poissons Ratio (y) = -0.14224 0.65804
# Poissons Ratio (z) = 0.25431 0.28236
#
# Static dielectric constant tensor:
#      x y z
#    x 1.740860 0.000000 -0.000700 
#    y 0.000000 1.722650 0.000000 
#    z -0.000700 0.000000 1.792070 
# 
# From -- ./inp_files/180784.got.cif
#   From: 2010.05.17/outbox.ucp.g08.bks.cvg/sg12_91_cif.got.tgz:180784.got - 2010.06.11 11:47:21.
