data_PCOD9225714
_publ_section_title
;
Structure prediction by ZEFSAII (Michael W. Deem and Ramdas Pophale) SiO2 
 PCOD9225714
Probable space group: C 2/M
;
_chemical_formula_sum "Si O2"
_cell_formula_units_Z 32
_cell_length_a 30.000000
_cell_length_b 9.000000
_cell_length_c 18.000000
_cell_angle_alpha 90.000000
_cell_angle_beta 40.000000
_cell_angle_gamma 90.000000
_cell_volume 3123.947783
_symmetry_space_group_name_H-M "C 2/M"
_symmetry_group_IT_number 12
_symmetry_cell_setting 'monoclinic'
loop_
_space_group_symop_operation_xyz
x,y,z
-x,y,-z
-x,-y,-z
x,-y,z
1/2+x,1/2+y,z
1/2-x,1/2+y,-z
1/2-x,1/2-y,-z
1/2+x,1/2-y,z
loop_
_atom_site_type_symbol
_atom_site_label
_atom_site_fract_x
_atom_site_fract_y
_atom_site_fract_z
Si Si1 0.913606 0.675336 0.517206
Si Si2 0.336994 0.174451 0.772806
Si Si3 0.405811 0.824155 0.247297
Si Si4 0.801731 0.824678 0.283795
Si Si5 0.545427 0.675090 0.296847
Si Si6 0.188383 0.824404 0.903375
Si Si7 0.049879 0.325647 0.134510
Si Si8 0.666359 0.677518 0.517350
O O1 0.912505 0.500000 0.499757
O O2 0.874199 0.693444 0.645213
O O3 0.875667 0.767927 0.501386
O O4 0.991811 0.735375 0.417191
O O5 0.377522 0.276706 0.778406
O O6 0.256402 0.209897 0.864717
O O7 0.343884 0.000000 0.784288
O O8 0.375397 0.737565 0.216020
O O9 0.487457 0.804102 0.156330
O O10 0.367094 0.756197 0.368611
O O11 0.391552 0.000000 0.260138
O O12 0.792690 0.802843 0.207393
O O13 0.743932 0.735292 0.403347
O O14 0.794947 0.000000 0.308086
O O15 0.534942 0.500000 0.317311
O O16 0.533101 0.730371 0.229044
O O17 0.172194 0.000000 0.933586
O O18 0.122803 0.727711 0.009439
O O19 0.051456 0.500000 0.152666
O O20 0.664054 0.500000 0.528099
#
# Coordination Sequence:
#
# PCOD9225714 Si02
#       8
#     8   8   8   8   8   8   8   8
#     4  11  21  39  65  93 128 168 205 249 311 377
#     4  10  22  42  66  92 126 168 206 250 312 376
#     4  11  24  42  64  92 127 167 209 257 311 375
#     4  11  23  42  66  94 128 166 206 255 314 375
#     4  12  25  40  63  96 129 163 208 259 310 370
#     4  10  23  44  67  91 122 163 212 261 311 369
#     4  11  25  44  66  89 122 167 212 261 315 368
#     4  12  23  37  63  96 129 166 205 255 311 371
#
# _framework density 10.243449
#
# number of rings (size 3 to 8) (size 9 to 14) (size 15 to 20)
#    0.000    1.000    2.500    4.500    0.000    6.500 
#    0.000    2.500    0.000    0.000    0.000    0.000 
#    0.000    0.000    0.000    0.000    0.000    0.000 
#
# Total GULP energy -179074.644620 kJ/mol
# GULP energy per Si atom -5596.082644 kJ/mol
# Density = 1.022013 g / cm^3
# Si number density = 10.243449 Si / 1000 Ang^3
#
#
#
# Elastic Constant Matrix: (Units=GPa)
#
#
# Indices 1 2 3 4 5 6 
#
# 1 77.0498 17.5264 -6.8847 -0.0077 -20.5423 0.0077
# 2 17.5264 66.2050 10.4075 0.0195 -16.2313 -0.0090
# 3 -6.8847 10.4075 44.2201 0.0167 -28.6598 -0.0182
# 4 -0.0077 0.0195 0.0167 32.6329 -0.0102 -3.8951
# 5 -20.5423 -16.2313 -28.6598 -0.0102 22.8319 0.0055
# 6 0.0077 -0.0090 -0.0182 -3.8951 0.0055 32.0002
#
#
#
# Elastic Compliance Matrix: (Units=1/GPa)
#
#
# Indices 1 2 3 4 5 6 
#
# 1 -0.009778 -0.008391 -0.048888 0.000002 -0.076129 -0.000014
# 2 -0.008391 0.016264 -0.013587 -0.000009 -0.013041 0.000000
# 3 -0.048888 -0.013587 -0.088856 -0.000012 -0.165181 -0.000016
# 4 0.000002 -0.000009 -0.000012 0.031096 -0.000006 0.003785
# 5 -0.076129 -0.013041 -0.165181 -0.000006 -0.241311 -0.000039
# 6 -0.000014 0.000000 -0.000016 0.003785 -0.000039 0.031711
#
#
# Mechanical properties :
#
#
# Convention : Reuss Voigt Hill
#
# Bulk Modulus (GPa) = -4.46229 25.50815 10.52293
# Shear Modulus (GPa) = -25.79390 28.58805 1.39707
#
# Velocity S-wave (km/s) = -3.55215 3.73960 0.82669
# Velocity P-wave (km/s) = 4.35965 5.57890 2.46146
#
# Compressibility (1/GPa) = -0.22410019
#
# Stress axis : x y z
#
# Youngs Moduli (GPa) = -102.27214 61.48413 -11.25412
#
# Poissons Ratio (x) = 0.51589 -0.55019
# Poissons Ratio (y) = -0.85812 -0.15290
# Poissons Ratio (z) = -4.99988 0.83536
#
# Static dielectric constant tensor:
#      x y z
#    x 1.770290 0.000000 -0.030630 
#    y 0.000000 1.675750 0.000000 
#    z -0.030630 0.000000 1.716140 
# 
# From -- ./inp_files/295643.got.cif
#   From: 2010.05.17/outbox.ucp.g08.bks.cvg/sg12_148_cif.got.tgz:295643.got - 2010.06.11 11:47:21.
