data_PCOD9225177
_publ_section_title
;
Structure prediction by ZEFSAII (Michael W. Deem and Ramdas Pophale) SiO2 
 PCOD9225177
Probable space group: C 2/M
;
_chemical_formula_sum "Si O2"
_cell_formula_units_Z 32
_cell_length_a 24.000000
_cell_length_b 9.000000
_cell_length_c 30.000000
_cell_angle_alpha 90.000000
_cell_angle_beta 30.000000
_cell_angle_gamma 90.000000
_cell_volume 3240.000000
_symmetry_space_group_name_H-M "C 2/M"
_symmetry_group_IT_number 12
_symmetry_cell_setting 'monoclinic'
loop_
_space_group_symop_operation_xyz
x,y,z
-x,y,-z
-x,-y,-z
x,-y,z
1/2+x,1/2+y,z
1/2-x,1/2+y,-z
1/2-x,1/2-y,-z
1/2+x,1/2-y,z
loop_
_atom_site_type_symbol
_atom_site_label
_atom_site_fract_x
_atom_site_fract_y
_atom_site_fract_z
Si Si1 0.348251 0.329337 0.407619
Si Si2 0.809523 0.678522 0.277172
Si Si3 0.956794 0.675362 0.254346
Si Si4 0.008952 0.326027 0.361346
Si Si5 0.608785 0.321500 0.867847
Si Si6 0.919884 0.826418 0.512628
Si Si7 0.117543 0.675641 0.959446
Si Si8 0.831620 0.670872 0.828940
O O1 0.327935 0.500000 0.417616
O O2 0.250000 0.250000 0.500000
O O3 0.369292 0.260510 0.345364
O O4 0.448205 0.289617 0.371048
O O5 0.803163 0.500000 0.273398
O O6 0.922385 0.710661 0.227557
O O7 0.816595 0.762856 0.225051
O O8 0.701965 0.716775 0.382773
O O9 0.937507 0.500000 0.272715
O O10 0.073293 0.702436 0.199478
O O11 0.971891 0.500000 0.383529
O O12 0.976993 0.269067 0.433098
O O13 0.125515 0.326134 0.252793
O O14 0.615799 0.500000 0.867236
O O15 0.630557 0.240947 0.900195
O O16 0.481892 0.265783 0.948091
O O17 0.000000 0.820447 0.500000
O O18 0.911681 0.000000 0.503410
O O19 0.093965 0.500000 0.974763
O O20 0.233389 0.713159 0.902431
O O21 0.795102 0.500000 0.861438
#
# Coordination Sequence:
#
# PCOD9225177 Si02
#       8
#     8   8   8   8   8   8   8   8
#     4  11  20  31  51  76 106 144 191 242 289 340
#     4  10  21  39  60  84 119 159 198 241 290 350
#     4   9  19  36  57  82 115 155 196 241 292 346
#     4  10  21  36  54  79 112 151 195 241 288 341
#     4  11  23  40  63  90 119 152 191 239 294 350
#     4  10  22  37  54  82 119 159 201 244 293 350
#     4  11  22  39  64  91 118 149 192 241 293 352
#     4   9  19  36  58  87 120 154 194 245 299 344
#
# _framework density 9.8765429999999999
#
# number of rings (size 3 to 8) (size 9 to 14) (size 15 to 20)
#    0.000    1.875    0.000    6.000    1.750    4.750 
#    0.000    0.625    0.000    0.000    0.000    0.000 
#    0.000    0.000    0.000    0.000    0.000    0.000 
#
# Total GULP energy -178203.467935 kJ/mol
# GULP energy per Si atom -5568.858373 kJ/mol
# Density = 0.985406 g / cm^3
# Si number density = 9.876543 Si / 1000 Ang^3
#
#
#
# Elastic Constant Matrix: (Units=GPa)
#
#
# Indices 1 2 3 4 5 6 
#
# 1 46.4226 32.0772 11.5517 0.0001 6.9671 0.0006
# 2 32.0772 -82.1782 12.5045 -0.0043 -34.1007 0.0040
# 3 11.5517 12.5045 37.2424 0.0010 -10.6646 -0.0004
# 4 0.0001 -0.0043 0.0010 30.0808 -0.0002 4.4343
# 5 6.9671 -34.1007 -10.6646 -0.0002 19.2818 0.0005
# 6 0.0006 0.0040 -0.0004 4.4343 0.0005 24.9468
#
#
#
# Elastic Compliance Matrix: (Units=1/GPa)
#
#
# Indices 1 2 3 4 5 6 
#
# 1 0.019215 0.006351 -0.008156 0.000001 -0.000222 -0.000002
# 2 0.006351 -0.004856 -0.004106 -0.000001 -0.013154 0.000001
# 3 -0.008156 -0.004106 0.035080 -0.000002 0.015087 0.000001
# 4 0.000001 -0.000001 -0.000002 0.034138 -0.000002 -0.006068
# 5 -0.000222 -0.013154 0.015087 -0.000002 0.037023 0.000002
# 6 -0.000002 0.000001 0.000001 -0.006068 0.000002 0.041164
#
#
# Mechanical properties :
#
#
# Convention : Reuss Voigt Hill
#
# Bulk Modulus (GPa) = 26.58359 12.63927 19.61143
# Shear Modulus (GPa) = 26.86346 11.21878 19.04112
#
# Velocity S-wave (km/s) = 3.69177 2.38576 3.10813
# Velocity P-wave (km/s) = 5.62667 3.74188 4.77813
#
# Compressibility (1/GPa) = 0.03761719
#
# Stress axis : x y z
#
# Youngs Moduli (GPa) = 52.04161 -205.93399 28.50627
#
# Poissons Ratio (x) = 1.30796 0.23250
# Poissons Ratio (y) = -0.33053 0.11706
# Poissons Ratio (z) = 0.42446 -0.84564
#
# Static dielectric constant tensor:
#      x y z
#    x 1.677610 0.000000 -0.000950 
#    y 0.000000 1.660190 0.000000 
#    z -0.000950 0.000000 1.683130 
# 
# From -- ./inp_files/382387.got.cif
#   From: 2010.05.17/outbox.ucp.g08.bks.cvg/sg12_192_cif.got.tgz:382387.got - 2010.06.11 11:47:21.
