data_PCOD9225078
_publ_section_title
;
Structure prediction by ZEFSAII (Michael W. Deem and Ramdas Pophale) SiO2 
 PCOD9225078
Probable space group: C 2/M
;
_chemical_formula_sum "Si O2"
_cell_formula_units_Z 32
_cell_length_a 30.000000
_cell_length_b 9.000000
_cell_length_c 24.000000
_cell_angle_alpha 90.000000
_cell_angle_beta 30.000000
_cell_angle_gamma 90.000000
_cell_volume 3240.000000
_symmetry_space_group_name_H-M "C 2/M"
_symmetry_group_IT_number 12
_symmetry_cell_setting 'monoclinic'
loop_
_space_group_symop_operation_xyz
x,y,z
-x,y,-z
-x,-y,-z
x,-y,z
1/2+x,1/2+y,z
1/2-x,1/2+y,-z
1/2-x,1/2-y,-z
1/2+x,1/2-y,z
loop_
_atom_site_type_symbol
_atom_site_label
_atom_site_fract_x
_atom_site_fract_y
_atom_site_fract_z
Si Si1 0.783538 0.821243 0.206210
Si Si2 0.097295 0.670801 0.583067
Si Si3 0.161379 0.324528 0.075684
Si Si4 0.895342 0.676863 0.986391
Si Si5 0.590045 0.820897 0.368902
Si Si6 0.939329 0.826597 0.716408
Si Si7 0.578056 0.176904 0.733350
Si Si8 0.295076 0.669618 0.321427
O O1 0.680909 0.782394 0.303045
O O2 0.803828 0.778926 0.248073
O O3 0.789918 0.000000 0.196260
O O4 0.849671 0.753256 0.088544
O O5 0.060529 0.500000 0.619595
O O6 0.094834 0.719536 0.650762
O O7 0.193964 0.663041 0.451531
O O8 0.043066 0.786722 0.604831
O O9 0.156671 0.500000 0.090134
O O10 0.158658 0.301493 0.012471
O O11 0.089953 0.247987 0.193439
O O12 0.250000 0.250000 0.000000
O O13 0.901071 0.500000 0.991463
O O14 0.991219 0.734435 0.860744
O O15 0.500000 0.776149 0.500000
O O16 0.597413 0.748780 0.299715
O O17 0.585988 0.000000 0.367040
O O18 0.918579 0.000000 0.739501
O O19 0.657802 0.224937 0.685815
O O20 0.566803 0.000000 0.743088
O O21 0.330915 0.500000 0.286161
#
# Coordination Sequence:
#
# PCOD9225078 Si02
#       8
#     8   8   8   8   8   8   8   8
#     4  10  22  39  59  87 119 155 201 247 296 358
#     4  10  20  40  64  86 120 160 200 248 300 362
#     4  11  22  39  60  85 118 155 200 248 298 357
#     4  10  22  40  60  83 117 159 199 243 295 353
#     4  10  21  40  64  86 116 163 209 249 300 361
#     4  12  24  36  57  91 124 156 196 244 303 361
#     4  10  21  39  62  88 117 154 200 248 304 359
#     4  10  22  39  62  90 118 153 198 250 306 359
#
# _framework density 9.8765429999999999
#
# number of rings (size 3 to 8) (size 9 to 14) (size 15 to 20)
#    0.000    1.625    1.250    3.375    0.000    8.250 
#    0.000    3.750    0.000    0.000    0.000    0.000 
#    0.000    0.000    0.000    0.000    0.000    0.000 
#
# Total GULP energy -178441.026250 kJ/mol
# GULP energy per Si atom -5576.282070 kJ/mol
# Density = 0.985406 g / cm^3
# Si number density = 9.876543 Si / 1000 Ang^3
#
#
#
# Elastic Constant Matrix: (Units=GPa)
#
#
# Indices 1 2 3 4 5 6 
#
# 1 36.0327 14.4689 -22.1912 -0.0027 15.8213 -0.0001
# 2 14.4689 15.1317 2.7651 -0.0240 7.2669 0.0128
# 3 -22.1912 2.7651 34.9038 -0.0098 17.3013 0.0057
# 4 -0.0027 -0.0240 -0.0098 26.6942 0.0003 6.2179
# 5 15.8213 7.2669 17.3013 0.0003 28.3545 -0.0005
# 6 -0.0001 0.0128 0.0057 6.2179 -0.0005 20.7911
#
#
#
# Elastic Compliance Matrix: (Units=1/GPa)
#
#
# Indices 1 2 3 4 5 6 
#
# 1 -0.051026 0.031927 -0.064552 -0.000001 0.059677 -0.000001
# 2 0.031927 0.056041 0.045602 0.000089 -0.060003 -0.000075
# 3 -0.064552 0.045602 -0.040233 0.000025 0.048881 -0.000024
# 4 -0.000001 0.000089 0.000025 0.040266 -0.000038 -0.012042
# 5 0.059677 -0.060003 0.048881 -0.000038 -0.012479 0.000035
# 6 -0.000001 -0.000075 -0.000024 -0.012042 0.000035 0.051699
#
#
# Mechanical properties :
#
#
# Convention : Reuss Voigt Hill
#
# Bulk Modulus (GPa) = -107.95807 8.46154 -49.74826
# Shear Modulus (GPa) = 328.38118 21.23631 174.80875
#
# Velocity S-wave (km/s) = 12.90751 3.28241 9.41749
# Velocity P-wave (km/s) = 12.93700 4.31956 9.64429
#
# Compressibility (1/GPa) = -0.00926286
#
# Stress axis : x y z
#
# Youngs Moduli (GPa) = -19.59791 17.84419 -24.85547
#
# Poissons Ratio (x) = -0.56972 -1.60446
# Poissons Ratio (y) = 0.62571 1.13345
# Poissons Ratio (z) = -1.26508 -0.81373
#
# Static dielectric constant tensor:
#      x y z
#    x 1.681400 -0.000010 -0.078590 
#    y -0.000010 1.722860 0.000030 
#    z -0.078590 0.000030 1.770090 
# 
# From -- ./inp_files/353256.got.cif
#   From: 2010.05.17/outbox.ucp.g08.bks.cvg/sg12_177_cif.got.tgz:353256.got - 2010.06.11 11:47:21.
