data_PCOD9225014
_publ_section_title
;
Structure prediction by ZEFSAII (Michael W. Deem and Ramdas Pophale) SiO2 
 PCOD9225014
Probable space group: C 2/M
;
_chemical_formula_sum "Si O2"
_cell_formula_units_Z 22
_cell_length_a 18.000000
_cell_length_b 15.000000
_cell_length_c 27.000000
_cell_angle_alpha 90.000000
_cell_angle_beta 20.000000
_cell_angle_gamma 90.000000
_cell_volume 2493.326845
_symmetry_space_group_name_H-M "C 2/M"
_symmetry_group_IT_number 12
_symmetry_cell_setting 'monoclinic'
loop_
_space_group_symop_operation_xyz
x,y,z
-x,y,-z
-x,-y,-z
x,-y,z
1/2+x,1/2+y,z
1/2-x,1/2+y,-z
1/2-x,1/2-y,-z
1/2+x,1/2-y,z
loop_
_atom_site_type_symbol
_atom_site_label
_atom_site_fract_x
_atom_site_fract_y
_atom_site_fract_z
Si Si1 0.439919 0.393823 0.766630
Si Si2 0.021399 0.894921 0.547030
Si Si3 0.301698 0.780665 0.731293
Si Si4 0.241928 0.893100 0.672305
Si Si5 0.000000 0.697549 0.000000
Si Si6 0.323076 0.105138 0.447845
O O1 0.411453 0.500000 0.789695
O O2 0.577307 0.364908 0.730426
O O3 0.606661 0.378500 0.616521
O O4 0.203494 0.354608 0.899237
O O5 0.882077 0.813359 0.656904
O O6 0.000000 0.886821 0.500000
O O7 0.248340 0.883029 0.436811
O O8 0.959489 0.000000 0.596650
O O9 0.212706 0.841773 0.742241
O O10 0.113605 0.756547 0.887160
O O11 0.492222 0.832173 0.643190
O O12 0.500000 0.876900 0.500000
O O13 0.217223 0.000000 0.693269
O O14 0.382373 0.000000 0.417229
#
# Coordination Sequence:
#
# PCOD9225014 Si02
#       6
#     8   8   8   8   4   8
#     4  10  21  40  64  90 120 158 210 261 301 353
#     4  10  22  37  58  90 122 157 202 254 307 355
#     4  12  23  38  62  92 125 162 201 254 305 366
#     4  10  20  38  67  97 116 148 210 271 309 341
#     4  12  27  36  55  90 132 176 198 228 308 388
#     4  10  20  39  66  91 116 156 214 264 299 346
#
# _framework density 8.8235519999999994
#
# number of rings (size 3 to 8) (size 9 to 14) (size 15 to 20)
#    0.000    1.455    3.636    1.909    0.000    1.455 
#    0.000    1.818    0.000    4.364    0.000    0.000 
#    0.000    0.000    0.000    0.000    0.000    0.000 
#
# Total GULP energy -122568.120477 kJ/mol
# GULP energy per Si atom -5571.278203 kJ/mol
# Density = 0.880347 g / cm^3
# Si number density = 8.823552 Si / 1000 Ang^3
#
#
#
# Elastic Constant Matrix: (Units=GPa)
#
#
# Indices 1 2 3 4 5 6 
#
# 1 198.3588 59.2265 64.6046 0.0111 -14.2553 -0.0009
# 2 59.2265 81.5392 50.7418 -0.0145 3.6721 0.0068
# 3 64.6046 50.7418 108.3402 -0.0105 -11.0157 0.0169
# 4 0.0111 -0.0145 -0.0105 22.1763 0.0058 -6.3908
# 5 -14.2553 3.6721 -11.0157 0.0058 36.0039 0.0038
# 6 -0.0009 0.0068 0.0169 -6.3908 0.0038 48.2370
#
#
#
# Elastic Compliance Matrix: (Units=1/GPa)
#
#
# Indices 1 2 3 4 5 6 
#
# 1 0.007096 -0.003950 -0.002121 -0.000008 0.002563 0.000000
# 2 -0.003950 0.020204 -0.007716 0.000014 -0.005985 0.000002
# 3 -0.002121 -0.007716 0.014556 0.000000 0.004401 -0.000004
# 4 -0.000008 0.000014 0.000000 0.046883 -0.000013 0.006211
# 5 0.002563 -0.005985 0.004401 -0.000013 0.030747 -0.000005
# 6 0.000000 0.000002 -0.000004 0.006211 -0.000005 0.021554
#
#
# Mechanical properties :
#
#
# Convention : Reuss Voigt Hill
#
# Bulk Modulus (GPa) = 70.01329 81.93154 75.97241
# Shear Modulus (GPa) = 28.83947 35.52780 32.18363
#
# Velocity S-wave (km/s) = 4.04695 4.49178 4.27515
# Velocity P-wave (km/s) = 7.84839 8.56913 8.21667
#
# Compressibility (1/GPa) = 0.01428300
#
# Stress axis : x y z
#
# Youngs Moduli (GPa) = 140.93251 49.49483 68.69961
#
# Poissons Ratio (x) = 0.19549 0.14569
# Poissons Ratio (y) = 0.55663 0.53009
# Poissons Ratio (z) = 0.29888 0.38191
#
# Static dielectric constant tensor:
#      x y z
#    x 1.638280 0.000000 0.007380 
#    y 0.000000 1.629660 0.000040 
#    z 0.007380 0.000040 1.595660 
# 
# From -- ./inp_files/156298.got.cif
#   From: 2010.05.17/outbox.ucp.g08.bks.cvg/sg12_79_cif.got.tgz:156298.got - 2010.06.11 11:47:21.
