data_PCOD9225532
_publ_section_title
;
Structure prediction by ZEFSAII (Michael W. Deem and Ramdas Pophale) SiO2 
 PCOD9225532
Probable space group: C 2/M
;
_chemical_formula_sum "Si O2"
_cell_formula_units_Z 32
_cell_length_a 9.000000
_cell_length_b 18.000000
_cell_length_c 30.000000
_cell_angle_alpha 90.000000
_cell_angle_beta 140.000000
_cell_angle_gamma 90.000000
_cell_volume 3123.947783
_symmetry_space_group_name_H-M "C 2/M"
_symmetry_group_IT_number 12
_symmetry_cell_setting 'monoclinic'
loop_
_space_group_symop_operation_xyz
x,y,z
-x,y,-z
-x,-y,-z
x,-y,z
1/2+x,1/2+y,z
1/2-x,1/2+y,-z
1/2-x,1/2-y,-z
1/2+x,1/2-y,z
loop_
_atom_site_type_symbol
_atom_site_label
_atom_site_fract_x
_atom_site_fract_y
_atom_site_fract_z
Si Si1 0.601912 0.867328 0.635771
Si Si2 0.576656 0.416482 0.707946
Si Si3 0.597379 0.910265 0.071838
Si Si4 0.624702 0.417998 0.481910
Si Si5 0.137814 0.087598 0.213474
Si Si6 0.845223 0.194829 0.354137
Si Si7 0.929833 0.335600 0.848034
Si Si8 0.860624 0.689375 0.200621
O O1 0.811986 0.906955 0.659178
O O2 0.380200 0.898449 0.558258
O O3 0.697399 0.880465 0.708718
O O4 0.566720 0.778713 0.623902
O O5 0.632596 0.500000 0.706330
O O6 0.612933 0.353334 0.680106
O O7 0.734665 0.393995 0.786080
O O8 0.465678 0.871030 0.082986
O O9 0.868638 0.889003 0.143658
O O10 0.581425 0.000000 0.071325
O O11 0.500000 0.889900 0.000000
O O12 0.500000 0.425113 0.500000
O O13 0.621320 0.500000 0.458348
O O14 0.476922 0.355535 0.421266
O O15 0.258924 0.112888 0.195816
O O16 0.136362 0.000000 0.220239
O O17 0.569982 0.206772 0.283661
O O18 0.813439 0.257443 0.833681
O O19 0.073203 0.320178 0.835828
#
# Coordination Sequence:
#
# PCOD9225532 Si02
#       8
#     8   8   8   8   8   8   8   8
#     4  12  23  41  64  88 122 169 213 259 324 390
#     4  11  22  37  64  93 119 161 213 265 318 379
#     4  10  21  40  67  97 131 170 209 258 321 386
#     4  11  25  41  59  85 120 161 209 267 326 379
#     4  11  22  40  65  94 127 164 216 264 317 386
#     4  11  24  40  61  87 128 158 211 265 327 381
#     4  11  21  40  63  92 134 162 216 262 318 380
#     4  11  23  39  65  95 124 173 211 267 317 385
#
# _framework density 10.243449
#
# number of rings (size 3 to 8) (size 9 to 14) (size 15 to 20)
#    0.000    1.000    2.500    5.250    1.750    4.500 
#    0.000    4.375    0.000    2.250    0.000    0.000 
#    0.000    0.000    0.000    0.000    0.000    0.000 
#
# Total GULP energy -178170.790323 kJ/mol
# GULP energy per Si atom -5567.837198 kJ/mol
# Density = 1.022013 g / cm^3
# Si number density = 10.243449 Si / 1000 Ang^3
#
#
#
# Elastic Constant Matrix: (Units=GPa)
#
#
# Indices 1 2 3 4 5 6 
#
# 1 -13.1535 55.4102 29.9454 0.0000 -42.7995 0.0000
# 2 55.4102 76.3237 24.6327 0.0000 1.8599 0.0000
# 3 29.9454 24.6327 86.6973 -0.0001 -45.8818 0.0000
# 4 0.0000 0.0000 -0.0001 38.5444 0.0000 -6.8409
# 5 -42.7995 1.8599 -45.8818 0.0000 1.8241 0.0000
# 6 0.0000 0.0000 0.0000 -6.8409 0.0000 25.7414
#
#
#
# Elastic Compliance Matrix: (Units=1/GPa)
#
#
# Indices 1 2 3 4 5 6 
#
# 1 -0.559635 0.205078 0.562463 0.000001 0.807666 -0.000001
# 2 0.205078 -0.062526 -0.205270 0.000000 -0.287595 0.000000
# 3 0.562463 -0.205270 -0.566186 -0.000001 -0.834753 0.000001
# 4 0.000001 0.000000 -0.000001 0.027228 -0.000001 0.007236
# 5 0.807666 -0.287595 -0.834753 -0.000001 -1.204600 0.000001
# 6 -0.000001 0.000000 0.000001 0.007236 0.000001 0.040771
#
#
# Mechanical properties :
#
#
# Convention : Reuss Voigt Hill
#
# Bulk Modulus (GPa) = -15.67316 41.09377 12.71030
# Shear Modulus (GPa) = -1.44061 15.88058 7.21999
#
# Velocity S-wave (km/s) = -0.83947 2.78719 1.87932
# Velocity P-wave (km/s) = 2.93369 5.51906 3.30556
#
# Compressibility (1/GPa) = -0.06380334
#
# Stress axis : x y z
#
# Youngs Moduli (GPa) = -1.78688 -15.99347 -1.76620
#
# Poissons Ratio (x) = 3.27991 0.99343
# Poissons Ratio (y) = 0.36645 -0.36255
# Poissons Ratio (z) = 1.00505 -3.28298
#
# Static dielectric constant tensor:
#      x y z
#    x 1.879330 0.000000 0.016830 
#    y 0.000000 1.497620 0.000000 
#    z 0.016830 0.000000 1.482640 
# 
# From -- ./inp_files/372995.got.cif
#   From: 2010.05.17/outbox.ucp.g08.bks.cvg/sg12_187_cif.got.tgz:372995.got - 2010.06.11 11:47:21.
