data_PCOD9225964
_publ_section_title
;
Structure prediction by ZEFSAII (Michael W. Deem and Ramdas Pophale) SiO2 
 PCOD9225964
Probable space group: C 2/M
;
_chemical_formula_sum "Si O2"
_cell_formula_units_Z 32
_cell_length_a 9.000000
_cell_length_b 18.000000
_cell_length_c 21.000000
_cell_angle_alpha 90.000000
_cell_angle_beta 90.000000
_cell_angle_gamma 90.000000
_cell_volume 3402.000000
_symmetry_space_group_name_H-M "C 2/M"
_symmetry_group_IT_number 12
_symmetry_cell_setting 'monoclinic'
loop_
_space_group_symop_operation_xyz
x,y,z
-x,y,-z
-x,-y,-z
x,-y,z
1/2+x,1/2+y,z
1/2-x,1/2+y,-z
1/2-x,1/2-y,-z
1/2+x,1/2-y,z
loop_
_atom_site_type_symbol
_atom_site_label
_atom_site_fract_x
_atom_site_fract_y
_atom_site_fract_z
Si Si1 0.234949 0.304213 0.661542
Si Si2 0.604802 0.914561 0.937544
Si Si3 0.634207 0.216477 0.451286
Si Si4 0.771759 0.585998 0.764267
Si Si5 0.648923 0.306812 0.039524
Si Si6 0.553231 0.202599 0.152750
Si Si7 0.535550 0.912697 0.365401
Si Si8 0.526666 0.306959 0.734171
O O1 0.343442 0.274633 0.606126
O O2 0.354591 0.319825 0.716611
O O3 0.126050 0.236825 0.681807
O O4 0.123942 0.370997 0.642510
O O5 0.767671 0.884873 0.954274
O O6 0.547811 0.853849 0.887376
O O7 0.601467 0.000000 0.915347
O O8 0.500000 0.909438 0.000000
O O9 0.500000 0.213831 0.500000
O O10 0.750000 0.250000 0.500000
O O11 0.629046 0.136216 0.416331
O O12 0.773922 0.500000 0.785537
O O13 0.830241 0.646703 0.814378
O O14 0.878260 0.591880 0.702176
O O15 0.608778 0.615608 0.746609
O O16 0.619045 0.264318 0.105498
O O17 0.500000 0.316099 0.000000
O O18 0.750000 0.250000 0.000000
O O19 0.471250 0.249342 0.207178
O O20 0.521190 0.000000 0.381906
#
# Coordination Sequence:
#
# PCOD9225964 Si02
#       8
#     8   8   8   8   8   8   8   8
#     4  12  21  42  63  93 127 162 212 252 308 369
#     4  11  24  42  63  90 126 165 205 259 320 373
#     4  12  22  38  67  94 120 167 212 252 294 370
#     4  11  24  41  63  94 128 163 203 260 320 368
#     4  12  23  41  64  90 123 161 211 260 312 372
#     4  12  21  39  69  90 119 167 215 256 300 389
#     4  11  24  43  65  94 132 166 204 263 321 362
#     4  12  22  38  68  92 123 165 212 258 308 372
#
# _framework density 9.4062319999999993
#
# number of rings (size 3 to 8) (size 9 to 14) (size 15 to 20)
#    0.000    0.375    8.750    1.125    0.000    1.000 
#    0.000    0.625    0.000    0.750    0.000    0.000 
#    0.000    0.000    0.000    0.000    0.000    0.000 
#
# Total GULP energy -178387.787129 kJ/mol
# GULP energy per Si atom -5574.618348 kJ/mol
# Density = 0.938482 g / cm^3
# Si number density = 9.406232 Si / 1000 Ang^3
#
#
#
# Elastic Constant Matrix: (Units=GPa)
#
#
# Indices 1 2 3 4 5 6 
#
# 1 71.5440 42.1976 27.2815 0.0000 16.5302 0.0000
# 2 42.1976 132.5015 35.5628 0.0000 3.7579 0.0000
# 3 27.2815 35.5628 74.9261 0.0000 3.2110 0.0000
# 4 0.0000 0.0000 0.0000 90.9459 0.0000 47.9397
# 5 16.5302 3.7579 3.2110 0.0000 16.0549 0.0000
# 6 0.0000 0.0000 0.0000 47.9397 0.0000 64.8536
#
#
#
# Elastic Compliance Matrix: (Units=1/GPa)
#
#
# Indices 1 2 3 4 5 6 
#
# 1 0.024740 -0.005813 -0.005261 0.000000 -0.023060 0.000000
# 2 -0.005813 0.010038 -0.002828 0.000000 0.004201 0.000000
# 3 -0.005261 -0.002828 0.016485 0.000000 0.002782 0.000000
# 4 0.000000 0.000000 0.000000 0.018015 0.000000 -0.013317
# 5 -0.023060 0.004201 0.002782 0.000000 0.084489 0.000000
# 6 0.000000 0.000000 0.000000 -0.013317 0.000000 0.025263
#
#
# Mechanical properties :
#
#
# Convention : Reuss Voigt Hill
#
# Bulk Modulus (GPa) = 42.62621 54.33949 48.48285
# Shear Modulus (GPa) = 23.29325 45.96618 34.62972
#
# Velocity S-wave (km/s) = 3.52260 4.94843 4.29509
# Velocity P-wave (km/s) = 6.26519 7.84836 7.10104
#
# Compressibility (1/GPa) = 0.02345975
#
# Stress axis : x y z
#
# Youngs Moduli (GPa) = 40.42033 99.61946 60.66084
#
# Poissons Ratio (x) = 0.57908 0.31913
# Poissons Ratio (y) = 0.23496 0.17155
# Poissons Ratio (z) = 0.21265 0.28172
#
# Static dielectric constant tensor:
#      x y z
#    x 1.875790 0.000000 0.430790 
#    y 0.000000 1.665570 0.000000 
#    z 0.430790 0.000000 2.425370 
# 
# From -- ./inp_files/300814.got.cif
#   From: 2010.05.17/outbox.ucp.g08.bks.cvg/sg12_151_cif.got.tgz:300814.got - 2010.06.11 11:47:21.
