data_PCOD9225220
_publ_section_title
;
Structure prediction by ZEFSAII (Michael W. Deem and Ramdas Pophale) SiO2 
 PCOD9225220
Probable space group: C 2/M
;
_chemical_formula_sum "Si O2"
_cell_formula_units_Z 30
_cell_length_a 12.000000
_cell_length_b 21.000000
_cell_length_c 24.000000
_cell_angle_alpha 90.000000
_cell_angle_beta 30.000000
_cell_angle_gamma 90.000000
_cell_volume 3024.000000
_symmetry_space_group_name_H-M "C 2/M"
_symmetry_group_IT_number 12
_symmetry_cell_setting 'monoclinic'
loop_
_space_group_symop_operation_xyz
x,y,z
-x,y,-z
-x,-y,-z
x,-y,z
1/2+x,1/2+y,z
1/2-x,1/2+y,-z
1/2-x,1/2-y,-z
1/2+x,1/2-y,z
loop_
_atom_site_type_symbol
_atom_site_label
_atom_site_fract_x
_atom_site_fract_y
_atom_site_fract_z
Si Si1 0.036789 0.311890 0.043940
Si Si2 0.000000 0.388967 0.500000
Si Si3 0.457238 0.677358 0.180841
Si Si4 0.325530 0.327832 0.120395
Si Si5 0.325968 0.634703 0.729401
Si Si6 0.732064 0.720894 0.567539
Si Si7 0.826693 0.697685 0.302570
Si Si8 0.536158 0.566874 0.733442
O O1 0.908094 0.245187 0.093235
O O2 0.921124 0.351799 0.141964
O O3 0.294456 0.302188 0.943096
O O4 0.000000 0.344875 0.000000
O O5 0.897644 0.338905 0.500366
O O6 0.799519 0.429876 0.609130
O O7 0.339203 0.647728 0.177887
O O8 0.338487 0.739485 0.257673
O O9 0.497041 0.625957 0.211594
O O10 0.076958 0.326544 0.204789
O O11 0.500000 0.355925 0.000000
O O12 0.488830 0.690636 0.680830
O O13 0.316228 0.644398 0.667546
O O14 0.420394 0.576186 0.723416
O O15 0.750000 0.750000 0.500000
O O16 0.761273 0.773919 0.601785
O O17 0.465606 0.500000 0.789005
#
# Coordination Sequence:
#
# PCOD9225220 Si02
#       8
#     8   4   8   8   8   8   8   8
#     4  11  16  30  50  83 116 149 178 222 290 349
#     4  10  21  36  60  84 106 150 197 234 284 336
#     4  12  20  34  56  84 121 149 195 233 288 346
#     4  11  20  29  50  84 122 156 180 226 284 356
#     4  11  21  35  53  82 116 151 185 236 287 347
#     4  11  21  33  52  87 125 150 175 229 302 359
#     4  12  19  32  53  85 121 151 181 228 296 354
#     4  11  24  42  59  81 112 154 205 246 279 330
#
# _framework density 9.9206350000000008
#
# number of rings (size 3 to 8) (size 9 to 14) (size 15 to 20)
#    0.000    0.800    9.333    2.200    1.867    0.000 
#    0.000    1.333    0.000    1.200    0.000    1.867 
#    0.000    0.000    0.000    0.000    0.000    0.000 
#
# Total GULP energy -167171.129011 kJ/mol
# GULP energy per Si atom -5572.370967 kJ/mol
# Density = 0.989806 g / cm^3
# Si number density = 9.920635 Si / 1000 Ang^3
#
#
#
# Elastic Constant Matrix: (Units=GPa)
#
#
# Indices 1 2 3 4 5 6 
#
# 1 127.3070 29.8166 20.9567 -0.1482 10.1805 -0.0208
# 2 29.8166 56.8042 15.7543 -0.2864 2.6914 -0.0674
# 3 20.9567 15.7543 60.7166 -0.1606 2.3300 0.0073
# 4 -0.1482 -0.2864 -0.1606 32.8124 0.0620 25.7164
# 5 10.1805 2.6914 2.3300 0.0620 33.9145 -0.0099
# 6 -0.0208 -0.0674 0.0073 25.7164 -0.0099 4.2423
#
#
#
# Elastic Compliance Matrix: (Units=1/GPa)
#
#
# Indices 1 2 3 4 5 6 
#
# 1 0.009372 -0.004242 -0.002045 -0.000005 -0.002336 0.000006
# 2 -0.004242 0.020936 -0.003964 0.000028 -0.000116 0.000149
# 3 -0.002045 -0.003964 0.018216 -0.000034 -0.000323 0.000102
# 4 -0.000005 0.000028 -0.000034 -0.008125 0.000031 0.049252
# 5 -0.002336 -0.000116 -0.000323 0.000031 0.030218 -0.000129
# 6 0.000006 0.000149 0.000102 0.049252 -0.000129 -0.062840
#
#
# Mechanical properties :
#
#
# Convention : Reuss Voigt Hill
#
# Bulk Modulus (GPa) = 35.68323 41.98700 38.83512
# Shear Modulus (GPa) = 132.91152 26.08051 79.49602
#
# Velocity S-wave (km/s) = 8.19346 3.62948 6.33664
# Velocity P-wave (km/s) = 10.36985 6.22668 8.55293
#
# Compressibility (1/GPa) = 0.02802437
#
# Stress axis : x y z
#
# Youngs Moduli (GPa) = 106.70278 47.76490 54.89544
#
# Poissons Ratio (x) = 0.20260 0.11224
# Poissons Ratio (y) = 0.45259 0.21759
# Poissons Ratio (z) = 0.21816 0.18933
#
# Static dielectric constant tensor:
#      x y z
#    x 1.793400 0.000110 0.041090 
#    y 0.000110 1.692280 -0.000070 
#    z 0.041090 -0.000070 1.798070 
# 
# From -- ./inp_files/336862.got.cif
#   From: 2010.05.17/outbox.ucp.g08.bks.cvg/sg12_169_cif.got.tgz:336862.got - 2010.06.11 11:47:21.
