data_PCOD9225842
_publ_section_title
;
Structure prediction by ZEFSAII (Michael W. Deem and Ramdas Pophale) SiO2 
 PCOD9225842
Probable space group: C 2/M
;
_chemical_formula_sum "Si O2"
_cell_formula_units_Z 28
_cell_length_a 18.000000
_cell_length_b 18.000000
_cell_length_c 27.000000
_cell_angle_alpha 90.000000
_cell_angle_beta 160.000000
_cell_angle_gamma 90.000000
_cell_volume 2991.992214
_symmetry_space_group_name_H-M "C 2/M"
_symmetry_group_IT_number 12
_symmetry_cell_setting 'monoclinic'
loop_
_space_group_symop_operation_xyz
x,y,z
-x,y,-z
-x,-y,-z
x,-y,z
1/2+x,1/2+y,z
1/2-x,1/2+y,-z
1/2-x,1/2-y,-z
1/2+x,1/2-y,z
loop_
_atom_site_type_symbol
_atom_site_label
_atom_site_fract_x
_atom_site_fract_y
_atom_site_fract_z
Si Si1 0.118461 0.915327 0.455839
Si Si2 0.150952 0.329474 0.693262
Si Si3 0.957630 0.312366 0.265459
Si Si4 0.844935 0.673489 0.083286
Si Si5 0.831980 0.827841 0.349298
Si Si6 0.048306 0.912936 0.197872
Si Si7 0.860704 0.146774 0.635169
O O1 0.326492 0.863353 0.597208
O O2 0.062963 0.903950 0.362948
O O3 0.925773 0.890700 0.371719
O O4 0.178037 0.000000 0.502202
O O5 0.172951 0.246414 0.686517
O O6 0.299935 0.378568 0.750393
O O7 0.180839 0.328827 0.771588
O O8 0.900156 0.352116 0.529505
O O9 0.046040 0.228002 0.319537
O O10 0.837195 0.323270 0.137989
O O11 0.092778 0.662240 0.221688
O O12 0.750000 0.750000 0.000000
O O13 0.695002 0.607301 0.970358
O O14 0.000000 0.818353 0.500000
O O15 0.081148 0.876379 0.272614
O O16 0.089190 0.000000 0.227443
#
# Coordination Sequence:
#
# PCOD9225842 Si02
#       7
#     8   8   8   8   8   8   8
#     4  11  23  38  64 102 131 160 214 280 330 368
#     4  11  21  38  69  98 125 168 221 262 316 390
#     4  11  21  41  68  95 127 173 221 266 316 387
#     4  12  24  42  67  93 127 173 218 260 318 390
#     4  12  21  41  68  94 124 168 219 265 312 386
#     4  12  27  43  63  97 136 171 214 274 334 386
#     4  11  20  42  70  96 130 172 221 268 319 390
#
# _framework density 9.3583130000000008
#
# number of rings (size 3 to 8) (size 9 to 14) (size 15 to 20)
#    0.000    0.571    7.143    2.571    0.000    5.429 
#    0.000    2.857    0.000    1.714    0.000    0.000 
#    0.000    0.000    0.000    0.000    0.000    0.000 
#
# Total GULP energy -156421.300387 kJ/mol
# GULP energy per Si atom -5586.475014 kJ/mol
# Density = 0.933701 g / cm^3
# Si number density = 9.358313 Si / 1000 Ang^3
#
#
#
# Elastic Constant Matrix: (Units=GPa)
#
#
# Indices 1 2 3 4 5 6 
#
# 1 113.1599 35.0209 -20.2772 -0.0843 -55.3244 0.0020
# 2 35.0209 102.1936 3.9232 0.1366 -7.1625 -0.0505
# 3 -20.2772 3.9232 -13.2611 -0.2174 -54.1212 0.0550
# 4 -0.0843 0.1366 -0.2174 6.1859 -0.0575 7.6226
# 5 -55.3244 -7.1625 -54.1212 -0.0575 12.3404 0.0187
# 6 0.0020 -0.0505 0.0550 7.6226 0.0187 19.5227
#
#
#
# Elastic Compliance Matrix: (Units=1/GPa)
#
#
# Indices 1 2 3 4 5 6 
#
# 1 0.007636 -0.002399 -0.007747 -0.000280 -0.001135 0.000125
# 2 -0.002399 0.010650 0.001349 -0.000455 0.001342 0.000200
# 3 -0.007747 0.001349 0.003989 -0.000306 -0.016453 0.000128
# 4 -0.000280 -0.000455 -0.000306 0.311522 -0.001228 -0.121632
# 5 -0.001135 0.001342 -0.016453 -0.001228 0.004560 0.000525
# 6 0.000125 0.000200 0.000128 -0.121632 0.000525 0.098713
#
#
# Mechanical properties :
#
#
# Convention : Reuss Voigt Hill
#
# Bulk Modulus (GPa) = 213.54656 26.60294 120.07475
# Shear Modulus (GPa) = 10.95953 19.83817 15.39885
#
# Velocity S-wave (km/s) = 2.42244 3.25918 2.87145
# Velocity P-wave (km/s) = 11.05290 5.32986 8.67681
#
# Compressibility (1/GPa) = 0.00468282
#
# Stress axis : x y z
#
# Youngs Moduli (GPa) = 130.96010 93.89416 250.66816
#
# Poissons Ratio (x) = 0.22521 1.94187
# Poissons Ratio (y) = 0.31411 -0.33813
# Poissons Ratio (z) = 1.01452 -0.12666
#
# Static dielectric constant tensor:
#      x y z
#    x 1.666460 -0.000010 -0.013350 
#    y -0.000010 1.637280 0.000000 
#    z -0.013350 0.000000 1.645820 
# 
# From -- ./inp_files/158338.got.cif
#   From: 2010.05.17/outbox.ucp.g08.bks.cvg/sg12_80_cif.got.tgz:158338.got - 2010.06.11 11:47:21.
