data_PCOD9225318
_publ_section_title
;
Structure prediction by ZEFSAII (Michael W. Deem and Ramdas Pophale) SiO2 
 PCOD9225318
Probable space group: C 2/M
;
_chemical_formula_sum "Si O2"
_cell_formula_units_Z 24
_cell_length_a 27.000000
_cell_length_b 15.000000
_cell_length_c 9.000000
_cell_angle_alpha 90.000000
_cell_angle_beta 40.000000
_cell_angle_gamma 90.000000
_cell_volume 2342.960837
_symmetry_space_group_name_H-M "C 2/M"
_symmetry_group_IT_number 12
_symmetry_cell_setting 'monoclinic'
loop_
_space_group_symop_operation_xyz
x,y,z
-x,y,-z
-x,-y,-z
x,-y,z
1/2+x,1/2+y,z
1/2-x,1/2+y,-z
1/2-x,1/2-y,-z
1/2+x,1/2-y,z
loop_
_atom_site_type_symbol
_atom_site_label
_atom_site_fract_x
_atom_site_fract_y
_atom_site_fract_z
Si Si1 0.261462 0.106467 0.583083
Si Si2 0.528276 0.605306 0.764659
Si Si3 0.177236 0.807465 0.549998
Si Si4 0.702565 0.600725 0.047808
Si Si5 0.317287 0.892124 0.055715
Si Si6 0.429739 0.271354 0.766426
O O1 0.179582 0.143309 0.704721
O O2 0.314952 0.199502 0.453958
O O3 0.278976 0.000000 0.496739
O O4 0.247444 0.098452 0.789906
O O5 0.533924 0.500000 0.705431
O O6 0.610794 0.656182 0.594574
O O7 0.471619 0.664882 0.792828
O O8 0.500000 0.604544 0.000000
O O9 0.256853 0.855983 0.316105
O O10 0.673612 0.500000 0.147332
O O11 0.632891 0.669395 0.180921
O O12 0.767019 0.623246 0.022121
O O13 0.387451 0.821763 0.907657
O O14 0.333428 0.000000 0.029499
O O15 0.500000 0.244644 0.500000
#
# Coordination Sequence:
#
# PCOD9225318 Si02
#       6
#     8   8   8   8   8   8
#     4  10  21  37  65  98 123 155 207 259 305 358
#     4  11  25  43  64  94 131 165 200 251 320 378
#     4  11  22  40  68  93 125 164 206 259 304 363
#     4  10  21  40  65  90 122 160 207 260 307 363
#     4  11  24  42  64  91 121 165 217 258 304 364
#     4  12  25  39  61  91 130 165 202 260 315 371
#
# _framework density 10.243449
#
# number of rings (size 3 to 8) (size 9 to 14) (size 15 to 20)
#    0.000    1.167    1.667    4.500    4.667    5.667 
#    0.000    0.833    0.000    1.000    0.000    0.000 
#    0.000    0.000    0.000    0.000    0.000    0.000 
#
# Total GULP energy -133665.377023 kJ/mol
# GULP energy per Si atom -5569.390709 kJ/mol
# Density = 1.022013 g / cm^3
# Si number density = 10.243449 Si / 1000 Ang^3
#
#
#
# Elastic Constant Matrix: (Units=GPa)
#
#
# Indices 1 2 3 4 5 6 
#
# 1 120.4875 77.1367 18.0454 0.0000 -13.7327 0.0000
# 2 77.1367 217.1019 50.0970 0.0000 -24.0725 0.0000
# 3 18.0454 50.0970 65.1784 0.0000 -22.9812 0.0000
# 4 0.0000 0.0000 0.0000 24.9689 0.0000 -3.0639
# 5 -13.7327 -24.0725 -22.9812 0.0000 26.4840 0.0000
# 6 0.0000 0.0000 0.0000 -3.0639 0.0000 44.9806
#
#
#
# Elastic Compliance Matrix: (Units=1/GPa)
#
#
# Indices 1 2 3 4 5 6 
#
# 1 0.010911 -0.003755 0.000946 0.000000 0.003066 0.000000
# 2 -0.003755 0.006963 -0.003987 0.000000 0.000922 0.000000
# 3 0.000946 -0.003987 0.024552 0.000000 0.018172 0.000000
# 4 0.000000 0.000000 0.000000 0.040387 0.000000 0.002751
# 5 0.003066 0.000922 0.018172 0.000000 0.055954 0.000000
# 6 0.000000 0.000000 0.000000 0.002751 0.000000 0.022419
#
#
# Mechanical properties :
#
#
# Convention : Reuss Voigt Hill
#
# Bulk Modulus (GPa) = 34.68069 77.03621 55.85845
# Shear Modulus (GPa) = 27.11642 36.45260 31.78451
#
# Velocity S-wave (km/s) = 3.64208 4.22277 3.94313
# Velocity P-wave (km/s) = 5.88653 7.83964 6.93222
#
# Compressibility (1/GPa) = 0.02883449
#
# Stress axis : x y z
#
# Youngs Moduli (GPa) = 91.64671 143.62482 40.73000
#
# Poissons Ratio (x) = 0.53936 -0.03855
# Poissons Ratio (y) = 0.34416 0.16238
# Poissons Ratio (z) = -0.08673 0.57260
#
# Static dielectric constant tensor:
#      x y z
#    x 1.814040 0.000000 0.112120 
#    y 0.000000 1.738660 0.000000 
#    z 0.112120 0.000000 1.885810 
# 
# From -- ./inp_files/104942.got.cif
#   From: 2010.05.17/outbox.ucp.g08.bks.cvg/sg12_53_cif.got.tgz:104942.got - 2010.06.11 11:47:21.
