data_PCOD9225812
_publ_section_title
;
Structure prediction by ZEFSAII (Michael W. Deem and Ramdas Pophale) SiO2 
 PCOD9225812
Probable space group: C 2/M
;
_chemical_formula_sum "Si O2"
_cell_formula_units_Z 28
_cell_length_a 18.000000
_cell_length_b 24.000000
_cell_length_c 9.000000
_cell_angle_alpha 90.000000
_cell_angle_beta 120.000000
_cell_angle_gamma 90.000000
_cell_volume 3367.106770
_symmetry_space_group_name_H-M "C 2/M"
_symmetry_group_IT_number 12
_symmetry_cell_setting 'monoclinic'
loop_
_space_group_symop_operation_xyz
x,y,z
-x,y,-z
-x,-y,-z
x,-y,z
1/2+x,1/2+y,z
1/2-x,1/2+y,-z
1/2-x,1/2-y,-z
1/2+x,1/2-y,z
loop_
_atom_site_type_symbol
_atom_site_label
_atom_site_fract_x
_atom_site_fract_y
_atom_site_fract_z
Si Si1 0.694311 0.821802 0.632385
Si Si2 0.590809 0.291653 0.499914
Si Si3 0.994363 0.727521 0.169882
Si Si4 0.686642 0.742239 0.074169
Si Si5 0.938722 0.618880 0.304291
Si Si6 0.771995 0.347055 0.679496
Si Si7 0.097137 0.565602 0.041342
O O1 0.640627 0.764345 0.601498
O O2 0.785845 0.808884 0.796067
O O3 0.645286 0.863997 0.688663
O O4 0.702045 0.837681 0.467319
O O5 0.500000 0.300606 0.500000
O O6 0.563920 0.269836 0.307888
O O7 0.666687 0.338879 0.581711
O O8 0.983143 0.672864 0.264944
O O9 0.906195 0.761268 0.087962
O O10 0.000000 0.712622 0.000000
O O11 0.692799 0.796352 0.185195
O O12 0.750000 0.750000 0.000000
O O13 0.000000 0.598474 0.500000
O O14 0.910255 0.579606 0.141182
O O15 0.826736 0.399137 0.801344
O O16 0.111432 0.500000 0.080445
O O17 0.000000 0.579194 0.000000
#
# Coordination Sequence:
#
# PCOD9225812 Si02
#       7
#     8   8   8   8   8   8   8
#     4  11  19  33  49  82 118 152 187 225 278 344
#     4  11  20  33  51  85 123 154 185 220 274 348
#     4  12  19  29  48  75 111 154 181 214 268 333
#     4  11  19  30  48  77 114 151 187 215 265 334
#     4  12  21  33  54  77 112 147 178 232 283 337
#     4  11  22  36  57  81 114 153 196 236 283 335
#     4  11  25  43  61  81 105 145 199 249 295 336
#
# _framework density 8.3157449999999997
#
# number of rings (size 3 to 8) (size 9 to 14) (size 15 to 20)
#    0.000    0.714    5.714    5.571    0.000    0.286 
#    0.000    0.714    0.000    0.429    0.000    0.000 
#    0.000    2.857    0.000    0.000    0.000    0.000 
#
# Total GULP energy -155984.035753 kJ/mol
# GULP energy per Si atom -5570.858420 kJ/mol
# Density = 0.829682 g / cm^3
# Si number density = 8.315745 Si / 1000 Ang^3
#
#
#
# Elastic Constant Matrix: (Units=GPa)
#
#
# Indices 1 2 3 4 5 6 
#
# 1 103.8129 27.2632 34.9009 0.0000 -4.6150 0.0000
# 2 27.2632 58.0446 31.3733 0.0000 3.8353 0.0000
# 3 34.9009 31.3733 120.4982 0.0000 -5.5114 0.0000
# 4 0.0000 0.0000 0.0000 21.2678 0.0000 3.4517
# 5 -4.6150 3.8353 -5.5114 0.0000 46.1173 0.0000
# 6 0.0000 0.0000 0.0000 3.4517 0.0000 16.0511
#
#
#
# Elastic Compliance Matrix: (Units=1/GPa)
#
#
# Indices 1 2 3 4 5 6 
#
# 1 0.011555 -0.004344 -0.002158 0.000000 0.001260 0.000000
# 2 -0.004344 0.021929 -0.004580 0.000000 -0.002806 0.000000
# 3 -0.002158 -0.004580 0.010180 0.000000 0.001381 0.000000
# 4 0.000000 0.000000 0.000000 0.048720 0.000000 -0.010477
# 5 0.001260 -0.002806 0.001381 0.000000 0.022208 0.000000
# 6 0.000000 0.000000 0.000000 -0.010477 0.000000 0.064554
#
#
# Mechanical properties :
#
#
# Convention : Reuss Voigt Hill
#
# Bulk Modulus (GPa) = 46.51159 52.15895 49.33527
# Shear Modulus (GPa) = 23.98352 29.27514 26.62933
#
# Velocity S-wave (km/s) = 3.80156 4.20005 4.00577
# Velocity P-wave (km/s) = 6.87720 7.41284 7.15004
#
# Compressibility (1/GPa) = 0.02150002
#
# Stress axis : x y z
#
# Youngs Moduli (GPa) = 86.54191 45.60120 98.23646
#
# Poissons Ratio (x) = 0.19810 0.21201
# Poissons Ratio (y) = 0.37595 0.44989
# Poissons Ratio (z) = 0.18677 0.20884
#
# Static dielectric constant tensor:
#      x y z
#    x 1.642180 0.000000 0.016550 
#    y 0.000000 1.548540 0.000000 
#    z 0.016550 0.000000 1.614600 
# 
# From -- ./inp_files/78870.got.cif
#   From: 2010.05.17/outbox.ucp.g08.bks.cvg/sg12_40_cif.got.tgz:78870.got - 2010.06.11 11:47:21.
