data_PCOD9225452
_publ_section_title
;
Structure prediction by ZEFSAII (Michael W. Deem and Ramdas Pophale) SiO2 
 PCOD9225452
Probable space group: C 2/M
;
_chemical_formula_sum "Si O2"
_cell_formula_units_Z 24
_cell_length_a 30.000000
_cell_length_b 15.000000
_cell_length_c 15.000000
_cell_angle_alpha 90.000000
_cell_angle_beta 20.000000
_cell_angle_gamma 90.000000
_cell_volume 2308.635967
_symmetry_space_group_name_H-M "C 2/M"
_symmetry_group_IT_number 12
_symmetry_cell_setting 'monoclinic'
loop_
_space_group_symop_operation_xyz
x,y,z
-x,y,-z
-x,-y,-z
x,-y,z
1/2+x,1/2+y,z
1/2-x,1/2+y,-z
1/2-x,1/2-y,-z
1/2+x,1/2-y,z
loop_
_atom_site_type_symbol
_atom_site_label
_atom_site_fract_x
_atom_site_fract_y
_atom_site_fract_z
Si Si1 0.684977 0.390497 0.684831
Si Si2 0.005099 0.832088 0.595982
Si Si3 0.977691 0.330762 0.330033
Si Si4 0.747870 0.102161 0.754630
Si Si5 0.361813 0.274406 0.391929
Si Si6 0.682858 0.602962 0.894941
O O1 0.701767 0.500000 0.641173
O O2 0.612035 0.344546 0.737338
O O3 0.808591 0.320486 0.452833
O O4 0.638106 0.378622 0.876068
O O5 0.013816 0.726113 0.595615
O O6 0.000000 0.854277 0.500000
O O7 0.134786 0.874834 0.397281
O O8 0.885045 0.855163 0.889573
O O9 0.965694 0.261148 0.269270
O O10 0.838402 0.379617 0.597172
O O11 0.107844 0.385363 0.064738
O O12 0.763340 0.170900 0.642803
O O13 0.762596 0.000000 0.696402
O O14 0.655758 0.500000 0.958308
#
# Coordination Sequence:
#
# PCOD9225452 Si02
#       6
#     8   8   8   8   8   8
#     4   9  17  34  61  90 123 169 216 254 299 363
#     4  11  24  43  65  88 119 161 207 257 317 380
#     4  10  21  39  63  92 125 162 204 255 313 370
#     4  11  23  40  64  94 127 164 208 258 313 373
#     4   9  19  36  59  89 131 169 208 255 307 364
#     4  10  21  39  62  89 122 160 206 258 309 365
#
# _framework density 10.395749
#
# number of rings (size 3 to 8) (size 9 to 14) (size 15 to 20)
#    0.000    2.000    0.000    4.500    0.000    4.667 
#    0.000   19.167    0.000   32.000    0.000    0.000 
#    0.000    0.000    0.000    0.000    0.000    0.000 
#
# Total GULP energy -133602.352462 kJ/mol
# GULP energy per Si atom -5566.764686 kJ/mol
# Density = 1.037209 g / cm^3
# Si number density = 10.395749 Si / 1000 Ang^3
#
#
#
# Elastic Constant Matrix: (Units=GPa)
#
#
# Indices 1 2 3 4 5 6 
#
# 1 118.7515 23.6282 45.5618 0.0000 17.7951 0.0000
# 2 23.6282 101.3433 -0.6806 0.0000 2.6071 0.0000
# 3 45.5618 -0.6806 107.1039 0.0000 1.3872 0.0000
# 4 0.0000 0.0000 0.0000 20.0092 0.0000 5.9593
# 5 17.7951 2.6071 1.3872 0.0000 27.0674 0.0000
# 6 0.0000 0.0000 0.0000 5.9593 0.0000 23.5642
#
#
#
# Elastic Compliance Matrix: (Units=1/GPa)
#
#
# Indices 1 2 3 4 5 6 
#
# 1 0.011972 -0.002636 -0.005014 0.000000 -0.007360 0.000000
# 2 -0.002636 0.010473 0.001179 0.000000 0.000664 0.000000
# 3 -0.005014 0.001179 0.011444 0.000000 0.002597 0.000000
# 4 0.000000 0.000000 0.000000 0.054048 0.000000 -0.013669
# 5 -0.007360 0.000664 0.002597 0.000000 0.041587 0.000000
# 6 0.000000 0.000000 0.000000 -0.013669 0.000000 0.045894
#
#
# Mechanical properties :
#
#
# Convention : Reuss Voigt Hill
#
# Bulk Modulus (GPa) = 47.73964 51.57974 49.65969
# Shear Modulus (GPa) = 25.59623 31.37410 28.48517
#
# Velocity S-wave (km/s) = 3.51250 3.88878 3.70542
# Velocity P-wave (km/s) = 6.28181 6.71010 6.49949
#
# Compressibility (1/GPa) = 0.02094695
#
# Stress axis : x y z
#
# Youngs Moduli (GPa) = 83.52705 95.48544 87.38440
#
# Poissons Ratio (x) = 0.25167 0.43818
# Poissons Ratio (y) = 0.22015 -0.10304
# Poissons Ratio (z) = 0.41883 -0.11259
#
# Static dielectric constant tensor:
#      x y z
#    x 1.765220 0.000000 -0.040640 
#    y 0.000000 1.778720 0.000000 
#    z -0.040640 0.000000 1.789920 
# 
# From -- ./inp_files/251440.got.cif
#   From: 2010.05.17/outbox.ucp.g08.bks.cvg/sg12_126_cif.got.tgz:251440.got - 2010.06.11 11:47:21.
