data_PCOD9225441
_publ_section_title
;
Structure prediction by ZEFSAII (Michael W. Deem and Ramdas Pophale) SiO2 
 PCOD9225441
Probable space group: C 2/M
;
_chemical_formula_sum "Si O2"
_cell_formula_units_Z 32
_cell_length_a 30.000000
_cell_length_b 9.000000
_cell_length_c 15.000000
_cell_angle_alpha 90.000000
_cell_angle_beta 130.000000
_cell_angle_gamma 90.000000
_cell_volume 3102.479995
_symmetry_space_group_name_H-M "C 2/M"
_symmetry_group_IT_number 12
_symmetry_cell_setting 'monoclinic'
loop_
_space_group_symop_operation_xyz
x,y,z
-x,y,-z
-x,-y,-z
x,-y,z
1/2+x,1/2+y,z
1/2-x,1/2+y,-z
1/2-x,1/2-y,-z
1/2+x,1/2-y,z
loop_
_atom_site_type_symbol
_atom_site_label
_atom_site_fract_x
_atom_site_fract_y
_atom_site_fract_z
Si Si1 0.007124 0.174666 0.734574
Si Si2 0.352901 0.823854 0.781573
Si Si3 0.226822 0.173791 0.057803
Si Si4 0.722029 0.329835 0.580130
Si Si5 0.825092 0.831582 0.287458
Si Si6 0.057980 0.676421 0.630117
Si Si7 0.608431 0.329052 0.995039
Si Si8 0.886063 0.820221 0.655279
O O1 0.940758 0.223528 0.664842
O O2 0.041593 0.269478 0.707098
O O3 0.007196 0.000000 0.708010
O O4 0.044556 0.185563 0.872812
O O5 0.285588 0.768919 0.684612
O O6 0.375853 0.783396 0.907813
O O7 0.393294 0.739837 0.763353
O O8 0.354284 0.000000 0.769886
O O9 0.266980 0.246351 0.184276
O O10 0.158331 0.194781 0.984664
O O11 0.238307 0.000000 0.069836
O O12 0.250000 0.250000 0.000000
O O13 0.732266 0.500000 0.563616
O O14 0.681340 0.337168 0.614965
O O15 0.677375 0.256425 0.454191
O O16 0.884012 0.754828 0.331204
O O17 0.823476 0.000000 0.249753
O O18 0.066524 0.500000 0.637098
O O19 0.000000 0.715820 0.500000
O O20 0.616133 0.500000 0.036345
O O21 0.884276 0.000000 0.651726
#
# Coordination Sequence:
#
# PCOD9225441 Si02
#       8
#     8   8   8   8   8   8   8   8
#     4  10  22  41  64  88 117 159 209 252 298 359
#     4  11  22  38  60  88 120 155 198 247 305 364
#     4  11  22  36  57  86 119 155 198 246 301 360
#     4   9  19  36  59  88 119 152 196 247 301 363
#     4  11  21  37  61  87 118 156 201 247 298 360
#     4  11  24  40  59  89 127 162 201 248 301 361
#     4  10  22  40  60  85 118 157 200 247 298 358
#     4  10  21  39  62  87 116 153 200 252 304 361
#
# _framework density 10.314329000000001
#
# number of rings (size 3 to 8) (size 9 to 14) (size 15 to 20)
#    0.000    1.625    1.250    3.375    0.000    5.000 
#    0.000    4.375    0.000    0.000    0.000    0.000 
#    0.000    0.000    0.000    0.000    0.000    0.000 
#
# Total GULP energy -178500.191747 kJ/mol
# GULP energy per Si atom -5578.130992 kJ/mol
# Density = 1.029085 g / cm^3
# Si number density = 10.314329 Si / 1000 Ang^3
#
#
#
# Elastic Constant Matrix: (Units=GPa)
#
#
# Indices 1 2 3 4 5 6 
#
# 1 32.0023 6.4463 3.9104 0.0000 -8.4726 0.0000
# 2 6.4463 17.0490 23.7506 0.0000 0.5057 0.0000
# 3 3.9104 23.7506 49.4094 0.0000 6.4528 0.0000
# 4 0.0000 0.0000 0.0000 12.1038 0.0000 -1.6648
# 5 -8.4726 0.5057 6.4528 0.0000 23.9741 0.0000
# 6 0.0000 0.0000 0.0000 -1.6648 0.0000 21.8324
#
#
#
# Elastic Compliance Matrix: (Units=1/GPa)
#
#
# Indices 1 2 3 4 5 6 
#
# 1 0.038710 -0.025790 0.007748 0.000000 0.012139 0.000000
# 2 -0.025790 0.204416 -0.097908 0.000000 0.012926 0.000000
# 3 0.007748 -0.097908 0.068469 0.000000 -0.013625 0.000000
# 4 0.000000 0.000000 0.000000 0.083495 0.000000 0.006367
# 5 0.012139 0.012926 -0.013625 0.000000 0.049396 0.000000
# 6 0.000000 0.000000 0.000000 0.006367 0.000000 0.046289
#
#
# Mechanical properties :
#
#
# Convention : Reuss Voigt Hill
#
# Bulk Modulus (GPa) = 12.54792 18.51949 15.53371
# Shear Modulus (GPa) = 6.67344 15.87226 11.27285
#
# Velocity S-wave (km/s) = 1.80057 2.77687 2.34020
# Velocity P-wave (km/s) = 3.22780 4.39071 3.85338
#
# Compressibility (1/GPa) = 0.07969446
#
# Stress axis : x y z
#
# Youngs Moduli (GPa) = 25.83326 4.89200 14.60523
#
# Poissons Ratio (x) = 0.12617 -0.11316
# Poissons Ratio (y) = 0.66625 1.42996
# Poissons Ratio (z) = -0.20016 0.47896
#
# Static dielectric constant tensor:
#      x y z
#    x 1.831920 0.000000 -0.274840 
#    y 0.000000 1.600890 0.000000 
#    z -0.274840 0.000000 2.277930 
# 
# From -- ./inp_files/249934.got.cif
#   From: 2010.05.17/outbox.ucp.g08.bks.cvg/sg12_125_cif.got.tgz:249934.got - 2010.06.11 11:47:21.
