data_PCOD9225688
_publ_section_title
;
Structure prediction by ZEFSAII (Michael W. Deem and Ramdas Pophale) SiO2 
 PCOD9225688
Probable space group: C 2/M
;
_chemical_formula_sum "Si O2"
_cell_formula_units_Z 32
_cell_length_a 12.000000
_cell_length_b 27.000000
_cell_length_c 15.000000
_cell_angle_alpha 90.000000
_cell_angle_beta 140.000000
_cell_angle_gamma 90.000000
_cell_volume 3123.947783
_symmetry_space_group_name_H-M "C 2/M"
_symmetry_group_IT_number 12
_symmetry_cell_setting 'monoclinic'
loop_
_space_group_symop_operation_xyz
x,y,z
-x,y,-z
-x,-y,-z
x,-y,z
1/2+x,1/2+y,z
1/2-x,1/2+y,-z
1/2-x,1/2-y,-z
1/2+x,1/2-y,z
loop_
_atom_site_type_symbol
_atom_site_label
_atom_site_fract_x
_atom_site_fract_y
_atom_site_fract_z
Si Si1 0.271436 0.724014 0.743525
Si Si2 0.253280 0.794318 0.572319
Si Si3 0.401973 0.846865 0.251609
Si Si4 0.807776 0.319280 0.875496
Si Si5 0.126032 0.444301 0.660702
Si Si6 0.989088 0.116897 0.390042
Si Si7 0.385365 0.341534 0.068335
Si Si8 0.988119 0.057717 0.776843
O O1 0.213594 0.763340 0.635177
O O2 0.118277 0.686915 0.673610
O O3 0.313671 0.762755 0.847075
O O4 0.434598 0.688548 0.822674
O O5 0.250000 0.750000 0.500000
O O6 0.435465 0.822794 0.697994
O O7 0.122240 0.837268 0.464531
O O8 0.414023 0.903186 0.290310
O O9 0.223786 0.840110 0.088668
O O10 0.693171 0.356632 0.745359
O O11 0.724842 0.317105 0.921539
O O12 0.000000 0.339647 0.000000
O O13 0.106136 0.500000 0.684435
O O14 0.313555 0.440204 0.729146
O O15 0.000000 0.437729 0.500000
O O16 0.000000 0.099344 0.500000
O O17 0.030033 0.077174 0.336884
O O18 0.401776 0.399121 0.107844
O O19 0.046489 0.000000 0.813160
#
# Coordination Sequence:
#
# PCOD9225688 Si02
#       8
#     8   8   8   8   8   8   8   8
#     4  12  23  39  60  91 130 175 216 260 318 382
#     4  12  26  39  60  95 134 175 214 264 320 383
#     4  12  25  38  64  94 130 174 218 267 321 388
#     4  11  23  41  63  86 130 177 210 264 320 373
#     4  10  22  41  65  93 126 165 212 274 339 388
#     4  11  23  43  65  97 130 164 222 268 316 392
#     4  11  24  41  61  95 129 167 224 265 317 398
#     4  10  22  43  69  94 128 168 212 274 335 387
#
# _framework density 10.243449
#
# number of rings (size 3 to 8) (size 9 to 14) (size 15 to 20)
#    0.000    0.875    2.500    5.625    1.750    2.250 
#    0.000    1.250    0.000    6.000    0.000    0.000 
#    0.000    0.000    0.000    0.000    0.000    0.000 
#
# Total GULP energy -178617.045429 kJ/mol
# GULP energy per Si atom -5581.782670 kJ/mol
# Density = 1.022013 g / cm^3
# Si number density = 10.243449 Si / 1000 Ang^3
#
#
#
# Elastic Constant Matrix: (Units=GPa)
#
#
# Indices 1 2 3 4 5 6 
#
# 1 34.3461 4.3142 3.9286 0.0000 -11.5561 0.0000
# 2 4.3142 87.8799 28.3378 0.0000 -24.2910 0.0000
# 3 3.9286 28.3378 35.1254 0.0000 8.3829 0.0000
# 4 0.0000 0.0000 0.0000 30.3458 0.0000 -11.1620
# 5 -11.5561 -24.2910 8.3829 0.0000 23.5628 0.0000
# 6 0.0000 0.0000 0.0000 -11.1620 0.0000 46.4806
#
#
#
# Elastic Compliance Matrix: (Units=1/GPa)
#
#
# Indices 1 2 3 4 5 6 
#
# 1 0.078870 0.065482 -0.095063 0.000000 0.140007 0.000000
# 2 0.065482 0.103643 -0.135618 0.000000 0.187209 0.000000
# 3 -0.095063 -0.135618 0.210914 0.000000 -0.261468 0.000000
# 4 0.000000 0.000000 0.000000 0.036146 0.000000 0.008680
# 5 0.140007 0.187209 -0.261468 0.000000 0.397122 0.000000
# 6 0.000000 0.000000 0.000000 0.008680 0.000000 0.023599
#
#
# Mechanical properties :
#
#
# Convention : Reuss Voigt Hill
#
# Bulk Modulus (GPa) = 15.86564 25.61251 20.73908
# Shear Modulus (GPa) = 4.16076 28.12922 16.14499
#
# Velocity S-wave (km/s) = 1.42666 3.70947 2.81029
# Velocity P-wave (km/s) = 3.23649 5.55661 4.54702
#
# Compressibility (1/GPa) = 0.06302928
#
# Stress axis : x y z
#
# Youngs Moduli (GPa) = 12.67906 9.64852 4.74126
#
# Poissons Ratio (x) = -0.63180 0.45072
# Poissons Ratio (y) = -0.83025 0.64300
# Poissons Ratio (z) = 1.20531 1.30851
#
# Static dielectric constant tensor:
#      x y z
#    x 1.731400 0.000000 -0.014540 
#    y 0.000000 1.739440 0.000000 
#    z -0.014540 0.000000 1.819690 
# 
# From -- ./inp_files/209414.got.cif
#   From: 2010.05.17/outbox.ucp.g08.bks.cvg/sg12_105_cif.got.tgz:209414.got - 2010.06.11 11:47:21.
