data_PCOD9225329
_publ_section_title
;
Structure prediction by ZEFSAII (Michael W. Deem and Ramdas Pophale) SiO2 
 PCOD9225329
Probable space group: C 2/M
;
_chemical_formula_sum "Si O2"
_cell_formula_units_Z 32
_cell_length_a 18.000000
_cell_length_b 9.000000
_cell_length_c 30.000000
_cell_angle_alpha 90.000000
_cell_angle_beta 40.000000
_cell_angle_gamma 90.000000
_cell_volume 3123.947783
_symmetry_space_group_name_H-M "C 2/M"
_symmetry_group_IT_number 12
_symmetry_cell_setting 'monoclinic'
loop_
_space_group_symop_operation_xyz
x,y,z
-x,y,-z
-x,-y,-z
x,-y,z
1/2+x,1/2+y,z
1/2-x,1/2+y,-z
1/2-x,1/2-y,-z
1/2+x,1/2-y,z
loop_
_atom_site_type_symbol
_atom_site_label
_atom_site_fract_x
_atom_site_fract_y
_atom_site_fract_z
Si Si1 0.763030 0.823397 0.191199
Si Si2 0.180695 0.821800 0.399991
Si Si3 0.394402 0.829659 0.871985
Si Si4 0.942972 0.178914 0.456675
Si Si5 0.846467 0.177729 0.051970
Si Si6 0.019206 0.179039 0.325962
Si Si7 0.984973 0.330836 0.091650
Si Si8 0.583049 0.323642 0.723590
O O1 0.798468 0.786745 0.123528
O O2 0.645875 0.749716 0.261916
O O3 0.875585 0.755618 0.162376
O O4 0.755347 0.000000 0.198995
O O5 0.152320 0.767626 0.463690
O O6 0.292008 0.748129 0.327346
O O7 0.066631 0.791984 0.423143
O O8 0.196107 0.000000 0.394087
O O9 0.264170 0.777487 0.926288
O O10 0.425917 0.831468 0.908926
O O11 0.485197 0.738370 0.801190
O O12 0.398885 0.000000 0.852711
O O13 0.953045 0.231798 0.401097
O O14 0.929021 0.000000 0.461503
O O15 0.866410 0.000000 0.041524
O O16 0.955477 0.252587 0.977873
O O17 0.952717 0.213205 0.310910
O O18 0.032154 0.000000 0.323209
O O19 0.952251 0.500000 0.095314
O O20 0.589665 0.500000 0.725134
#
# Coordination Sequence:
#
# PCOD9225329 Si02
#       8
#     8   8   8   8   8   8   8   8
#     4  11  23  39  59  84 116 152 190 233 283 338
#     4   9  18  36  62  86 112 149 192 232 275 338
#     4  10  22  41  60  81 112 153 194 232 280 343
#     4   8  17  36  61  86 111 148 193 233 275 331
#     4  10  21  40  62  82 111 149 191 236 282 336
#     4  10  21  38  58  82 115 152 193 237 281 332
#     4  11  24  38  59  87 113 146 190 237 287 341
#     4  11  23  36  55  85 119 151 186 238 290 330
#
# _framework density 10.243449
#
# number of rings (size 3 to 8) (size 9 to 14) (size 15 to 20)
#    0.000    2.000    1.250    2.625    1.750    5.000 
#    0.000    1.875    0.000    0.000    0.000    0.000 
#    0.000    0.000    0.000    0.000    0.000    0.000 
#
# Total GULP energy -178553.158046 kJ/mol
# GULP energy per Si atom -5579.786189 kJ/mol
# Density = 1.022013 g / cm^3
# Si number density = 10.243449 Si / 1000 Ang^3
#
#
#
# Elastic Constant Matrix: (Units=GPa)
#
#
# Indices 1 2 3 4 5 6 
#
# 1 28.2342 11.3184 -0.4005 0.0001 2.4050 0.0008
# 2 11.3184 6.9668 11.3634 0.0002 9.5400 0.0020
# 3 -0.4005 11.3634 61.1797 0.0000 5.4420 0.0001
# 4 0.0001 0.0002 0.0000 31.6213 0.0000 -0.6353
# 5 2.4050 9.5400 5.4420 0.0000 35.8146 0.0000
# 6 0.0008 0.0020 0.0001 -0.6353 0.0000 16.0998
#
#
#
# Elastic Compliance Matrix: (Units=1/GPa)
#
#
# Indices 1 2 3 4 5 6 
#
# 1 -0.073177 0.282642 -0.047357 -0.000002 -0.063178 -0.000031
# 2 0.282642 -0.734179 0.124187 0.000006 0.157715 0.000077
# 3 -0.047357 0.124187 -0.004431 -0.000001 -0.029227 -0.000013
# 4 -0.000002 0.000006 -0.000001 0.031649 -0.000001 0.001249
# 5 -0.063178 0.157715 -0.029227 -0.000001 -0.005406 -0.000016
# 6 -0.000031 0.000077 -0.000013 0.001249 -0.000016 0.062162
#
#
# Mechanical properties :
#
#
# Convention : Reuss Voigt Hill
#
# Bulk Modulus (GPa) = -10.77087 15.66037 2.44475
# Shear Modulus (GPa) = -3.39380 21.64711 9.12665
#
# Velocity S-wave (km/s) = -1.28847 3.25411 2.11295
# Velocity P-wave (km/s) = 2.73540 4.66687 2.67369
#
# Compressibility (1/GPa) = -0.09284301
#
# Stress axis : x y z
#
# Youngs Moduli (GPa) = -13.66558 -1.36206 -225.66910
#
# Poissons Ratio (x) = 0.38498 -10.68697
# Poissons Ratio (y) = 3.86247 28.02512
# Poissons Ratio (z) = -0.64716 0.16915
#
# Static dielectric constant tensor:
#      x y z
#    x 1.832000 0.000000 0.009870 
#    y 0.000000 1.712360 0.000000 
#    z 0.009870 0.000000 1.671850 
# 
# From -- ./inp_files/378236.got.cif
#   From: 2010.05.17/outbox.ucp.g08.bks.cvg/sg12_190_cif.got.tgz:378236.got - 2010.06.11 11:47:21.
