data_PCOD9225598
_publ_section_title
;
Structure prediction by ZEFSAII (Michael W. Deem and Ramdas Pophale) SiO2 
 PCOD9225598
Probable space group: C 2/M
;
_chemical_formula_sum "Si O2"
_cell_formula_units_Z 28
_cell_length_a 12.000000
_cell_length_b 18.000000
_cell_length_c 15.000000
_cell_angle_alpha 90.000000
_cell_angle_beta 60.000000
_cell_angle_gamma 90.000000
_cell_volume 2805.922308
_symmetry_space_group_name_H-M "C 2/M"
_symmetry_group_IT_number 12
_symmetry_cell_setting 'monoclinic'
loop_
_space_group_symop_operation_xyz
x,y,z
-x,y,-z
-x,-y,-z
x,-y,z
1/2+x,1/2+y,z
1/2-x,1/2+y,-z
1/2-x,1/2-y,-z
1/2+x,1/2-y,z
loop_
_atom_site_type_symbol
_atom_site_label
_atom_site_fract_x
_atom_site_fract_y
_atom_site_fract_z
Si Si1 0.076651 0.826100 0.380127
Si Si2 0.454747 0.087177 0.920638
Si Si3 0.027484 0.649933 0.389008
Si Si4 0.303498 0.332662 0.999794
Si Si5 0.369820 0.825591 0.288266
Si Si6 0.535157 0.657412 0.767052
Si Si7 0.727498 0.414670 0.807376
O O1 0.073178 0.735693 0.378777
O O2 0.225314 0.847341 0.324458
O O3 0.017077 0.854261 0.311525
O O4 0.000000 0.848528 0.500000
O O5 0.306079 0.108036 0.979379
O O6 0.530759 0.132832 0.816032
O O7 0.476022 0.000000 0.899039
O O8 0.500000 0.109980 0.000000
O O9 0.133362 0.606379 0.288449
O O10 0.000000 0.621992 0.500000
O O11 0.901634 0.654261 0.377604
O O12 0.319041 0.354828 0.098362
O O13 0.250000 0.250000 0.000000
O O14 0.423352 0.340706 0.886164
O O15 0.394970 0.737863 0.264011
O O16 0.633084 0.595942 0.761968
O O17 0.725322 0.500000 0.841020
#
# Coordination Sequence:
#
# PCOD9225598 Si02
#       7
#     8   8   8   8   8   8   8
#     4  10  22  40  68 102 130 167 225 287 333 388
#     4  11  24  39  62  93 130 170 211 266 331 393
#     4  10  22  38  66  99 129 170 223 278 336 391
#     4  12  23  40  66  96 130 171 218 272 319 398
#     4  11  21  40  67  97 132 168 220 281 331 392
#     4  11  24  39  65  96 130 176 221 264 337 400
#     4  12  26  44  64  96 140 176 221 273 335 402
#
# _framework density 9.9788940000000004
#
# number of rings (size 3 to 8) (size 9 to 14) (size 15 to 20)
#    0.000    1.000    4.286    2.571    4.000    3.714 
#    0.000    0.714    0.000    0.857    0.000    0.000 
#    0.000    0.000    0.000    0.000    0.000    0.000 
#
# Total GULP energy -156342.590485 kJ/mol
# GULP energy per Si atom -5583.663946 kJ/mol
# Density = 0.995618 g / cm^3
# Si number density = 9.978894 Si / 1000 Ang^3
#
#
#
# Elastic Constant Matrix: (Units=GPa)
#
#
# Indices 1 2 3 4 5 6 
#
# 1 118.0306 4.7113 53.1298 0.0000 15.6046 0.0000
# 2 4.7113 28.0619 35.2327 0.0000 18.5667 0.0000
# 3 53.1298 35.2327 106.0083 0.0000 21.1156 0.0000
# 4 0.0000 0.0000 0.0000 5.7676 0.0000 3.9845
# 5 15.6046 18.5667 21.1156 0.0000 32.6085 0.0000
# 6 0.0000 0.0000 0.0000 3.9845 0.0000 14.3248
#
#
#
# Elastic Compliance Matrix: (Units=1/GPa)
#
#
# Indices 1 2 3 4 5 6 
#
# 1 0.014037 0.018050 -0.011078 0.000000 -0.009821 0.000000
# 2 0.018050 0.109001 -0.035810 0.000000 -0.047512 0.000000
# 3 -0.011078 -0.035810 0.024993 0.000000 0.009506 0.000000
# 4 0.000000 0.000000 0.000000 0.214624 0.000000 -0.059698
# 5 -0.009821 -0.047512 0.009506 0.000000 0.056264 0.000000
# 6 0.000000 0.000000 0.000000 -0.059698 0.000000 0.086414
#
#
# Mechanical properties :
#
#
# Convention : Reuss Voigt Hill
#
# Bulk Modulus (GPa) = 11.06737 48.69426 29.88081
# Shear Modulus (GPa) = 8.42990 21.14199 14.78594
#
# Velocity S-wave (km/s) = 2.05743 3.25827 2.72483
# Velocity P-wave (km/s) = 3.34686 6.21343 4.99040
#
# Compressibility (1/GPa) = 0.09035572
#
# Stress axis : x y z
#
# Youngs Moduli (GPa) = 71.24107 9.17424 40.01064
#
# Poissons Ratio (x) = -0.16559 0.44323
# Poissons Ratio (y) = -1.28589 1.43277
# Poissons Ratio (z) = 0.78920 0.32853
#
# Static dielectric constant tensor:
#      x y z
#    x 1.837440 0.000000 0.080230 
#    y 0.000000 1.681510 0.000000 
#    z 0.080230 0.000000 1.721750 
# 
# From -- ./inp_files/206551.got.cif
#   From: 2010.05.17/outbox.ucp.g08.bks.cvg/sg12_104_cif.got.tgz:206551.got - 2010.06.11 11:47:21.
