data_PCOD9225245
_publ_section_title
;
Structure prediction by ZEFSAII (Michael W. Deem and Ramdas Pophale) SiO2 
 PCOD9225245
Probable space group: C 2/M
;
_chemical_formula_sum "Si O2"
_cell_formula_units_Z 32
_cell_length_a 30.000000
_cell_length_b 9.000000
_cell_length_c 18.000000
_cell_angle_alpha 90.000000
_cell_angle_beta 40.000000
_cell_angle_gamma 90.000000
_cell_volume 3123.947783
_symmetry_space_group_name_H-M "C 2/M"
_symmetry_group_IT_number 12
_symmetry_cell_setting 'monoclinic'
loop_
_space_group_symop_operation_xyz
x,y,z
-x,y,-z
-x,-y,-z
x,-y,z
1/2+x,1/2+y,z
1/2-x,1/2+y,-z
1/2-x,1/2-y,-z
1/2+x,1/2-y,z
loop_
_atom_site_type_symbol
_atom_site_label
_atom_site_fract_x
_atom_site_fract_y
_atom_site_fract_z
Si Si1 0.178907 0.676182 0.118572
Si Si2 0.817484 0.822439 0.728561
Si Si3 0.824655 0.322328 0.166791
Si Si4 0.601843 0.323634 0.520409
Si Si5 0.961074 0.168336 0.937034
Si Si6 0.688760 0.829427 0.533634
Si Si7 0.043793 0.828409 0.232214
Si Si8 0.401621 0.828970 0.208942
O O1 0.184575 0.500000 0.105660
O O2 0.168870 0.730999 0.215367
O O3 0.112571 0.734775 0.158366
O O4 0.250000 0.750000 0.000000
O O5 0.745292 0.769678 0.782974
O O6 0.877082 0.802932 0.591474
O O7 0.812040 0.000000 0.752149
O O8 0.819922 0.500000 0.170496
O O9 0.839475 0.280474 0.233518
O O10 0.893945 0.266904 0.038575
O O11 0.603248 0.500000 0.534998
O O12 0.660458 0.249913 0.496723
O O13 0.524599 0.270636 0.638448
O O14 0.972804 0.169773 0.833730
O O15 0.030701 0.230219 0.884739
O O16 0.947002 0.000000 0.978887
O O17 0.750000 0.750000 0.500000
O O18 0.625305 0.826352 0.673099
O O19 0.707579 0.000000 0.494667
O O20 0.056900 0.000000 0.239046
O O21 0.419209 0.000000 0.167522
#
# Coordination Sequence:
#
# PCOD9225245 Si02
#       8
#     8   8   8   8   8   8   8   8
#     4  12  26  44  68  96 127 160 205 257 312 376
#     4  10  22  42  67  92 123 162 205 251 309 374
#     4  10  21  37  57  83 117 160 205 250 303 366
#     4  10  21  41  66  92 125 164 208 256 309 375
#     4  11  22  36  57  87 120 156 201 253 306 363
#     4  11  22  36  58  86 121 166 215 263 311 367
#     4  10  22  41  65  92 126 165 206 255 315 377
#     4  10  21  37  56  82 117 159 205 250 301 365
#
# _framework density 10.243449
#
# number of rings (size 3 to 8) (size 9 to 14) (size 15 to 20)
#    0.000    1.500    1.250    3.750    0.000    9.500 
#    0.000    3.750    0.000    0.000    0.000    0.000 
#    0.000    0.000    0.000    0.000    0.000    0.000 
#
# Total GULP energy -178796.556868 kJ/mol
# GULP energy per Si atom -5587.392402 kJ/mol
# Density = 1.022013 g / cm^3
# Si number density = 10.243449 Si / 1000 Ang^3
#
#
#
# Elastic Constant Matrix: (Units=GPa)
#
#
# Indices 1 2 3 4 5 6 
#
# 1 64.7463 47.5161 8.9876 0.0024 -7.1980 -0.0016
# 2 47.5161 55.0360 22.4706 0.0014 -0.1394 0.0016
# 3 8.9876 22.4706 48.0185 -0.0035 -6.2355 0.0020
# 4 0.0024 0.0014 -0.0035 20.5125 0.0017 0.6345
# 5 -7.1980 -0.1394 -6.2355 0.0017 28.4961 0.0000
# 6 -0.0016 0.0016 0.0020 0.6345 0.0000 34.2034
#
#
#
# Elastic Compliance Matrix: (Units=1/GPa)
#
#
# Indices 1 2 3 4 5 6 
#
# 1 0.055070 -0.054664 0.017543 -0.000001 0.017482 0.000004
# 2 -0.054664 0.076864 -0.028285 -0.000002 -0.019621 -0.000004
# 3 0.017543 -0.028285 0.032252 0.000004 0.011350 0.000000
# 4 -0.000001 -0.000002 0.000004 0.048779 -0.000002 -0.000905
# 5 0.017482 -0.019621 0.011350 -0.000002 0.041896 0.000001
# 6 0.000004 -0.000004 0.000000 -0.000905 0.000001 0.029254
#
#
# Mechanical properties :
#
#
# Convention : Reuss Voigt Hill
#
# Bulk Modulus (GPa) = 29.96413 36.19438 33.07926
# Shear Modulus (GPa) = 11.73569 22.56416 17.14992
#
# Velocity S-wave (km/s) = 2.39600 3.32233 2.89644
# Velocity P-wave (km/s) = 4.72358 5.69408 5.23138
#
# Compressibility (1/GPa) = 0.03337324
#
# Stress axis : x y z
#
# Youngs Moduli (GPa) = 18.15876 13.01006 31.00571
#
# Poissons Ratio (x) = 0.71118 -0.54393
# Poissons Ratio (y) = 0.99262 0.87701
# Poissons Ratio (z) = -0.31856 0.36800
#
# Static dielectric constant tensor:
#      x y z
#    x 1.716930 0.000000 0.029670 
#    y 0.000000 1.714280 0.000000 
#    z 0.029670 0.000000 1.741840 
# 
# From -- ./inp_files/295473.got.cif
#   From: 2010.05.17/outbox.ucp.g08.bks.cvg/sg12_148_cif.got.tgz:295473.got - 2010.06.11 11:47:21.
