data_PCOD9225343
_publ_section_title
;
Structure prediction by ZEFSAII (Michael W. Deem and Ramdas Pophale) SiO2 
 PCOD9225343
Probable space group: C 2/M
;
_chemical_formula_sum "Si O2"
_cell_formula_units_Z 28
_cell_length_a 12.000000
_cell_length_b 18.000000
_cell_length_c 15.000000
_cell_angle_alpha 90.000000
_cell_angle_beta 60.000000
_cell_angle_gamma 90.000000
_cell_volume 2805.922308
_symmetry_space_group_name_H-M "C 2/M"
_symmetry_group_IT_number 12
_symmetry_cell_setting 'monoclinic'
loop_
_space_group_symop_operation_xyz
x,y,z
-x,y,-z
-x,-y,-z
x,-y,z
1/2+x,1/2+y,z
1/2-x,1/2+y,-z
1/2-x,1/2-y,-z
1/2+x,1/2-y,z
loop_
_atom_site_type_symbol
_atom_site_label
_atom_site_fract_x
_atom_site_fract_y
_atom_site_fract_z
Si Si1 0.254887 0.653639 0.696480
Si Si2 0.946711 0.911465 0.116440
Si Si3 0.514155 0.088394 0.888742
Si Si4 0.140652 0.413379 0.223109
Si Si5 0.490492 0.411191 0.707126
Si Si6 0.111909 0.308752 0.391295
Si Si7 0.228014 0.160581 0.515514
O O1 0.121438 0.639015 0.799169
O O2 0.355501 0.606216 0.714354
O O3 0.301619 0.739594 0.675826
O O4 0.249324 0.631034 0.593681
O O5 0.792804 0.901866 0.177323
O O6 0.000140 0.886182 0.192200
O O7 0.974622 0.000000 0.104060
O O8 0.000000 0.881210 0.000000
O O9 0.394824 0.097563 0.867188
O O10 0.548643 0.000000 0.871085
O O11 0.500000 0.105802 0.000000
O O12 0.109845 0.500000 0.255924
O O13 0.073590 0.356999 0.320126
O O14 0.518014 0.500000 0.693152
O O15 0.590108 0.364855 0.606687
O O16 0.182839 0.361269 0.435639
O O17 0.000000 0.276379 0.500000
O O18 0.250000 0.250000 0.500000
#
# Coordination Sequence:
#
# PCOD9225343 Si02
#       7
#     8   8   8   8   8   8   8
#     4  11  23  39  60  90 123 163 203 244 307 366
#     4   9  19  36  62  93 122 157 199 250 306 354
#     4  10  23  42  64  88 121 164 205 249 300 361
#     4  10  21  41  65  91 121 157 208 255 297 359
#     4  11  22  37  62  95 125 154 200 255 303 359
#     4  11  22  40  65  89 122 165 201 248 305 365
#     4  10  21  38  59  84 123 162 196 239 301 363
#
# _framework density 9.9788940000000004
#
# number of rings (size 3 to 8) (size 9 to 14) (size 15 to 20)
#    0.000    1.714    1.429    3.429    2.000    3.143 
#    0.000    1.429    0.000    0.000    0.000    0.000 
#    0.000    0.000    0.000    0.000    0.000    0.000 
#
# Total GULP energy -156126.526361 kJ/mol
# GULP energy per Si atom -5575.947370 kJ/mol
# Density = 0.995618 g / cm^3
# Si number density = 9.978894 Si / 1000 Ang^3
#
#
#
# Elastic Constant Matrix: (Units=GPa)
#
#
# Indices 1 2 3 4 5 6 
#
# 1 99.6223 11.3600 40.6906 0.0000 34.5310 0.0000
# 2 11.3600 49.5039 36.4479 0.0000 10.2384 0.0000
# 3 40.6906 36.4479 157.7859 0.0000 39.5614 0.0000
# 4 0.0000 0.0000 0.0000 29.5435 0.0000 3.9293
# 5 34.5310 10.2384 39.5614 0.0000 42.2680 0.0000
# 6 0.0000 0.0000 0.0000 3.9293 0.0000 28.7102
#
#
#
# Elastic Compliance Matrix: (Units=1/GPa)
#
#
# Indices 1 2 3 4 5 6 
#
# 1 0.014124 -0.000390 -0.000892 0.000000 -0.010609 0.000000
# 2 -0.000390 0.024373 -0.005395 0.000000 -0.000535 0.000000
# 3 -0.000892 -0.005395 0.009543 0.000000 -0.006896 0.000000
# 4 0.000000 0.000000 0.000000 0.034476 0.000000 -0.004718
# 5 -0.010609 -0.000535 -0.006896 0.000000 0.038910 0.000000
# 6 0.000000 0.000000 0.000000 -0.004718 0.000000 0.035477
#
#
# Mechanical properties :
#
#
# Convention : Reuss Voigt Hill
#
# Bulk Modulus (GPa) = 28.83074 53.76768 41.29921
# Shear Modulus (GPa) = 27.49976 34.66525 31.08251
#
# Velocity S-wave (km/s) = 3.71603 4.17217 3.95069
# Velocity P-wave (km/s) = 5.73490 7.08580 6.44583
#
# Compressibility (1/GPa) = 0.03468520
#
# Stress axis : x y z
#
# Youngs Moduli (GPa) = 70.80061 41.02906 104.78691
#
# Poissons Ratio (x) = 0.01600 0.09350
# Poissons Ratio (y) = 0.02761 0.56535
# Poissons Ratio (z) = 0.06318 0.22136
#
# Static dielectric constant tensor:
#      x y z
#    x 1.834530 0.000000 -0.034240 
#    y 0.000000 1.692470 0.000000 
#    z -0.034240 0.000000 1.709600 
# 
# From -- ./inp_files/206544.got.cif
#   From: 2010.05.17/outbox.ucp.g08.bks.cvg/sg12_104_cif.got.tgz:206544.got - 2010.06.11 11:47:21.
