data_PCOD9225260
_publ_section_title
;
Structure prediction by ZEFSAII (Michael W. Deem and Ramdas Pophale) SiO2 
 PCOD9225260
Probable space group: C 2/M
;
_chemical_formula_sum "Si O2"
_cell_formula_units_Z 28
_cell_length_a 30.000000
_cell_length_b 9.000000
_cell_length_c 12.000000
_cell_angle_alpha 90.000000
_cell_angle_beta 120.000000
_cell_angle_gamma 90.000000
_cell_volume 2805.922308
_symmetry_space_group_name_H-M "C 2/M"
_symmetry_group_IT_number 12
_symmetry_cell_setting 'monoclinic'
loop_
_space_group_symop_operation_xyz
x,y,z
-x,y,-z
-x,-y,-z
x,-y,z
1/2+x,1/2+y,z
1/2-x,1/2+y,-z
1/2-x,1/2-y,-z
1/2+x,1/2-y,z
loop_
_atom_site_type_symbol
_atom_site_label
_atom_site_fract_x
_atom_site_fract_y
_atom_site_fract_z
Si Si1 0.164256 0.675528 0.104137
Si Si2 0.130771 0.833322 0.288207
Si Si3 0.769197 0.326187 0.190746
Si Si4 0.978420 0.680024 0.348434
Si Si5 0.206371 0.330430 0.518153
Si Si6 0.865297 0.679537 0.165330
Si Si7 0.008535 0.171032 0.141761
O O1 0.160512 0.500000 0.117756
O O2 0.150119 0.758200 0.198938
O O3 0.220128 0.720712 0.128635
O O4 0.129407 0.724533 0.956947
O O5 0.153311 0.744691 0.419453
O O6 0.070091 0.835108 0.220093
O O7 0.151814 0.000000 0.315686
O O8 0.756597 0.500000 0.148181
O O9 0.785658 0.323927 0.340486
O O10 0.814709 0.270379 0.167809
O O11 0.985111 0.500000 0.345460
O O12 0.918340 0.718178 0.288238
O O13 0.000000 0.721088 0.500000
O O14 0.994004 0.748903 0.243894
O O15 0.206041 0.500000 0.481557
O O16 0.250000 0.250000 0.500000
O O17 0.860961 0.500000 0.158900
O O18 0.987813 0.000000 0.118045
O O19 0.000000 0.228819 0.000000
#
# Coordination Sequence:
#
# PCOD9225260 Si02
#       7
#     8   8   8   8   8   8   8
#     4  11  21  35  58  86 118 151 192 242 289 349
#     4  11  23  38  59  85 118 156 196 243 296 354
#     4  10  21  37  58  81 116 155 190 233 287 352
#     4  10  22  40  65  92 121 158 203 254 308 367
#     4  11  22  36  58  85 117 156 194 239 291 348
#     4   9  20  38  58  85 117 151 192 240 293 350
#     4  10  23  43  65  90 122 161 206 258 312 364
#
# _framework density 9.9788940000000004
#
# number of rings (size 3 to 8) (size 9 to 14) (size 15 to 20)
#    0.000    1.714    1.429    2.571    2.000    2.286 
#    0.000    2.143    0.000    0.000    0.000    0.000 
#    0.000    0.000    0.000    0.000    0.000    0.000 
#
# Total GULP energy -155929.730475 kJ/mol
# GULP energy per Si atom -5568.918946 kJ/mol
# Density = 0.995618 g / cm^3
# Si number density = 9.978894 Si / 1000 Ang^3
#
#
#
# Elastic Constant Matrix: (Units=GPa)
#
#
# Indices 1 2 3 4 5 6 
#
# 1 62.6356 10.4426 9.8168 0.0000 -15.4309 0.0000
# 2 10.4426 70.6410 33.1008 0.0000 -7.6417 0.0000
# 3 9.8168 33.1008 92.9488 0.0000 -2.8648 0.0000
# 4 0.0000 0.0000 0.0000 20.0058 0.0000 -6.1885
# 5 -15.4309 -7.6417 -2.8648 0.0000 36.9134 0.0000
# 6 0.0000 0.0000 0.0000 -6.1885 0.0000 23.6474
#
#
#
# Elastic Compliance Matrix: (Units=1/GPa)
#
#
# Indices 1 2 3 4 5 6 
#
# 1 0.018157 -0.001331 -0.001221 0.000000 0.007220 0.000000
# 2 -0.001331 0.017440 -0.005990 0.000000 0.002589 0.000000
# 3 -0.001221 -0.005990 0.012998 0.000000 -0.000742 0.000000
# 4 0.000000 0.000000 0.000000 0.054388 0.000000 0.014233
# 5 0.007220 0.002589 -0.000742 0.000000 0.030587 0.000000
# 6 0.000000 0.000000 0.000000 0.014233 0.000000 0.046013
#
#
# Mechanical properties :
#
#
# Convention : Reuss Voigt Hill
#
# Bulk Modulus (GPa) = 31.73551 36.99396 34.36473
# Shear Modulus (GPa) = 24.13458 27.63767 25.88613
#
# Velocity S-wave (km/s) = 3.48125 3.72534 3.60536
# Velocity P-wave (km/s) = 5.66521 6.08938 5.88112
#
# Compressibility (1/GPa) = 0.03151044
#
# Stress axis : x y z
#
# Youngs Moduli (GPa) = 55.07414 57.34005 76.93505
#
# Poissons Ratio (x) = 0.07631 0.09395
# Poissons Ratio (y) = 0.07330 0.46086
# Poissons Ratio (z) = 0.06726 0.34348
#
# Static dielectric constant tensor:
#      x y z
#    x 1.687310 0.000000 0.042180 
#    y 0.000000 1.717200 0.000000 
#    z 0.042180 0.000000 1.797460 
# 
# From -- ./inp_files/187731.got.cif
#   From: 2010.05.17/outbox.ucp.g08.bks.cvg/sg12_94_cif.got.tgz:187731.got - 2010.06.11 11:47:21.
