data_PCOD9225619
_publ_section_title
;
Structure prediction by ZEFSAII (Michael W. Deem and Ramdas Pophale) SiO2 
 PCOD9225619
Probable space group: C 2/M
;
_chemical_formula_sum "Si O2"
_cell_formula_units_Z 24
_cell_length_a 18.000000
_cell_length_b 9.000000
_cell_length_c 30.000000
_cell_angle_alpha 90.000000
_cell_angle_beta 150.000000
_cell_angle_gamma 90.000000
_cell_volume 2430.000000
_symmetry_space_group_name_H-M "C 2/M"
_symmetry_group_IT_number 12
_symmetry_cell_setting 'monoclinic'
loop_
_space_group_symop_operation_xyz
x,y,z
-x,y,-z
-x,-y,-z
x,-y,z
1/2+x,1/2+y,z
1/2-x,1/2+y,-z
1/2-x,1/2-y,-z
1/2+x,1/2-y,z
loop_
_atom_site_type_symbol
_atom_site_label
_atom_site_fract_x
_atom_site_fract_y
_atom_site_fract_z
Si Si1 0.314937 0.832146 0.575932
Si Si2 0.330500 0.169476 0.250601
Si Si3 0.237450 0.822684 0.873590
Si Si4 0.580128 0.176192 0.281117
Si Si5 0.145580 0.331094 0.213702
Si Si6 0.132024 0.822896 0.972669
O O1 0.250000 0.750000 0.500000
O O2 0.494049 0.831943 0.665976
O O3 0.302746 0.774595 0.620280
O O4 0.258303 0.000000 0.545182
O O5 0.244081 0.242353 0.164168
O O6 0.301130 0.277320 0.276121
O O7 0.282984 0.000000 0.232768
O O8 0.067322 0.776623 0.796505
O O9 0.255129 0.000000 0.880267
O O10 0.339372 0.751506 0.964582
O O11 0.644230 0.180681 0.265519
O O12 0.539235 0.000000 0.267955
O O13 0.109230 0.500000 0.181927
O O14 0.025623 0.222299 0.129394
O O15 0.152910 0.000000 0.985949
O O16 0.250000 0.750000 0.000000
#
# Coordination Sequence:
#
# PCOD9225619 Si02
#       6
#     8   8   8   8   8   8
#     4   9  19  37  61  86 110 144 184 229 282 341
#     4  10  22  40  58  81 117 151 184 233 291 339
#     4  11  21  35  57  83 110 149 198 237 278 333
#     4   9  19  36  57  81 114 149 185 231 285 335
#     4  11  22  37  58  84 114 150 191 236 285 335
#     4  12  23  36  55  82 115 152 195 238 279 326
#
# _framework density 9.8765429999999999
#
# number of rings (size 3 to 8) (size 9 to 14) (size 15 to 20)
#    0.000    1.667    1.667    5.000    0.000    4.667 
#    0.000    4.167    0.000    5.000    0.000    0.000 
#    0.000    0.000    0.000    0.000    0.000    0.000 
#
# Total GULP energy -133825.482517 kJ/mol
# GULP energy per Si atom -5576.061772 kJ/mol
# Density = 0.985406 g / cm^3
# Si number density = 9.876543 Si / 1000 Ang^3
#
#
#
# Elastic Constant Matrix: (Units=GPa)
#
#
# Indices 1 2 3 4 5 6 
#
# 1 68.1234 26.2768 30.2964 0.0000 -12.6934 0.0000
# 2 26.2768 81.6000 40.6888 0.0000 -29.3251 0.0000
# 3 30.2964 40.6888 75.4169 0.0000 -47.2227 0.0000
# 4 0.0000 0.0000 0.0000 28.9231 0.0000 -3.8367
# 5 -12.6934 -29.3251 -47.2227 0.0000 23.7491 0.0000
# 6 0.0000 0.0000 0.0000 -3.8367 0.0000 27.1151
#
#
#
# Elastic Compliance Matrix: (Units=1/GPa)
#
#
# Indices 1 2 3 4 5 6 
#
# 1 0.016081 -0.001495 0.005826 0.000000 0.018333 0.000000
# 2 -0.001495 0.016218 -0.015873 0.000000 -0.012335 0.000000
# 3 0.005826 -0.015873 -0.037382 0.000000 -0.090816 0.000000
# 4 0.000000 0.000000 0.000000 0.035236 0.000000 0.004986
# 5 0.018333 -0.012335 -0.090816 0.000000 -0.143904 0.000000
# 6 0.000000 0.000000 0.000000 0.004986 0.000000 0.037585
#
#
# Mechanical properties :
#
#
# Convention : Reuss Voigt Hill
#
# Bulk Modulus (GPa) = -35.50198 46.62936 5.56369
# Shear Modulus (GPa) = -80.03826 24.48270 -27.77778
#
# Velocity S-wave (km/s) = -6.37239 3.52438 -3.75407
# Velocity P-wave (km/s) = 8.49441 6.34185 3.99599
#
# Compressibility (1/GPa) = -0.02816744
#
# Stress axis : x y z
#
# Youngs Moduli (GPa) = 62.18531 61.65874 -26.75102
#
# Poissons Ratio (x) = 0.09217 0.15584
# Poissons Ratio (y) = 0.09296 -0.42463
# Poissons Ratio (z) = -0.36227 0.97873
#
# Static dielectric constant tensor:
#      x y z
#    x 1.888950 0.000000 -0.030870 
#    y 0.000000 1.687050 0.000000 
#    z -0.030870 0.000000 1.710990 
# 
# From -- ./inp_files/244729.got.cif
#   From: 2010.05.17/outbox.ucp.g08.bks.cvg/sg12_123_cif.got.tgz:244729.got - 2010.06.11 11:47:21.
