data_PCOD9225020
_publ_section_title
;
Structure prediction by ZEFSAII (Michael W. Deem and Ramdas Pophale) SiO2 
 PCOD9225020
Probable space group: C 2/M
;
_chemical_formula_sum "Si O2"
_cell_formula_units_Z 32
_cell_length_a 24.000000
_cell_length_b 9.000000
_cell_length_c 30.000000
_cell_angle_alpha 90.000000
_cell_angle_beta 150.000000
_cell_angle_gamma 90.000000
_cell_volume 3240.000000
_symmetry_space_group_name_H-M "C 2/M"
_symmetry_group_IT_number 12
_symmetry_cell_setting 'monoclinic'
loop_
_space_group_symop_operation_xyz
x,y,z
-x,y,-z
-x,-y,-z
x,-y,z
1/2+x,1/2+y,z
1/2-x,1/2+y,-z
1/2-x,1/2-y,-z
1/2+x,1/2-y,z
loop_
_atom_site_type_symbol
_atom_site_label
_atom_site_fract_x
_atom_site_fract_y
_atom_site_fract_z
Si Si1 0.446268 0.327106 0.530939
Si Si2 0.779736 0.823276 0.112731
Si Si3 0.123665 0.826885 0.180783
Si Si4 0.001438 0.679020 0.762430
Si Si5 0.367277 0.828704 0.901353
Si Si6 0.666310 0.326829 0.643992
Si Si7 0.580760 0.820745 0.915912
Si Si8 0.239259 0.681431 0.443983
O O1 0.462383 0.500000 0.554740
O O2 0.571415 0.266628 0.612113
O O3 0.390781 0.326158 0.443734
O O4 0.350853 0.264207 0.496176
O O5 0.897805 0.742334 0.197351
O O6 0.702978 0.800655 0.102915
O O7 0.799199 0.000000 0.121563
O O8 0.702405 0.771562 0.017499
O O9 0.163063 0.782927 0.158778
O O10 0.222263 0.767006 0.280015
O O11 0.011339 0.738655 0.113760
O O12 0.104473 0.000000 0.172504
O O13 0.003504 0.500000 0.763149
O O14 0.037352 0.727395 0.837279
O O15 0.877483 0.724493 0.660943
O O16 0.345750 0.000000 0.872813
O O17 0.500000 0.815256 0.000000
O O18 0.692272 0.500000 0.672303
O O19 0.581025 0.000000 0.917329
O O20 0.240518 0.500000 0.445690
O O21 0.250000 0.750000 0.500000
#
# Coordination Sequence:
#
# PCOD9225020 Si02
#       8
#     8   8   8   8   8   8   8   8
#     4   8  16  34  61  84 103 136 190 239 276 327
#     4  10  21  37  61  87 113 148 193 239 282 332
#     4  12  24  34  52  86 121 152 185 231 287 340
#     4  10  22  38  60  87 117 150 187 236 292 341
#     4  10  20  39  60  77 105 149 195 232 269 325
#     4   9  17  34  60  85 107 139 184 237 285 335
#     4  10  20  39  62  83 112 155 198 236 277 335
#     4  10  21  38  57  81 111 148 189 230 279 335
#
# _framework density 9.8765429999999999
#
# number of rings (size 3 to 8) (size 9 to 14) (size 15 to 20)
#    0.000    2.125    1.250    3.000    0.000    5.250 
#    0.000    7.500    0.000    0.000    0.000    0.000 
#    0.000    0.000    0.000    0.000    0.000    0.000 
#
# Total GULP energy -178441.761797 kJ/mol
# GULP energy per Si atom -5576.305056 kJ/mol
# Density = 0.985406 g / cm^3
# Si number density = 9.876543 Si / 1000 Ang^3
#
#
#
# Elastic Constant Matrix: (Units=GPa)
#
#
# Indices 1 2 3 4 5 6 
#
# 1 84.6368 -0.5971 -1.0509 0.0000 13.6648 -0.0001
# 2 -0.5971 -13.4151 -9.1060 0.0000 -3.0152 -0.0002
# 3 -1.0509 -9.1060 19.4575 -0.0003 7.5782 -0.0002
# 4 0.0000 0.0000 -0.0003 20.1193 -0.0001 2.0753
# 5 13.6648 -3.0152 7.5782 -0.0001 27.7304 -0.0001
# 6 -0.0001 -0.0002 -0.0002 2.0753 -0.0001 15.1712
#
#
#
# Elastic Compliance Matrix: (Units=1/GPa)
#
#
# Indices 1 2 3 4 5 6 
#
# 1 0.013039 -0.001025 0.003100 0.000000 -0.007384 0.000000
# 2 -0.001025 -0.056454 -0.027174 0.000000 0.001793 -0.000001
# 3 0.003100 -0.027174 0.045425 0.000001 -0.016896 0.000000
# 4 0.000000 0.000000 0.000001 0.050415 0.000000 -0.006896
# 5 -0.007384 0.001793 -0.016896 0.000000 0.044512 0.000000
# 6 0.000000 -0.000001 0.000000 -0.006896 0.000000 0.066857
#
#
# Mechanical properties :
#
#
# Convention : Reuss Voigt Hill
#
# Bulk Modulus (GPa) = -20.75142 7.68566 -6.53288
# Shear Modulus (GPa) = 25.26165 19.36642 22.31404
#
# Velocity S-wave (km/s) = 3.58001 3.13457 3.36467
# Velocity P-wave (km/s) = 2.56133 4.12311 3.43223
#
# Compressibility (1/GPa) = -0.04818948
#
# Stress axis : x y z
#
# Youngs Moduli (GPa) = 76.69547 -17.71339 22.01447
#
# Poissons Ratio (x) = -0.01816 -0.06825
# Poissons Ratio (y) = 0.07863 0.59822
# Poissons Ratio (z) = -0.23777 -0.48135
#
# Static dielectric constant tensor:
#      x y z
#    x 1.787010 0.000000 0.009070 
#    y 0.000000 1.666030 0.000000 
#    z 0.009070 0.000000 1.718710 
# 
# From -- ./inp_files/382539.got.cif
#   From: 2010.05.17/outbox.ucp.g08.bks.cvg/sg12_192_cif.got.tgz:382539.got - 2010.06.11 11:47:21.
