data_PCOD9225430
_publ_section_title
;
Structure prediction by ZEFSAII (Michael W. Deem and Ramdas Pophale) SiO2 
 PCOD9225430
Probable space group: C 2/M
;
_chemical_formula_sum "Si O2"
_cell_formula_units_Z 32
_cell_length_a 30.000000
_cell_length_b 18.000000
_cell_length_c 9.000000
_cell_angle_alpha 90.000000
_cell_angle_beta 40.000000
_cell_angle_gamma 90.000000
_cell_volume 3123.947783
_symmetry_space_group_name_H-M "C 2/M"
_symmetry_group_IT_number 12
_symmetry_cell_setting 'monoclinic'
loop_
_space_group_symop_operation_xyz
x,y,z
-x,y,-z
-x,-y,-z
x,-y,z
1/2+x,1/2+y,z
1/2-x,1/2+y,-z
1/2-x,1/2-y,-z
1/2+x,1/2-y,z
loop_
_atom_site_type_symbol
_atom_site_label
_atom_site_fract_x
_atom_site_fract_y
_atom_site_fract_z
Si Si1 0.290428 0.413346 0.548741
Si Si2 0.573524 0.190430 0.390459
Si Si3 0.783207 0.323179 0.485391
Si Si4 0.565986 0.366063 0.749870
Si Si5 0.073683 0.869341 0.391240
Si Si6 0.932514 0.689734 0.254000
Si Si7 0.196946 0.585388 0.042045
Si Si8 0.284742 0.581589 0.109318
O O1 0.301425 0.500000 0.512785
O O2 0.227794 0.387191 0.607034
O O3 0.364387 0.376641 0.333434
O O4 0.265274 0.392034 0.776481
O O5 0.500000 0.176696 0.500000
O O6 0.585855 0.279498 0.353202
O O7 0.571711 0.163641 0.566028
O O8 0.636335 0.142996 0.163327
O O9 0.750000 0.250000 0.500000
O O10 0.860992 0.319118 0.347020
O O11 0.732214 0.349395 0.744871
O O12 0.571719 0.394451 0.567654
O O13 0.555776 0.278035 0.760692
O O14 0.500000 0.399244 0.000000
O O15 0.000000 0.883650 0.500000
O O16 0.138621 0.908767 0.149948
O O17 0.000000 0.657796 0.000000
O O18 0.178445 0.500000 0.049036
O O19 0.224874 0.584360 0.137904
O O20 0.280178 0.500000 0.194393
#
# Coordination Sequence:
#
# PCOD9225430 Si02
#       8
#     8   8   8   8   8   8   8   8
#     4  11  24  41  61  92 128 165 210 263 317 379
#     4  10  22  39  65  94 124 161 211 268 317 371
#     4  12  25  40  67  97 122 171 214 259 316 378
#     4  10  21  39  60  89 129 165 209 260 318 383
#     4  10  23  38  63  96 125 164 215 263 317 381
#     4  10  22  40  61  92 128 162 205 263 319 375
#     4  10  22  41  65  89 125 168 210 265 321 377
#     4  11  24  43  65  92 130 168 211 265 318 379
#
# _framework density 10.243449
#
# number of rings (size 3 to 8) (size 9 to 14) (size 15 to 20)
#    0.000    1.500    3.750    0.375    5.250    2.250 
#    0.000    0.000    0.000    1.875    0.000    0.000 
#    0.000    0.000    0.000    0.000    0.000    0.000 
#
# Total GULP energy -178435.084554 kJ/mol
# GULP energy per Si atom -5576.096392 kJ/mol
# Density = 1.022013 g / cm^3
# Si number density = 10.243449 Si / 1000 Ang^3
#
#
#
# Elastic Constant Matrix: (Units=GPa)
#
#
# Indices 1 2 3 4 5 6 
#
# 1 97.8557 5.5585 35.7805 0.0000 -18.7360 0.0000
# 2 5.5585 18.0393 32.0373 0.0000 -17.9477 0.0000
# 3 35.7805 32.0373 95.3516 0.0000 -13.5508 0.0000
# 4 0.0000 0.0000 0.0000 91.1173 0.0000 -27.5103
# 5 -18.7360 -17.9477 -13.5508 0.0000 25.0123 0.0000
# 6 0.0000 0.0000 0.0000 -27.5103 0.0000 27.7415
#
#
#
# Elastic Compliance Matrix: (Units=1/GPa)
#
#
# Indices 1 2 3 4 5 6 
#
# 1 0.002028 -0.058757 0.014306 0.000000 -0.032891 0.000000
# 2 -0.058757 -0.311917 0.096194 0.000000 -0.215716 0.000000
# 3 0.014306 0.096194 -0.017193 0.000000 0.070426 0.000000
# 4 0.000000 0.000000 0.000000 0.015665 0.000000 0.015535
# 5 -0.032891 -0.215716 0.070426 0.000000 -0.101291 0.000000
# 6 0.000000 0.000000 0.000000 0.015535 0.000000 0.051452
#
#
# Mechanical properties :
#
#
# Convention : Reuss Voigt Hill
#
# Bulk Modulus (GPa) = -4.47236 39.77770 17.65267
# Shear Modulus (GPa) = -9.27174 37.96559 14.34692
#
# Velocity S-wave (km/s) = -2.12968 4.30951 2.64918
# Velocity P-wave (km/s) = 2.86969 6.64987 4.24180
#
# Compressibility (1/GPa) = -0.22359543
#
# Stress axis : x y z
#
# Youngs Moduli (GPa) = 493.07540 -3.20598 -58.16457
#
# Poissons Ratio (x) = -0.18837 0.83213
# Poissons Ratio (y) = 28.97159 5.59506
# Poissons Ratio (z) = -7.05416 0.30839
#
# Static dielectric constant tensor:
#      x y z
#    x 1.764180 0.000000 0.080990 
#    y 0.000000 1.710840 0.000000 
#    z 0.080990 0.000000 1.762270 
# 
# From -- ./inp_files/112805.got.cif
#   From: 2010.05.17/outbox.ucp.g08.bks.cvg/sg12_57_cif.got.tgz:112805.got - 2010.06.11 11:47:21.
