data_PCOD9225960
_publ_section_title
;
Structure prediction by ZEFSAII (Michael W. Deem and Ramdas Pophale) SiO2 
 PCOD9225960
Probable space group: C 2/M
;
_chemical_formula_sum "Si O2"
_cell_formula_units_Z 19
_cell_length_a 18.000000
_cell_length_b 15.000000
_cell_length_c 21.000000
_cell_angle_alpha 90.000000
_cell_angle_beta 160.000000
_cell_angle_gamma 90.000000
_cell_volume 1939.254213
_symmetry_space_group_name_H-M "C 2/M"
_symmetry_group_IT_number 12
_symmetry_cell_setting 'monoclinic'
loop_
_space_group_symop_operation_xyz
x,y,z
-x,y,-z
-x,-y,-z
x,-y,z
1/2+x,1/2+y,z
1/2-x,1/2+y,-z
1/2-x,1/2-y,-z
1/2+x,1/2-y,z
loop_
_atom_site_type_symbol
_atom_site_label
_atom_site_fract_x
_atom_site_fract_y
_atom_site_fract_z
Si Si1 0.500000 0.769642 0.000000
Si Si2 0.500000 0.000000 0.500000
Si Si3 0.227511 0.700313 0.414230
Si Si4 0.155719 0.103263 0.790347
Si Si5 0.764233 0.395236 0.025457
Si Si6 0.666149 0.335924 0.251890
O O1 0.333761 0.832014 0.904018
O O2 0.364248 0.710811 0.840732
O O3 0.318758 0.921482 0.370130
O O4 0.250000 0.750000 0.500000
O O5 0.420674 0.628313 0.572944
O O6 0.254145 0.767549 0.376385
O O7 0.988997 0.657199 0.215381
O O8 0.205453 0.000000 0.817450
O O9 0.169970 0.116482 0.878144
O O10 0.805688 0.500000 0.068660
O O11 0.576708 0.362631 0.921484
#
# Coordination Sequence:
#
# PCOD9225960 Si02
#       6
#     4   2   8   8   8   8
#     4  12  25  47  70  98 148 186 230 285 365 422
#     4  12  28  46  68 108 146 184 236 288 366 422
#     4  12  23  43  74 104 135 181 240 291 343 415
#     4  11  24  44  71 106 138 183 230 292 350 417
#     4  11  23  46  72 103 138 182 244 289 344 414
#     4  12  25  48  68 100 143 188 232 291 349 425
#
# _framework density 9.7975809999999992
#
# number of rings (size 3 to 8) (size 9 to 14) (size 15 to 20)
#    0.000    0.421    5.263    4.105    0.000    0.421 
#    5.684    1.053    0.000    0.000    0.000    0.000 
#    0.000    0.000    0.000    0.000    0.000    0.000 
#
# Total GULP energy -106053.364222 kJ/mol
# GULP energy per Si atom -5581.756012 kJ/mol
# Density = 0.977528 g / cm^3
# Si number density = 9.797581 Si / 1000 Ang^3
#
#
#
# Elastic Constant Matrix: (Units=GPa)
#
#
# Indices 1 2 3 4 5 6 
#
# 1 49.8786 33.1803 -0.3376 0.0343 -15.1010 -0.0207
# 2 33.1803 122.5825 40.8397 -0.1066 -11.3126 -0.0198
# 3 -0.3376 40.8397 105.1311 -0.0572 -1.1649 -0.0086
# 4 0.0343 -0.1066 -0.0572 46.3932 0.0094 13.6709
# 5 -15.1010 -11.3126 -1.1649 0.0094 45.2172 0.0058
# 6 -0.0207 -0.0198 -0.0086 13.6709 0.0058 35.0111
#
#
#
# Elastic Compliance Matrix: (Units=1/GPa)
#
#
# Indices 1 2 3 4 5 6 
#
# 1 0.027497 -0.007840 0.003215 -0.000044 0.007305 0.000029
# 2 -0.007840 0.011841 -0.004622 0.000031 0.000225 -0.000011
# 3 0.003215 -0.004622 0.011320 0.000000 0.000209 0.000002
# 4 -0.000044 0.000031 0.000000 0.024358 -0.000011 -0.009511
# 5 0.007305 0.000225 0.000209 -0.000011 0.024617 0.000005
# 6 0.000029 -0.000011 0.000002 -0.009511 0.000005 0.032276
#
#
# Mechanical properties :
#
#
# Convention : Reuss Voigt Hill
#
# Bulk Modulus (GPa) = 31.09150 47.21742 39.15446
# Shear Modulus (GPa) = 31.03194 38.91828 34.97511
#
# Velocity S-wave (km/s) = 3.98383 4.46142 4.22937
# Velocity P-wave (km/s) = 6.08791 7.11954 6.62384
#
# Compressibility (1/GPa) = 0.03216313
#
# Stress axis : x y z
#
# Youngs Moduli (GPa) = 36.36737 84.45521 88.33781
#
# Poissons Ratio (x) = 0.66211 -0.28398
# Poissons Ratio (y) = 0.28511 0.40833
# Poissons Ratio (z) = -0.11691 0.39038
#
# Static dielectric constant tensor:
#      x y z
#    x 1.689690 -0.000010 0.005450 
#    y -0.000010 1.677010 -0.000020 
#    z 0.005450 -0.000020 1.654760 
# 
# From -- ./inp_files/15310.got.cif
#   From: 2010.05.17/outbox.ucp.g08.bks.cvg/sg12_8_cif.got.tgz:15310.got - 2010.06.11 11:47:21.
