data_PCOD9225229
_publ_section_title
;
Structure prediction by ZEFSAII (Michael W. Deem and Ramdas Pophale) SiO2 
 PCOD9225229
Probable space group: C 2/M
;
_chemical_formula_sum "Si O2"
_cell_formula_units_Z 28
_cell_length_a 15.000000
_cell_length_b 9.000000
_cell_length_c 24.000000
_cell_angle_alpha 90.000000
_cell_angle_beta 70.000000
_cell_angle_gamma 90.000000
_cell_volume 3044.604091
_symmetry_space_group_name_H-M "C 2/M"
_symmetry_group_IT_number 12
_symmetry_cell_setting 'monoclinic'
loop_
_space_group_symop_operation_xyz
x,y,z
-x,y,-z
-x,-y,-z
x,-y,z
1/2+x,1/2+y,z
1/2-x,1/2+y,-z
1/2-x,1/2-y,-z
1/2+x,1/2-y,z
loop_
_atom_site_type_symbol
_atom_site_label
_atom_site_fract_x
_atom_site_fract_y
_atom_site_fract_z
Si Si1 0.007793 0.319424 0.134751
Si Si2 0.590075 0.679744 0.344171
Si Si3 0.111178 0.821484 0.559611
Si Si4 0.120657 0.678804 0.217159
Si Si5 0.205794 0.821188 0.425670
Si Si6 0.692829 0.818737 0.876724
Si Si7 0.395626 0.171545 0.993047
O O1 0.011321 0.500000 0.130471
O O2 0.038650 0.278564 0.190153
O O3 0.082983 0.261420 0.072163
O O4 0.902124 0.278950 0.137974
O O5 0.592520 0.500000 0.337465
O O6 0.489984 0.721254 0.393919
O O7 0.603176 0.754548 0.281753
O O8 0.669509 0.722849 0.372593
O O9 0.130689 0.781450 0.490766
O O10 0.195660 0.750563 0.577182
O O11 0.117616 0.000000 0.561361
O O12 0.125570 0.500000 0.218823
O O13 0.216855 0.744748 0.170522
O O14 0.214579 0.000000 0.424278
O O15 0.700444 0.000000 0.875161
O O16 0.673952 0.766483 0.944707
O O17 0.366508 0.000000 0.991070
O O18 0.500000 0.168985 0.000000
#
# Coordination Sequence:
#
# PCOD9225229 Si02
#       7
#     8   8   8   8   8   8   8
#     4   8  16  32  52  73  99 131 166 207 254 303
#     4  10  21  37  54  72 101 140 176 205 239 294
#     4   9  18  34  57  83 106 129 163 208 253 295
#     4  11  23  35  48  72 105 137 170 208 252 297
#     4   9  18  34  57  82 105 131 164 204 252 301
#     4   9  17  33  56  76  96 128 170 210 250 304
#     4   7  11  24  50  77  94 118 163 210 249 297
#
# _framework density 9.1965979999999998
#
# number of rings (size 3 to 8) (size 9 to 14) (size 15 to 20)
#    0.000    3.000    0.000    2.571    0.000    4.571 
#    0.000    5.714    0.000    9.000    0.000    0.000 
#    0.000    0.000    0.000    0.000    0.000    0.000 
#
# Total GULP energy -156037.723089 kJ/mol
# GULP energy per Si atom -5572.775825 kJ/mol
# Density = 0.917567 g / cm^3
# Si number density = 9.196598 Si / 1000 Ang^3
#
#
#
# Elastic Constant Matrix: (Units=GPa)
#
#
# Indices 1 2 3 4 5 6 
#
# 1 29.9285 0.8563 0.2942 0.0000 10.2487 0.0000
# 2 0.8563 9.9868 9.0422 0.0000 2.6457 0.0000
# 3 0.2942 9.0422 54.3662 0.0000 23.6390 0.0000
# 4 0.0000 0.0000 0.0000 22.7927 0.0000 -2.8106
# 5 10.2487 2.6457 23.6390 0.0000 29.8485 0.0000
# 6 0.0000 0.0000 0.0000 -2.8106 0.0000 20.5112
#
#
#
# Elastic Compliance Matrix: (Units=1/GPa)
#
#
# Indices 1 2 3 4 5 6 
#
# 1 0.040925 -0.007175 0.010380 0.000000 -0.021636 0.000000
# 2 -0.007175 0.120328 -0.025025 0.000000 0.011617 0.000000
# 3 0.010380 -0.025025 0.035210 0.000000 -0.029230 0.000000
# 4 0.000000 0.000000 0.000000 0.044628 0.000000 0.006115
# 5 -0.021636 0.011617 -0.029230 0.000000 0.063051 0.000000
# 6 0.000000 0.000000 0.000000 0.006115 0.000000 0.049592
#
#
# Mechanical properties :
#
#
# Convention : Reuss Voigt Hill
#
# Bulk Modulus (GPa) = 6.54356 12.74075 9.64215
# Shear Modulus (GPa) = 11.15287 20.23641 15.69464
#
# Velocity S-wave (km/s) = 2.46511 3.32054 2.92427
# Velocity P-wave (km/s) = 3.41579 4.65223 4.08111
#
# Compressibility (1/GPa) = 0.15282212
#
# Stress axis : x y z
#
# Youngs Moduli (GPa) = 24.43471 8.31063 28.40138
#
# Poissons Ratio (x) = 0.05963 -0.29479
# Poissons Ratio (y) = 0.17531 0.71075
# Poissons Ratio (z) = -0.25362 0.20798
#
# Static dielectric constant tensor:
#      x y z
#    x 1.636990 0.000000 0.005540 
#    y 0.000000 1.614170 0.000000 
#    z 0.005540 0.000000 1.644200 
# 
# From -- ./inp_files/337907.got.cif
#   From: 2010.05.17/outbox.ucp.g08.bks.cvg/sg12_169_cif.got.tgz:337907.got - 2010.06.11 11:47:21.
