data_PCOD9225010
_publ_section_title
;
Structure prediction by ZEFSAII (Michael W. Deem and Ramdas Pophale) SiO2 
 PCOD9225010
Probable space group: C 2/M
;
_chemical_formula_sum "Si O2"
_cell_formula_units_Z 28
_cell_length_a 9.000000
_cell_length_b 15.000000
_cell_length_c 24.000000
_cell_angle_alpha 90.000000
_cell_angle_beta 60.000000
_cell_angle_gamma 90.000000
_cell_volume 2805.922308
_symmetry_space_group_name_H-M "C 2/M"
_symmetry_group_IT_number 12
_symmetry_cell_setting 'monoclinic'
loop_
_space_group_symop_operation_xyz
x,y,z
-x,y,-z
-x,-y,-z
x,-y,z
1/2+x,1/2+y,z
1/2-x,1/2+y,-z
1/2-x,1/2-y,-z
1/2+x,1/2-y,z
loop_
_atom_site_type_symbol
_atom_site_label
_atom_site_fract_x
_atom_site_fract_y
_atom_site_fract_z
Si Si1 0.004692 0.398911 0.911461
Si Si2 0.009172 0.899270 0.366801
Si Si3 0.932599 0.773495 0.166547
Si Si4 0.321016 0.847002 0.501505
Si Si5 0.849871 0.600047 0.369191
Si Si6 0.264909 0.339804 0.960254
Si Si7 0.449056 0.747822 0.735923
O O1 0.057705 0.500000 0.887531
O O2 0.009104 0.327735 0.860702
O O3 0.137549 0.355094 0.931506
O O4 0.820378 0.404067 0.977482
O O5 0.824412 0.887618 0.430728
O O6 0.152837 0.887051 0.387423
O O7 0.054920 0.829615 0.309776
O O8 0.022484 0.000000 0.342607
O O9 0.728520 0.777168 0.201727
O O10 0.046874 0.835342 0.103741
O O11 0.955547 0.789757 0.227823
O O12 0.500000 0.843041 0.500000
O O13 0.250000 0.750000 0.500000
O O14 0.354207 0.891199 0.435119
O O15 0.902911 0.500000 0.343605
O O16 0.960058 0.671350 0.313912
O O17 0.250000 0.250000 0.000000
#
# Coordination Sequence:
#
# PCOD9225010 Si02
#       7
#     8   8   8   8   8   8   8
#     4  10  20  38  66  96 124 165 221 266 313 386
#     4  11  25  45  69  96 128 172 222 271 328 394
#     4  11  23  40  64  91 130 169 213 257 327 383
#     4  12  25  42  69  99 130 170 217 276 332 382
#     4  11  25  45  68  95 131 172 219 271 331 392
#     4   9  18  35  60  94 122 159 204 262 311 369
#     4  12  24  43  64  95 129 178 213 268 321 392
#
# _framework density 9.9788940000000004
#
# number of rings (size 3 to 8) (size 9 to 14) (size 15 to 20)
#    0.000    1.143    4.286    2.571    2.000    3.429 
#    0.000    1.429    0.000    0.857    0.000    0.000 
#    0.000    0.000    0.000    0.000    0.000    0.000 
#
# Total GULP energy -156000.361349 kJ/mol
# GULP energy per Si atom -5571.441477 kJ/mol
# Density = 0.995618 g / cm^3
# Si number density = 9.978894 Si / 1000 Ang^3
#
#
#
# Elastic Constant Matrix: (Units=GPa)
#
#
# Indices 1 2 3 4 5 6 
#
# 1 72.6416 51.8303 26.6791 0.0000 0.4012 0.0000
# 2 51.8303 75.3347 26.8893 0.0000 -18.5076 0.0000
# 3 26.6791 26.8893 106.8530 0.0000 -17.9485 0.0000
# 4 0.0000 0.0000 0.0000 15.4994 0.0000 -1.9837
# 5 0.4012 -18.5076 -17.9485 0.0000 43.6178 0.0000
# 6 0.0000 0.0000 0.0000 -1.9837 0.0000 13.2920
#
#
#
# Elastic Compliance Matrix: (Units=1/GPa)
#
#
# Indices 1 2 3 4 5 6 
#
# 1 0.032220 -0.023654 -0.004112 0.000000 -0.012025 0.000000
# 2 -0.023654 0.033052 -0.000021 0.000000 0.014234 0.000000
# 3 -0.004112 -0.000021 0.011167 0.000000 0.004624 0.000000
# 4 0.000000 0.000000 0.000000 0.065775 0.000000 0.009816
# 5 -0.012025 0.014234 0.004624 0.000000 0.030979 0.000000
# 6 0.000000 0.000000 0.000000 0.009816 0.000000 0.076698
#
#
# Mechanical properties :
#
#
# Convention : Reuss Voigt Hill
#
# Bulk Modulus (GPa) = 47.92491 51.73630 49.83061
# Shear Modulus (GPa) = 16.00403 24.44390 20.22397
#
# Velocity S-wave (km/s) = 2.83485 3.50348 3.18675
# Velocity P-wave (km/s) = 5.89749 6.50730 6.20989
#
# Compressibility (1/GPa) = 0.02086597
#
# Stress axis : x y z
#
# Youngs Moduli (GPa) = 31.03638 30.25512 89.54659
#
# Poissons Ratio (x) = 0.71566 0.36823
# Poissons Ratio (y) = 0.73414 0.00186
# Poissons Ratio (z) = 0.12763 0.00063
#
# Static dielectric constant tensor:
#      x y z
#    x 1.756450 0.000000 -0.011350 
#    y 0.000000 1.725400 0.000000 
#    z -0.011350 0.000000 1.672990 
# 
# From -- ./inp_files/332818.got.cif
#   From: 2010.05.17/outbox.ucp.g08.bks.cvg/sg12_167_cif.got.tgz:332818.got - 2010.06.11 11:47:21.
