data_PCOD9225529
_publ_section_title
;
Structure prediction by ZEFSAII (Michael W. Deem and Ramdas Pophale) SiO2 
 PCOD9225529
Probable space group: C 2/M
;
_chemical_formula_sum "Si O2"
_cell_formula_units_Z 20
_cell_length_a 30.000000
_cell_length_b 15.000000
_cell_length_c 9.000000
_cell_angle_alpha 90.000000
_cell_angle_beta 150.000000
_cell_angle_gamma 90.000000
_cell_volume 2025.000000
_symmetry_space_group_name_H-M "C 2/M"
_symmetry_group_IT_number 12
_symmetry_cell_setting 'monoclinic'
loop_
_space_group_symop_operation_xyz
x,y,z
-x,y,-z
-x,-y,-z
x,-y,z
1/2+x,1/2+y,z
1/2-x,1/2+y,-z
1/2-x,1/2-y,-z
1/2+x,1/2-y,z
loop_
_atom_site_type_symbol
_atom_site_label
_atom_site_fract_x
_atom_site_fract_y
_atom_site_fract_z
Si Si1 0.605323 0.395515 0.769894
Si Si2 0.582159 0.892339 0.036090
Si Si3 0.120316 0.607337 0.480170
Si Si4 0.295079 0.229348 0.788797
Si Si5 0.723185 0.393181 0.836861
O O1 0.500000 0.385588 0.500000
O O2 0.629924 0.500000 0.878168
O O3 0.633746 0.384397 0.678580
O O4 0.661026 0.319730 0.018272
O O5 0.625902 0.866245 0.322634
O O6 0.627589 0.841151 0.032680
O O7 0.589255 0.000000 0.041198
O O8 0.477955 0.867641 0.747318
O O9 0.122025 0.500000 0.480876
O O10 0.197416 0.632316 0.817675
O O11 0.250000 0.250000 0.500000
O O12 0.233536 0.174570 0.728852
O O13 0.732270 0.500000 0.824008
#
# Coordination Sequence:
#
# PCOD9225529 Si02
#       5
#     8   8   8   8   8
#     4  10  24  46  66  86 121 173 222 261 304 366
#     4   9  18  34  57  91 130 157 191 249 322 379
#     4   8  16  33  59  90 123 161 192 238 315 383
#     4  12  25  38  59  96 125 162 209 261 321 370
#     4  10  21  40  67  92 121 159 208 261 315 376
#
# _framework density 9.8765429999999999
#
# number of rings (size 3 to 8) (size 9 to 14) (size 15 to 20)
#    0.000    2.200    0.000    3.600    2.800    3.200 
#    3.600    3.000    0.000    3.600    0.000    0.000 
#    0.000    0.000    0.000    0.000    0.000    0.000 
#
# Total GULP energy -111666.057360 kJ/mol
# GULP energy per Si atom -5583.302868 kJ/mol
# Density = 0.985406 g / cm^3
# Si number density = 9.876543 Si / 1000 Ang^3
#
#
#
# Elastic Constant Matrix: (Units=GPa)
#
#
# Indices 1 2 3 4 5 6 
#
# 1 155.6676 72.5861 43.6858 0.0000 10.8372 0.0000
# 2 72.5861 123.2116 32.1186 0.0000 -1.3251 0.0000
# 3 43.6858 32.1186 66.2584 0.0000 1.4696 0.0000
# 4 0.0000 0.0000 0.0000 24.2359 0.0000 -8.1354
# 5 10.8372 -1.3251 1.4696 0.0000 27.0567 0.0000
# 6 0.0000 0.0000 0.0000 -8.1354 0.0000 48.9746
#
#
#
# Elastic Compliance Matrix: (Units=1/GPa)
#
#
# Indices 1 2 3 4 5 6 
#
# 1 0.010209 -0.004953 -0.004239 0.000000 -0.004101 0.000000
# 2 -0.004953 0.011707 -0.002469 0.000000 0.002691 0.000000
# 3 -0.004239 -0.002469 0.019072 0.000000 0.000541 0.000000
# 4 0.000000 0.000000 0.000000 0.043698 0.000000 0.007259
# 5 -0.004101 0.002691 0.000541 0.000000 0.038705 0.000000
# 6 0.000000 0.000000 0.000000 0.007259 0.000000 0.021625
#
#
# Mechanical properties :
#
#
# Convention : Reuss Voigt Hill
#
# Bulk Modulus (GPa) = 56.60668 71.32428 63.96548
# Shear Modulus (GPa) = 28.69869 33.16991 30.93430
#
# Velocity S-wave (km/s) = 3.81579 4.10228 3.96163
# Velocity P-wave (km/s) = 6.93780 7.65667 7.30608
#
# Compressibility (1/GPa) = 0.01766576
#
# Stress axis : x y z
#
# Youngs Moduli (GPa) = 97.95602 85.42161 52.43331
#
# Poissons Ratio (x) = 0.42311 0.22225
# Poissons Ratio (y) = 0.48520 0.12944
# Poissons Ratio (z) = 0.41521 0.21088
#
# Static dielectric constant tensor:
#      x y z
#    x 1.715070 0.000000 0.028640 
#    y 0.000000 1.713140 0.000000 
#    z 0.028640 0.000000 1.703520 
# 
# From -- ./inp_files/85501.got.cif
#   From: 2010.05.17/outbox.ucp.g08.bks.cvg/sg12_43_cif.got.tgz:85501.got - 2010.06.11 11:47:21.
