data_PCOD9225304
_publ_section_title
;
Structure prediction by ZEFSAII (Michael W. Deem and Ramdas Pophale) SiO2 
 PCOD9225304
Probable space group: C 2/M
;
_chemical_formula_sum "Si O2"
_cell_formula_units_Z 28
_cell_length_a 21.000000
_cell_length_b 9.000000
_cell_length_c 15.000000
_cell_angle_alpha 90.000000
_cell_angle_beta 90.000000
_cell_angle_gamma 90.000000
_cell_volume 2835.000000
_symmetry_space_group_name_H-M "C 2/M"
_symmetry_group_IT_number 12
_symmetry_cell_setting 'monoclinic'
loop_
_space_group_symop_operation_xyz
x,y,z
-x,y,-z
-x,-y,-z
x,-y,z
1/2+x,1/2+y,z
1/2-x,1/2+y,-z
1/2-x,1/2-y,-z
1/2+x,1/2-y,z
loop_
_atom_site_type_symbol
_atom_site_label
_atom_site_fract_x
_atom_site_fract_y
_atom_site_fract_z
Si Si1 0.118667 0.823434 0.636643
Si Si2 0.498590 0.679968 0.239606
Si Si3 0.182000 0.677056 0.474223
Si Si4 0.313356 0.831971 0.030720
Si Si5 0.641145 0.320978 0.288513
Si Si6 0.062914 0.830676 0.940870
Si Si7 0.281191 0.830658 0.236554
O O1 0.132403 0.729785 0.548858
O O2 0.175758 0.777260 0.704004
O O3 0.049684 0.789813 0.679280
O O4 0.122187 0.000000 0.619518
O O5 0.501488 0.500000 0.228986
O O6 0.571938 0.728622 0.251791
O O7 0.461616 0.737388 0.152185
O O8 0.188828 0.500000 0.471043
O O9 0.250000 0.750000 0.500000
O O10 0.157467 0.741875 0.381108
O O11 0.379821 0.752515 0.010563
O O12 0.309117 0.831932 0.137961
O O13 0.313070 0.000000 0.997263
O O14 0.250000 0.750000 0.000000
O O15 0.636836 0.500000 0.300840
O O16 0.705799 0.293486 0.231895
O O17 0.085466 0.000000 0.924214
O O18 0.000000 0.836144 0.000000
O O19 0.285581 0.000000 0.273777
#
# Coordination Sequence:
#
# PCOD9225304 Si02
#       7
#     8   8   8   8   8   8   8
#     4  11  21  37  63  89 119 157 200 245 297 359
#     4   9  20  38  61  90 120 158 200 242 294 359
#     4  12  24  39  59  88 121 156 201 249 304 356
#     4  11  24  40  61  92 127 163 205 253 305 359
#     4  10  21  39  62  88 119 156 202 248 297 355
#     4  10  21  39  65  91 121 162 205 250 303 366
#     4  10  21  37  61  88 118 158 203 250 297 352
#
# _framework density 9.8765429999999999
#
# number of rings (size 3 to 8) (size 9 to 14) (size 15 to 20)
#    0.000    1.571    2.857    2.143    2.000    1.429 
#    0.000    5.000    0.000    0.000    0.000    0.000 
#    0.000    0.000    0.000    0.000    0.000    0.000 
#
# Total GULP energy -156297.147625 kJ/mol
# GULP energy per Si atom -5582.040987 kJ/mol
# Density = 0.985406 g / cm^3
# Si number density = 9.876543 Si / 1000 Ang^3
#
#
#
# Elastic Constant Matrix: (Units=GPa)
#
#
# Indices 1 2 3 4 5 6 
#
# 1 135.3989 32.8252 -7.6949 0.0000 13.6326 0.0000
# 2 32.8252 65.2479 0.1226 0.0000 9.7060 0.0000
# 3 -7.6949 0.1226 16.2143 0.0000 0.9777 0.0000
# 4 0.0000 0.0000 0.0000 22.5919 0.0000 7.0918
# 5 13.6326 9.7060 0.9777 0.0000 30.6196 0.0000
# 6 0.0000 0.0000 0.0000 7.0918 0.0000 26.6399
#
#
#
# Elastic Compliance Matrix: (Units=1/GPa)
#
#
# Indices 1 2 3 4 5 6 
#
# 1 0.008908 -0.004071 0.004428 0.000000 -0.002817 0.000000
# 2 -0.004071 0.017945 -0.001837 0.000000 -0.003817 0.000000
# 3 0.004428 -0.001837 0.063996 0.000000 -0.003432 0.000000
# 4 0.000000 0.000000 0.000000 0.048300 0.000000 -0.012858
# 5 -0.002817 -0.003817 -0.003432 0.000000 0.035233 0.000000
# 6 0.000000 0.000000 0.000000 -0.012858 0.000000 0.040961
#
#
# Mechanical properties :
#
#
# Convention : Reuss Voigt Hill
#
# Bulk Modulus (GPa) = 11.37792 29.70743 20.54268
# Shear Modulus (GPa) = 20.19396 28.74415 24.46906
#
# Velocity S-wave (km/s) = 3.20084 3.81881 3.52340
# Velocity P-wave (km/s) = 4.40830 5.87507 5.19372
#
# Compressibility (1/GPa) = 0.08788950
#
# Stress axis : x y z
#
# Youngs Moduli (GPa) = 112.26238 55.72485 15.62592
#
# Poissons Ratio (x) = 0.22683 -0.06919
# Poissons Ratio (y) = 0.45697 0.02871
# Poissons Ratio (z) = -0.49710 0.10238
#
# Static dielectric constant tensor:
#      x y z
#    x 1.694260 0.000000 -0.025650 
#    y 0.000000 1.696020 0.000000 
#    z -0.025650 0.000000 1.730020 
# 
# From -- ./inp_files/231035.got.cif
#   From: 2010.05.17/outbox.ucp.g08.bks.cvg/sg12_116_cif.got.tgz:231035.got - 2010.06.11 11:47:21.
