data_PCOD9225533
_publ_section_title
;
Structure prediction by ZEFSAII (Michael W. Deem and Ramdas Pophale) SiO2 
 PCOD9225533
Probable space group: C 2/M
;
_chemical_formula_sum "Si O2"
_cell_formula_units_Z 32
_cell_length_a 9.000000
_cell_length_b 30.000000
_cell_length_c 24.000000
_cell_angle_alpha 90.000000
_cell_angle_beta 150.000000
_cell_angle_gamma 90.000000
_cell_volume 3240.000000
_symmetry_space_group_name_H-M "C 2/M"
_symmetry_group_IT_number 12
_symmetry_cell_setting 'monoclinic'
loop_
_space_group_symop_operation_xyz
x,y,z
-x,y,-z
-x,-y,-z
x,-y,z
1/2+x,1/2+y,z
1/2-x,1/2+y,-z
1/2-x,1/2-y,-z
1/2+x,1/2-y,z
loop_
_atom_site_type_symbol
_atom_site_label
_atom_site_fract_x
_atom_site_fract_y
_atom_site_fract_z
Si Si1 0.333620 0.364498 0.503609
Si Si2 0.171263 0.776631 0.797692
Si Si3 0.657934 0.193900 0.878667
Si Si4 0.307929 0.718034 0.570374
Si Si5 0.704266 0.446889 0.115408
Si Si6 0.120248 0.871734 0.283861
Si Si7 0.859695 0.052784 0.118839
Si Si8 0.270386 0.390103 0.284224
O O1 0.500000 0.354373 0.500000
O O2 0.414237 0.325550 0.573500
O O3 0.523870 0.402112 0.595603
O O4 0.978151 0.370181 0.389926
O O5 0.501275 0.790415 0.885487
O O6 0.152498 0.735450 0.833533
O O7 0.015144 0.765025 0.687360
O O8 0.005012 0.821229 0.766254
O O9 0.457484 0.152823 0.791549
O O10 0.000000 0.181827 0.000000
O O11 0.250000 0.750000 0.500000
O O12 0.000000 0.707196 0.500000
O O13 0.711183 0.500000 0.114969
O O14 0.537042 0.436606 0.119184
O O15 0.029873 0.429242 0.207581
O O16 0.500000 0.428702 0.000000
O O17 0.982576 0.910319 0.201103
O O18 0.993979 0.883972 0.304400
O O19 0.916486 0.000000 0.150794
O O20 0.500000 0.057355 0.000000
#
# Coordination Sequence:
#
# PCOD9225533 Si02
#       8
#     8   8   8   8   8   8   8   8
#     4  12  24  39  61  90 122 163 208 259 316 381
#     4  11  24  41  59  90 122 168 212 264 316 379
#     4  11  24  40  59  85 124 165 212 260 312 379
#     4  12  22  38  61  87 121 163 213 271 319 373
#     4  10  21  40  67  98 127 161 210 262 316 379
#     4  11  23  42  63  92 129 165 208 262 320 377
#     4  10  22  41  67  99 130 166 213 261 315 381
#     4  11  23  41  63  89 128 164 208 262 324 378
#
# _framework density 9.8765429999999999
#
# number of rings (size 3 to 8) (size 9 to 14) (size 15 to 20)
#    0.000    1.000    3.750    3.750    1.750    4.000 
#    0.000    0.625    0.000    3.750    0.000    0.000 
#    0.000    0.000    0.000    0.000    0.000    0.000 
#
# Total GULP energy -178391.378101 kJ/mol
# GULP energy per Si atom -5574.730566 kJ/mol
# Density = 0.985406 g / cm^3
# Si number density = 9.876543 Si / 1000 Ang^3
#
#
#
# Elastic Constant Matrix: (Units=GPa)
#
#
# Indices 1 2 3 4 5 6 
#
# 1 147.2431 40.7663 62.7062 0.0006 14.3353 -0.0001
# 2 40.7663 53.7539 41.5777 -0.0004 -18.2080 -0.0008
# 3 62.7062 41.5777 130.4077 0.0013 21.7185 -0.0007
# 4 0.0006 -0.0004 0.0013 3.0510 0.0005 -6.6292
# 5 14.3353 -18.2080 21.7185 0.0005 40.2116 -0.0001
# 6 -0.0001 -0.0008 -0.0007 -6.6292 -0.0001 31.4644
#
#
#
# Elastic Compliance Matrix: (Units=1/GPa)
#
#
# Indices 1 2 3 4 5 6 
#
# 1 0.010750 -0.010847 -0.000280 -0.000004 -0.008593 -0.000001
# 2 -0.010847 0.053980 -0.018361 0.000022 0.038226 0.000006
# 3 -0.000280 -0.018361 0.016510 -0.000012 -0.017131 -0.000003
# 4 -0.000004 0.000022 -0.000012 0.604465 0.000011 0.127353
# 5 -0.008593 0.038226 -0.017131 0.000011 0.054493 0.000003
# 6 -0.000001 0.000006 -0.000003 0.127353 0.000003 0.058614
#
#
# Mechanical properties :
#
#
# Convention : Reuss Voigt Hill
#
# Bulk Modulus (GPa) = 44.91481 69.05613 56.98547
# Shear Modulus (GPa) = 5.77895 27.36903 16.57399
#
# Velocity S-wave (km/s) = 1.71229 3.72635 2.89979
# Velocity P-wave (km/s) = 5.16689 7.31777 6.33429
#
# Compressibility (1/GPa) = 0.02226437
#
# Stress axis : x y z
#
# Youngs Moduli (GPa) = 93.01904 18.52548 60.57029
#
# Poissons Ratio (x) = 0.20095 0.01694
# Poissons Ratio (y) = 1.00901 1.11211
# Poissons Ratio (z) = 0.02602 0.34014
#
# Static dielectric constant tensor:
#      x y z
#    x 1.670730 -0.000010 0.147880 
#    y -0.000010 1.925080 0.000020 
#    z 0.147880 0.000020 1.225130 
# 
# From -- ./inp_files/334374.got.cif
#   From: 2010.05.17/outbox.ucp.g08.bks.cvg/sg12_168_cif.got.tgz:334374.got - 2010.06.11 11:47:21.
