data_PCOD9225938
_publ_section_title
;
Structure prediction by ZEFSAII (Michael W. Deem and Ramdas Pophale) SiO2 
 PCOD9225938
Probable space group: C 2/M
;
_chemical_formula_sum "Si O2"
_cell_formula_units_Z 24
_cell_length_a 15.000000
_cell_length_b 18.000000
_cell_length_c 18.000000
_cell_angle_alpha 90.000000
_cell_angle_beta 150.000000
_cell_angle_gamma 90.000000
_cell_volume 2430.000000
_symmetry_space_group_name_H-M "C 2/M"
_symmetry_group_IT_number 12
_symmetry_cell_setting 'monoclinic'
loop_
_space_group_symop_operation_xyz
x,y,z
-x,y,-z
-x,-y,-z
x,-y,z
1/2+x,1/2+y,z
1/2-x,1/2+y,-z
1/2-x,1/2-y,-z
1/2+x,1/2-y,z
loop_
_atom_site_type_symbol
_atom_site_label
_atom_site_fract_x
_atom_site_fract_y
_atom_site_fract_z
Si Si1 0.663309 0.584765 0.304566
Si Si2 0.432132 0.912295 0.627951
Si Si3 0.294885 0.634635 0.825297
Si Si4 0.356043 0.295228 0.296342
Si Si5 0.736873 0.823010 0.365866
Si Si6 0.590283 0.290048 0.840291
O O1 0.625168 0.500000 0.297265
O O2 0.812428 0.613415 0.470717
O O3 0.731520 0.588546 0.269340
O O4 0.484082 0.633265 0.179889
O O5 0.635590 0.883270 0.768095
O O6 0.326734 0.888877 0.625902
O O7 0.444707 0.000000 0.632481
O O8 0.250516 0.718611 0.770583
O O9 0.500000 0.626199 0.000000
O O10 0.263884 0.342073 0.297465
O O11 0.567286 0.294308 0.467651
O O12 0.354035 0.306700 0.205333
O O13 0.583112 0.762922 0.273920
O O14 0.750000 0.250000 0.000000
#
# Coordination Sequence:
#
# PCOD9225938 Si02
#       6
#     8   8   8   8   8   8
#     4  11  24  42  63  94 132 169 213 266 330 397
#     4  11  24  43  64  92 131 177 219 265 330 391
#     4  12  24  39  63 100 132 168 212 273 333 394
#     4  11  23  39  65  94 128 164 222 271 319 376
#     4  11  23  40  65  93 125 171 217 275 309 385
#     4  12  23  40  65  96 128 172 217 265 325 386
#
# _framework density 9.8765429999999999
#
# number of rings (size 3 to 8) (size 9 to 14) (size 15 to 20)
#    0.000    0.667    5.000    3.500    2.333    2.667 
#    0.000    2.500    0.000    0.000    0.000    2.333 
#    0.000    0.000    0.000    0.000    0.000    0.000 
#
# Total GULP energy -133883.179062 kJ/mol
# GULP energy per Si atom -5578.465794 kJ/mol
# Density = 0.985406 g / cm^3
# Si number density = 9.876543 Si / 1000 Ang^3
#
#
#
# Elastic Constant Matrix: (Units=GPa)
#
#
# Indices 1 2 3 4 5 6 
#
# 1 151.9774 1.2133 51.6312 -0.0138 -2.7534 0.0038
# 2 1.2133 32.7372 18.5943 -0.0402 11.5428 0.0063
# 3 51.6312 18.5943 112.7688 -0.0348 15.4191 0.0031
# 4 -0.0138 -0.0402 -0.0348 13.4969 -0.0126 -1.7864
# 5 -2.7534 11.5428 15.4191 -0.0126 32.1328 0.0072
# 6 0.0038 0.0063 0.0031 -1.7864 0.0072 11.7692
#
#
#
# Elastic Compliance Matrix: (Units=1/GPa)
#
#
# Indices 1 2 3 4 5 6 
#
# 1 0.008037 0.001299 -0.004200 0.000003 0.002237 -0.000003
# 2 0.001299 0.037284 -0.005272 0.000089 -0.010752 0.000001
# 3 -0.004200 -0.005272 0.012254 0.000008 -0.004346 0.000005
# 4 0.000003 0.000089 0.000008 0.075610 -0.000009 0.011477
# 5 0.002237 -0.010752 -0.004346 -0.000009 0.037260 -0.000018
# 6 -0.000003 0.000001 0.000005 0.011477 -0.000018 0.086710
#
#
# Mechanical properties :
#
#
# Convention : Reuss Voigt Hill
#
# Bulk Modulus (GPa) = 24.25516 48.92900 36.59208
# Shear Modulus (GPa) = 17.40681 26.54943 21.97812
#
# Velocity S-wave (km/s) = 2.97175 3.67013 3.33925
# Velocity P-wave (km/s) = 4.90723 6.54094 5.78208
#
# Compressibility (1/GPa) = 0.04122835
#
# Stress axis : x y z
#
# Youngs Moduli (GPa) = 124.42661 26.82138 81.60513
#
# Poissons Ratio (x) = -0.03483 0.34272
# Poissons Ratio (y) = -0.16159 0.43023
# Poissons Ratio (z) = 0.52256 0.14140
#
# Static dielectric constant tensor:
#      x y z
#    x 1.726810 0.000000 -0.042810 
#    y 0.000000 1.724670 0.000000 
#    z -0.042810 0.000000 1.710610 
# 
# From -- ./inp_files/271782.got.cif
#   From: 2010.05.17/outbox.ucp.g08.bks.cvg/sg12_136_cif.got.tgz:271782.got - 2010.06.11 11:47:21.
