data_PCOD9225927
_publ_section_title
;
Structure prediction by ZEFSAII (Michael W. Deem and Ramdas Pophale) SiO2 
 PCOD9225927
Probable space group: C 2/M
;
_chemical_formula_sum "Si O2"
_cell_formula_units_Z 22
_cell_length_a 18.000000
_cell_length_b 24.000000
_cell_length_c 15.000000
_cell_angle_alpha 90.000000
_cell_angle_beta 20.000000
_cell_angle_gamma 90.000000
_cell_volume 2216.290529
_symmetry_space_group_name_H-M "C 2/M"
_symmetry_group_IT_number 12
_symmetry_cell_setting 'monoclinic'
loop_
_space_group_symop_operation_xyz
x,y,z
-x,y,-z
-x,-y,-z
x,-y,z
1/2+x,1/2+y,z
1/2-x,1/2+y,-z
1/2-x,1/2-y,-z
1/2+x,1/2-y,z
loop_
_atom_site_type_symbol
_atom_site_label
_atom_site_fract_x
_atom_site_fract_y
_atom_site_fract_z
Si Si1 0.414262 0.000000 0.196127
Si Si2 0.910613 0.119957 0.009156
Si Si3 0.355912 0.219879 0.743086
Si Si4 0.433600 0.000000 0.795350
Si Si5 0.033222 0.285481 0.742290
Si Si6 0.797236 0.404172 0.445204
Si Si7 0.258187 0.000000 0.809576
O O1 0.280892 0.945335 0.378597
O O2 0.612880 0.000000 0.045870
O O3 0.500000 0.000000 0.000000
O O4 0.081818 0.117461 0.735626
O O5 0.711286 0.157045 0.203922
O O6 0.847558 0.056956 0.100043
O O7 0.000000 0.145538 0.000000
O O8 0.500000 0.241850 0.500000
O O9 0.463782 0.217976 0.717703
O O10 0.141822 0.256540 0.997438
O O11 0.581177 0.055328 0.620764
O O12 0.256434 0.000000 0.919775
O O13 0.250000 0.250000 0.500000
O O14 0.066354 0.349629 0.730367
O O15 0.500000 0.000000 0.500000
#
# Coordination Sequence:
#
# PCOD9225927 Si02
#       7
#     4   8   8   4   8   8   4
#     4   8  19  39  60  87 112 156 219 266 320 364
#     4  12  22  36  60  89 128 167 208 254 323 397
#     4  11  25  40  62  92 129 164 214 261 323 390
#     4   8  19  35  59  83 123 158 210 261 319 371
#     4  11  22  43  63  90 125 169 215 264 325 382
#     4   9  19  38  62  85 118 164 210 261 317 379
#     4  12  21  32  53  92 128 163 205 247 313 390
#
# _framework density 9.9264960000000002
#
# number of rings (size 3 to 8) (size 9 to 14) (size 15 to 20)
#    1.091    0.364    1.818    5.182    0.000    0.000 
#    3.273    0.000    0.000    2.182    0.000    0.000 
#    0.000    0.000    0.000    0.000    0.000    0.000 
#
# Total GULP energy -122560.117893 kJ/mol
# GULP energy per Si atom -5570.914450 kJ/mol
# Density = 0.990390 g / cm^3
# Si number density = 9.926496 Si / 1000 Ang^3
#
#
#
# Elastic Constant Matrix: (Units=GPa)
#
#
# Indices 1 2 3 4 5 6 
#
# 1 74.7548 10.4240 55.2794 -0.1051 17.2786 0.0101
# 2 10.4240 115.3547 48.1571 0.2301 -2.9170 0.0011
# 3 55.2794 48.1571 115.8460 0.4201 28.6352 0.0223
# 4 -0.1051 0.2301 0.4201 -20.0399 0.0302 -10.7244
# 5 17.2786 -2.9170 28.6352 0.0302 35.0646 -0.0010
# 6 0.0101 0.0011 0.0223 -10.7244 -0.0010 5.2261
#
#
#
# Elastic Compliance Matrix: (Units=1/GPa)
#
#
# Indices 1 2 3 4 5 6 
#
# 1 0.021451 0.002609 -0.010977 -0.000151 -0.001389 -0.000306
# 2 0.002609 0.011748 -0.007583 -0.000020 0.005884 -0.000016
# 3 -0.010977 -0.007583 0.019847 0.000192 -0.011430 0.000331
# 4 -0.000151 -0.000020 0.000192 -0.023781 -0.000065 -0.048800
# 5 -0.001389 0.005884 -0.011430 -0.000065 0.039027 -0.000076
# 6 -0.000306 -0.000016 0.000331 -0.048800 -0.000076 0.091205
#
#
# Mechanical properties :
#
#
# Convention : Reuss Voigt Hill
#
# Bulk Modulus (GPa) = 47.29340 59.29741 53.29541
# Shear Modulus (GPa) = 25.19580 16.85648 21.02614
#
# Velocity S-wave (km/s) = 3.56633 2.91703 3.25790
# Velocity P-wave (km/s) = 6.38998 6.42484 6.40743
#
# Compressibility (1/GPa) = 0.02114460
#
# Stress axis : x y z
#
# Youngs Moduli (GPa) = 46.61744 85.12367 50.38610
#
# Poissons Ratio (x) = -0.22211 0.55308
# Poissons Ratio (y) = -0.12164 0.38207
# Poissons Ratio (z) = 0.51171 0.64549
#
# Static dielectric constant tensor:
#      x y z
#    x 1.679710 -0.000130 -0.063360 
#    y -0.000130 1.706720 -0.000300 
#    z -0.063360 -0.000300 1.683680 
# 
# From -- ./inp_files/228086.got.cif
#   From: 2010.05.17/outbox.ucp.g08.bks.cvg/sg12_115_cif.got.tgz:228086.got - 2010.06.11 11:47:21.
