data_PCOD9225093
_publ_section_title
;
Structure prediction by ZEFSAII (Michael W. Deem and Ramdas Pophale) SiO2 
 PCOD9225093
Probable space group: C 2/M
;
_chemical_formula_sum "Si O2"
_cell_formula_units_Z 20
_cell_length_a 18.000000
_cell_length_b 15.000000
_cell_length_c 21.000000
_cell_angle_alpha 90.000000
_cell_angle_beta 160.000000
_cell_angle_gamma 90.000000
_cell_volume 1939.254213
_symmetry_space_group_name_H-M "C 2/M"
_symmetry_group_IT_number 12
_symmetry_cell_setting 'monoclinic'
loop_
_space_group_symop_operation_xyz
x,y,z
-x,y,-z
-x,-y,-z
x,-y,z
1/2+x,1/2+y,z
1/2-x,1/2+y,-z
1/2-x,1/2-y,-z
1/2+x,1/2-y,z
loop_
_atom_site_type_symbol
_atom_site_label
_atom_site_fract_x
_atom_site_fract_y
_atom_site_fract_z
Si Si1 0.323858 0.402077 0.454795
Si Si2 0.792063 0.290535 0.378424
Si Si3 0.703198 0.902554 0.117336
Si Si4 0.076476 0.604677 0.388257
Si Si5 0.690115 0.724333 0.024490
O O1 0.250667 0.500000 0.372573
O O2 0.259978 0.315429 0.364487
O O3 0.582583 0.400692 0.666904
O O4 0.240622 0.391608 0.460414
O O5 0.838364 0.340948 0.482152
O O6 0.000000 0.304580 0.500000
O O7 0.551246 0.316504 0.161760
O O8 0.708209 0.817249 0.076732
O O9 0.703493 0.000000 0.084397
O O10 0.500000 0.897273 0.000000
O O11 0.043556 0.500000 0.376884
O O12 0.862128 0.654350 0.190710
O O13 0.750000 0.750000 0.000000
#
# Coordination Sequence:
#
# PCOD9225093 Si02
#       5
#     8   8   8   8   8
#     4  10  20  40  67  93 129 171 209 264 330 388
#     4  12  25  41  68  99 132 170 216 270 328 389
#     4  10  21  38  64  97 132 166 204 260 330 394
#     4  11  25  46  67  92 131 174 223 273 317 375
#     4  12  24  40  70  96 128 173 217 264 321 390
#
# _framework density 10.313243
#
# number of rings (size 3 to 8) (size 9 to 14) (size 15 to 20)
#    0.000    1.000    4.000    3.000    0.000    3.200 
#    0.000    1.000    0.000    0.000    0.000    0.000 
#    0.000    0.000    0.000    0.000    0.000    0.000 
#
# Total GULP energy -111821.022693 kJ/mol
# GULP energy per Si atom -5591.051135 kJ/mol
# Density = 1.028977 g / cm^3
# Si number density = 10.313243 Si / 1000 Ang^3
#
#
#
# Elastic Constant Matrix: (Units=GPa)
#
#
# Indices 1 2 3 4 5 6 
#
# 1 5.9496 8.9208 -28.2734 0.0960 15.4462 0.0137
# 2 8.9208 109.1037 24.0959 0.0720 -0.3737 0.0061
# 3 -28.2734 24.0959 63.4591 0.2152 11.0101 0.0133
# 4 0.0960 0.0720 0.2152 4.8113 0.0214 6.9541
# 5 15.4462 -0.3737 11.0101 0.0214 31.9085 -0.0073
# 6 0.0137 0.0061 0.0133 6.9541 -0.0073 26.8487
#
#
#
# Elastic Compliance Matrix: (Units=1/GPa)
#
#
# Indices 1 2 3 4 5 6 
#
# 1 -0.038941 0.008924 -0.025566 0.002571 0.027775 -0.000628
# 2 0.008924 0.008029 0.001768 -0.000549 -0.004835 0.000134
# 3 -0.025566 0.001768 0.001642 0.000537 0.011829 -0.000124
# 4 0.002571 -0.000549 0.000537 0.332115 -0.001679 -0.086023
# 5 0.027775 -0.004835 0.011829 -0.001679 0.013757 0.000420
# 6 -0.000628 0.000134 -0.000124 -0.086023 0.000420 0.059527
#
#
# Mechanical properties :
#
#
# Convention : Reuss Voigt Hill
#
# Bulk Modulus (GPa) = -16.94413 20.88876 1.97232
# Shear Modulus (GPa) = 12.94648 24.29832 18.62240
#
# Velocity S-wave (km/s) = 2.50804 3.43595 3.00799
# Velocity P-wave (km/s) = 0.39298 5.08823 3.60864
#
# Compressibility (1/GPa) = -0.05901750
#
# Stress axis : x y z
#
# Youngs Moduli (GPa) = -25.67983 124.54347 608.87972
#
# Poissons Ratio (x) = -1.11139 15.56634
# Poissons Ratio (y) = 0.22916 -1.07638
# Poissons Ratio (z) = -0.65652 -0.22017
#
# Static dielectric constant tensor:
#      x y z
#    x 1.700780 0.000010 0.023010 
#    y 0.000010 1.756440 -0.000030 
#    z 0.023010 -0.000030 1.733140 
# 
# From -- ./inp_files/85303.got.cif
#   From: 2010.05.17/outbox.ucp.g08.bks.cvg/sg12_43_cif.got.tgz:85303.got - 2010.06.11 11:47:21.
