data_PCOD9225227
_publ_section_title
;
Structure prediction by ZEFSAII (Michael W. Deem and Ramdas Pophale) SiO2 
 PCOD9225227
Probable space group: C 2/M
;
_chemical_formula_sum "Si O2"
_cell_formula_units_Z 28
_cell_length_a 15.000000
_cell_length_b 18.000000
_cell_length_c 12.000000
_cell_angle_alpha 90.000000
_cell_angle_beta 70.000000
_cell_angle_gamma 90.000000
_cell_volume 3044.604091
_symmetry_space_group_name_H-M "C 2/M"
_symmetry_group_IT_number 12
_symmetry_cell_setting 'monoclinic'
loop_
_space_group_symop_operation_xyz
x,y,z
-x,y,-z
-x,-y,-z
x,-y,z
1/2+x,1/2+y,z
1/2-x,1/2+y,-z
1/2-x,1/2-y,-z
1/2+x,1/2-y,z
loop_
_atom_site_type_symbol
_atom_site_label
_atom_site_fract_x
_atom_site_fract_y
_atom_site_fract_z
Si Si1 0.609948 0.176103 0.450403
Si Si2 0.646142 0.690614 0.870938
Si Si3 0.952940 0.207100 0.847905
Si Si4 0.667981 0.085759 0.647444
Si Si5 0.295429 0.305898 0.722522
Si Si6 0.985814 0.380350 0.872657
Si Si7 0.176435 0.416868 0.216568
O O1 0.500000 0.198190 0.500000
O O2 0.644599 0.137021 0.549406
O O3 0.670672 0.247354 0.386303
O O4 0.619519 0.118471 0.343973
O O5 0.560229 0.675481 0.819956
O O6 0.703394 0.766999 0.820308
O O7 0.728593 0.630251 0.835734
O O8 0.601563 0.692494 0.012882
O O9 0.882411 0.187177 0.775110
O O10 0.973310 0.294869 0.840942
O O11 0.755778 0.120964 0.679012
O O12 0.576255 0.088569 0.767862
O O13 0.684431 0.000000 0.607992
O O14 0.889371 0.415180 0.865049
O O15 0.000000 0.386081 0.000000
O O16 0.201631 0.500000 0.233628
#
# Coordination Sequence:
#
# PCOD9225227 Si02
#       7
#     8   8   8   8   8   8   8
#     4  11  22  41  66  89 115 160 208 259 298 350
#     4  10  21  36  63  89 121 163 203 250 292 356
#     4  11  19  38  62  91 120 157 211 251 290 349
#     4  12  25  40  59  92 130 159 193 249 318 367
#     4  11  22  38  63  91 120 156 211 245 298 360
#     4  12  22  37  62  93 126 157 198 255 309 361
#     4  11  24  40  60  90 125 164 204 247 310 366
#
# _framework density 9.1965979999999998
#
# number of rings (size 3 to 8) (size 9 to 14) (size 15 to 20)
#    0.000    0.857    7.143    1.714    2.000    1.714 
#    0.000    2.143    0.000    0.429    0.000    0.000 
#    0.000    0.000    0.000    0.000    0.000    0.000 
#
# Total GULP energy -156282.154156 kJ/mol
# GULP energy per Si atom -5581.505506 kJ/mol
# Density = 0.917567 g / cm^3
# Si number density = 9.196598 Si / 1000 Ang^3
#
#
#
# Elastic Constant Matrix: (Units=GPa)
#
#
# Indices 1 2 3 4 5 6 
#
# 1 150.7620 25.0739 49.2327 0.0000 22.7345 0.0000
# 2 25.0739 40.4591 19.4609 0.0000 -16.7035 0.0000
# 3 49.2327 19.4609 78.0351 0.0000 18.8927 0.0000
# 4 0.0000 0.0000 0.0000 4.7127 0.0000 -3.7204
# 5 22.7345 -16.7035 18.8927 0.0000 16.2298 0.0000
# 6 0.0000 0.0000 0.0000 -3.7204 0.0000 -8.0459
#
#
#
# Elastic Compliance Matrix: (Units=1/GPa)
#
#
# Indices 1 2 3 4 5 6 
#
# 1 0.002532 0.022113 -0.016380 0.000000 0.038280 0.000000
# 2 0.022113 -0.074239 0.042553 0.000000 -0.156916 0.000000
# 3 -0.016380 0.042553 -0.005042 0.000000 0.072608 0.000000
# 4 0.000000 0.000000 0.000000 0.155450 0.000000 -0.071878
# 5 0.038280 -0.156916 0.072608 0.000000 -0.238024 0.000000
# 6 0.000000 0.000000 0.000000 -0.071878 0.000000 -0.091051
#
#
# Mechanical properties :
#
#
# Convention : Reuss Voigt Hill
#
# Bulk Modulus (GPa) = 50.44444 50.75457 50.59951
# Shear Modulus (GPa) = -14.69126 14.27857 -0.20635
#
# Velocity S-wave (km/s) = -2.82925 2.78923 -0.33530
# Velocity P-wave (km/s) = 4.10027 6.16662 5.23638
#
# Compressibility (1/GPa) = 0.01982379
#
# Stress axis : x y z
#
# Youngs Moduli (GPa) = 395.00037 -13.47010 -198.33016
#
# Poissons Ratio (x) = 0.29787 -3.24860
# Poissons Ratio (y) = -8.73483 8.43947
# Poissons Ratio (z) = 6.47000 0.57319
#
# Static dielectric constant tensor:
#      x y z
#    x 1.651570 0.000000 -0.010380 
#    y 0.000000 1.655580 0.000000 
#    z -0.010380 0.000000 1.649640 
# 
# From -- ./inp_files/145459.got.cif
#   From: 2010.05.17/outbox.ucp.g08.bks.cvg/sg12_73_cif.got.tgz:145459.got - 2010.06.11 11:47:21.
