data_PCOD9225250
_publ_section_title
;
Structure prediction by ZEFSAII (Michael W. Deem and Ramdas Pophale) SiO2 
 PCOD9225250
Probable space group: C 2/M
;
_chemical_formula_sum "Si O2"
_cell_formula_units_Z 28
_cell_length_a 15.000000
_cell_length_b 9.000000
_cell_length_c 24.000000
_cell_angle_alpha 90.000000
_cell_angle_beta 120.000000
_cell_angle_gamma 90.000000
_cell_volume 2805.922308
_symmetry_space_group_name_H-M "C 2/M"
_symmetry_group_IT_number 12
_symmetry_cell_setting 'monoclinic'
loop_
_space_group_symop_operation_xyz
x,y,z
-x,y,-z
-x,-y,-z
x,-y,z
1/2+x,1/2+y,z
1/2-x,1/2+y,-z
1/2-x,1/2-y,-z
1/2+x,1/2-y,z
loop_
_atom_site_type_symbol
_atom_site_label
_atom_site_fract_x
_atom_site_fract_y
_atom_site_fract_z
Si Si1 0.671813 0.825868 0.111324
Si Si2 0.903726 0.823897 0.220412
Si Si3 0.892699 0.325447 0.559467
Si Si4 0.857162 0.821345 0.013521
Si Si5 0.266553 0.179273 0.410997
Si Si6 0.374271 0.824205 0.332974
Si Si7 0.488636 0.822087 0.848243
O O1 0.794015 0.804597 0.154817
O O2 0.628760 0.729603 0.046481
O O3 0.622051 0.796357 0.156683
O O4 0.651137 0.000000 0.092114
O O5 0.886720 0.756435 0.277059
O O6 0.986791 0.747276 0.204792
O O7 0.925327 0.000000 0.231651
O O8 0.866317 0.500000 0.557178
O O9 0.837397 0.239896 0.593004
O O10 0.850176 0.278160 0.485338
O O11 0.014457 0.311146 0.602701
O O12 0.856123 0.000000 0.016792
O O13 0.750000 0.750000 0.000000
O O14 0.938298 0.752829 0.082276
O O15 0.295052 0.229406 0.356894
O O16 0.264088 0.000000 0.407820
O O17 0.354368 0.000000 0.316087
O O18 0.506070 0.000000 0.850674
#
# Coordination Sequence:
#
# PCOD9225250 Si02
#       7
#     8   8   8   8   8   8   8
#     4  10  23  42  62  85 116 152 191 238 294 347
#     4  11  24  41  59  82 115 154 195 241 284 338
#     4   9  18  34  57  84 114 148 186 232 287 340
#     4  12  23  37  62  92 121 152 189 238 291 343
#     4   9  18  34  57  85 114 146 187 235 283 337
#     4  10  21  37  57  80 112 153 193 232 281 344
#     4  11  23  41  64  88 116 153 192 237 293 350
#
# _framework density 9.9788940000000004
#
# number of rings (size 3 to 8) (size 9 to 14) (size 15 to 20)
#    0.000    1.714    1.429    3.000    0.000    7.429 
#    0.000    4.286    0.000    4.286    0.000    0.000 
#    0.000    0.000    0.000    0.000    0.000    0.000 
#
# Total GULP energy -156322.162103 kJ/mol
# GULP energy per Si atom -5582.934361 kJ/mol
# Density = 0.995618 g / cm^3
# Si number density = 9.978894 Si / 1000 Ang^3
#
#
#
# Elastic Constant Matrix: (Units=GPa)
#
#
# Indices 1 2 3 4 5 6 
#
# 1 100.3477 32.5260 14.7763 0.0000 -43.0701 0.0000
# 2 32.5260 77.7742 20.2647 0.0000 -22.7500 0.0000
# 3 14.7763 20.2647 47.2365 0.0000 -38.8813 0.0000
# 4 0.0000 0.0000 0.0000 33.2117 0.0000 -9.7821
# 5 -43.0701 -22.7500 -38.8813 0.0000 49.2696 0.0000
# 6 0.0000 0.0000 0.0000 -9.7821 0.0000 31.8213
#
#
#
# Elastic Compliance Matrix: (Units=1/GPa)
#
#
# Indices 1 2 3 4 5 6 
#
# 1 0.027107 -0.006204 0.032328 0.000000 0.046344 0.000000
# 2 -0.006204 0.016357 -0.009484 0.000000 -0.005355 0.000000
# 3 0.032328 -0.009484 0.099258 0.000000 0.102211 0.000000
# 4 0.000000 0.000000 0.000000 0.033108 0.000000 0.010177
# 5 0.046344 -0.005355 0.102211 0.000000 0.138997 0.000000
# 6 0.000000 0.000000 0.000000 0.010177 0.000000 0.034554
#
#
# Mechanical properties :
#
#
# Convention : Reuss Voigt Hill
#
# Bulk Modulus (GPa) = 5.68173 40.05470 22.86822
# Shear Modulus (GPa) = 13.34161 33.37994 23.36077
#
# Velocity S-wave (km/s) = 2.58832 4.09409 3.42498
# Velocity P-wave (km/s) = 3.43302 6.51629 5.20806
#
# Compressibility (1/GPa) = 0.17600270
#
# Stress axis : x y z
#
# Youngs Moduli (GPa) = 36.89107 61.13588 10.07472
#
# Poissons Ratio (x) = 0.37926 -0.32570
# Poissons Ratio (y) = 0.22886 0.09555
# Poissons Ratio (z) = -1.19262 0.57984
#
# Static dielectric constant tensor:
#      x y z
#    x 1.742090 0.000000 0.015720 
#    y 0.000000 1.678690 0.000000 
#    z 0.015720 0.000000 1.700220 
# 
# From -- ./inp_files/339093.got.cif
#   From: 2010.05.17/outbox.ucp.g08.bks.cvg/sg12_170_cif.got.tgz:339093.got - 2010.06.11 11:47:21.
