data_PCOD9225035
_publ_section_title
;
Structure prediction by ZEFSAII (Michael W. Deem and Ramdas Pophale) SiO2 
 PCOD9225035
Probable space group: C 2/M
;
_chemical_formula_sum "Si O2"
_cell_formula_units_Z 32
_cell_length_a 12.000000
_cell_length_b 18.000000
_cell_length_c 15.000000
_cell_angle_alpha 90.000000
_cell_angle_beta 90.000000
_cell_angle_gamma 90.000000
_cell_volume 3240.000000
_symmetry_space_group_name_H-M "C 2/M"
_symmetry_group_IT_number 12
_symmetry_cell_setting 'monoclinic'
loop_
_space_group_symop_operation_xyz
x,y,z
-x,y,-z
-x,-y,-z
x,-y,z
1/2+x,1/2+y,z
1/2-x,1/2+y,-z
1/2-x,1/2-y,-z
1/2+x,1/2-y,z
loop_
_atom_site_type_symbol
_atom_site_label
_atom_site_fract_x
_atom_site_fract_y
_atom_site_fract_z
Si Si1 0.753994 0.794076 0.094631
Si Si2 0.620437 0.174399 0.545744
Si Si3 0.352045 0.584178 0.801324
Si Si4 0.380394 0.911590 0.275282
Si Si5 0.123915 0.083063 0.993935
Si Si6 0.434330 0.322169 0.244469
Si Si7 0.233298 0.173014 0.616958
Si Si8 0.074877 0.313275 0.237159
O O1 0.852971 0.785351 0.168937
O O2 0.638351 0.787825 0.147429
O O3 0.750000 0.750000 0.000000
O O4 0.785885 0.877018 0.065751
O O5 0.500000 0.191896 0.500000
O O6 0.602810 0.115177 0.623737
O O7 0.707076 0.143466 0.471564
O O8 0.682721 0.246636 0.587745
O O9 0.364186 0.500000 0.768214
O O10 0.241493 0.617768 0.756179
O O11 0.329930 0.582278 0.906497
O O12 0.469961 0.624143 0.791049
O O13 0.485667 0.878209 0.222245
O O14 0.378808 0.000000 0.266552
O O15 0.105057 0.000000 0.959687
O O16 0.000000 0.119170 0.000000
O O17 0.367401 0.360554 0.324770
O O18 0.503636 0.252682 0.279449
O O19 0.330287 0.171814 0.690813
#
# Coordination Sequence:
#
# PCOD9225035 Si02
#       8
#     8   8   8   8   8   8   8   8
#     4  11  25  36  58  94 124 156 201 259 311 357
#     4  11  20  38  63  91 122 154 205 249 304 365
#     4  10  22  40  63  87 118 164 206 247 302 364
#     4  11  24  42  62  88 125 168 206 248 306 374
#     4  10  20  39  62  85 116 158 207 247 296 359
#     4  11  21  38  62  86 125 157 199 255 305 363
#     4  10  21  37  62  92 117 154 201 252 301 362
#     4  11  23  40  58  88 123 163 204 244 310 365
#
# _framework density 9.8765429999999999
#
# number of rings (size 3 to 8) (size 9 to 14) (size 15 to 20)
#    0.000    1.375    3.750    1.500    3.500    1.750 
#    0.000    2.500    0.000    3.750    0.000    0.000 
#    0.000    0.000    0.000    0.000    0.000    0.000 
#
# Total GULP energy -178159.839163 kJ/mol
# GULP energy per Si atom -5567.494974 kJ/mol
# Density = 0.985406 g / cm^3
# Si number density = 9.876543 Si / 1000 Ang^3
#
#
#
# Elastic Constant Matrix: (Units=GPa)
#
#
# Indices 1 2 3 4 5 6 
#
# 1 119.1024 23.3043 32.5013 0.0000 -11.2225 0.0000
# 2 23.3043 35.2552 -1.5731 0.0000 -5.1298 0.0000
# 3 32.5013 -1.5731 70.5572 0.0000 -16.8034 0.0000
# 4 0.0000 0.0000 0.0000 14.1210 0.0000 2.8453
# 5 -11.2225 -5.1298 -16.8034 0.0000 36.0926 0.0000
# 6 0.0000 0.0000 0.0000 2.8453 0.0000 25.5549
#
#
#
# Elastic Compliance Matrix: (Units=1/GPa)
#
#
# Indices 1 2 3 4 5 6 
#
# 1 0.011398 -0.007792 -0.005448 0.000000 -0.000100 0.000000
# 2 -0.007792 0.034502 0.005566 0.000000 0.005072 0.000000
# 3 -0.005448 0.005566 0.018660 0.000000 0.007785 0.000000
# 4 0.000000 0.000000 0.000000 0.072442 0.000000 -0.008066
# 5 -0.000100 0.005072 0.007785 0.000000 0.032021 0.000000
# 6 0.000000 0.000000 0.000000 -0.008066 0.000000 0.040030
#
#
# Mechanical properties :
#
#
# Convention : Reuss Voigt Hill
#
# Bulk Modulus (GPa) = 20.31954 37.04219 28.68087
# Shear Modulus (GPa) = 20.76385 26.53251 23.64818
#
# Velocity S-wave (km/s) = 3.24569 3.66896 3.46380
# Velocity P-wave (km/s) = 4.93509 6.06149 5.52706
#
# Compressibility (1/GPa) = 0.04921370
#
# Stress axis : x y z
#
# Youngs Moduli (GPa) = 87.73488 28.98415 53.58917
#
# Poissons Ratio (x) = 0.22584 0.29194
# Poissons Ratio (y) = 0.68362 -0.29830
# Poissons Ratio (z) = 0.47796 -0.16134
#
# Static dielectric constant tensor:
#      x y z
#    x 1.804330 0.000000 -0.013560 
#    y 0.000000 1.751870 0.000000 
#    z -0.013560 0.000000 1.726800 
# 
# From -- ./inp_files/206702.got.cif
#   From: 2010.05.17/outbox.ucp.g08.bks.cvg/sg12_104_cif.got.tgz:206702.got - 2010.06.11 11:47:21.
