data_PCOD9225291
_publ_section_title
;
Structure prediction by ZEFSAII (Michael W. Deem and Ramdas Pophale) SiO2 
 PCOD9225291
Probable space group: C 2/M
;
_chemical_formula_sum "Si O2"
_cell_formula_units_Z 28
_cell_length_a 27.000000
_cell_length_b 9.000000
_cell_length_c 18.000000
_cell_angle_alpha 90.000000
_cell_angle_beta 40.000000
_cell_angle_gamma 90.000000
_cell_volume 2811.553005
_symmetry_space_group_name_H-M "C 2/M"
_symmetry_group_IT_number 12
_symmetry_cell_setting 'monoclinic'
loop_
_space_group_symop_operation_xyz
x,y,z
-x,y,-z
-x,-y,-z
x,-y,z
1/2+x,1/2+y,z
1/2-x,1/2+y,-z
1/2-x,1/2-y,-z
1/2+x,1/2-y,z
loop_
_atom_site_type_symbol
_atom_site_label
_atom_site_fract_x
_atom_site_fract_y
_atom_site_fract_z
Si Si1 0.789325 0.171667 0.336936
Si Si2 0.351827 0.670026 0.433737
Si Si3 0.782666 0.821921 0.883396
Si Si4 0.590660 0.827746 0.913207
Si Si5 0.633493 0.324723 0.010088
Si Si6 0.512274 0.830145 0.254540
Si Si7 0.062498 0.328122 0.364240
O O1 0.706877 0.254052 0.440355
O O2 0.816340 0.165874 0.391781
O O3 0.851929 0.260612 0.215660
O O4 0.781857 0.000000 0.319289
O O5 0.367824 0.500000 0.438158
O O6 0.429599 0.761907 0.333866
O O7 0.859420 0.759923 0.752447
O O8 0.789019 0.000000 0.885746
O O9 0.750000 0.750000 0.000000
O O10 0.711329 0.770591 0.915545
O O11 0.613875 0.000000 0.902346
O O12 0.500000 0.833414 0.000000
O O13 0.593103 0.716803 0.980039
O O14 0.648075 0.500000 0.001595
O O15 0.579611 0.266280 0.139133
O O16 0.518872 0.830953 0.335730
O O17 0.519931 0.000000 0.218542
O O18 0.084019 0.500000 0.358837
O O19 0.000000 0.277574 0.500000
#
# Coordination Sequence:
#
# PCOD9225291 Si02
#       7
#     8   8   8   8   8   8   8
#     4  10  21  38  59  85 119 162 207 255 313 373
#     4  10  21  37  60  87 120 161 207 255 309 378
#     4  12  24  42  68  96 129 169 216 269 324 384
#     4  11  24  41  62  90 126 164 207 262 317 374
#     4  12  25  41  65  94 126 167 214 262 318 385
#     4  11  22  38  62  90 123 160 207 261 315 380
#     4  10  23  43  66  93 128 169 211 262 325 386
#
# _framework density 9.9589090000000002
#
# number of rings (size 3 to 8) (size 9 to 14) (size 15 to 20)
#    0.000    1.143    1.429    5.143    0.000    7.143 
#    0.000    4.286    0.000    0.000    0.000    0.000 
#    0.000    0.000    0.000    0.000    0.000    0.000 
#
# Total GULP energy -156132.932258 kJ/mol
# GULP energy per Si atom -5576.176152 kJ/mol
# Density = 0.993624 g / cm^3
# Si number density = 9.958909 Si / 1000 Ang^3
#
#
#
# Elastic Constant Matrix: (Units=GPa)
#
#
# Indices 1 2 3 4 5 6 
#
# 1 34.2033 13.9725 11.2779 -0.0047 -8.4444 -0.0012
# 2 13.9725 141.8720 56.3918 -0.0086 -3.1265 0.0003
# 3 11.2779 56.3918 165.7535 -0.0098 1.3457 0.0017
# 4 -0.0047 -0.0086 -0.0098 41.7985 0.0033 -4.3081
# 5 -8.4444 -3.1265 1.3457 0.0033 32.1989 0.0004
# 6 -0.0012 0.0003 0.0017 -4.3081 0.0004 17.1560
#
#
#
# Elastic Compliance Matrix: (Units=1/GPa)
#
#
# Indices 1 2 3 4 5 6 
#
# 1 0.032806 -0.002464 -0.001462 0.000002 0.008425 0.000003
# 2 -0.002464 0.008363 -0.002680 0.000001 0.000278 0.000000
# 3 -0.001462 -0.002680 0.007052 0.000001 -0.000938 0.000000
# 4 0.000002 0.000001 0.000001 0.024560 -0.000002 0.006167
# 5 0.008425 0.000278 -0.000938 -0.000002 0.033333 -0.000001
# 6 0.000003 0.000000 0.000000 0.006167 -0.000001 0.059837
#
#
# Mechanical properties :
#
#
# Convention : Reuss Voigt Hill
#
# Bulk Modulus (GPa) = 28.56464 56.12369 42.34416
# Shear Modulus (GPa) = 26.20111 35.57644 30.88878
#
# Velocity S-wave (km/s) = 3.63086 4.23089 3.94231
# Velocity P-wave (km/s) = 5.65243 7.21845 6.48290
#
# Compressibility (1/GPa) = 0.03500832
#
# Stress axis : x y z
#
# Youngs Moduli (GPa) = 30.48239 119.58118 141.80733
#
# Poissons Ratio (x) = 0.29465 0.20735
# Poissons Ratio (y) = 0.07511 0.37999
# Poissons Ratio (z) = 0.04457 0.32044
#
# Static dielectric constant tensor:
#      x y z
#    x 1.836780 0.000000 -0.022340 
#    y 0.000000 1.712250 0.000000 
#    z -0.022340 0.000000 1.672340 
# 
# From -- ./inp_files/292436.got.cif
#   From: 2010.05.17/outbox.ucp.g08.bks.cvg/sg12_147_cif.got.tgz:292436.got - 2010.06.11 11:47:21.
