data_PCOD9225355
_publ_section_title
;
Structure prediction by ZEFSAII (Michael W. Deem and Ramdas Pophale) SiO2 
 PCOD9225355
Probable space group: C 2/M
;
_chemical_formula_sum "Si O2"
_cell_formula_units_Z 24
_cell_length_a 24.000000
_cell_length_b 9.000000
_cell_length_c 24.000000
_cell_angle_alpha 90.000000
_cell_angle_beta 30.000000
_cell_angle_gamma 90.000000
_cell_volume 2592.000000
_symmetry_space_group_name_H-M "C 2/M"
_symmetry_group_IT_number 12
_symmetry_cell_setting 'monoclinic'
loop_
_space_group_symop_operation_xyz
x,y,z
-x,y,-z
-x,-y,-z
x,-y,z
1/2+x,1/2+y,z
1/2-x,1/2+y,-z
1/2-x,1/2-y,-z
1/2+x,1/2-y,z
loop_
_atom_site_type_symbol
_atom_site_label
_atom_site_fract_x
_atom_site_fract_y
_atom_site_fract_z
Si Si1 0.763512 0.822432 0.764311
Si Si2 0.546314 0.180690 0.324174
Si Si3 0.911337 0.828746 0.004600
Si Si4 0.712473 0.179016 0.473856
Si Si5 0.160917 0.179086 0.748202
Si Si6 0.213915 0.668670 0.086193
O O1 0.874265 0.751881 0.697027
O O2 0.743029 0.758301 0.720594
O O3 0.771456 0.000000 0.758303
O O4 0.651801 0.769885 0.894690
O O5 0.415240 0.219517 0.433781
O O6 0.609573 0.227620 0.212248
O O7 0.555363 0.000000 0.321247
O O8 0.032846 0.783144 0.876309
O O9 0.919509 0.000000 0.018103
O O10 0.821508 0.829705 0.032848
O O11 0.750000 0.250000 0.500000
O O12 0.798776 0.217490 0.349200
O O13 0.713017 0.000000 0.479588
O O14 0.170661 0.000000 0.745325
O O15 0.185791 0.500000 0.096048
O O16 0.250000 0.750000 0.000000
#
# Coordination Sequence:
#
# PCOD9225355 Si02
#       6
#     8   8   8   8   8   8
#     4  11  22  36  58  89 117 145 188 244 293 331
#     4   9  20  40  59  79 113 154 191 230 281 344
#     4   9  19  36  56  81 116 153 188 227 281 350
#     4  10  23  41  62  86 114 152 195 236 281 336
#     4  10  21  38  60  84 114 157 194 226 281 350
#     4   9  18  31  51  78 108 145 186 228 275 327
#
# _framework density 9.2592590000000001
#
# number of rings (size 3 to 8) (size 9 to 14) (size 15 to 20)
#    0.000    2.333    0.000    3.000    2.333    7.333 
#    0.000    3.333    0.000    0.000    0.000    0.000 
#    0.000    0.000    0.000    0.000    0.000    0.000 
#
# Total GULP energy -133844.559967 kJ/mol
# GULP energy per Si atom -5576.856665 kJ/mol
# Density = 0.923818 g / cm^3
# Si number density = 9.259259 Si / 1000 Ang^3
#
#
#
# Elastic Constant Matrix: (Units=GPa)
#
#
# Indices 1 2 3 4 5 6 
#
# 1 95.3813 38.7704 62.6476 0.0001 10.3402 0.0001
# 2 38.7704 42.5982 30.6668 0.0009 6.5029 -0.0015
# 3 62.6476 30.6668 103.2759 0.0000 -13.4531 -0.0001
# 4 0.0001 0.0009 0.0000 23.0907 -0.0001 5.3866
# 5 10.3402 6.5029 -13.4531 -0.0001 35.2042 0.0003
# 6 0.0001 -0.0015 -0.0001 5.3866 0.0003 27.7020
#
#
#
# Elastic Compliance Matrix: (Units=1/GPa)
#
#
# Indices 1 2 3 4 5 6 
#
# 1 0.024804 -0.011797 -0.012848 0.000000 -0.010016 -0.000001
# 2 -0.011797 0.038726 -0.005077 -0.000002 -0.005628 0.000003
# 3 -0.012848 -0.005077 0.020624 0.000000 0.012593 0.000000
# 4 0.000000 -0.000002 0.000000 0.045365 0.000001 -0.008821
# 5 -0.010016 -0.005628 0.012593 0.000001 0.037200 -0.000001
# 6 -0.000001 0.000003 0.000000 -0.008821 -0.000001 0.037814
#
#
# Mechanical properties :
#
#
# Convention : Reuss Voigt Hill
#
# Bulk Modulus (GPa) = 40.46696 56.15833 48.31264
# Shear Modulus (GPa) = 18.36804 24.47740 21.42272
#
# Velocity S-wave (km/s) = 3.15282 3.63957 3.40491
# Velocity P-wave (km/s) = 5.92902 6.93205 6.45006
#
# Compressibility (1/GPa) = 0.02471152
#
# Stress axis : x y z
#
# Youngs Moduli (GPa) = 40.31630 25.82274 48.48649
#
# Poissons Ratio (x) = 0.30462 0.62295
# Poissons Ratio (y) = 0.47559 0.24614
# Poissons Ratio (z) = 0.51798 0.13109
#
# Static dielectric constant tensor:
#      x y z
#    x 1.646630 0.000000 0.016220 
#    y 0.000000 1.636980 0.000000 
#    z 0.016220 0.000000 1.644310 
# 
# From -- ./inp_files/172401.got.cif
#   From: 2010.05.17/outbox.ucp.g08.bks.cvg/sg12_87_cif.got.tgz:172401.got - 2010.06.11 11:47:21.
