data_PCOD9225125
_publ_section_title
;
Structure prediction by ZEFSAII (Michael W. Deem and Ramdas Pophale) SiO2 
 PCOD9225125
Probable space group: C 2/M
;
_chemical_formula_sum "Si O2"
_cell_formula_units_Z 24
_cell_length_a 15.000000
_cell_length_b 9.000000
_cell_length_c 30.000000
_cell_angle_alpha 90.000000
_cell_angle_beta 40.000000
_cell_angle_gamma 90.000000
_cell_volume 2603.289819
_symmetry_space_group_name_H-M "C 2/M"
_symmetry_group_IT_number 12
_symmetry_cell_setting 'monoclinic'
loop_
_space_group_symop_operation_xyz
x,y,z
-x,y,-z
-x,-y,-z
x,-y,z
1/2+x,1/2+y,z
1/2-x,1/2+y,-z
1/2-x,1/2-y,-z
1/2+x,1/2-y,z
loop_
_atom_site_type_symbol
_atom_site_label
_atom_site_fract_x
_atom_site_fract_y
_atom_site_fract_z
Si Si1 0.583764 0.822169 0.653317
Si Si2 0.104479 0.679011 0.999188
Si Si3 0.676898 0.821982 0.484755
Si Si4 0.593966 0.821805 0.365290
Si Si5 0.392145 0.821774 0.258500
Si Si6 0.596906 0.179031 0.103670
O O1 0.732898 0.745482 0.589205
O O2 0.480062 0.777629 0.653236
O O3 0.537066 0.785946 0.721125
O O4 0.601680 0.000000 0.642330
O O5 0.116624 0.500000 0.991562
O O6 0.256508 0.750503 0.938838
O O7 0.057399 0.716204 0.067774
O O8 0.000000 0.727568 0.000000
O O9 0.750000 0.750000 0.500000
O O10 0.515405 0.786377 0.553370
O O11 0.690495 0.000000 0.480264
O O12 0.739710 0.744936 0.314969
O O13 0.610743 0.000000 0.358266
O O14 0.482053 0.769699 0.182482
O O15 0.381359 0.000000 0.260348
O O16 0.609672 0.000000 0.101184
#
# Coordination Sequence:
#
# PCOD9225125 Si02
#       6
#     8   8   8   8   8   8
#     4   9  19  35  51  70  99 134 170 210 257 304
#     4   9  18  34  56  79 103 132 165 203 248 296
#     4   9  17  31  51  73  98 130 170 216 259 299
#     4   9  19  34  50  70  98 130 166 209 255 300
#     4  10  21  35  51  73 103 136 168 205 250 301
#     4   9  19  35  52  75 106 134 165 205 246 295
#
# _framework density 9.2191039999999997
#
# number of rings (size 3 to 8) (size 9 to 14) (size 15 to 20)
#    0.000    2.833    0.000    1.500    0.000    7.000 
#    0.000    3.333    0.000    0.000    0.000    0.000 
#    0.000    0.000    0.000    0.000    0.000    0.000 
#
# Total GULP energy -133738.458786 kJ/mol
# GULP energy per Si atom -5572.435783 kJ/mol
# Density = 0.919812 g / cm^3
# Si number density = 9.219104 Si / 1000 Ang^3
#
#
#
# Elastic Constant Matrix: (Units=GPa)
#
#
# Indices 1 2 3 4 5 6 
#
# 1 103.3079 13.8287 37.8729 0.0000 12.5296 0.0001
# 2 13.8287 -0.9382 12.3647 0.0001 6.7916 0.0002
# 3 37.8729 12.3647 87.7350 0.0000 19.2442 0.0000
# 4 0.0000 0.0001 0.0000 22.7432 0.0000 -8.5798
# 5 12.5296 6.7916 19.2442 0.0000 13.6432 0.0000
# 6 0.0001 0.0002 0.0000 -8.5798 0.0000 24.6820
#
#
#
# Elastic Compliance Matrix: (Units=1/GPa)
#
#
# Indices 1 2 3 4 5 6 
#
# 1 0.010521 0.015763 -0.004232 0.000000 -0.011540 0.000000
# 2 0.015763 -0.201250 0.003995 0.000002 0.080071 0.000002
# 3 -0.004232 0.003995 0.017731 0.000000 -0.023113 0.000000
# 4 0.000000 0.000002 0.000000 0.050605 -0.000001 0.017591
# 5 -0.011540 0.080071 -0.023113 -0.000001 0.076637 -0.000001
# 6 0.000000 0.000002 0.000000 0.017591 -0.000001 0.046630
#
#
# Mechanical properties :
#
#
# Convention : Reuss Voigt Hill
#
# Bulk Modulus (GPa) = -7.04496 35.35971 14.15737
# Shear Modulus (GPa) = -64.52165 20.61623 -21.95271
#
# Velocity S-wave (km/s) = -5.92194 3.34747 -3.45426
# Velocity P-wave (km/s) = 7.11255 5.84463 2.86606
#
# Compressibility (1/GPa) = -0.14194538
#
# Stress axis : x y z
#
# Youngs Moduli (GPa) = 95.05028 -4.96894 56.39686
#
# Poissons Ratio (x) = 0.07833 0.23867
# Poissons Ratio (y) = -1.49831 -0.22530
# Poissons Ratio (z) = 0.40224 0.01985
#
# Static dielectric constant tensor:
#      x y z
#    x 1.542020 0.000000 -0.014330 
#    y 0.000000 1.615290 0.000000 
#    z -0.014330 0.000000 1.628240 
# 
# From -- ./inp_files/308287.got.cif
#   From: 2010.05.17/outbox.ucp.g08.bks.cvg/sg12_155_cif.got.tgz:308287.got - 2010.06.11 11:47:21.
