data_PCOD9225221
_publ_section_title
;
Structure prediction by ZEFSAII (Michael W. Deem and Ramdas Pophale) SiO2 
 PCOD9225221
Probable space group: C 2/M
;
_chemical_formula_sum "Si O2"
_cell_formula_units_Z 32
_cell_length_a 30.000000
_cell_length_b 9.000000
_cell_length_c 24.000000
_cell_angle_alpha 90.000000
_cell_angle_beta 30.000000
_cell_angle_gamma 90.000000
_cell_volume 3240.000000
_symmetry_space_group_name_H-M "C 2/M"
_symmetry_group_IT_number 12
_symmetry_cell_setting 'monoclinic'
loop_
_space_group_symop_operation_xyz
x,y,z
-x,y,-z
-x,-y,-z
x,-y,z
1/2+x,1/2+y,z
1/2-x,1/2+y,-z
1/2-x,1/2-y,-z
1/2+x,1/2-y,z
loop_
_atom_site_type_symbol
_atom_site_label
_atom_site_fract_x
_atom_site_fract_y
_atom_site_fract_z
Si Si1 0.846474 0.674369 0.398736
Si Si2 0.684483 0.324302 0.026848
Si Si3 0.868987 0.321759 0.617016
Si Si4 0.128555 0.821327 0.970454
Si Si5 0.936842 0.673819 0.180062
Si Si6 0.508078 0.675837 0.286980
Si Si7 0.944781 0.677709 0.647981
Si Si8 0.182777 0.821151 0.785128
O O1 0.837383 0.500000 0.422151
O O2 0.750000 0.750000 0.500000
O O3 0.887730 0.688971 0.292320
O O4 0.916509 0.747441 0.366137
O O5 0.703592 0.500000 0.006659
O O6 0.687715 0.270284 0.959278
O O7 0.583630 0.301961 0.157994
O O8 0.750000 0.250000 0.000000
O O9 0.858345 0.500000 0.634317
O O10 0.959725 0.298920 0.485380
O O11 0.785455 0.270291 0.671412
O O12 0.877344 0.268723 0.672150
O O13 0.030394 0.756562 0.082892
O O14 0.125548 0.000000 0.977736
O O15 0.158672 0.786414 0.875322
O O16 0.951566 0.500000 0.153200
O O17 0.878944 0.743091 0.192959
O O18 0.493616 0.500000 0.309334
O O19 0.549009 0.742662 0.299603
O O20 0.931641 0.500000 0.670818
O O21 0.175551 0.000000 0.785153
#
# Coordination Sequence:
#
# PCOD9225221 Si02
#       8
#     8   8   8   8   8   8   8   8
#     4  11  25  43  64  90 120 159 202 247 302 363
#     4  10  23  40  61  89 122 158 199 247 297 349
#     4   8  17  35  57  86 116 150 195 242 285 339
#     4  10  21  40  62  85 115 157 200 240 289 349
#     4  11  24  41  60  86 118 151 190 243 302 354
#     4  11  23  40  61  90 125 159 197 246 303 359
#     4   9  18  35  60  85 116 154 197 240 286 345
#     4  10  21  36  60  87 114 153 200 243 287 345
#
# _framework density 9.8765429999999999
#
# number of rings (size 3 to 8) (size 9 to 14) (size 15 to 20)
#    0.000    2.000    1.250    2.250    3.500    5.000 
#    0.000    1.875    0.000    0.000    0.000    0.000 
#    0.000    0.000    0.000    0.000    0.000    0.000 
#
# Total GULP energy -178632.324457 kJ/mol
# GULP energy per Si atom -5582.260139 kJ/mol
# Density = 0.985406 g / cm^3
# Si number density = 9.876543 Si / 1000 Ang^3
#
#
#
# Elastic Constant Matrix: (Units=GPa)
#
#
# Indices 1 2 3 4 5 6 
#
# 1 118.1474 6.5926 -8.6312 0.0007 0.6231 -0.0006
# 2 6.5926 5.0783 7.5828 0.0001 10.8254 -0.0016
# 3 -8.6312 7.5828 13.8290 0.0000 -8.4444 0.0002
# 4 0.0007 0.0001 0.0000 20.7243 -0.0003 2.8708
# 5 0.6231 10.8254 -8.4444 -0.0003 31.9253 0.0004
# 6 -0.0006 -0.0016 0.0002 2.8708 0.0004 30.1573
#
#
#
# Elastic Compliance Matrix: (Units=1/GPa)
#
#
# Indices 1 2 3 4 5 6 
#
# 1 0.007327 0.012826 -0.006204 -0.000001 -0.006133 0.000001
# 2 0.012826 -0.102501 0.101706 0.000002 0.061408 -0.000007
# 3 -0.006204 0.101706 -0.009914 -0.000002 -0.036988 0.000006
# 4 -0.000001 0.000002 -0.000002 0.048897 -0.000001 -0.004655
# 5 -0.006133 0.061408 -0.036988 -0.000001 0.000837 0.000003
# 6 0.000001 -0.000007 0.000006 -0.004655 0.000003 0.033603
#
#
# Mechanical properties :
#
#
# Convention : Reuss Voigt Hill
#
# Bulk Modulus (GPa) = 8.96326 16.46034 12.71180
# Shear Modulus (GPa) = -24.84881 25.32875 0.23997
#
# Velocity S-wave (km/s) = -3.55064 3.58476 0.34892
# Velocity P-wave (km/s) = 3.50169 5.04828 2.57131
#
# Compressibility (1/GPa) = 0.11156652
#
# Stress axis : x y z
#
# Youngs Moduli (GPa) = 136.47346 -9.75601 -100.86336
#
# Poissons Ratio (x) = 0.12513 -0.62579
# Poissons Ratio (y) = -1.75036 10.25840
# Poissons Ratio (z) = 0.84673 0.99224
#
# Static dielectric constant tensor:
#      x y z
#    x 1.685870 0.000000 -0.000370 
#    y 0.000000 1.670050 0.000000 
#    z -0.000370 0.000000 1.742470 
# 
# From -- ./inp_files/353330.got.cif
#   From: 2010.05.17/outbox.ucp.g08.bks.cvg/sg12_177_cif.got.tgz:353330.got - 2010.06.11 11:47:21.
