data_PCOD9225050
_publ_section_title
;
Structure prediction by ZEFSAII (Michael W. Deem and Ramdas Pophale) SiO2 
 PCOD9225050
Probable space group: C 2/M
;
_chemical_formula_sum "Si O2"
_cell_formula_units_Z 24
_cell_length_a 15.000000
_cell_length_b 30.000000
_cell_length_c 15.000000
_cell_angle_alpha 90.000000
_cell_angle_beta 160.000000
_cell_angle_gamma 90.000000
_cell_volume 2308.635967
_symmetry_space_group_name_H-M "C 2/M"
_symmetry_group_IT_number 12
_symmetry_cell_setting 'monoclinic'
loop_
_space_group_symop_operation_xyz
x,y,z
-x,y,-z
-x,-y,-z
x,-y,z
1/2+x,1/2+y,z
1/2-x,1/2+y,-z
1/2-x,1/2-y,-z
1/2+x,1/2-y,z
loop_
_atom_site_type_symbol
_atom_site_label
_atom_site_fract_x
_atom_site_fract_y
_atom_site_fract_z
Si Si1 0.778044 0.450246 0.109487
Si Si2 0.210926 0.738993 0.276834
Si Si3 0.066541 0.360664 0.666111
Si Si4 0.401985 0.351948 0.512675
Si Si5 0.659383 0.551574 0.454339
Si Si6 0.032543 0.822206 0.227037
O O1 0.744316 0.500000 0.116236
O O2 0.819463 0.410840 0.219332
O O3 0.046341 0.449521 0.305525
O O4 0.543826 0.442384 0.818968
O O5 0.500000 0.744290 0.500000
O O6 0.195676 0.688686 0.302615
O O7 0.143539 0.774687 0.292252
O O8 0.000000 0.744525 0.000000
O O9 0.785881 0.353942 0.449392
O O10 0.000000 0.349118 0.500000
O O11 0.287038 0.333759 0.930793
O O12 0.500000 0.355139 0.500000
O O13 0.358545 0.404005 0.500071
O O14 0.535300 0.330760 0.730786
O O15 0.607618 0.500000 0.440890
#
# Coordination Sequence:
#
# PCOD9225050 Si02
#       6
#     8   8   8   8   8   8
#     4  10  20  39  63  92 131 172 215 272 336 394
#     4  11  25  45  68 100 136 175 221 275 331 402
#     4  12  23  39  68  99 130 177 224 270 330 401
#     4  11  25  44  70 100 134 175 231 275 330 389
#     4  10  21  41  67  93 131 176 218 272 335 390
#     4  12  24  44  66  97 137 179 215 272 333 393
#
# _framework density 10.395749
#
# number of rings (size 3 to 8) (size 9 to 14) (size 15 to 20)
#    0.000    1.000    3.333    3.500    0.000    6.000 
#    0.000    5.833    0.000    8.500    0.000    0.000 
#    0.000    0.000    0.000    0.000    0.000    0.000 
#
# Total GULP energy -133696.340538 kJ/mol
# GULP energy per Si atom -5570.680856 kJ/mol
# Density = 1.037209 g / cm^3
# Si number density = 10.395749 Si / 1000 Ang^3
#
#
#
# Elastic Constant Matrix: (Units=GPa)
#
#
# Indices 1 2 3 4 5 6 
#
# 1 99.2545 20.2121 32.9492 -0.0007 -24.9717 -0.0001
# 2 20.2121 153.7863 12.4580 -0.0005 -12.5652 0.0002
# 3 32.9492 12.4580 143.2474 -0.0028 -1.4120 -0.0018
# 4 -0.0007 -0.0005 -0.0028 38.4375 -0.0032 -10.5363
# 5 -24.9717 -12.5652 -1.4120 -0.0032 32.8787 -0.0020
# 6 -0.0001 0.0002 -0.0018 -10.5363 -0.0020 45.5647
#
#
#
# Elastic Compliance Matrix: (Units=1/GPa)
#
#
# Indices 1 2 3 4 5 6 
#
# 1 0.013744 -0.000744 -0.002998 0.000001 0.010026 0.000001
# 2 -0.000744 0.006797 -0.000400 0.000000 0.002015 0.000000
# 3 -0.002998 -0.000400 0.007685 0.000000 -0.002100 0.000000
# 4 0.000001 0.000000 0.000000 0.027777 0.000004 0.006423
# 5 0.010026 0.002015 -0.002100 0.000004 0.038709 0.000002
# 6 0.000001 0.000000 0.000000 0.006423 0.000002 0.023432
#
#
# Mechanical properties :
#
#
# Convention : Reuss Voigt Hill
#
# Bulk Modulus (GPa) = 50.14632 58.61409 54.38020
# Shear Modulus (GPa) = 37.57238 45.42079 41.49659
#
# Velocity S-wave (km/s) = 4.25562 4.67902 4.47233
# Velocity P-wave (km/s) = 6.95112 7.57916 7.27192
#
# Compressibility (1/GPa) = 0.01994164
#
# Stress axis : x y z
#
# Youngs Moduli (GPa) = 72.75755 147.11446 130.13083
#
# Poissons Ratio (x) = 0.10951 0.39011
# Poissons Ratio (y) = 0.05416 0.05206
# Poissons Ratio (z) = 0.21812 0.05886
#
# Static dielectric constant tensor:
#      x y z
#    x 1.770020 0.000000 0.018010 
#    y 0.000000 1.838900 0.000000 
#    z 0.018010 0.000000 1.734560 
# 
# From -- ./inp_files/219596.got.cif
#   From: 2010.05.17/outbox.ucp.g08.bks.cvg/sg12_110_cif.got.tgz:219596.got - 2010.06.11 11:47:21.
