data_PCOD9225022
_publ_section_title
;
Structure prediction by ZEFSAII (Michael W. Deem and Ramdas Pophale) SiO2 
 PCOD9225022
Probable space group: C 2/M
;
_chemical_formula_sum "Si O2"
_cell_formula_units_Z 32
_cell_length_a 18.000000
_cell_length_b 9.000000
_cell_length_c 30.000000
_cell_angle_alpha 90.000000
_cell_angle_beta 140.000000
_cell_angle_gamma 90.000000
_cell_volume 3123.947783
_symmetry_space_group_name_H-M "C 2/M"
_symmetry_group_IT_number 12
_symmetry_cell_setting 'monoclinic'
loop_
_space_group_symop_operation_xyz
x,y,z
-x,y,-z
-x,-y,-z
x,-y,z
1/2+x,1/2+y,z
1/2-x,1/2+y,-z
1/2-x,1/2-y,-z
1/2+x,1/2-y,z
loop_
_atom_site_type_symbol
_atom_site_label
_atom_site_fract_x
_atom_site_fract_y
_atom_site_fract_z
Si Si1 0.165662 0.668205 0.270201
Si Si2 0.948954 0.169876 0.281648
Si Si3 0.612103 0.173218 0.662086
Si Si4 0.026603 0.822446 0.875560
Si Si5 0.828343 0.666974 0.620421
Si Si6 0.189839 0.824122 0.869672
Si Si7 0.559246 0.324763 0.479321
Si Si8 0.408448 0.328066 0.917675
O O1 0.146301 0.500000 0.244863
O O2 0.291858 0.726347 0.316837
O O3 0.076879 0.775335 0.204568
O O4 0.160152 0.665017 0.320834
O O5 0.884001 0.282778 0.284291
O O6 0.913896 0.192090 0.214125
O O7 0.082264 0.207042 0.352280
O O8 0.920925 0.000000 0.280420
O O9 0.494518 0.223510 0.583812
O O10 0.633378 0.000000 0.665542
O O11 0.977538 0.774821 0.903349
O O12 0.140413 0.772465 0.896490
O O13 0.040540 0.000000 0.885558
O O14 0.862066 0.500000 0.619908
O O15 0.696543 0.694341 0.546790
O O16 0.297527 0.752422 0.890862
O O17 0.215440 0.000000 0.886245
O O18 0.500000 0.290640 0.500000
O O19 0.536043 0.500000 0.459533
O O20 0.374630 0.500000 0.892773
O O21 0.500000 0.326249 0.000000
#
# Coordination Sequence:
#
# PCOD9225022 Si02
#       8
#     8   8   8   8   8   8   8   8
#     4  11  21  37  61  90 119 152 200 250 304 366
#     4  11  23  40  61  86 119 154 198 250 307 366
#     4  12  25  38  57  85 118 157 203 253 312 371
#     4  10  21  40  64  93 128 167 210 258 313 372
#     4  10  21  37  60  85 114 149 190 245 304 363
#     4  10  22  40  64  94 126 163 208 259 311 369
#     4  10  20  39  60  81 112 153 199 249 307 368
#     4  10  23  42  64  93 131 171 209 252 305 368
#
# _framework density 10.243449
#
# number of rings (size 3 to 8) (size 9 to 14) (size 15 to 20)
#    0.000    1.500    2.500    2.625    0.000    6.500 
#    0.000    0.000    0.000    0.000    0.000    0.000 
#    0.000    0.000    0.000    0.000    0.000    0.000 
#
# Total GULP energy -178288.129114 kJ/mol
# GULP energy per Si atom -5571.504035 kJ/mol
# Density = 1.022013 g / cm^3
# Si number density = 10.243449 Si / 1000 Ang^3
#
#
#
# Elastic Constant Matrix: (Units=GPa)
#
#
# Indices 1 2 3 4 5 6 
#
# 1 113.4699 25.9110 18.0652 0.0000 -4.9898 0.0000
# 2 25.9110 -15.2476 -6.6436 0.0000 4.3927 0.0000
# 3 18.0652 -6.6436 39.7650 0.0000 -2.5295 0.0000
# 4 0.0000 0.0000 0.0000 12.1821 0.0000 -3.7557
# 5 -4.9898 4.3927 -2.5295 0.0000 35.1259 0.0000
# 6 0.0000 0.0000 0.0000 -3.7557 0.0000 31.7213
#
#
#
# Elastic Compliance Matrix: (Units=1/GPa)
#
#
# Indices 1 2 3 4 5 6 
#
# 1 0.006404 0.011189 -0.001076 0.000000 -0.000567 0.000000
# 2 0.011189 -0.039947 -0.011390 0.000000 0.005765 0.000000
# 3 -0.001076 -0.011390 0.023924 0.000000 0.002994 0.000000
# 4 0.000000 0.000000 0.000000 0.085197 0.000000 0.010087
# 5 -0.000567 0.005765 0.002994 0.000000 0.027883 0.000000
# 6 0.000000 0.000000 0.000000 0.010087 0.000000 0.032719
#
#
# Mechanical properties :
#
#
# Convention : Reuss Voigt Hill
#
# Bulk Modulus (GPa) = -82.14442 23.62805 -29.25818
# Shear Modulus (GPa) = 37.12535 22.51616 29.82076
#
# Velocity S-wave (km/s) = 4.26155 3.31879 3.81937
# Velocity P-wave (km/s) = 3.99608 5.12290 2.26666
#
# Compressibility (1/GPa) = -0.01217368
#
# Stress axis : x y z
#
# Youngs Moduli (GPa) = 156.14389 -25.03337 41.79875
#
# Poissons Ratio (x) = 0.28009 0.04499
# Poissons Ratio (y) = -1.74706 0.47610
# Poissons Ratio (z) = 0.16805 -0.28514
#
# Static dielectric constant tensor:
#      x y z
#    x 1.811200 0.000000 0.021710 
#    y 0.000000 1.711670 0.000000 
#    z 0.021710 0.000000 1.730560 
# 
# From -- ./inp_files/378430.got.cif
#   From: 2010.05.17/outbox.ucp.g08.bks.cvg/sg12_190_cif.got.tgz:378430.got - 2010.06.11 11:47:21.
