data_PCOD9225773
_publ_section_title
;
Structure prediction by ZEFSAII (Michael W. Deem and Ramdas Pophale) SiO2 
 PCOD9225773
Probable space group: C 2/M
;
_chemical_formula_sum "Si O2"
_cell_formula_units_Z 32
_cell_length_a 9.000000
_cell_length_b 30.000000
_cell_length_c 15.000000
_cell_angle_alpha 90.000000
_cell_angle_beta 130.000000
_cell_angle_gamma 90.000000
_cell_volume 3102.479995
_symmetry_space_group_name_H-M "C 2/M"
_symmetry_group_IT_number 12
_symmetry_cell_setting 'monoclinic'
loop_
_space_group_symop_operation_xyz
x,y,z
-x,y,-z
-x,-y,-z
x,-y,z
1/2+x,1/2+y,z
1/2-x,1/2+y,-z
1/2-x,1/2-y,-z
1/2+x,1/2-y,z
loop_
_atom_site_type_symbol
_atom_site_label
_atom_site_fract_x
_atom_site_fract_y
_atom_site_fract_z
Si Si1 0.420527 0.865763 0.265193
Si Si2 0.403338 0.876786 0.861772
Si Si3 0.711269 0.279136 0.783943
Si Si4 0.477148 0.377762 0.086303
Si Si5 0.140385 0.450116 0.637862
Si Si6 0.096106 0.053422 0.792705
Si Si7 0.931975 0.780506 0.088872
Si Si8 0.447189 0.779293 0.576502
O O1 0.466835 0.875523 0.178711
O O2 0.190454 0.859270 0.193517
O O3 0.442406 0.911856 0.329089
O O4 0.530458 0.821423 0.345553
O O5 0.297067 0.828648 0.815186
O O6 0.250000 0.918206 0.793172
O O7 0.500000 0.879149 0.000000
O O8 0.548206 0.280462 0.796877
O O9 0.610351 0.257981 0.660163
O O10 0.878208 0.243611 0.874048
O O11 0.390560 0.415874 0.113692
O O12 0.372010 0.330329 0.038419
O O13 0.500000 0.399489 0.000000
O O14 0.143701 0.500000 0.681030
O O15 0.362261 0.442475 0.687959
O O16 0.000000 0.450987 0.500000
O O17 0.139412 0.000000 0.814547
O O18 0.750000 0.750000 0.000000
O O19 0.500000 0.798682 0.500000
O O20 0.250000 0.750000 0.500000
#
# Coordination Sequence:
#
# PCOD9225773 Si02
#       8
#     8   8   8   8   8   8   8   8
#     4  11  24  41  65  96 133 171 220 273 328 399
#     4  12  25  43  64  96 135 177 221 271 331 403
#     4  12  25  40  61  89 127 169 221 266 318 385
#     4  11  22  40  64  95 129 171 223 271 330 397
#     4   9  20  43  74  99 122 164 224 284 337 388
#     4  10  23  43  66  95 133 173 217 277 339 400
#     4  12  23  38  62  95 125 169 215 273 326 378
#     4  12  26  44  63  92 133 180 223 269 335 401
#
# _framework density 10.314329000000001
#
# number of rings (size 3 to 8) (size 9 to 14) (size 15 to 20)
#    0.000    0.875    2.500    5.250    1.750    2.000 
#    0.000    4.375    0.000    2.250    0.000    0.000 
#    0.000    0.000    0.000    0.000    0.000    0.000 
#
# Total GULP energy -178240.723016 kJ/mol
# GULP energy per Si atom -5570.022594 kJ/mol
# Density = 1.029085 g / cm^3
# Si number density = 10.314329 Si / 1000 Ang^3
#
#
#
# Elastic Constant Matrix: (Units=GPa)
#
#
# Indices 1 2 3 4 5 6 
#
# 1 111.9510 48.4606 32.0354 0.0000 -10.0840 0.0000
# 2 48.4606 170.5084 42.4486 0.0000 6.3940 0.0000
# 3 32.0354 42.4486 78.9676 0.0000 7.3036 0.0000
# 4 0.0000 0.0000 0.0000 24.8662 0.0000 -4.0046
# 5 -10.0840 6.3940 7.3036 0.0000 29.1579 0.0000
# 6 0.0000 0.0000 0.0000 -4.0046 0.0000 35.1287
#
#
#
# Elastic Compliance Matrix: (Units=1/GPa)
#
#
# Indices 1 2 3 4 5 6 
#
# 1 0.011645 -0.002556 -0.003864 0.000000 0.005556 0.000000
# 2 -0.002556 0.007342 -0.002742 0.000000 -0.001807 0.000000
# 3 -0.003864 -0.002742 0.016147 0.000000 -0.004780 0.000000
# 4 0.000000 0.000000 0.000000 0.040967 0.000000 0.004670
# 5 0.005556 -0.001807 -0.004780 0.000000 0.037811 0.000000
# 6 0.000000 0.000000 0.000000 0.004670 0.000000 0.028999
#
#
# Mechanical properties :
#
#
# Convention : Reuss Voigt Hill
#
# Bulk Modulus (GPa) = 59.49185 67.47958 63.48571
# Shear Modulus (GPa) = 29.96890 33.72937 31.84914
#
# Velocity S-wave (km/s) = 3.81567 4.04799 3.93355
# Velocity P-wave (km/s) = 6.95086 7.39127 7.17445
#
# Compressibility (1/GPa) = 0.01680903
#
# Stress axis : x y z
#
# Youngs Moduli (GPa) = 85.87324 136.20653 61.93014
#
# Poissons Ratio (x) = 0.34815 0.23930
# Poissons Ratio (y) = 0.21950 0.16984
# Poissons Ratio (z) = 0.33181 0.37354
#
# Static dielectric constant tensor:
#      x y z
#    x 1.853000 0.000000 -0.024320 
#    y 0.000000 1.747210 0.000000 
#    z -0.024320 0.000000 1.847000 
# 
# From -- ./inp_files/201344.got.cif
#   From: 2010.05.17/outbox.ucp.g08.bks.cvg/sg12_101_cif.got.tgz:201344.got - 2010.06.11 11:47:21.
