data_PCOD9225987
_publ_section_title
;
Structure prediction by ZEFSAII (Michael W. Deem and Ramdas Pophale) SiO2 
 PCOD9225987
Probable space group: C 2/M
;
_chemical_formula_sum "Si O2"
_cell_formula_units_Z 18
_cell_length_a 27.000000
_cell_length_b 15.000000
_cell_length_c 9.000000
_cell_angle_alpha 90.000000
_cell_angle_beta 150.000000
_cell_angle_gamma 90.000000
_cell_volume 1822.500000
_symmetry_space_group_name_H-M "C 2/M"
_symmetry_group_IT_number 12
_symmetry_cell_setting 'monoclinic'
loop_
_space_group_symop_operation_xyz
x,y,z
-x,y,-z
-x,-y,-z
x,-y,z
1/2+x,1/2+y,z
1/2-x,1/2+y,-z
1/2-x,1/2-y,-z
1/2+x,1/2-y,z
loop_
_atom_site_type_symbol
_atom_site_label
_atom_site_fract_x
_atom_site_fract_y
_atom_site_fract_z
Si Si1 0.831942 0.817302 0.284886
Si Si2 0.769664 0.667342 0.656968
Si Si3 0.569007 0.000000 0.324306
Si Si4 0.736692 0.500000 0.364321
Si Si5 0.615387 0.500000 0.760843
Si Si6 0.997666 0.327259 0.670937
O O1 0.790406 0.833398 0.343698
O O2 0.848730 0.910174 0.236381
O O3 0.934535 0.760608 0.550124
O O4 0.750000 0.750000 0.000000
O O5 0.750000 0.750000 0.500000
O O6 0.741346 0.583036 0.485132
O O7 0.887341 0.670830 0.988239
O O8 0.551701 0.087495 0.378169
O O9 0.673968 0.000000 0.520328
O O10 0.500000 0.000000 0.000000
O O11 0.650902 0.500000 0.023238
O O12 0.500000 0.500000 0.500000
O O13 0.000000 0.335878 0.500000
#
# Coordination Sequence:
#
# PCOD9225987 Si02
#       6
#     8   8   4   4   4   8
#     4  12  26  47  76 106 145 198 245 294 363 440
#     4  12  26  45  70 105 144 184 239 300 360 427
#     4  12  23  42  70 108 143 178 230 305 364 420
#     4  12  27  47  71 103 145 185 233 303 365 425
#     4  12  29  51  75 106 151 195 249 296 365 445
#     4  12  25  44  72 106 142 185 241 297 362 429
#
# _framework density 9.8765429999999999
#
# number of rings (size 3 to 8) (size 9 to 14) (size 15 to 20)
#    0.000    0.000    4.444    5.667    3.111    0.000 
#    0.000    1.111    0.000    0.000    0.000    0.000 
#    0.000    0.000    0.000    0.000    0.000    0.000 
#
# Total GULP energy -100571.352462 kJ/mol
# GULP energy per Si atom -5587.297359 kJ/mol
# Density = 0.985406 g / cm^3
# Si number density = 9.876543 Si / 1000 Ang^3
#
#
#
# Elastic Constant Matrix: (Units=GPa)
#
#
# Indices 1 2 3 4 5 6 
#
# 1 214.0901 105.1080 86.1968 0.0000 -12.1907 0.0000
# 2 105.1080 213.2603 72.7427 0.0000 -23.0606 0.0000
# 3 86.1968 72.7427 156.4638 0.0000 -12.3112 0.0000
# 4 0.0000 0.0000 0.0000 20.8293 0.0000 -5.0536
# 5 -12.1907 -23.0606 -12.3112 0.0000 23.9264 0.0000
# 6 0.0000 0.0000 0.0000 -5.0536 0.0000 61.7079
#
#
#
# Elastic Compliance Matrix: (Units=1/GPa)
#
#
# Indices 1 2 3 4 5 6 
#
# 1 0.006993 -0.002562 -0.002684 0.000000 -0.000287 0.000000
# 2 -0.002562 0.006950 -0.001454 0.000000 0.004645 0.000000
# 3 -0.002684 -0.001454 0.008679 0.000000 0.001697 0.000000
# 4 0.000000 0.000000 0.000000 0.048983 0.000000 0.004011
# 5 -0.000287 0.004645 0.001697 0.000000 0.046998 0.000000
# 6 0.000000 0.000000 0.000000 0.004011 0.000000 0.016534
#
#
# Mechanical properties :
#
#
# Convention : Reuss Voigt Hill
#
# Bulk Modulus (GPa) = 108.43659 123.54547 115.99103
# Shear Modulus (GPa) = 32.97882 42.61051 37.79466
#
# Velocity S-wave (km/s) = 4.09045 4.64956 4.37894
# Velocity P-wave (km/s) = 8.79342 9.56584 9.18775
#
# Compressibility (1/GPa) = 0.00922198
#
# Stress axis : x y z
#
# Youngs Moduli (GPa) = 142.99813 143.87958 115.21436
#
# Poissons Ratio (x) = 0.36865 0.30923
# Poissons Ratio (y) = 0.36639 0.16755
# Poissons Ratio (z) = 0.38380 0.20924
#
# Static dielectric constant tensor:
#      x y z
#    x 1.628510 0.000000 0.004170 
#    y 0.000000 1.668750 0.000000 
#    z 0.004170 0.000000 1.635540 
# 
# From -- ./inp_files/105118.got.cif
#   From: 2010.05.17/outbox.ucp.g08.bks.cvg/sg12_53_cif.got.tgz:105118.got - 2010.06.11 11:47:21.
