data_PCOD9225287
_publ_section_title
;
Structure prediction by ZEFSAII (Michael W. Deem and Ramdas Pophale) SiO2 
 PCOD9225287
Probable space group: C 2/M
;
_chemical_formula_sum "Si O2"
_cell_formula_units_Z 32
_cell_length_a 18.000000
_cell_length_b 9.000000
_cell_length_c 30.000000
_cell_angle_alpha 90.000000
_cell_angle_beta 40.000000
_cell_angle_gamma 90.000000
_cell_volume 3123.947783
_symmetry_space_group_name_H-M "C 2/M"
_symmetry_group_IT_number 12
_symmetry_cell_setting 'monoclinic'
loop_
_space_group_symop_operation_xyz
x,y,z
-x,y,-z
-x,-y,-z
x,-y,z
1/2+x,1/2+y,z
1/2-x,1/2+y,-z
1/2-x,1/2-y,-z
1/2+x,1/2-y,z
loop_
_atom_site_type_symbol
_atom_site_label
_atom_site_fract_x
_atom_site_fract_y
_atom_site_fract_z
Si Si1 0.319623 0.679479 0.723613
Si Si2 0.865141 0.673637 0.119299
Si Si3 0.042477 0.830896 0.187477
Si Si4 0.227068 0.172231 0.917837
Si Si5 0.429575 0.331565 0.932044
Si Si6 0.300165 0.821402 0.545643
Si Si7 0.077002 0.178061 0.589527
Si Si8 0.278302 0.320107 0.321225
O O1 0.311335 0.500000 0.725293
O O2 0.238316 0.730298 0.801283
O O3 0.453732 0.720329 0.666336
O O4 0.274968 0.746914 0.697897
O O5 0.849860 0.500000 0.119900
O O6 0.863564 0.749593 0.072402
O O7 0.981590 0.710988 0.091309
O O8 0.149478 0.734581 0.153306
O O9 0.060122 0.830775 0.125821
O O10 0.914654 0.780386 0.259472
O O11 0.056069 0.000000 0.197637
O O12 0.225687 0.000000 0.910178
O O13 0.189526 0.195439 0.986499
O O14 0.465555 0.500000 0.929182
O O15 0.180905 0.780716 0.575026
O O16 0.399240 0.750092 0.469620
O O17 0.286462 0.776613 0.603400
O O18 0.312142 0.000000 0.539000
O O19 0.079789 0.000000 0.583233
O O20 0.273663 0.500000 0.319554
#
# Coordination Sequence:
#
# PCOD9225287 Si02
#       8
#     8   8   8   8   8   8   8   8
#     4  10  22  38  58  83 113 150 189 233 279 330
#     4  11  23  38  59  85 114 150 193 238 284 338
#     4  10  21  38  60  84 113 151 190 232 286 340
#     4  11  24  38  57  85 115 149 190 238 287 339
#     4  10  21  40  61  82 114 151 188 234 288 342
#     4   9  19  36  59  86 113 145 185 227 273 328
#     4   9  19  37  59  82 113 149 183 225 276 327
#     4  10  21  37  60  84 113 151 187 231 281 332
#
# _framework density 10.243449
#
# number of rings (size 3 to 8) (size 9 to 14) (size 15 to 20)
#    0.000    2.000    1.250    1.500    1.750    5.500 
#    0.000    2.500    0.000    0.000    0.000    0.000 
#    0.000    0.000    0.000    0.000    0.000    0.000 
#
# Total GULP energy -178553.525835 kJ/mol
# GULP energy per Si atom -5579.797682 kJ/mol
# Density = 1.022013 g / cm^3
# Si number density = 10.243449 Si / 1000 Ang^3
#
#
#
# Elastic Constant Matrix: (Units=GPa)
#
#
# Indices 1 2 3 4 5 6 
#
# 1 28.9250 32.2446 -9.2168 0.0001 11.5847 0.0002
# 2 32.2446 -6.8172 18.0143 0.0001 -3.8623 0.0011
# 3 -9.2168 18.0143 33.3177 -0.0001 0.6265 0.0000
# 4 0.0001 0.0001 -0.0001 22.1390 0.0000 -0.9323
# 5 11.5847 -3.8623 0.6265 0.0000 32.1229 0.0000
# 6 0.0002 0.0011 0.0000 -0.9323 0.0000 27.5993
#
#
#
# Elastic Compliance Matrix: (Units=1/GPa)
#
#
# Indices 1 2 3 4 5 6 
#
# 1 0.009098 0.020616 -0.008618 0.000000 -0.000634 -0.000001
# 2 0.020616 -0.011737 0.012220 0.000000 -0.009085 0.000000
# 3 -0.008618 0.012220 0.020944 0.000000 0.004169 0.000000
# 4 0.000000 0.000000 0.000000 0.045234 0.000000 0.001528
# 5 -0.000634 -0.009085 0.004169 0.000000 0.030186 0.000000
# 6 -0.000001 0.000000 0.000000 0.001528 0.000000 0.036284
#
#
# Mechanical properties :
#
#
# Convention : Reuss Voigt Hill
#
# Bulk Modulus (GPa) = 14.98326 15.27886 15.13106
# Shear Modulus (GPa) = 48.16051 17.33113 32.74582
#
# Velocity S-wave (km/s) = 4.85376 2.91170 4.00231
# Velocity P-wave (km/s) = 6.22426 4.33336 5.36281
#
# Compressibility (1/GPa) = 0.06674113
#
# Stress axis : x y z
#
# Youngs Moduli (GPa) = 109.91910 -85.20057 47.74536
#
# Poissons Ratio (x) = 1.75652 0.41148
# Poissons Ratio (y) = -2.26612 -0.58345
# Poissons Ratio (z) = 0.94731 1.04115
#
# Static dielectric constant tensor:
#      x y z
#    x 1.746370 0.000000 -0.010050 
#    y 0.000000 1.698340 0.000000 
#    z -0.010050 0.000000 1.723810 
# 
# From -- ./inp_files/346170.got.cif
#   From: 2010.05.17/outbox.ucp.g08.bks.cvg/sg12_174_cif.got.tgz:346170.got - 2010.06.11 11:47:21.
