data_PCOD9225563
_publ_section_title
;
Structure prediction by ZEFSAII (Michael W. Deem and Ramdas Pophale) SiO2 
 PCOD9225563
Probable space group: C 2/M
;
_chemical_formula_sum "Si O2"
_cell_formula_units_Z 25
_cell_length_a 15.000000
_cell_length_b 9.000000
_cell_length_c 21.000000
_cell_angle_alpha 90.000000
_cell_angle_beta 100.000000
_cell_angle_gamma 90.000000
_cell_volume 2791.929980
_symmetry_space_group_name_H-M "C 2/M"
_symmetry_group_IT_number 12
_symmetry_cell_setting 'monoclinic'
loop_
_space_group_symop_operation_xyz
x,y,z
-x,y,-z
-x,-y,-z
x,-y,z
1/2+x,1/2+y,z
1/2-x,1/2+y,-z
1/2-x,1/2-y,-z
1/2+x,1/2-y,z
loop_
_atom_site_type_symbol
_atom_site_label
_atom_site_fract_x
_atom_site_fract_y
_atom_site_fract_z
Si Si1 0.992709 0.677805 0.699795
Si Si2 0.298730 0.322019 0.683760
Si Si3 0.904374 0.179107 0.166453
Si Si4 0.118174 0.833361 0.615809
Si Si5 0.469800 0.178551 0.922656
Si Si6 0.500000 0.500000 0.500000
Si Si7 0.709703 0.321594 0.163005
O O1 0.988028 0.500000 0.707020
O O2 0.894382 0.749681 0.677489
O O3 0.040332 0.752176 0.767098
O O4 0.054268 0.725756 0.648305
O O5 0.297035 0.500000 0.671491
O O6 0.217357 0.240419 0.635674
O O7 0.293885 0.301238 0.760263
O O8 0.802908 0.243014 0.154610
O O9 0.955214 0.240899 0.110975
O O10 0.905693 0.000000 0.169387
O O11 0.067078 0.872106 0.542921
O O12 0.123466 0.000000 0.647251
O O13 0.374615 0.248728 0.885663
O O14 0.467307 0.000000 0.911126
O O15 0.500000 0.201280 0.000000
O O16 0.711193 0.500000 0.151861
#
# Coordination Sequence:
#
# PCOD9225563 Si02
#       7
#     8   8   8   8   8   2   8
#     4  12  23  37  64  99 129 165 212 269 320 369
#     4  11  22  37  64 100 128 164 214 268 317 369
#     4  12  24  39  63  95 127 167 214 271 323 379
#     4  10  21  42  67  91 129 167 205 255 314 375
#     4  11  25  44  64  89 128 173 216 267 327 389
#     4   8  24  44  70  92 136 170 210 248 320 376
#     4  11  23  39  63  95 127 165 216 271 319 381
#
# _framework density 8.9543789999999994
#
# number of rings (size 3 to 8) (size 9 to 14) (size 15 to 20)
#    0.480    0.480    3.200    4.800    0.000    3.200 
#    0.000    2.400    0.000    0.000    0.000    0.000 
#    0.000    0.000    0.000    0.000    0.000    0.000 
#
# Total GULP energy -139239.450774 kJ/mol
# GULP energy per Si atom -5569.578031 kJ/mol
# Density = 0.893400 g / cm^3
# Si number density = 8.954379 Si / 1000 Ang^3
#
#
#
# Elastic Constant Matrix: (Units=GPa)
#
#
# Indices 1 2 3 4 5 6 
#
# 1 122.8432 33.6520 2.9625 0.0000 20.9231 0.0000
# 2 33.6520 131.2768 14.4620 0.0000 16.8066 0.0000
# 3 2.9625 14.4620 38.0399 0.0000 25.7417 0.0000
# 4 0.0000 0.0000 0.0000 33.5315 0.0000 8.6562
# 5 20.9231 16.8066 25.7417 0.0000 30.4018 0.0000
# 6 0.0000 0.0000 0.0000 8.6562 0.0000 38.7638
#
#
#
# Elastic Compliance Matrix: (Units=1/GPa)
#
#
# Indices 1 2 3 4 5 6 
#
# 1 0.010993 -0.002009 0.010013 0.000000 -0.014933 0.000000
# 2 -0.002009 0.008565 -0.001947 0.000000 -0.001704 0.000000
# 3 0.010013 -0.001947 0.070683 0.000000 -0.065664 0.000000
# 4 0.000000 0.000000 0.000000 0.031647 0.000000 -0.007067
# 5 -0.014933 -0.001704 -0.065664 0.000000 0.099710 0.000000
# 6 0.000000 0.000000 0.000000 -0.007067 0.000000 0.027375
#
#
# Mechanical properties :
#
#
# Convention : Reuss Voigt Hill
#
# Bulk Modulus (GPa) = 9.76997 43.81255 26.79126
# Shear Modulus (GPa) = 18.45163 36.61164 27.53163
#
# Velocity S-wave (km/s) = 3.21333 4.52635 3.92513
# Velocity P-wave (km/s) = 4.38573 7.19962 5.96109
#
# Compressibility (1/GPa) = 0.10235442
#
# Stress axis : x y z
#
# Youngs Moduli (GPa) = 90.96849 116.75230 14.14762
#
# Poissons Ratio (x) = 0.23458 -0.14166
# Poissons Ratio (y) = 0.18278 0.02755
# Poissons Ratio (z) = -0.91085 0.22732
#
# Static dielectric constant tensor:
#      x y z
#    x 1.639960 0.000000 -0.015420 
#    y 0.000000 1.603020 0.000000 
#    z -0.015420 0.000000 1.624150 
# 
# From -- ./inp_files/308547.got.cif
#   From: 2010.05.17/outbox.ucp.g08.bks.cvg/sg12_155_cif.got.tgz:308547.got - 2010.06.11 11:47:21.
