data_PCOD9225721
_publ_section_title
;
Structure prediction by ZEFSAII (Michael W. Deem and Ramdas Pophale) SiO2 
 PCOD9225721
Probable space group: C 2/M
;
_chemical_formula_sum "Si O2"
_cell_formula_units_Z 20
_cell_length_a 18.000000
_cell_length_b 15.000000
_cell_length_c 21.000000
_cell_angle_alpha 90.000000
_cell_angle_beta 160.000000
_cell_angle_gamma 90.000000
_cell_volume 1939.254213
_symmetry_space_group_name_H-M "C 2/M"
_symmetry_group_IT_number 12
_symmetry_cell_setting 'monoclinic'
loop_
_space_group_symop_operation_xyz
x,y,z
-x,y,-z
-x,-y,-z
x,-y,z
1/2+x,1/2+y,z
1/2-x,1/2+y,-z
1/2-x,1/2-y,-z
1/2+x,1/2-y,z
loop_
_atom_site_type_symbol
_atom_site_label
_atom_site_fract_x
_atom_site_fract_y
_atom_site_fract_z
Si Si1 0.304738 0.291554 0.391539
Si Si2 0.678460 0.099310 0.544949
Si Si3 0.895865 0.295349 0.987319
Si Si4 0.188913 0.096946 0.099152
Si Si5 0.554730 0.604632 0.371543
O O1 0.500000 0.311626 0.500000
O O2 0.286267 0.184156 0.382159
O O3 0.341656 0.334710 0.489843
O O4 0.083725 0.327156 0.184781
O O5 0.424661 0.100743 0.321898
O O6 0.818513 0.112244 0.593312
O O7 0.725965 0.000000 0.609631
O O8 0.834616 0.192239 0.953917
O O9 0.688094 0.357264 0.827331
O O10 0.000000 0.296074 0.000000
O O11 0.179442 0.000000 0.057173
O O12 0.000000 0.095614 0.000000
O O13 0.557237 0.500000 0.391039
#
# Coordination Sequence:
#
# PCOD9225721 Si02
#       5
#     8   8   8   8   8
#     4  12  23  41  69  96 125 166 217 259 318 385
#     4  10  22  42  67  95 131 168 204 262 326 379
#     4  11  22  40  64  95 127 167 213 262 319 370
#     4   9  17  34  61  90 125 161 199 251 311 374
#     4  11  25  45  64  91 131 169 215 267 314 370
#
# _framework density 10.313243
#
# number of rings (size 3 to 8) (size 9 to 14) (size 15 to 20)
#    0.000    1.400    4.000    1.800    0.000    3.600 
#    0.000    0.000    0.000    0.000    0.000    0.000 
#    0.000    0.000    0.000    0.000    0.000    0.000 
#
# Total GULP energy -111723.185087 kJ/mol
# GULP energy per Si atom -5586.159254 kJ/mol
# Density = 1.028977 g / cm^3
# Si number density = 10.313243 Si / 1000 Ang^3
#
#
#
# Elastic Constant Matrix: (Units=GPa)
#
#
# Indices 1 2 3 4 5 6 
#
# 1 26.3550 -1.2722 18.6587 0.0172 17.1185 -0.0015
# 2 -1.2722 70.2106 5.2883 0.0407 10.0050 0.0043
# 3 18.6587 5.2883 139.1022 0.0477 2.0500 -0.0012
# 4 0.0172 0.0407 0.0477 4.1073 0.0123 21.4358
# 5 17.1185 10.0050 2.0500 0.0123 24.9320 -0.0054
# 6 -0.0015 0.0043 -0.0012 21.4358 -0.0054 22.5016
#
#
#
# Elastic Compliance Matrix: (Units=1/GPa)
#
#
# Indices 1 2 3 4 5 6 
#
# 1 0.088383 0.011636 -0.011348 0.000024 -0.064421 -0.000035
# 2 0.011636 0.016672 -0.001981 0.000029 -0.014517 -0.000034
# 3 -0.011348 -0.001981 0.008670 0.000017 0.007874 -0.000014
# 4 0.000024 0.000029 0.000017 -0.061300 0.000014 0.058397
# 5 -0.064421 -0.014517 0.007874 0.000014 0.089519 0.000008
# 6 -0.000035 -0.000034 -0.000014 0.058397 0.000008 -0.011189
#
#
# Mechanical properties :
#
#
# Convention : Reuss Voigt Hill
#
# Bulk Modulus (GPa) = 9.06295 31.22416 20.14356
# Shear Modulus (GPa) = 29.25334 24.50771 26.88052
#
# Velocity S-wave (km/s) = 3.77004 3.45072 3.61391
# Velocity P-wave (km/s) = 4.83263 5.57202 5.21544
#
# Compressibility (1/GPa) = 0.11033932
#
# Stress axis : x y z
#
# Youngs Moduli (GPa) = 11.31437 59.98253 115.33420
#
# Poissons Ratio (x) = -0.69797 1.30886
# Poissons Ratio (y) = -0.13166 0.22845
# Poissons Ratio (z) = 0.12840 0.11881
#
# Static dielectric constant tensor:
#      x y z
#    x 1.689030 0.000000 -0.017590 
#    y 0.000000 1.757100 -0.000020 
#    z -0.017590 -0.000020 1.704580 
# 
# From -- ./inp_files/284404.got.cif
#   From: 2010.05.17/outbox.ucp.g08.bks.cvg/sg12_143_cif.got.tgz:284404.got - 2010.06.11 11:47:21.
