data_PCOD9225364
_publ_section_title
;
Structure prediction by ZEFSAII (Michael W. Deem and Ramdas Pophale) SiO2 
 PCOD9225364
Probable space group: C 2/M
;
_chemical_formula_sum "Si O2"
_cell_formula_units_Z 32
_cell_length_a 30.000000
_cell_length_b 15.000000
_cell_length_c 9.000000
_cell_angle_alpha 90.000000
_cell_angle_beta 130.000000
_cell_angle_gamma 90.000000
_cell_volume 3102.479995
_symmetry_space_group_name_H-M "C 2/M"
_symmetry_group_IT_number 12
_symmetry_cell_setting 'monoclinic'
loop_
_space_group_symop_operation_xyz
x,y,z
-x,y,-z
-x,-y,-z
x,-y,z
1/2+x,1/2+y,z
1/2-x,1/2+y,-z
1/2-x,1/2-y,-z
1/2+x,1/2-y,z
loop_
_atom_site_type_symbol
_atom_site_label
_atom_site_fract_x
_atom_site_fract_y
_atom_site_fract_z
Si Si1 0.055590 0.736543 0.516363
Si Si2 0.364914 0.399370 0.290752
Si Si3 0.441746 0.738141 0.825467
Si Si4 0.270261 0.895999 0.446470
Si Si5 0.249350 0.843757 0.080752
Si Si6 0.110881 0.397253 0.118384
Si Si7 0.163448 0.105261 0.431573
Si Si8 0.140096 0.401729 0.839416
O O1 0.081666 0.833207 0.608454
O O2 0.049085 0.732982 0.325489
O O3 0.105536 0.668083 0.668232
O O4 0.000000 0.718257 0.500000
O O5 0.385142 0.500000 0.329276
O O6 0.333329 0.384420 0.382947
O O7 0.315633 0.381444 0.064100
O O8 0.432454 0.823653 0.911026
O O9 0.387369 0.672308 0.723533
O O10 0.500000 0.689048 0.000000
O O11 0.268281 0.839605 0.292145
O O12 0.332591 0.890318 0.656510
O O13 0.221284 0.872889 0.462872
O O14 0.261090 0.000000 0.383089
O O15 0.294302 0.900946 0.079659
O O16 0.250000 0.750000 0.000000
O O17 0.089487 0.500000 0.078209
O O18 0.131969 0.379299 0.995265
O O19 0.150546 0.000000 0.377418
O O20 0.115132 0.500000 0.764000
#
# Coordination Sequence:
#
# PCOD9225364 Si02
#       8
#     8   8   8   8   8   8   8   8
#     4  11  24  42  63  90 122 157 208 253 300 365
#     4  10  21  41  63  88 123 162 201 248 302 358
#     4  11  24  40  62  88 119 160 201 253 300 354
#     4  10  21  38  60  91 123 157 199 245 297 360
#     4  12  23  35  59  94 128 160 197 246 298 363
#     4  10  23  41  64  90 120 157 201 251 302 357
#     4   9  21  40  63  89 120 158 202 248 299 355
#     4  11  23  42  64  89 123 162 201 250 306 361
#
# _framework density 10.314329000000001
#
# number of rings (size 3 to 8) (size 9 to 14) (size 15 to 20)
#    0.000    1.500    1.250    3.375    3.500    6.000 
#    0.000    0.000    0.000    0.000    0.000    0.000 
#    0.000    0.000    0.000    0.000    0.000    0.000 
#
# Total GULP energy -178781.009242 kJ/mol
# GULP energy per Si atom -5586.906539 kJ/mol
# Density = 1.029085 g / cm^3
# Si number density = 10.314329 Si / 1000 Ang^3
#
#
#
# Elastic Constant Matrix: (Units=GPa)
#
#
# Indices 1 2 3 4 5 6 
#
# 1 24.8104 -8.1488 -26.1092 0.0000 5.6223 0.0000
# 2 -8.1488 58.2298 18.4976 0.0000 2.6639 0.0000
# 3 -26.1092 18.4976 55.0396 0.0000 -1.4395 0.0000
# 4 0.0000 0.0000 0.0000 -21.9881 0.0000 -21.7124
# 5 5.6223 2.6639 -1.4395 0.0000 25.0320 0.0000
# 6 0.0000 0.0000 0.0000 -21.7124 0.0000 21.2035
#
#
#
# Elastic Compliance Matrix: (Units=1/GPa)
#
#
# Indices 1 2 3 4 5 6 
#
# 1 0.087345 -0.000007 0.040985 0.000000 -0.017261 0.000000
# 2 -0.000007 0.019374 -0.006578 0.000000 -0.002439 0.000000
# 3 0.040985 -0.006578 0.039659 0.000000 -0.006225 0.000000
# 4 0.000000 0.000000 0.000000 -0.022613 0.000000 -0.023156
# 5 -0.017261 -0.002439 -0.006225 0.000000 0.043727 0.000000
# 6 0.000000 0.000000 0.000000 -0.023156 0.000000 0.023450
#
#
# Mechanical properties :
#
#
# Convention : Reuss Voigt Hill
#
# Bulk Modulus (GPa) = 4.64730 11.83989 8.24360
# Shear Modulus (GPa) = 25.79088 15.10549 20.44819
#
# Velocity S-wave (km/s) = 3.53972 2.70896 3.15183
# Velocity P-wave (km/s) = 4.35475 3.94165 4.15334
#
# Compressibility (1/GPa) = 0.21517848
#
# Stress axis : x y z
#
# Youngs Moduli (GPa) = 11.44881 51.61678 25.21512
#
# Poissons Ratio (x) = 0.00034 -1.03344
# Poissons Ratio (y) = 0.00008 0.16586
# Poissons Ratio (z) = -0.46923 0.33953
#
# Static dielectric constant tensor:
#      x y z
#    x 1.689560 0.000000 0.018670 
#    y 0.000000 1.757400 0.000000 
#    z 0.018670 0.000000 1.757720 
# 
# From -- ./inp_files/112056.got.cif
#   From: 2010.05.17/outbox.ucp.g08.bks.cvg/sg12_57_cif.got.tgz:112056.got - 2010.06.11 11:47:21.
