data_PCOD9225405
_publ_section_title
;
Structure prediction by ZEFSAII (Michael W. Deem and Ramdas Pophale) SiO2 
 PCOD9225405
Probable space group: C 2/M
;
_chemical_formula_sum "Si O2"
_cell_formula_units_Z 28
_cell_length_a 21.000000
_cell_length_b 18.000000
_cell_length_c 21.000000
_cell_angle_alpha 90.000000
_cell_angle_beta 160.000000
_cell_angle_gamma 90.000000
_cell_volume 2714.955898
_symmetry_space_group_name_H-M "C 2/M"
_symmetry_group_IT_number 12
_symmetry_cell_setting 'monoclinic'
loop_
_space_group_symop_operation_xyz
x,y,z
-x,y,-z
-x,-y,-z
x,-y,z
1/2+x,1/2+y,z
1/2-x,1/2+y,-z
1/2-x,1/2-y,-z
1/2+x,1/2-y,z
loop_
_atom_site_type_symbol
_atom_site_label
_atom_site_fract_x
_atom_site_fract_y
_atom_site_fract_z
Si Si1 0.435750 0.416251 0.792635
Si Si2 0.187580 0.733493 0.754845
Si Si3 0.353656 0.674835 0.118189
Si Si4 0.994434 0.414140 0.349451
Si Si5 0.096227 0.782525 0.172276
Si Si6 0.002616 0.588147 0.204255
Si Si7 0.345184 0.306584 0.493143
O O1 0.499143 0.500000 0.856039
O O2 0.562265 0.373780 0.860195
O O3 0.215542 0.415314 0.571150
O O4 0.450548 0.369316 0.870576
O O5 0.259349 0.730234 0.749406
O O6 0.106151 0.654616 0.707257
O O7 0.023887 0.794010 0.613284
O O8 0.389964 0.752923 0.976165
O O9 0.536035 0.696688 0.330612
O O10 0.250000 0.750000 0.000000
O O11 0.192895 0.625403 0.001502
O O12 0.928545 0.500000 0.300938
O O13 0.988113 0.400700 0.267393
O O14 0.203175 0.757298 0.336457
O O15 0.006067 0.500000 0.194857
O O16 0.195328 0.625538 0.359259
#
# Coordination Sequence:
#
# PCOD9225405 Si02
#       7
#     8   8   8   8   8   8   8
#     4  11  22  39  62  91 131 173 210 252 313 377
#     4  11  24  42  64  92 127 165 221 266 309 366
#     4  12  25  38  63  97 130 170 210 260 313 377
#     4  10  21  38  62  92 130 173 210 252 308 376
#     4  11  25  42  64  94 123 170 218 265 313 369
#     4  11  24  41  64  98 132 165 207 256 322 388
#     4  12  23  42  64  91 126 166 210 261 320 372
#
# _framework density 10.313243
#
# number of rings (size 3 to 8) (size 9 to 14) (size 15 to 20)
#    0.000    0.857    2.857    5.143    0.000    4.571 
#    0.000    2.857    0.000    1.714    0.000    6.000 
#    0.000    0.000    0.000    0.000    0.000    0.000 
#
# Total GULP energy -156085.002298 kJ/mol
# GULP energy per Si atom -5574.464368 kJ/mol
# Density = 1.028977 g / cm^3
# Si number density = 10.313243 Si / 1000 Ang^3
#
#
#
# Elastic Constant Matrix: (Units=GPa)
#
#
# Indices 1 2 3 4 5 6 
#
# 1 89.0983 51.9447 37.6454 -0.0017 30.6669 0.0002
# 2 51.9447 132.3670 46.0126 -0.0182 17.4926 -0.0118
# 3 37.6454 46.0126 147.6747 -0.0343 27.9596 -0.0206
# 4 -0.0017 -0.0182 -0.0343 30.1986 -0.0127 10.9793
# 5 30.6669 17.4926 27.9596 -0.0127 45.0226 -0.0051
# 6 0.0002 -0.0118 -0.0206 10.9793 -0.0051 22.9600
#
#
#
# Elastic Compliance Matrix: (Units=1/GPa)
#
#
# Indices 1 2 3 4 5 6 
#
# 1 0.018184 -0.005484 -0.001116 -0.000006 -0.009562 -0.000003
# 2 -0.005484 0.010268 -0.001987 0.000003 0.000980 0.000002
# 3 -0.001116 -0.001987 0.008369 0.000006 -0.003665 0.000003
# 4 -0.000006 0.000003 0.000006 0.040083 0.000009 -0.019167
# 5 -0.009562 0.000980 -0.003665 0.000009 0.030619 0.000000
# 6 -0.000003 0.000002 0.000003 -0.019167 0.000000 0.052720
#
#
# Mechanical properties :
#
#
# Convention : Reuss Voigt Hill
#
# Bulk Modulus (GPa) = 50.90030 71.14951 61.02490
# Shear Modulus (GPa) = 27.17899 35.20540 31.19219
#
# Velocity S-wave (km/s) = 3.63392 4.13583 3.89297
# Velocity P-wave (km/s) = 6.50675 7.57469 7.06094
#
# Compressibility (1/GPa) = 0.01964625
#
# Stress axis : x y z
#
# Youngs Moduli (GPa) = 54.99485 97.38954 119.48597
#
# Poissons Ratio (x) = 0.53410 0.13338
# Poissons Ratio (y) = 0.30160 0.23740
# Poissons Ratio (z) = 0.06139 0.19350
#
# Static dielectric constant tensor:
#      x y z
#    x 1.787090 0.000000 -0.055500 
#    y 0.000000 1.771540 0.000000 
#    z -0.055500 0.000000 1.812790 
# 
# From -- ./inp_files/322742.got.cif
#   From: 2010.05.17/outbox.ucp.g08.bks.cvg/sg12_162_cif.got.tgz:322742.got - 2010.06.11 11:47:21.
