data_PCOD9225546
_publ_section_title
;
Structure prediction by ZEFSAII (Michael W. Deem and Ramdas Pophale) SiO2 
 PCOD9225546
Probable space group: C 2/M
;
_chemical_formula_sum "Si O2"
_cell_formula_units_Z 28
_cell_length_a 18.000000
_cell_length_b 9.000000
_cell_length_c 18.000000
_cell_angle_alpha 90.000000
_cell_angle_beta 70.000000
_cell_angle_gamma 90.000000
_cell_volume 2740.143682
_symmetry_space_group_name_H-M "C 2/M"
_symmetry_group_IT_number 12
_symmetry_cell_setting 'monoclinic'
loop_
_space_group_symop_operation_xyz
x,y,z
-x,y,-z
-x,-y,-z
x,-y,z
1/2+x,1/2+y,z
1/2-x,1/2+y,-z
1/2-x,1/2-y,-z
1/2+x,1/2-y,z
loop_
_atom_site_type_symbol
_atom_site_label
_atom_site_fract_x
_atom_site_fract_y
_atom_site_fract_z
Si Si1 0.300765 0.824152 0.132225
Si Si2 0.685824 0.171723 0.426222
Si Si3 0.550035 0.169290 0.348900
Si Si4 0.103108 0.174695 0.591646
Si Si5 0.422323 0.320952 0.979527
Si Si6 0.170453 0.322565 0.705982
Si Si7 0.887662 0.177210 0.821532
O O1 0.323771 0.777548 0.209079
O O2 0.207370 0.805084 0.150296
O O3 0.317899 0.000000 0.121304
O O4 0.349304 0.740381 0.052233
O O5 0.616566 0.166291 0.389128
O O6 0.659028 0.240289 0.513869
O O7 0.750051 0.274249 0.363831
O O8 0.712547 0.000000 0.427687
O O9 0.484430 0.280615 0.401288
O O10 0.579532 0.229182 0.259065
O O11 0.519181 0.000000 0.351763
O O12 0.109083 0.236768 0.674199
O O13 0.116114 0.000000 0.584998
O O14 0.419564 0.500000 0.980279
O O15 0.418320 0.276750 0.893506
O O16 0.500000 0.274623 0.000000
O O17 0.159204 0.500000 0.706951
O O18 0.905073 0.000000 0.805496
#
# Coordination Sequence:
#
# PCOD9225546 Si02
#       7
#     8   8   8   8   8   8   8
#     4  10  22  40  64  91 122 163 209 255 303 365
#     4  11  23  42  65  92 125 163 210 260 313 372
#     4  11  24  41  64  94 126 163 209 260 312 370
#     4  12  26  41  62  90 126 169 210 259 316 370
#     4  10  23  40  62  94 129 162 201 253 309 368
#     4  11  23  41  64  92 127 164 210 261 312 370
#     4  10  21  41  64  90 125 166 210 252 305 370
#
# _framework density 10.218442
#
# number of rings (size 3 to 8) (size 9 to 14) (size 15 to 20)
#    0.000    1.286    1.429    3.857    2.000    6.000 
#    0.000    0.000    0.000    0.000    0.000    0.000 
#    0.000    0.000    0.000    0.000    0.000    0.000 
#
# Total GULP energy -156429.461180 kJ/mol
# GULP energy per Si atom -5586.766471 kJ/mol
# Density = 1.019518 g / cm^3
# Si number density = 10.218442 Si / 1000 Ang^3
#
#
#
# Elastic Constant Matrix: (Units=GPa)
#
#
# Indices 1 2 3 4 5 6 
#
# 1 72.6579 23.5941 17.0782 0.0000 10.7632 0.0000
# 2 23.5941 70.0673 36.1468 0.0000 8.3942 0.0000
# 3 17.0782 36.1468 92.0426 0.0000 24.9397 0.0000
# 4 0.0000 0.0000 0.0000 35.7678 0.0000 0.2615
# 5 10.7632 8.3942 24.9397 0.0000 37.2567 0.0000
# 6 0.0000 0.0000 0.0000 0.2615 0.0000 24.9801
#
#
#
# Elastic Compliance Matrix: (Units=1/GPa)
#
#
# Indices 1 2 3 4 5 6 
#
# 1 0.015880 -0.004885 -0.000102 0.000000 -0.003419 0.000000
# 2 -0.004885 0.019422 -0.007229 0.000000 0.001874 0.000000
# 3 -0.000102 -0.007229 0.016214 0.000000 -0.009196 0.000000
# 4 0.000000 0.000000 0.000000 0.027960 0.000000 -0.000293
# 5 -0.003419 0.001874 -0.009196 0.000000 0.033562 0.000000
# 6 0.000000 0.000000 0.000000 -0.000293 0.000000 0.040035
#
#
# Mechanical properties :
#
#
# Convention : Reuss Voigt Hill
#
# Bulk Modulus (GPa) = 36.92174 43.15623 40.03899
# Shear Modulus (GPa) = 26.80514 30.13083 28.46799
#
# Velocity S-wave (km/s) = 3.62554 3.84387 3.73630
# Velocity P-wave (km/s) = 5.96921 6.39243 6.18444
#
# Compressibility (1/GPa) = 0.02708431
#
# Stress axis : x y z
#
# Youngs Moduli (GPa) = 62.97281 51.48887 61.67582
#
# Poissons Ratio (x) = 0.25154 0.00626
# Poissons Ratio (y) = 0.30764 0.44583
# Poissons Ratio (z) = 0.00639 0.37220
#
# Static dielectric constant tensor:
#      x y z
#    x 1.824000 0.000000 -0.008950 
#    y 0.000000 1.697230 0.000000 
#    z -0.008950 0.000000 1.675500 
# 
# From -- ./inp_files/275180.got.cif
#   From: 2010.05.17/outbox.ucp.g08.bks.cvg/sg12_138_cif.got.tgz:275180.got - 2010.06.11 11:47:21.
