data_PCOD9225470
_publ_section_title
;
Structure prediction by ZEFSAII (Michael W. Deem and Ramdas Pophale) SiO2 
 PCOD9225470
Probable space group: C 2/M
;
_chemical_formula_sum "Si O2"
_cell_formula_units_Z 24
_cell_length_a 15.000000
_cell_length_b 18.000000
_cell_length_c 18.000000
_cell_angle_alpha 90.000000
_cell_angle_beta 30.000000
_cell_angle_gamma 90.000000
_cell_volume 2430.000000
_symmetry_space_group_name_H-M "C 2/M"
_symmetry_group_IT_number 12
_symmetry_cell_setting 'monoclinic'
loop_
_space_group_symop_operation_xyz
x,y,z
-x,y,-z
-x,-y,-z
x,-y,z
1/2+x,1/2+y,z
1/2-x,1/2+y,-z
1/2-x,1/2-y,-z
1/2+x,1/2-y,z
loop_
_atom_site_type_symbol
_atom_site_label
_atom_site_fract_x
_atom_site_fract_y
_atom_site_fract_z
Si Si1 0.707037 0.622548 0.822841
Si Si2 0.178651 0.088175 0.673359
Si Si3 0.067739 0.369021 0.649742
Si Si4 0.783804 0.916384 0.643391
Si Si5 0.799700 0.299711 0.169265
Si Si6 0.095900 0.783098 0.168123
O O1 0.738692 0.589926 0.717136
O O2 0.723187 0.711753 0.800164
O O3 0.866535 0.603259 0.767583
O O4 0.500000 0.606966 0.000000
O O5 0.316649 0.118416 0.509815
O O6 0.017539 0.149436 0.785991
O O7 0.138800 0.000000 0.685409
O O8 0.189695 0.403534 0.629663
O O9 0.024201 0.286191 0.714403
O O10 0.728560 0.850306 0.738541
O O11 0.000000 0.915960 0.500000
O O12 0.726392 0.000000 0.707637
O O13 0.680772 0.316220 0.182544
O O14 0.000000 0.311404 0.000000
O O15 0.250000 0.750000 0.000000
#
# Coordination Sequence:
#
# PCOD9225470 Si02
#       6
#     8   8   8   8   8   8
#     4  10  23  44  68  95 129 174 225 279 341 411
#     4  12  25  41  65  99 137 173 220 287 353 409
#     4  11  23  42  69  95 129 179 230 277 336 412
#     4  11  24  41  61  89 129 171 212 268 334 396
#     4  10  21  39  64  91 121 161 217 272 319 391
#     4  11  23  44  71  97 130 179 231 277 335 411
#
# _framework density 9.8765429999999999
#
# number of rings (size 3 to 8) (size 9 to 14) (size 15 to 20)
#    0.000    1.167    0.000    7.500    0.000    8.667 
#    0.000    8.333    0.000    0.000    0.000    0.000 
#    0.000    0.000    0.000    0.000    0.000    0.000 
#
# Total GULP energy -133756.960339 kJ/mol
# GULP energy per Si atom -5573.206681 kJ/mol
# Density = 0.985406 g / cm^3
# Si number density = 9.876543 Si / 1000 Ang^3
#
#
#
# Elastic Constant Matrix: (Units=GPa)
#
#
# Indices 1 2 3 4 5 6 
#
# 1 170.9340 27.1825 34.5597 0.0076 -3.6115 -0.0044
# 2 27.1825 93.5906 44.6958 -0.0025 -0.0724 -0.0172
# 3 34.5597 44.6958 103.1617 -0.0107 5.9776 0.0024
# 4 0.0076 -0.0025 -0.0107 16.0889 0.0013 10.5685
# 5 -3.6115 -0.0724 5.9776 0.0013 45.7809 0.0024
# 6 -0.0044 -0.0172 0.0024 10.5685 0.0024 17.1786
#
#
#
# Elastic Compliance Matrix: (Units=1/GPa)
#
#
# Indices 1 2 3 4 5 6 
#
# 1 0.006379 -0.001023 -0.001736 -0.000008 0.000728 0.000006
# 2 -0.001023 0.013665 -0.005617 -0.000018 0.000674 0.000025
# 3 -0.001736 -0.005617 0.012814 0.000023 -0.001819 -0.000022
# 4 -0.000008 -0.000018 0.000023 0.104308 -0.000003 -0.064172
# 5 0.000728 0.000674 -0.001819 -0.000003 0.022139 0.000000
# 6 0.000006 0.000025 -0.000022 -0.064172 0.000000 0.097692
#
#
# Mechanical properties :
#
#
# Convention : Reuss Voigt Hill
#
# Bulk Modulus (GPa) = 62.08737 64.50693 63.29715
# Shear Modulus (GPa) = 17.91357 33.22623 25.56990
#
# Velocity S-wave (km/s) = 3.01470 4.10576 3.60179
# Velocity P-wave (km/s) = 6.60438 7.42993 7.02929
#
# Compressibility (1/GPa) = 0.01610634
#
# Stress axis : x y z
#
# Youngs Moduli (GPa) = 156.75717 73.18013 78.03969
#
# Poissons Ratio (x) = 0.07488 0.13548
# Poissons Ratio (y) = 0.16039 0.43833
# Poissons Ratio (z) = 0.27213 0.41103
#
# Static dielectric constant tensor:
#      x y z
#    x 1.843210 -0.000060 0.012190 
#    y -0.000060 1.728760 0.000000 
#    z 0.012190 0.000000 1.734330 
# 
# From -- ./inp_files/271612.got.cif
#   From: 2010.05.17/outbox.ucp.g08.bks.cvg/sg12_136_cif.got.tgz:271612.got - 2010.06.11 11:47:21.
