data_PCOD9225613
_publ_section_title
;
Structure prediction by ZEFSAII (Michael W. Deem and Ramdas Pophale) SiO2 
 PCOD9225613
Probable space group: C 2/M
;
_chemical_formula_sum "Si O2"
_cell_formula_units_Z 22
_cell_length_a 24.000000
_cell_length_b 18.000000
_cell_length_c 15.000000
_cell_angle_alpha 90.000000
_cell_angle_beta 160.000000
_cell_angle_gamma 90.000000
_cell_volume 2216.290529
_symmetry_space_group_name_H-M "C 2/M"
_symmetry_group_IT_number 12
_symmetry_cell_setting 'monoclinic'
loop_
_space_group_symop_operation_xyz
x,y,z
-x,y,-z
-x,-y,-z
x,-y,z
1/2+x,1/2+y,z
1/2-x,1/2+y,-z
1/2-x,1/2-y,-z
1/2+x,1/2-y,z
loop_
_atom_site_type_symbol
_atom_site_label
_atom_site_fract_x
_atom_site_fract_y
_atom_site_fract_z
Si Si1 0.331034 0.417272 0.300093
Si Si2 0.280846 0.586858 0.435000
Si Si3 0.638068 0.206448 0.904055
Si Si4 0.000000 0.289747 0.000000
Si Si5 0.065381 0.174494 0.937241
Si Si6 0.090154 0.412043 0.539886
O O1 0.500000 0.417953 0.500000
O O2 0.254705 0.500000 0.167801
O O3 0.343369 0.411567 0.425772
O O4 0.239633 0.345235 0.125091
O O5 0.230653 0.500000 0.376166
O O6 0.422962 0.613668 0.714652
O O7 0.144444 0.651314 0.238578
O O8 0.554894 0.272197 0.834793
O O9 0.517290 0.145895 0.679255
O O10 0.750000 0.250000 0.000000
O O11 0.046272 0.232899 0.989758
O O12 0.233697 0.127920 0.190087
O O13 0.099910 0.500000 0.525730
O O14 0.000000 0.413345 0.500000
#
# Coordination Sequence:
#
# PCOD9225613 Si02
#       6
#     8   8   8   4   8   8
#     4  10  22  39  63  97 135 171 215 271 337 401
#     4  11  24  45  70  98 132 178 225 277 335 393
#     4  12  23  38  66  97 135 169 222 266 328 388
#     4  12  25  48  67  98 136 174 230 278 329 394
#     4  12  25  44  70  99 135 174 225 275 333 391
#     4  11  25  44  66 100 140 178 215 267 338 408
#
# _framework density 9.9264960000000002
#
# number of rings (size 3 to 8) (size 9 to 14) (size 15 to 20)
#    0.000    0.727    3.636    4.091    2.545    0.000 
#    0.000    3.636    0.000    0.000    0.000    0.000 
#    0.000    0.000    0.000    0.000    0.000    0.000 
#
# Total GULP energy -122807.830441 kJ/mol
# GULP energy per Si atom -5582.174111 kJ/mol
# Density = 0.990390 g / cm^3
# Si number density = 9.926496 Si / 1000 Ang^3
#
#
#
# Elastic Constant Matrix: (Units=GPa)
#
#
# Indices 1 2 3 4 5 6 
#
# 1 59.4632 39.4610 18.3379 0.0000 8.9202 0.0000
# 2 39.4610 186.5260 59.2444 0.0000 -1.3148 0.0000
# 3 18.3379 59.2444 105.5451 0.0000 6.7559 0.0000
# 4 0.0000 0.0000 0.0000 45.4614 0.0000 -8.5689
# 5 8.9202 -1.3148 6.7559 0.0000 22.3387 0.0000
# 6 0.0000 0.0000 0.0000 -8.5689 0.0000 32.8414
#
#
#
# Elastic Compliance Matrix: (Units=1/GPa)
#
#
# Indices 1 2 3 4 5 6 
#
# 1 0.021173 -0.004312 -0.000715 0.000000 -0.008493 0.000000
# 2 -0.004312 0.007454 -0.003644 0.000000 0.003263 0.000000
# 3 -0.000715 -0.003644 0.011869 0.000000 -0.003519 0.000000
# 4 0.000000 0.000000 0.000000 0.023134 0.000000 0.006036
# 5 -0.008493 0.003263 -0.003519 0.000000 0.049413 0.000000
# 6 0.000000 0.000000 0.000000 0.006036 0.000000 0.032024
#
#
# Mechanical properties :
#
#
# Convention : Reuss Voigt Hill
#
# Bulk Modulus (GPa) = 43.18647 65.06899 54.12773
# Shear Modulus (GPa) = 29.38983 35.76102 32.57543
#
# Velocity S-wave (km/s) = 3.85174 4.24877 4.05511
# Velocity P-wave (km/s) = 6.44837 7.54426 7.01774
#
# Compressibility (1/GPa) = 0.02315540
#
# Stress axis : x y z
#
# Youngs Moduli (GPa) = 47.22953 134.16106 84.25182
#
# Poissons Ratio (x) = 0.57854 0.06020
# Poissons Ratio (y) = 0.20367 0.30697
# Poissons Ratio (z) = 0.03375 0.48882
#
# Static dielectric constant tensor:
#      x y z
#    x 1.722000 0.000000 0.007890 
#    y 0.000000 1.678470 0.000000 
#    z 0.007890 0.000000 1.747140 
# 
# From -- ./inp_files/241395.got.cif
#   From: 2010.05.17/outbox.ucp.g08.bks.cvg/sg12_121_cif.got.tgz:241395.got - 2010.06.11 11:47:21.
