data_PCOD9225171
_publ_section_title
;
Structure prediction by ZEFSAII (Michael W. Deem and Ramdas Pophale) SiO2 
 PCOD9225171
Probable space group: C 2/M
;
_chemical_formula_sum "Si O2"
_cell_formula_units_Z 32
_cell_length_a 9.000000
_cell_length_b 18.000000
_cell_length_c 30.000000
_cell_angle_alpha 90.000000
_cell_angle_beta 40.000000
_cell_angle_gamma 90.000000
_cell_volume 3123.947783
_symmetry_space_group_name_H-M "C 2/M"
_symmetry_group_IT_number 12
_symmetry_cell_setting 'monoclinic'
loop_
_space_group_symop_operation_xyz
x,y,z
-x,y,-z
-x,-y,-z
x,-y,z
1/2+x,1/2+y,z
1/2-x,1/2+y,-z
1/2-x,1/2-y,-z
1/2+x,1/2-y,z
loop_
_atom_site_type_symbol
_atom_site_label
_atom_site_fract_x
_atom_site_fract_y
_atom_site_fract_z
Si Si1 0.425527 0.684917 0.565172
Si Si2 0.639612 0.160829 0.058408
Si Si3 0.645605 0.584216 0.826087
Si Si4 0.100151 0.189380 0.910760
Si Si5 0.386177 0.411003 0.313126
Si Si6 0.297693 0.414144 0.837412
Si Si7 0.504909 0.916175 0.662671
Si Si8 0.763495 0.342536 0.567398
O O1 0.500000 0.653779 0.500000
O O2 0.206781 0.637810 0.629798
O O3 0.625319 0.679127 0.555229
O O4 0.347951 0.768628 0.573364
O O5 0.756252 0.184105 0.077475
O O6 0.466606 0.226674 0.084467
O O7 0.474545 0.091660 0.101436
O O8 0.849238 0.151399 0.976325
O O9 0.620418 0.500000 0.849919
O O10 0.723819 0.643047 0.844348
O O11 0.411004 0.614379 0.856961
O O12 0.822225 0.581308 0.744633
O O13 0.394900 0.500000 0.311293
O O14 0.583292 0.381619 0.234258
O O15 0.396486 0.384331 0.360933
O O16 0.140354 0.390143 0.347100
O O17 0.368082 0.500000 0.822265
O O18 0.589251 0.000000 0.635148
O O19 0.000000 0.384558 0.500000
#
# Coordination Sequence:
#
# PCOD9225171 Si02
#       8
#     8   8   8   8   8   8   8   8
#     4  11  22  37  57  80 108 141 178 219 264 313
#     4  10  21  36  54  77 106 140 178 221 266 313
#     4   9  19  36  57  80 107 140 176 216 263 314
#     4  10  21  36  54  77 106 140 178 221 266 313
#     4   9  19  37  58  80 108 140 176 218 262 311
#     4   9  19  36  57  80 107 140 176 216 263 314
#     4   9  19  37  58  80 108 140 176 218 262 311
#     4  11  22  37  57  80 108 141 178 219 264 313
#
# _framework density 10.243449
#
# number of rings (size 3 to 8) (size 9 to 14) (size 15 to 20)
#    0.000    2.250    0.000    5.250    0.000    5.500 
#    0.000    5.000    0.000    0.000    0.000    0.000 
#    0.000    0.000    0.000    0.000    0.000    0.000 
#
# Total GULP energy -178270.003205 kJ/mol
# GULP energy per Si atom -5570.937600 kJ/mol
# Density = 1.022013 g / cm^3
# Si number density = 10.243449 Si / 1000 Ang^3
#
#
#
# Elastic Constant Matrix: (Units=GPa)
#
#
# Indices 1 2 3 4 5 6 
#
# 1 73.0617 15.2191 29.4650 0.0006 13.9264 0.0003
# 2 15.2191 -2.1209 24.9351 -0.0004 -10.2309 -0.0060
# 3 29.4650 24.9351 28.6389 -0.0015 5.6776 0.0121
# 4 0.0006 -0.0004 -0.0015 23.7601 0.0009 -1.2334
# 5 13.9264 -10.2309 5.6776 0.0009 25.4505 -0.0060
# 6 0.0003 -0.0060 0.0121 -1.2334 -0.0060 6.3981
#
#
#
# Elastic Compliance Matrix: (Units=1/GPa)
#
#
# Indices 1 2 3 4 5 6 
#
# 1 0.024430 -0.003956 -0.019592 0.000000 -0.010588 0.000022
# 2 -0.003956 -0.029392 0.033035 -0.000003 -0.017020 -0.000106
# 3 -0.019592 0.033035 0.022551 0.000002 0.018970 0.000007
# 4 0.000000 -0.000003 0.000002 0.042513 -0.000001 0.008195
# 5 -0.010588 -0.017020 0.018970 -0.000001 0.034012 -0.000020
# 6 0.000022 -0.000106 0.000007 0.008195 -0.000020 0.157875
#
#
# Mechanical properties :
#
#
# Convention : Reuss Voigt Hill
#
# Bulk Modulus (GPa) = 27.34912 26.53535 26.94223
# Shear Modulus (GPa) = 20.39134 13.11913 16.75523
#
# Velocity S-wave (km/s) = 3.15832 2.53329 2.86291
# Velocity P-wave (km/s) = 5.16512 4.64082 4.90998
#
# Compressibility (1/GPa) = 0.03656425
#
# Stress axis : x y z
#
# Youngs Moduli (GPa) = 40.93256 -34.02284 44.34388
#
# Poissons Ratio (x) = -0.13459 0.86878
# Poissons Ratio (y) = 0.16193 -1.46491
# Poissons Ratio (z) = 0.80194 1.12395
#
# Static dielectric constant tensor:
#      x y z
#    x 1.729850 0.000000 0.006390 
#    y 0.000000 1.742190 0.000000 
#    z 0.006390 0.000000 1.798850 
# 
# From -- ./inp_files/372900.got.cif
#   From: 2010.05.17/outbox.ucp.g08.bks.cvg/sg12_187_cif.got.tgz:372900.got - 2010.06.11 11:47:21.
