data_PCOD9225239
_publ_section_title
;
Structure prediction by ZEFSAII (Michael W. Deem and Ramdas Pophale) SiO2 
 PCOD9225239
Probable space group: C 2/M
;
_chemical_formula_sum "Si O2"
_cell_formula_units_Z 28
_cell_length_a 24.000000
_cell_length_b 9.000000
_cell_length_c 15.000000
_cell_angle_alpha 90.000000
_cell_angle_beta 70.000000
_cell_angle_gamma 90.000000
_cell_volume 3044.604091
_symmetry_space_group_name_H-M "C 2/M"
_symmetry_group_IT_number 12
_symmetry_cell_setting 'monoclinic'
loop_
_space_group_symop_operation_xyz
x,y,z
-x,y,-z
-x,-y,-z
x,-y,z
1/2+x,1/2+y,z
1/2-x,1/2+y,-z
1/2-x,1/2-y,-z
1/2+x,1/2-y,z
loop_
_atom_site_type_symbol
_atom_site_label
_atom_site_fract_x
_atom_site_fract_y
_atom_site_fract_z
Si Si1 0.945333 0.325965 0.708622
Si Si2 0.587974 0.669292 0.901011
Si Si3 0.361442 0.322727 0.629170
Si Si4 0.560246 0.675558 0.587453
Si Si5 0.043801 0.830215 0.111670
Si Si6 0.381363 0.162264 0.280713
Si Si7 0.752477 0.162963 0.588779
O O1 0.947893 0.500000 0.700352
O O2 0.885602 0.261958 0.700461
O O3 0.953465 0.273609 0.805289
O O4 0.997254 0.254377 0.620829
O O5 0.609964 0.500000 0.881081
O O6 0.521471 0.669272 0.896181
O O7 0.619224 0.782390 0.819430
O O8 0.585451 0.710380 0.005842
O O9 0.366172 0.500000 0.642320
O O10 0.399134 0.286008 0.519146
O O11 0.295226 0.275416 0.640542
O O12 0.551405 0.500000 0.592807
O O13 0.589258 0.726566 0.664819
O O14 0.056336 0.000000 0.132842
O O15 0.313712 0.150828 0.343820
O O16 0.410666 0.000000 0.273328
O O17 0.750000 0.250000 0.500000
O O18 0.778092 0.000000 0.553918
#
# Coordination Sequence:
#
# PCOD9225239 Si02
#       7
#     8   8   8   8   8   8   8
#     4  12  24  35  52  81 113 142 174 223 277 318
#     4   9  18  33  55  80 106 141 180 215 261 321
#     4  10  22  39  56  74 103 149 191 218 256 317
#     4  11  21  35  55  77 106 147 186 215 256 323
#     4   9  18  34  55  78 106 141 180 217 258 321
#     4  11  21  32  53  84 115 139 170 224 276 311
#     4  10  21  37  56  79 107 142 183 224 266 309
#
# _framework density 9.1965979999999998
#
# number of rings (size 3 to 8) (size 9 to 14) (size 15 to 20)
#    0.000    1.714    2.857    3.429    0.000    4.571 
#    0.000    1.429    0.000    0.857    0.000    0.000 
#    0.000    0.000    0.000    0.000    0.000    0.000 
#
# Total GULP energy -156033.817968 kJ/mol
# GULP energy per Si atom -5572.636356 kJ/mol
# Density = 0.917567 g / cm^3
# Si number density = 9.196598 Si / 1000 Ang^3
#
#
#
# Elastic Constant Matrix: (Units=GPa)
#
#
# Indices 1 2 3 4 5 6 
#
# 1 58.9916 16.2694 -4.8214 0.0000 9.9726 0.0000
# 2 16.2694 56.1546 34.9057 0.0000 1.3698 0.0000
# 3 -4.8214 34.9057 39.4304 0.0000 -4.4130 0.0000
# 4 0.0000 0.0000 0.0000 1.4171 0.0000 -3.5239
# 5 9.9726 1.3698 -4.4130 0.0000 12.6351 0.0000
# 6 0.0000 0.0000 0.0000 -3.5239 0.0000 4.9144
#
#
#
# Elastic Compliance Matrix: (Units=1/GPa)
#
#
# Indices 1 2 3 4 5 6 
#
# 1 0.025442 -0.018214 0.017909 0.000000 -0.011851 0.000000
# 2 -0.018214 0.056591 -0.053493 0.000000 -0.010442 0.000000
# 3 0.017909 -0.053493 0.076982 0.000000 0.018552 0.000000
# 4 0.000000 0.000000 0.000000 -0.901153 0.000000 -0.646164
# 5 -0.011851 -0.010442 0.018552 0.000000 0.096110 0.000000
# 6 0.000000 0.000000 0.000000 -0.646164 0.000000 -0.259845
#
#
# Mechanical properties :
#
#
# Convention : Reuss Voigt Hill
#
# Bulk Modulus (GPa) = 19.44852 27.47601 23.46226
# Shear Modulus (GPa) = -6.40094 11.00816 2.30361
#
# Velocity S-wave (km/s) = -1.86752 2.44906 1.12033
# Velocity P-wave (km/s) = 2.43856 4.79247 3.80226
#
# Compressibility (1/GPa) = 0.05141778
#
# Stress axis : x y z
#
# Youngs Moduli (GPa) = 39.30513 17.67062 12.99006
#
# Poissons Ratio (x) = 0.32185 -0.23263
# Poissons Ratio (y) = 0.71590 0.69488
# Poissons Ratio (z) = -0.70390 0.94526
#
# Static dielectric constant tensor:
#      x y z
#    x 1.693020 0.000000 -0.042450 
#    y 0.000000 1.663950 0.000000 
#    z -0.042450 0.000000 1.587260 
# 
# From -- ./inp_files/237457.got.cif
#   From: 2010.05.17/outbox.ucp.g08.bks.cvg/sg12_119_cif.got.tgz:237457.got - 2010.06.11 11:47:21.
