data_PCOD9225148
_publ_section_title
;
Structure prediction by ZEFSAII (Michael W. Deem and Ramdas Pophale) SiO2 
 PCOD9225148
Probable space group: C 2/M
;
_chemical_formula_sum "Si O2"
_cell_formula_units_Z 32
_cell_length_a 30.000000
_cell_length_b 15.000000
_cell_length_c 9.000000
_cell_angle_alpha 90.000000
_cell_angle_beta 130.000000
_cell_angle_gamma 90.000000
_cell_volume 3102.479995
_symmetry_space_group_name_H-M "C 2/M"
_symmetry_group_IT_number 12
_symmetry_cell_setting 'monoclinic'
loop_
_space_group_symop_operation_xyz
x,y,z
-x,y,-z
-x,-y,-z
x,-y,z
1/2+x,1/2+y,z
1/2-x,1/2+y,-z
1/2-x,1/2-y,-z
1/2+x,1/2-y,z
loop_
_atom_site_type_symbol
_atom_site_label
_atom_site_fract_x
_atom_site_fract_y
_atom_site_fract_z
Si Si1 0.129618 0.329031 0.936554
Si Si2 0.107253 0.288262 0.415264
Si Si3 0.197414 0.181414 0.931776
Si Si4 0.715259 0.896105 0.666586
Si Si5 0.059356 0.594674 0.537584
Si Si6 0.646233 0.399082 0.525188
Si Si7 0.437942 0.105037 0.946424
Si Si8 0.230600 0.396752 0.362816
O O1 0.075898 0.341516 0.933831
O O2 0.187162 0.351019 0.154625
O O3 0.144758 0.235562 0.894558
O O4 0.112220 0.395618 0.766607
O O5 0.166882 0.325312 0.614571
O O6 0.059643 0.323924 0.426433
O O7 0.105709 0.183352 0.391700
O O8 0.103544 0.347428 0.260569
O O9 0.171229 0.126245 0.740058
O O10 0.250000 0.250000 0.000000
O O11 0.228225 0.115743 0.113100
O O12 0.728691 0.866431 0.527741
O O13 0.696306 0.000000 0.629366
O O14 0.063619 0.500000 0.463157
O O15 0.000000 0.593683 0.500000
O O16 0.623395 0.500000 0.470530
O O17 0.703249 0.392004 0.545903
O O18 0.426440 0.000000 0.946880
O O19 0.500000 0.112297 0.000000
O O20 0.212635 0.500000 0.322926
#
# Coordination Sequence:
#
# PCOD9225148 Si02
#       8
#     8   8   8   8   8   8   8   8
#     4  12  21  36  60  84 122 164 199 235 295 365
#     4  12  22  38  62  88 118 161 200 243 296 359
#     4  12  22  38  55  87 122 162 204 248 295 358
#     4  11  22  36  58  89 125 159 194 240 295 365
#     4  11  23  38  58  87 119 151 193 245 297 359
#     4  11  24  42  60  85 121 161 206 253 299 349
#     4  11  24  41  62  94 130 160 196 247 308 371
#     4  10  21  35  56  86 119 157 195 233 289 360
#
# _framework density 10.314329000000001
#
# number of rings (size 3 to 8) (size 9 to 14) (size 15 to 20)
#    0.000    0.750    5.000    3.375    1.750    3.000 
#    0.000    0.000    0.000    0.750    0.000    0.000 
#    0.000    0.000    0.000    0.000    0.000    0.000 
#
# Total GULP energy -178526.810950 kJ/mol
# GULP energy per Si atom -5578.962842 kJ/mol
# Density = 1.029085 g / cm^3
# Si number density = 10.314329 Si / 1000 Ang^3
#
#
#
# Elastic Constant Matrix: (Units=GPa)
#
#
# Indices 1 2 3 4 5 6 
#
# 1 105.8121 55.5002 12.9600 0.0000 -14.5947 0.0000
# 2 55.5002 92.1705 -4.0500 0.0000 5.9333 0.0000
# 3 12.9600 -4.0500 45.8511 0.0000 -7.8205 0.0000
# 4 0.0000 0.0000 0.0000 11.0253 0.0000 0.6166
# 5 -14.5947 5.9333 -7.8205 0.0000 20.9099 0.0000
# 6 0.0000 0.0000 0.0000 0.6166 0.0000 19.2813
#
#
#
# Elastic Compliance Matrix: (Units=1/GPa)
#
#
# Indices 1 2 3 4 5 6 
#
# 1 0.018333 -0.012159 -0.003722 0.000000 0.014854 0.000000
# 2 -0.012159 0.019125 0.002941 0.000000 -0.012814 0.000000
# 3 -0.003722 0.002941 0.024072 0.000000 0.005570 0.000000
# 4 0.000000 0.000000 0.000000 0.090863 0.000000 -0.002906
# 5 0.014854 -0.012814 0.005570 0.000000 0.063911 0.000000
# 6 0.000000 0.000000 0.000000 -0.002906 0.000000 0.051957
#
#
# Mechanical properties :
#
#
# Convention : Reuss Voigt Hill
#
# Bulk Modulus (GPa) = 28.05192 41.40601 34.72897
# Shear Modulus (GPa) = 16.33852 22.20487 19.27169
#
# Velocity S-wave (km/s) = 2.81736 3.28443 3.05982
# Velocity P-wave (km/s) = 4.92050 5.87358 5.41804
#
# Compressibility (1/GPa) = 0.03564818
#
# Stress axis : x y z
#
# Youngs Moduli (GPa) = 54.54640 52.28758 41.54259
#
# Poissons Ratio (x) = 0.63576 0.15464
# Poissons Ratio (y) = 0.66323 -0.12216
# Poissons Ratio (z) = 0.20304 -0.15375
#
# Static dielectric constant tensor:
#      x y z
#    x 1.798720 0.000000 -0.014560 
#    y 0.000000 1.757650 0.000000 
#    z -0.014560 0.000000 1.880560 
# 
# From -- ./inp_files/111615.got.cif
#   From: 2010.05.17/outbox.ucp.g08.bks.cvg/sg12_56_cif.got.tgz:111615.got - 2010.06.11 11:47:21.
