data_PCOD9225465
_publ_section_title
;
Structure prediction by ZEFSAII (Michael W. Deem and Ramdas Pophale) SiO2 
 PCOD9225465
Probable space group: C 2/M
;
_chemical_formula_sum "Si O2"
_cell_formula_units_Z 32
_cell_length_a 18.000000
_cell_length_b 9.000000
_cell_length_c 30.000000
_cell_angle_alpha 90.000000
_cell_angle_beta 40.000000
_cell_angle_gamma 90.000000
_cell_volume 3123.947783
_symmetry_space_group_name_H-M "C 2/M"
_symmetry_group_IT_number 12
_symmetry_cell_setting 'monoclinic'
loop_
_space_group_symop_operation_xyz
x,y,z
-x,y,-z
-x,-y,-z
x,-y,z
1/2+x,1/2+y,z
1/2-x,1/2+y,-z
1/2-x,1/2-y,-z
1/2+x,1/2-y,z
loop_
_atom_site_type_symbol
_atom_site_label
_atom_site_fract_x
_atom_site_fract_y
_atom_site_fract_z
Si Si1 0.548859 0.331003 0.195470
Si Si2 0.712117 0.823560 0.563082
Si Si3 0.296569 0.332203 0.279583
Si Si4 0.871140 0.678548 0.931731
Si Si5 0.750179 0.672982 0.219408
Si Si6 0.635949 0.826616 0.433643
Si Si7 0.956705 0.319470 0.067619
Si Si8 0.960179 0.675578 0.709218
O O1 0.592891 0.500000 0.174192
O O2 0.409758 0.334158 0.258312
O O3 0.591093 0.244784 0.132802
O O4 0.578907 0.251158 0.227138
O O5 0.750000 0.750000 0.500000
O O6 0.798814 0.777336 0.561981
O O7 0.584730 0.771983 0.636050
O O8 0.708738 0.000000 0.559195
O O9 0.289155 0.500000 0.263570
O O10 0.319781 0.206675 0.232399
O O11 0.187013 0.301752 0.360999
O O12 0.865708 0.500000 0.932295
O O13 0.958072 0.721890 0.931591
O O14 0.750000 0.750000 0.000000
O O15 0.723230 0.500000 0.226988
O O16 0.829099 0.724921 0.142034
O O17 0.637698 0.770908 0.279168
O O18 0.500000 0.804351 0.500000
O O19 0.660827 0.000000 0.433092
O O20 0.955026 0.500000 0.066633
O O21 0.000000 0.264358 0.000000
O O22 0.963179 0.500000 0.712888
#
# Coordination Sequence:
#
# PCOD9225465 Si02
#       8
#     8   8   8   8   8   8   8   8
#     4  11  22  40  66  91 121 163 209 259 311 368
#     4  11  25  43  64  89 125 166 206 256 311 370
#     4  10  21  39  63  90 124 161 204 257 309 366
#     4  11  23  40  63  92 126 164 208 258 311 368
#     4  11  23  39  64  93 123 163 207 253 308 368
#     4  10  22  41  65  92 123 162 206 254 310 367
#     4   9  20  39  60  85 121 162 203 249 299 356
#     4  11  25  43  63  91 126 163 205 259 314 364
#
# _framework density 10.243449
#
# number of rings (size 3 to 8) (size 9 to 14) (size 15 to 20)
#    0.000    1.500    2.500    1.875    3.500    2.750 
#    0.000    0.000    0.000    3.000    0.000    0.000 
#    0.000    0.000    0.000    0.000    0.000    0.000 
#
# Total GULP energy -178608.842696 kJ/mol
# GULP energy per Si atom -5581.526334 kJ/mol
# Density = 1.022013 g / cm^3
# Si number density = 10.243449 Si / 1000 Ang^3
#
#
#
# Elastic Constant Matrix: (Units=GPa)
#
#
# Indices 1 2 3 4 5 6 
#
# 1 56.2003 27.0109 39.2678 0.0000 0.4775 0.0011
# 2 27.0109 44.2908 43.5510 0.0002 2.2117 0.0001
# 3 39.2678 43.5510 131.1142 0.0000 -0.2572 0.0002
# 4 0.0000 0.0002 0.0000 29.2769 0.0000 4.6629
# 5 0.4775 2.2117 -0.2572 0.0000 30.1746 0.0001
# 6 0.0011 0.0001 0.0002 4.6629 0.0001 30.3459
#
#
#
# Elastic Compliance Matrix: (Units=1/GPa)
#
#
# Indices 1 2 3 4 5 6 
#
# 1 0.026393 -0.012396 -0.003786 0.000000 0.000459 -0.000001
# 2 -0.012396 0.039549 -0.009430 0.000000 -0.002783 0.000000
# 3 -0.003786 -0.009430 0.011895 0.000000 0.000852 0.000000
# 4 0.000000 0.000000 0.000000 0.035013 0.000000 -0.005380
# 5 0.000459 -0.002783 0.000852 0.000000 0.033344 0.000000
# 6 -0.000001 0.000000 0.000000 -0.005380 0.000000 0.033780
#
#
# Mechanical properties :
#
#
# Convention : Reuss Voigt Hill
#
# Bulk Modulus (GPa) = 37.57534 50.14054 43.85794
# Shear Modulus (GPa) = 20.82749 26.07786 23.45268
#
# Velocity S-wave (km/s) = 3.19191 3.57165 3.38711
# Velocity P-wave (km/s) = 5.65379 6.44488 6.06225
#
# Compressibility (1/GPa) = 0.02661320
#
# Stress axis : x y z
#
# Youngs Moduli (GPa) = 37.88949 25.28538 84.07128
#
# Poissons Ratio (x) = 0.31343 0.31831
# Poissons Ratio (y) = 0.46966 0.79276
# Poissons Ratio (z) = 0.14346 0.23843
#
# Static dielectric constant tensor:
#      x y z
#    x 1.851900 0.000000 0.010750 
#    y 0.000000 1.702960 0.000000 
#    z 0.010750 0.000000 1.721240 
# 
# From -- ./inp_files/378101.got.cif
#   From: 2010.05.17/outbox.ucp.g08.bks.cvg/sg12_190_cif.got.tgz:378101.got - 2010.06.11 11:47:21.
