data_PCOD9225145
_publ_section_title
;
Structure prediction by ZEFSAII (Michael W. Deem and Ramdas Pophale) SiO2 
 PCOD9225145
Probable space group: C 2/M
;
_chemical_formula_sum "Si O2"
_cell_formula_units_Z 32
_cell_length_a 30.000000
_cell_length_b 9.000000
_cell_length_c 18.000000
_cell_angle_alpha 90.000000
_cell_angle_beta 40.000000
_cell_angle_gamma 90.000000
_cell_volume 3123.947783
_symmetry_space_group_name_H-M "C 2/M"
_symmetry_group_IT_number 12
_symmetry_cell_setting 'monoclinic'
loop_
_space_group_symop_operation_xyz
x,y,z
-x,y,-z
-x,-y,-z
x,-y,z
1/2+x,1/2+y,z
1/2-x,1/2+y,-z
1/2-x,1/2-y,-z
1/2+x,1/2-y,z
loop_
_atom_site_type_symbol
_atom_site_label
_atom_site_fract_x
_atom_site_fract_y
_atom_site_fract_z
Si Si1 0.556377 0.177748 0.865527
Si Si2 0.778565 0.829312 0.826367
Si Si3 0.552860 0.176344 0.578868
Si Si4 0.790616 0.670960 0.380444
Si Si5 0.587442 0.833939 0.308204
Si Si6 0.359612 0.171753 0.929097
Si Si7 0.495711 0.675257 0.799135
Si Si8 0.809356 0.167299 0.631345
O O1 0.636764 0.230049 0.748576
O O2 0.522363 0.225782 0.832111
O O3 0.561165 0.000000 0.869972
O O4 0.500000 0.231493 0.000000
O O5 0.855450 0.765219 0.726925
O O6 0.758036 0.812645 0.766648
O O7 0.785309 0.000000 0.839691
O O8 0.717602 0.769328 0.956156
O O9 0.491655 0.215765 0.599101
O O10 0.535706 0.269351 0.674518
O O11 0.628478 0.217074 0.454501
O O12 0.545336 0.000000 0.603496
O O13 0.804847 0.500000 0.385807
O O14 0.750000 0.750000 0.500000
O O15 0.735405 0.671627 0.385051
O O16 0.618361 0.838455 0.184723
O O17 0.588076 0.000000 0.339189
O O18 0.415367 0.281804 0.892512
O O19 0.364592 0.000000 0.951922
O O20 0.505740 0.500000 0.797450
O O21 0.839351 0.000000 0.601453
#
# Coordination Sequence:
#
# PCOD9225145 Si02
#       8
#     8   8   8   8   8   8   8   8
#     4  10  22  39  63  89 117 158 201 243 296 363
#     4  10  21  35  56  83 115 152 190 236 288 345
#     4  10  21  39  60  82 110 151 198 236 280 347
#     4  10  22  40  62  88 116 153 199 243 295 355
#     4   9  19  35  55  81 112 147 193 242 284 335
#     4   9  19  36  58  82 113 155 196 232 277 347
#     4  11  22  36  58  87 117 148 186 242 295 340
#     4  10  22  38  57  85 116 146 187 241 293 340
#
# _framework density 10.243449
#
# number of rings (size 3 to 8) (size 9 to 14) (size 15 to 20)
#    0.000    2.125    0.000    3.375    1.750    7.250 
#    0.000    2.500    0.000    0.000    0.000    0.000 
#    0.000    0.000    0.000    0.000    0.000    0.000 
#
# Total GULP energy -178252.350959 kJ/mol
# GULP energy per Si atom -5570.385967 kJ/mol
# Density = 1.022013 g / cm^3
# Si number density = 10.243449 Si / 1000 Ang^3
#
#
#
# Elastic Constant Matrix: (Units=GPa)
#
#
# Indices 1 2 3 4 5 6 
#
# 1 37.6588 -4.6773 27.6358 -0.0008 -3.6535 0.0004
# 2 -4.6773 -13.4500 9.5687 -0.0029 -4.7122 -0.0014
# 3 27.6358 9.5687 99.0663 -0.0015 -8.8267 0.0001
# 4 -0.0008 -0.0029 -0.0015 27.2107 0.0005 -2.7905
# 5 -3.6535 -4.7122 -8.8267 0.0005 16.5211 0.0002
# 6 0.0004 -0.0014 0.0001 -2.7905 0.0002 12.5998
#
#
#
# Elastic Compliance Matrix: (Units=1/GPa)
#
#
# Indices 1 2 3 4 5 6 
#
# 1 0.029702 -0.014809 -0.006979 -0.000001 -0.001384 -0.000003
# 2 -0.014809 -0.057886 0.008357 -0.000007 -0.015320 -0.000007
# 3 -0.006979 0.008357 0.011874 0.000001 0.007184 0.000001
# 4 -0.000001 -0.000007 0.000001 0.037604 -0.000003 0.008328
# 5 -0.001384 -0.015320 0.007184 -0.000003 0.059691 -0.000003
# 6 -0.000003 -0.000007 0.000001 0.008328 -0.000003 0.081211
#
#
# Mechanical properties :
#
#
# Convention : Reuss Voigt Hill
#
# Bulk Modulus (GPa) = -23.16361 20.92549 -1.11906
# Shear Modulus (GPa) = 28.62610 17.31617 22.97114
#
# Velocity S-wave (km/s) = 3.74209 2.91044 3.35215
# Velocity P-wave (km/s) = 2.70922 4.64009 3.79936
#
# Compressibility (1/GPa) = -0.04317116
#
# Stress axis : x y z
#
# Youngs Moduli (GPa) = 33.66791 -17.27520 84.21832
#
# Poissons Ratio (x) = -0.25583 0.58773
# Poissons Ratio (y) = 0.49859 -0.70384
# Poissons Ratio (z) = 0.23496 0.14437
#
# Static dielectric constant tensor:
#      x y z
#    x 1.790270 0.000000 0.017830 
#    y 0.000000 1.743880 0.000010 
#    z 0.017830 0.000010 1.781610 
# 
# From -- ./inp_files/295624.got.cif
#   From: 2010.05.17/outbox.ucp.g08.bks.cvg/sg12_148_cif.got.tgz:295624.got - 2010.06.11 11:47:21.
