data_PCOD9225893
_publ_section_title
;
Structure prediction by ZEFSAII (Michael W. Deem and Ramdas Pophale) SiO2 
 PCOD9225893
Probable space group: C 2/M
;
_chemical_formula_sum "Si O2"
_cell_formula_units_Z 32
_cell_length_a 18.000000
_cell_length_b 9.000000
_cell_length_c 21.000000
_cell_angle_alpha 90.000000
_cell_angle_beta 90.000000
_cell_angle_gamma 90.000000
_cell_volume 3402.000000
_symmetry_space_group_name_H-M "C 2/M"
_symmetry_group_IT_number 12
_symmetry_cell_setting 'monoclinic'
loop_
_space_group_symop_operation_xyz
x,y,z
-x,y,-z
-x,-y,-z
x,-y,z
1/2+x,1/2+y,z
1/2-x,1/2+y,-z
1/2-x,1/2-y,-z
1/2+x,1/2-y,z
loop_
_atom_site_type_symbol
_atom_site_label
_atom_site_fract_x
_atom_site_fract_y
_atom_site_fract_z
Si Si1 0.571817 0.178592 0.593725
Si Si2 0.960950 0.678501 0.764211
Si Si3 0.916765 0.178026 0.635566
Si Si4 0.325226 0.822014 0.526731
Si Si5 0.328552 0.178802 0.020347
Si Si6 0.781574 0.319887 0.154322
Si Si7 0.870240 0.321489 0.274079
Si Si8 0.874306 0.320789 0.887534
O O1 0.494600 0.262742 0.605433
O O2 0.610804 0.205113 0.526512
O O3 0.626849 0.223906 0.651957
O O4 0.557520 0.000000 0.599336
O O5 0.951360 0.500000 0.756445
O O6 0.916552 0.761005 0.707956
O O7 0.935325 0.720994 0.835051
O O8 0.047513 0.711112 0.752604
O O9 0.852029 0.247287 0.592182
O O10 0.914014 0.000000 0.634812
O O11 0.250000 0.750000 0.500000
O O12 0.317320 0.000000 0.533725
O O13 0.383554 0.221443 0.962289
O O14 0.322497 0.000000 0.018604
O O15 0.250000 0.250000 0.000000
O O16 0.337187 0.217093 0.094999
O O17 0.774875 0.500000 0.156116
O O18 0.811568 0.265067 0.222411
O O19 0.702723 0.249503 0.136818
O O20 0.861472 0.500000 0.274669
O O21 0.868555 0.500000 0.885790
#
# Coordination Sequence:
#
# PCOD9225893 Si02
#       8
#     8   8   8   8   8   8   8   8
#     4   9  19  37  58  76 100 137 172 203 247 303
#     4   9  18  34  52  69  95 131 166 203 250 301
#     4  11  22  36  56  79 102 132 172 214 253 302
#     4  11  23  38  56  80 110 140 170 208 253 297
#     4   8  14  25  41  64  93 124 160 198 240 292
#     4   9  16  27  46  70  96 127 161 200 245 295
#     4   8  15  30  50  70  93 124 162 198 237 288
#     4   9  17  29  46  68  94 126 164 205 247 293
#
# _framework density 9.4062319999999993
#
# number of rings (size 3 to 8) (size 9 to 14) (size 15 to 20)
#    0.000    2.750    0.000    2.625    0.000    4.000 
#    0.000    4.375    0.000    3.750    0.000    0.000 
#    0.000   14.000    0.000    0.000    0.000    0.000 
#
# Total GULP energy -178297.080491 kJ/mol
# GULP energy per Si atom -5571.783765 kJ/mol
# Density = 0.938482 g / cm^3
# Si number density = 9.406232 Si / 1000 Ang^3
#
#
#
# Elastic Constant Matrix: (Units=GPa)
#
#
# Indices 1 2 3 4 5 6 
#
# 1 3.3967 -0.0898 -20.8429 0.0000 3.1650 0.0000
# 2 -0.0898 28.9558 -3.1965 0.0000 -5.7926 0.0000
# 3 -20.8429 -3.1965 25.5823 0.0000 -5.1744 0.0000
# 4 0.0000 0.0000 0.0000 20.0648 0.0000 2.6140
# 5 3.1650 -5.7926 -5.1744 0.0000 32.4247 0.0000
# 6 0.0000 0.0000 0.0000 2.6140 0.0000 21.1593
#
#
#
# Elastic Compliance Matrix: (Units=1/GPa)
#
#
# Indices 1 2 3 4 5 6 
#
# 1 -0.071783 -0.007669 -0.060247 0.000000 -0.003978 0.000000
# 2 -0.007669 0.035898 -0.000325 0.000000 0.007110 0.000000
# 3 -0.060247 -0.000325 -0.009154 0.000000 0.004362 0.000000
# 4 0.000000 0.000000 0.000000 0.050654 0.000000 -0.006258
# 5 -0.003978 0.007110 0.004362 0.000000 0.033195 0.000000
# 6 0.000000 0.000000 0.000000 -0.006258 0.000000 0.048034
#
#
# Mechanical properties :
#
#
# Convention : Reuss Voigt Hill
#
# Bulk Modulus (GPa) = -5.50900 1.07515 -2.21692
# Shear Modulus (GPa) = 30.70903 20.20069 25.45486
#
# Velocity S-wave (km/s) = 4.04465 3.28043 3.68242
# Velocity P-wave (km/s) = 4.34483 3.86278 4.11088
#
# Compressibility (1/GPa) = -0.18152127
#
# Stress axis : x y z
#
# Youngs Moduli (GPa) = -13.93095 27.85671 -109.23666
#
# Poissons Ratio (x) = 0.21364 -6.58118
# Poissons Ratio (y) = -0.10684 -0.03549
# Poissons Ratio (z) = -0.83930 0.00905
#
# Static dielectric constant tensor:
#      x y z
#    x 1.650800 0.000000 -0.016140 
#    y 0.000000 1.620890 0.000000 
#    z -0.016140 0.000000 1.704890 
# 
# From -- ./inp_files/314047.got.cif
#   From: 2010.05.17/outbox.ucp.g08.bks.cvg/sg12_158_cif.got.tgz:314047.got - 2010.06.11 11:47:21.
