data_PCOD9225557
_publ_section_title
;
Structure prediction by ZEFSAII (Michael W. Deem and Ramdas Pophale) SiO2 
 PCOD9225557
Probable space group: C 2/M
;
_chemical_formula_sum "Si O2"
_cell_formula_units_Z 24
_cell_length_a 18.000000
_cell_length_b 15.000000
_cell_length_c 18.000000
_cell_angle_alpha 90.000000
_cell_angle_beta 30.000000
_cell_angle_gamma 90.000000
_cell_volume 2430.000000
_symmetry_space_group_name_H-M "C 2/M"
_symmetry_group_IT_number 12
_symmetry_cell_setting 'monoclinic'
loop_
_space_group_symop_operation_xyz
x,y,z
-x,y,-z
-x,-y,-z
x,-y,z
1/2+x,1/2+y,z
1/2-x,1/2+y,-z
1/2-x,1/2-y,-z
1/2+x,1/2-y,z
loop_
_atom_site_type_symbol
_atom_site_label
_atom_site_fract_x
_atom_site_fract_y
_atom_site_fract_z
Si Si1 0.138256 0.895382 0.712938
Si Si2 0.913862 0.215262 0.997745
Si Si3 0.474452 0.602017 0.354101
Si Si4 0.819897 0.397315 0.004102
Si Si5 0.637402 0.104794 0.210649
Si Si6 0.580565 0.783296 0.509935
O O1 0.120726 0.890454 0.639139
O O2 0.255816 0.823488 0.640486
O O3 0.164859 0.000000 0.709376
O O4 0.988230 0.858156 0.879438
O O5 0.900415 0.313239 0.972767
O O6 0.753936 0.170993 0.148469
O O7 0.000000 0.221534 0.000000
O O8 0.455069 0.500000 0.400222
O O9 0.646886 0.610074 0.178486
O O10 0.433027 0.683441 0.444445
O O11 0.866901 0.500000 0.982256
O O12 0.842378 0.387435 0.895851
O O13 0.485990 0.146431 0.372409
O O14 0.652950 0.000000 0.216332
O O15 0.500000 0.786605 0.500000
#
# Coordination Sequence:
#
# PCOD9225557 Si02
#       6
#     8   8   8   8   8   8
#     4  11  24  41  61  90 125 162 205 250 300 358
#     4  12  23  37  62  92 125 160 199 251 308 364
#     4  10  21  42  68  89 117 161 211 258 297 352
#     4  10  21  41  68  92 117 156 210 261 302 350
#     4  11  22  40  66  90 118 163 210 248 297 365
#     4  12  25  40  61  92 130 165 196 247 311 366
#
# _framework density 9.8765429999999999
#
# number of rings (size 3 to 8) (size 9 to 14) (size 15 to 20)
#    0.000    1.000    3.333    4.000    0.000    4.667 
#    0.000    2.500    0.000    0.000    0.000    0.000 
#    0.000    0.000    0.000    0.000    0.000    0.000 
#
# Total GULP energy -134007.335348 kJ/mol
# GULP energy per Si atom -5583.638973 kJ/mol
# Density = 0.985406 g / cm^3
# Si number density = 9.876543 Si / 1000 Ang^3
#
#
#
# Elastic Constant Matrix: (Units=GPa)
#
#
# Indices 1 2 3 4 5 6 
#
# 1 73.1189 46.8982 -10.0670 0.0001 10.2855 0.0000
# 2 46.8982 152.7226 0.0357 0.0001 25.8321 -0.0001
# 3 -10.0670 0.0357 34.0276 -0.0009 7.9668 -0.0001
# 4 0.0001 0.0001 -0.0009 29.9585 -0.0002 -6.6810
# 5 10.2855 25.8321 7.9668 -0.0002 11.3396 0.0002
# 6 0.0000 -0.0001 -0.0001 -6.6810 0.0002 13.7521
#
#
#
# Elastic Compliance Matrix: (Units=1/GPa)
#
#
# Indices 1 2 3 4 5 6 
#
# 1 0.019460 -0.002942 0.009962 0.000000 -0.017947 0.000000
# 2 -0.002942 0.012590 0.006232 0.000000 -0.030390 0.000001
# 3 0.009962 0.006232 0.045203 0.000001 -0.054990 0.000002
# 4 0.000000 0.000000 0.000001 0.037435 -0.000001 0.018187
# 5 -0.017947 -0.030390 -0.054990 -0.000001 0.212331 -0.000004
# 6 0.000000 0.000001 0.000002 0.018187 -0.000004 0.081552
#
#
# Mechanical properties :
#
#
# Convention : Reuss Voigt Hill
#
# Bulk Modulus (GPa) = 9.63802 37.06700 23.35251
# Shear Modulus (GPa) = 12.00035 25.87683 18.93859
#
# Velocity S-wave (km/s) = 2.46746 3.62334 3.09975
# Velocity P-wave (km/s) = 3.60661 6.02584 4.96580
#
# Compressibility (1/GPa) = 0.10375572
#
# Stress axis : x y z
#
# Youngs Moduli (GPa) = 51.38812 79.42619 22.12223
#
# Poissons Ratio (x) = 0.23371 -0.22038
# Poissons Ratio (y) = 0.15121 -0.13786
# Poissons Ratio (z) = -0.51193 -0.49495
#
# Static dielectric constant tensor:
#      x y z
#    x 1.672980 0.000000 -0.031460 
#    y 0.000000 1.658570 0.000000 
#    z -0.031460 0.000000 1.708190 
# 
# From -- ./inp_files/105057.got.cif
#   From: 2010.05.17/outbox.ucp.g08.bks.cvg/sg12_53_cif.got.tgz:105057.got - 2010.06.11 11:47:21.
