data_PCOD9225240
_publ_section_title
;
Structure prediction by ZEFSAII (Michael W. Deem and Ramdas Pophale) SiO2 
 PCOD9225240
Probable space group: C 2/M
;
_chemical_formula_sum "Si O2"
_cell_formula_units_Z 24
_cell_length_a 18.000000
_cell_length_b 9.000000
_cell_length_c 30.000000
_cell_angle_alpha 90.000000
_cell_angle_beta 150.000000
_cell_angle_gamma 90.000000
_cell_volume 2430.000000
_symmetry_space_group_name_H-M "C 2/M"
_symmetry_group_IT_number 12
_symmetry_cell_setting 'monoclinic'
loop_
_space_group_symop_operation_xyz
x,y,z
-x,y,-z
-x,-y,-z
x,-y,z
1/2+x,1/2+y,z
1/2-x,1/2+y,-z
1/2-x,1/2-y,-z
1/2+x,1/2-y,z
loop_
_atom_site_type_symbol
_atom_site_label
_atom_site_fract_x
_atom_site_fract_y
_atom_site_fract_z
Si Si1 0.847437 0.176009 0.685116
Si Si2 0.231753 0.680513 0.787919
Si Si3 0.081719 0.677107 0.616652
Si Si4 0.143769 0.680541 0.842609
Si Si5 0.775154 0.823977 0.464791
Si Si6 0.544074 0.328509 0.970225
O O1 0.708551 0.200353 0.645813
O O2 0.826294 0.256276 0.626720
O O3 0.995451 0.244858 0.782888
O O4 0.861799 0.000000 0.685829
O O5 0.240443 0.500000 0.793846
O O6 0.139453 0.715968 0.696167
O O7 0.166807 0.723504 0.802291
O O8 0.400788 0.739395 0.872177
O O9 0.042364 0.500000 0.595365
O O10 0.939405 0.777343 0.534569
O O11 0.136523 0.500000 0.840504
O O12 0.290747 0.733936 0.945047
O O13 0.750000 0.750000 0.500000
O O14 0.753786 0.000000 0.457019
O O15 0.555883 0.500000 0.961628
O O16 0.500000 0.331907 0.000000
#
# Coordination Sequence:
#
# PCOD9225240 Si02
#       6
#     8   8   8   8   8   8
#     4  11  23  37  53  77 112 148 181 220 267 318
#     4   8  14  28  52  78 102 134 179 227 272 318
#     4  10  21  37  56  79 110 147 183 220 265 317
#     4   9  16  29  53  80 104 136 183 233 273 316
#     4  12  25  41  62  84 106 134 173 220 269 323
#     4   7  11  22  45  77 104 129 173 229 273 312
#
# _framework density 9.8765429999999999
#
# number of rings (size 3 to 8) (size 9 to 14) (size 15 to 20)
#    0.000    2.500    0.000    5.500    0.000    4.667 
#    0.000    0.833    0.000    5.500    0.000    0.000 
#    0.000    0.000    0.000    0.000    0.000    0.000 
#
# Total GULP energy -133844.785239 kJ/mol
# GULP energy per Si atom -5576.866052 kJ/mol
# Density = 0.985406 g / cm^3
# Si number density = 9.876543 Si / 1000 Ang^3
#
#
#
# Elastic Constant Matrix: (Units=GPa)
#
#
# Indices 1 2 3 4 5 6 
#
# 1 29.1592 17.7657 -4.0631 0.0000 20.5218 0.0000
# 2 17.7657 48.9245 14.9245 0.0000 17.8986 0.0001
# 3 -4.0631 14.9245 83.6116 0.0001 29.7363 0.0000
# 4 0.0000 0.0000 0.0001 15.5012 0.0000 3.8348
# 5 20.5218 17.8986 29.7363 0.0000 28.9567 0.0000
# 6 0.0000 0.0001 0.0000 3.8348 0.0000 20.2207
#
#
#
# Elastic Compliance Matrix: (Units=1/GPa)
#
#
# Indices 1 2 3 4 5 6 
#
# 1 0.417620 -0.038216 0.195306 -0.000001 -0.472912 0.000000
# 2 -0.038216 0.030067 -0.016142 0.000000 0.025075 0.000000
# 3 0.195306 -0.016142 0.110291 -0.000001 -0.241697 0.000000
# 4 -0.000001 0.000000 -0.000001 0.067687 0.000001 -0.012837
# 5 -0.472912 0.025075 -0.241697 0.000001 0.602395 0.000000
# 6 0.000000 0.000000 0.000000 -0.012837 0.000000 0.051889
#
#
# Mechanical properties :
#
#
# Convention : Reuss Voigt Hill
#
# Bulk Modulus (GPa) = 1.19065 24.32773 12.75919
# Shear Modulus (GPa) = 3.91233 21.80694 12.85963
#
# Velocity S-wave (km/s) = 1.40887 3.32622 2.55428
# Velocity P-wave (km/s) = 1.80295 5.20522 3.89518
#
# Compressibility (1/GPa) = 0.83987439
#
# Stress axis : x y z
#
# Youngs Moduli (GPa) = 2.39452 33.25866 9.06689
#
# Poissons Ratio (x) = 1.27101 -1.77082
# Poissons Ratio (y) = 0.09151 0.14636
# Poissons Ratio (z) = -0.46766 0.53686
#
# Static dielectric constant tensor:
#      x y z
#    x 1.677820 0.000000 0.030200 
#    y 0.000000 1.655540 0.000000 
#    z 0.030200 0.000000 1.779730 
# 
# From -- ./inp_files/274087.got.cif
#   From: 2010.05.17/outbox.ucp.g08.bks.cvg/sg12_138_cif.got.tgz:274087.got - 2010.06.11 11:47:21.
