data_PCOD9225455
_publ_section_title
;
Structure prediction by ZEFSAII (Michael W. Deem and Ramdas Pophale) SiO2 
 PCOD9225455
Probable space group: C 2/M
;
_chemical_formula_sum "Si O2"
_cell_formula_units_Z 28
_cell_length_a 27.000000
_cell_length_b 9.000000
_cell_length_c 12.000000
_cell_angle_alpha 90.000000
_cell_angle_beta 70.000000
_cell_angle_gamma 90.000000
_cell_volume 2740.143682
_symmetry_space_group_name_H-M "C 2/M"
_symmetry_group_IT_number 12
_symmetry_cell_setting 'monoclinic'
loop_
_space_group_symop_operation_xyz
x,y,z
-x,y,-z
-x,-y,-z
x,-y,z
1/2+x,1/2+y,z
1/2-x,1/2+y,-z
1/2-x,1/2-y,-z
1/2+x,1/2-y,z
loop_
_atom_site_type_symbol
_atom_site_label
_atom_site_fract_x
_atom_site_fract_y
_atom_site_fract_z
Si Si1 0.146630 0.673051 0.020442
Si Si2 0.199585 0.826962 0.591310
Si Si3 0.145404 0.324967 0.286710
Si Si4 0.592942 0.826173 0.678904
Si Si5 0.265279 0.673572 0.185132
Si Si6 0.939104 0.177028 0.066846
Si Si7 0.558177 0.668230 0.504088
O O1 0.145078 0.500000 0.990672
O O2 0.139560 0.685597 0.157975
O O3 0.201772 0.739475 0.932941
O O4 0.099413 0.757948 0.996386
O O5 0.250000 0.750000 0.500000
O O6 0.148819 0.735946 0.594386
O O7 0.203494 0.818252 0.722557
O O8 0.196854 0.000000 0.562874
O O9 0.141250 0.500000 0.322750
O O10 0.205968 0.274616 0.258006
O O11 0.101580 0.231426 0.385027
O O12 0.578200 0.743822 0.802740
O O13 0.554197 0.777641 0.611665
O O14 0.595038 0.000000 0.695444
O O15 0.261050 0.500000 0.154717
O O16 0.933813 0.000000 0.073153
O O17 0.000000 0.215554 0.000000
O O18 0.500000 0.661621 0.500000
O O19 0.573172 0.500000 0.527352
#
# Coordination Sequence:
#
# PCOD9225455 Si02
#       7
#     8   8   8   8   8   8   8
#     4  11  23  39  64  98 133 168 213 264 319 385
#     4  11  22  37  62  94 130 172 216 264 318 381
#     4  10  23  42  64  96 132 169 216 265 318 382
#     4  12  25  43  68  96 130 167 211 269 326 383
#     4  10  21  39  62  90 129 171 212 259 316 381
#     4  11  25  44  67  94 128 170 217 268 323 387
#     4  11  26  46  68  95 127 168 218 266 319 388
#
# _framework density 10.218442
#
# number of rings (size 3 to 8) (size 9 to 14) (size 15 to 20)
#    0.000    1.143    1.429    4.286    2.000    5.714 
#    0.000    0.000    0.000    0.000    0.000    0.000 
#    0.000    0.000    0.000    0.000    0.000    0.000 
#
# Total GULP energy -156575.670721 kJ/mol
# GULP energy per Si atom -5591.988240 kJ/mol
# Density = 1.019518 g / cm^3
# Si number density = 10.218442 Si / 1000 Ang^3
#
#
#
# Elastic Constant Matrix: (Units=GPa)
#
#
# Indices 1 2 3 4 5 6 
#
# 1 100.7504 37.3224 18.4072 0.0000 -8.4720 0.0000
# 2 37.3224 3.4141 20.0340 0.0000 -29.8695 0.0000
# 3 18.4072 20.0340 38.5733 0.0000 -8.5608 0.0000
# 4 0.0000 0.0000 0.0000 23.1681 0.0000 2.6176
# 5 -8.4720 -29.8695 -8.5608 0.0000 22.6428 0.0000
# 6 0.0000 0.0000 0.0000 2.6176 0.0000 25.6358
#
#
#
# Elastic Compliance Matrix: (Units=1/GPa)
#
#
# Indices 1 2 3 4 5 6 
#
# 1 0.009599 0.005633 -0.005524 0.000000 0.008934 0.000000
# 2 0.005633 -0.022907 0.003243 0.000000 -0.026884 0.000000
# 3 -0.005524 0.003243 0.029874 0.000000 0.013506 0.000000
# 4 0.000000 0.000000 0.000000 0.043666 0.000000 -0.004459
# 5 0.008934 -0.026884 0.013506 0.000000 0.017148 0.000000
# 6 0.000000 0.000000 0.000000 -0.004459 0.000000 0.039463
#
#
# Mechanical properties :
#
#
# Convention : Reuss Voigt Hill
#
# Bulk Modulus (GPa) = 42.97421 32.69611 37.83516
# Shear Modulus (GPa) = 42.40974 18.75428 30.58201
#
# Velocity S-wave (km/s) = 4.56033 3.03259 3.87255
# Velocity P-wave (km/s) = 6.98586 5.31935 6.20877
#
# Compressibility (1/GPa) = 0.02326977
#
# Stress axis : x y z
#
# Youngs Moduli (GPa) = 104.17363 -43.65522 33.47424
#
# Poissons Ratio (x) = 0.24589 0.18490
# Poissons Ratio (y) = -0.58676 -0.10855
# Poissons Ratio (z) = 0.57541 0.14156
#
# Static dielectric constant tensor:
#      x y z
#    x 0.280400 0.000000 0.449610 
#    y 0.000000 1.693980 0.000000 
#    z 0.449610 0.000000 1.582990 
# 
# From -- ./inp_files/180682.got.cif
#   From: 2010.05.17/outbox.ucp.g08.bks.cvg/sg12_91_cif.got.tgz:180682.got - 2010.06.11 11:47:21.
