data_PCOD9225460
_publ_section_title
;
Structure prediction by ZEFSAII (Michael W. Deem and Ramdas Pophale) SiO2 
 PCOD9225460
Probable space group: C 2/M
;
_chemical_formula_sum "Si O2"
_cell_formula_units_Z 24
_cell_length_a 15.000000
_cell_length_b 9.000000
_cell_length_c 27.000000
_cell_angle_alpha 90.000000
_cell_angle_beta 40.000000
_cell_angle_gamma 90.000000
_cell_volume 2342.960837
_symmetry_space_group_name_H-M "C 2/M"
_symmetry_group_IT_number 12
_symmetry_cell_setting 'monoclinic'
loop_
_space_group_symop_operation_xyz
x,y,z
-x,y,-z
-x,-y,-z
x,-y,z
1/2+x,1/2+y,z
1/2-x,1/2+y,-z
1/2-x,1/2-y,-z
1/2+x,1/2-y,z
loop_
_atom_site_type_symbol
_atom_site_label
_atom_site_fract_x
_atom_site_fract_y
_atom_site_fract_z
Si Si1 0.286347 0.820760 0.103934
Si Si2 0.030013 0.319686 0.069443
Si Si3 0.496493 0.321350 0.814324
Si Si4 0.961893 0.326036 0.389908
Si Si5 0.224784 0.326298 0.431349
Si Si6 0.210426 0.177143 0.335083
O O1 0.380351 0.776450 0.110130
O O2 0.127337 0.775532 0.169961
O O3 0.289555 0.000000 0.102632
O O4 0.362555 0.779401 0.020017
O O5 0.035156 0.500000 0.074693
O O6 0.050358 0.232706 0.111365
O O7 0.513045 0.500000 0.806209
O O8 0.637726 0.240062 0.740867
O O9 0.979643 0.500000 0.370814
O O10 0.876611 0.316393 0.478200
O O11 0.868859 0.244806 0.388531
O O12 0.104864 0.244003 0.339994
O O13 0.240899 0.500000 0.411697
O O14 0.172372 0.238438 0.405828
O O15 0.207133 0.000000 0.335611
#
# Coordination Sequence:
#
# PCOD9225460 Si02
#       6
#     8   8   8   8   8   8
#     4   8  17  34  58  81 106 142 181 224 276 336
#     4   9  17  35  59  82 106 139 184 227 274 337
#     4  11  22  36  53  79 113 147 183 229 285 338
#     4  10  21  39  63  89 115 146 187 234 283 338
#     4  10  21  39  63  89 116 147 185 232 284 339
#     4  12  25  39  56  81 115 156 196 236 284 335
#
# _framework density 10.243449
#
# number of rings (size 3 to 8) (size 9 to 14) (size 15 to 20)
#    0.000    2.000    0.000    5.000    0.000    5.333 
#    0.000    9.167    0.000    0.000    0.000    0.000 
#    0.000    0.000    0.000    0.000    0.000    0.000 
#
# Total GULP energy -134123.668701 kJ/mol
# GULP energy per Si atom -5588.486196 kJ/mol
# Density = 1.022013 g / cm^3
# Si number density = 10.243449 Si / 1000 Ang^3
#
#
#
# Elastic Constant Matrix: (Units=GPa)
#
#
# Indices 1 2 3 4 5 6 
#
# 1 89.6658 23.1410 12.3029 0.0000 -37.2414 0.0002
# 2 23.1410 96.4589 12.4075 0.0000 -25.6259 0.0004
# 3 12.3029 12.4075 11.1739 0.0000 -24.0805 0.0000
# 4 0.0000 0.0000 0.0000 27.8629 0.0000 4.9540
# 5 -37.2414 -25.6259 -24.0805 0.0000 35.8950 0.0000
# 6 0.0002 0.0004 0.0000 4.9540 0.0000 27.9145
#
#
#
# Elastic Compliance Matrix: (Units=1/GPa)
#
#
# Indices 1 2 3 4 5 6 
#
# 1 0.012137 -0.001281 -0.029671 0.000000 -0.008227 0.000000
# 2 -0.001281 0.012218 -0.008474 0.000000 0.001709 0.000000
# 3 -0.029671 -0.008474 -0.117092 0.000000 -0.115386 0.000000
# 4 0.000000 0.000000 0.000000 0.037059 0.000000 -0.006577
# 5 -0.008227 0.001709 -0.115386 0.000000 -0.056864 0.000000
# 6 0.000000 0.000000 0.000000 -0.006577 0.000000 0.036991
#
#
# Mechanical properties :
#
#
# Convention : Reuss Voigt Hill
#
# Bulk Modulus (GPa) = -5.82789 32.55572 13.36391
# Shear Modulus (GPa) = -92.77395 28.29761 -32.23817
#
# Velocity S-wave (km/s) = -6.73668 3.72055 -3.97117
# Velocity P-wave (km/s) = 7.95998 5.86363 3.80652
#
# Compressibility (1/GPa) = -0.17158856
#
# Stress axis : x y z
#
# Youngs Moduli (GPa) = 82.39088 81.84344 -8.54029
#
# Poissons Ratio (x) = 0.10483 -0.25340
# Poissons Ratio (y) = 0.10553 -0.07237
# Poissons Ratio (z) = 2.44460 0.69358
#
# Static dielectric constant tensor:
#      x y z
#    x 1.735350 0.000000 -0.021680 
#    y 0.000000 1.671300 0.000000 
#    z -0.021680 0.000000 1.760450 
# 
# From -- ./inp_files/308267.got.cif
#   From: 2010.05.17/outbox.ucp.g08.bks.cvg/sg12_155_cif.got.tgz:308267.got - 2010.06.11 11:47:21.
