data_PCOD9225568
_publ_section_title
;
Structure prediction by ZEFSAII (Michael W. Deem and Ramdas Pophale) SiO2 
 PCOD9225568
Probable space group: C 2/M
;
_chemical_formula_sum "Si O2"
_cell_formula_units_Z 32
_cell_length_a 12.000000
_cell_length_b 24.000000
_cell_length_c 12.000000
_cell_angle_alpha 90.000000
_cell_angle_beta 70.000000
_cell_angle_gamma 90.000000
_cell_volume 3247.577697
_symmetry_space_group_name_H-M "C 2/M"
_symmetry_group_IT_number 12
_symmetry_cell_setting 'monoclinic'
loop_
_space_group_symop_operation_xyz
x,y,z
-x,y,-z
-x,-y,-z
x,-y,z
1/2+x,1/2+y,z
1/2-x,1/2+y,-z
1/2-x,1/2-y,-z
1/2+x,1/2-y,z
loop_
_atom_site_type_symbol
_atom_site_label
_atom_site_fract_x
_atom_site_fract_y
_atom_site_fract_z
Si Si1 0.901037 0.330154 0.621869
Si Si2 0.671916 0.663003 0.550423
Si Si3 0.985933 0.566640 0.729279
Si Si4 0.005968 0.243930 0.741432
Si Si5 0.684789 0.157166 0.728672
Si Si6 0.632554 0.639586 0.133169
Si Si7 0.225960 0.064438 0.903712
Si Si8 0.084716 0.065454 0.718630
O O1 0.778096 0.326112 0.600993
O O2 0.000000 0.312623 0.500000
O O3 0.937633 0.393046 0.646191
O O4 0.911387 0.286692 0.719544
O O5 0.570515 0.706853 0.622350
O O6 0.726122 0.665007 0.407963
O O7 0.630507 0.600902 0.597800
O O8 0.010446 0.500000 0.697039
O O9 0.098210 0.603184 0.735549
O O10 0.869231 0.566718 0.848119
O O11 0.102655 0.287015 0.759748
O O12 0.942161 0.197907 0.841737
O O13 0.761869 0.148447 0.813491
O O14 0.540800 0.592988 0.208715
O O15 0.679456 0.612571 0.002025
O O16 0.168909 0.072882 0.799759
O O17 0.193311 0.000000 0.947857
O O18 0.077938 0.000000 0.698771
#
# Coordination Sequence:
#
# PCOD9225568 Si02
#       8
#     8   8   8   8   8   8   8   8
#     4  11  20  36  61  90 121 161 207 251 301 361
#     4  11  21  36  62  91 123 161 200 255 305 367
#     4  10  22  39  63  93 123 158 205 257 306 366
#     4  10  23  37  61  88 121 164 212 250 301 363
#     4  11  24  40  59  95 130 163 200 244 317 378
#     4  11  24  40  64  89 124 165 209 257 303 366
#     4  10  21  42  70  90 115 161 216 260 300 356
#     4  10  22  40  66  95 121 158 212 258 303 361
#
# _framework density 9.8534980000000001
#
# number of rings (size 3 to 8) (size 9 to 14) (size 15 to 20)
#    0.000    1.500    3.750    1.875    1.750    4.750 
#    0.000    4.375   11.000    0.000    0.000    0.000 
#    0.000    0.000    0.000    0.000    0.000    0.000 
#
# Total GULP energy -178618.130629 kJ/mol
# GULP energy per Si atom -5581.816582 kJ/mol
# Density = 0.983107 g / cm^3
# Si number density = 9.853498 Si / 1000 Ang^3
#
#
#
# Elastic Constant Matrix: (Units=GPa)
#
#
# Indices 1 2 3 4 5 6 
#
# 1 52.1388 18.1744 2.9937 0.0000 -0.2545 0.0000
# 2 18.1744 153.7492 38.6513 0.0000 0.4372 0.0000
# 3 2.9937 38.6513 53.4867 0.0000 -4.6851 0.0000
# 4 0.0000 0.0000 0.0000 28.5305 0.0000 -6.6164
# 5 -0.2545 0.4372 -4.6851 0.0000 24.4263 0.0000
# 6 0.0000 0.0000 0.0000 -6.6164 0.0000 27.4968
#
#
#
# Elastic Compliance Matrix: (Units=1/GPa)
#
#
# Indices 1 2 3 4 5 6 
#
# 1 0.020030 -0.002561 0.000765 0.000000 0.000401 0.000000
# 2 -0.002561 0.008314 -0.005981 0.000000 -0.001323 0.000000
# 3 0.000765 -0.005981 0.023378 0.000000 0.004599 0.000000
# 4 0.000000 0.000000 0.000000 0.037122 0.000000 0.008932
# 5 0.000401 -0.001323 0.004599 0.000000 0.041850 0.000000
# 6 0.000000 0.000000 0.000000 0.008932 0.000000 0.038517
#
#
# Mechanical properties :
#
#
# Convention : Reuss Voigt Hill
#
# Bulk Modulus (GPa) = 27.64822 42.11260 34.88041
# Shear Modulus (GPa) = 25.40383 29.39442 27.39912
#
# Velocity S-wave (km/s) = 3.59427 3.86628 3.73275
# Velocity P-wave (km/s) = 5.59331 6.43013 6.02626
#
# Compressibility (1/GPa) = 0.03616870
#
# Stress axis : x y z
#
# Youngs Moduli (GPa) = 49.92418 120.27823 42.77530
#
# Poissons Ratio (x) = 0.30805 -0.03272
# Poissons Ratio (y) = 0.12786 0.25582
# Poissons Ratio (z) = -0.03818 0.71933
#
# Static dielectric constant tensor:
#      x y z
#    x 1.737640 0.000000 -0.019870 
#    y 0.000000 1.697990 0.000000 
#    z -0.019870 0.000000 1.699360 
# 
# From -- ./inp_files/135941.got.cif
#   From: 2010.05.17/outbox.ucp.g08.bks.cvg/sg12_68_cif.got.tgz:135941.got - 2010.06.11 11:47:21.
