data_PCOD9225889
_publ_section_title
;
Structure prediction by ZEFSAII (Michael W. Deem and Ramdas Pophale) SiO2 
 PCOD9225889
Probable space group: C 2/M
;
_chemical_formula_sum "Si O2"
_cell_formula_units_Z 24
_cell_length_a 21.000000
_cell_length_b 18.000000
_cell_length_c 21.000000
_cell_angle_alpha 90.000000
_cell_angle_beta 20.000000
_cell_angle_gamma 90.000000
_cell_volume 2714.955898
_symmetry_space_group_name_H-M "C 2/M"
_symmetry_group_IT_number 12
_symmetry_cell_setting 'monoclinic'
loop_
_space_group_symop_operation_xyz
x,y,z
-x,y,-z
-x,-y,-z
x,-y,z
1/2+x,1/2+y,z
1/2-x,1/2+y,-z
1/2-x,1/2-y,-z
1/2+x,1/2-y,z
loop_
_atom_site_type_symbol
_atom_site_label
_atom_site_fract_x
_atom_site_fract_y
_atom_site_fract_z
Si Si1 0.571633 0.589034 0.534007
Si Si2 0.619565 0.088578 0.445541
Si Si3 0.401689 0.088108 0.783026
Si Si4 0.530923 0.409845 0.810347
Si Si5 0.290186 0.911188 0.196008
Si Si6 0.746845 0.162197 0.515058
O O1 0.570944 0.500000 0.550188
O O2 0.360723 0.613913 0.714797
O O3 0.692196 0.597942 0.356431
O O4 0.665298 0.636561 0.501112
O O5 0.500000 0.121255 0.500000
O O6 0.498290 0.097474 0.623387
O O7 0.829543 0.114944 0.263707
O O8 0.638589 0.000000 0.415670
O O9 0.535981 0.131940 0.704827
O O10 0.407780 0.000000 0.792753
O O11 0.185754 0.111275 0.982580
O O12 0.537972 0.500000 0.801526
O O13 0.627039 0.377730 0.657112
O O14 0.304782 0.000000 0.171518
O O15 0.500000 0.880466 0.000000
O O16 0.750000 0.250000 0.500000
#
# Coordination Sequence:
#
# PCOD9225889 Si02
#       6
#     8   8   8   8   8   8
#     4   9  17  31  52  77 102 129 168 211 254 306
#     4   8  14  26  47  75 100 123 158 206 258 300
#     4   9  18  33  52  74 100 130 170 217 259 301
#     4   9  18  33  52  74 100 130 170 217 259 301
#     4   8  15  29  52  81 103 120 155 211 265 310
#     4  11  22  34  50  73 105 145 173 208 252 310
#
# _framework density 8.8399230000000006
#
# number of rings (size 3 to 8) (size 9 to 14) (size 15 to 20)
#    0.000    3.000    0.000    3.500    0.000    2.667 
#    0.000    6.667   14.667    0.000    0.000    0.000 
#    0.000    0.000    0.000    0.000    0.000    0.000 
#
# Total GULP energy -133626.717575 kJ/mol
# GULP energy per Si atom -5567.779899 kJ/mol
# Density = 0.881980 g / cm^3
# Si number density = 8.839923 Si / 1000 Ang^3
#
#
#
# Elastic Constant Matrix: (Units=GPa)
#
#
# Indices 1 2 3 4 5 6 
#
# 1 139.0950 42.3252 51.4404 0.0083 -50.9338 -0.0058
# 2 42.3252 26.0108 31.5735 0.0654 -10.7964 -0.0240
# 3 51.4404 31.5735 130.3326 0.0264 -58.1538 -0.0232
# 4 0.0083 0.0654 0.0264 9.4317 -0.0098 -0.2721
# 5 -50.9338 -10.7964 -58.1538 -0.0098 29.8785 -0.0149
# 6 -0.0058 -0.0240 -0.0232 -0.2721 -0.0149 4.9208
#
#
#
# Elastic Compliance Matrix: (Units=1/GPa)
#
#
# Indices 1 2 3 4 5 6 
#
# 1 -0.003811 0.013014 -0.018616 -0.000079 -0.038026 -0.000149
# 2 0.013014 0.019635 0.024110 -0.000123 0.076206 0.000449
# 3 -0.018616 0.024110 -0.008309 -0.000170 -0.039195 -0.000072
# 4 -0.000079 -0.000123 -0.000170 0.106196 -0.000472 0.005870
# 5 -0.038026 0.076206 -0.039195 -0.000472 -0.080104 -0.000127
# 6 -0.000149 0.000449 -0.000072 0.005870 -0.000127 0.203544
#
#
# Mechanical properties :
#
#
# Convention : Reuss Voigt Hill
#
# Bulk Modulus (GPa) = 22.45631 60.67962 41.56796
# Shear Modulus (GPa) = 23.25813 20.18616 21.72214
#
# Velocity S-wave (km/s) = 3.63094 3.38266 3.50900
# Velocity P-wave (km/s) = 5.50523 7.04645 6.32297
#
# Compressibility (1/GPa) = 0.04453092
#
# Stress axis : x y z
#
# Youngs Moduli (GPa) = -262.42863 50.92945 -120.34968
#
# Poissons Ratio (x) = -0.66280 -2.24040
# Poissons Ratio (y) = 3.41525 2.90158
# Poissons Ratio (z) = -4.88531 -1.22789
#
# Static dielectric constant tensor:
#      x y z
#    x 1.634820 -0.000010 -0.027130 
#    y -0.000010 1.577210 0.000020 
#    z -0.027130 0.000020 1.611870 
# 
# From -- ./inp_files/322523.got.cif
#   From: 2010.05.17/outbox.ucp.g08.bks.cvg/sg12_162_cif.got.tgz:322523.got - 2010.06.11 11:47:21.
