data_PCOD9225633
_publ_section_title
;
Structure prediction by ZEFSAII (Michael W. Deem and Ramdas Pophale) SiO2 
 PCOD9225633
Probable space group: C 2/M
;
_chemical_formula_sum "Si O2"
_cell_formula_units_Z 28
_cell_length_a 30.000000
_cell_length_b 9.000000
_cell_length_c 12.000000
_cell_angle_alpha 90.000000
_cell_angle_beta 60.000000
_cell_angle_gamma 90.000000
_cell_volume 2805.922308
_symmetry_space_group_name_H-M "C 2/M"
_symmetry_group_IT_number 12
_symmetry_cell_setting 'monoclinic'
loop_
_space_group_symop_operation_xyz
x,y,z
-x,y,-z
-x,-y,-z
x,-y,z
1/2+x,1/2+y,z
1/2-x,1/2+y,-z
1/2-x,1/2-y,-z
1/2+x,1/2-y,z
loop_
_atom_site_type_symbol
_atom_site_label
_atom_site_fract_x
_atom_site_fract_y
_atom_site_fract_z
Si Si1 0.649183 0.321013 0.274024
Si Si2 0.907498 0.826899 0.332654
Si Si3 0.556916 0.674300 0.965691
Si Si4 0.450213 0.178810 0.484063
Si Si5 0.699548 0.321870 0.612274
Si Si6 0.765806 0.672074 0.208846
Si Si7 0.868590 0.326742 0.942239
O O1 0.646358 0.500000 0.283390
O O2 0.603202 0.248434 0.403497
O O3 0.708143 0.280971 0.240141
O O4 0.635150 0.265227 0.167278
O O5 0.916227 0.822578 0.188607
O O6 0.947957 0.738038 0.358662
O O7 0.848357 0.771912 0.405823
O O8 0.910152 0.000000 0.364246
O O9 0.551551 0.500000 0.007236
O O10 0.500000 0.731001 0.000000
O O11 0.590928 0.758744 0.017067
O O12 0.500000 0.220963 0.500000
O O13 0.448007 0.000000 0.487595
O O14 0.698733 0.500000 0.610756
O O15 0.750000 0.250000 0.500000
O O16 0.705708 0.268106 0.731698
O O17 0.760575 0.500000 0.254838
O O18 0.809509 0.673440 0.059415
O O19 0.883113 0.500000 0.903977
#
# Coordination Sequence:
#
# PCOD9225633 Si02
#       7
#     8   8   8   8   8   8   8
#     4  11  24  42  65  91 124 166 212 255 302 368
#     4  10  22  41  63  91 124 161 206 251 301 365
#     4  10  22  41  65  94 125 162 209 254 304 368
#     4  11  26  45  64  91 125 161 206 259 315 368
#     4  11  22  36  59  89 124 161 202 251 302 362
#     4  10  22  40  61  91 126 162 204 250 306 369
#     4  11  23  40  64  95 130 164 203 254 314 369
#
# _framework density 9.9788940000000004
#
# number of rings (size 3 to 8) (size 9 to 14) (size 15 to 20)
#    0.000    1.429    1.429    3.000    2.000    8.286 
#    0.000    0.000    0.000    0.000    0.000    0.000 
#    0.000    0.000    0.000    0.000    0.000    0.000 
#
# Total GULP energy -156127.295847 kJ/mol
# GULP energy per Si atom -5575.974852 kJ/mol
# Density = 0.995618 g / cm^3
# Si number density = 9.978894 Si / 1000 Ang^3
#
#
#
# Elastic Constant Matrix: (Units=GPa)
#
#
# Indices 1 2 3 4 5 6 
#
# 1 186.8856 47.8174 9.5652 0.0000 11.0748 0.0000
# 2 47.8174 75.6016 7.0784 0.0000 9.9439 0.0000
# 3 9.5652 7.0784 32.2339 0.0000 10.9810 0.0000
# 4 0.0000 0.0000 0.0000 29.3450 0.0000 6.7989
# 5 11.0748 9.9439 10.9810 0.0000 39.7820 0.0000
# 6 0.0000 0.0000 0.0000 6.7989 0.0000 42.0592
#
#
#
# Elastic Compliance Matrix: (Units=1/GPa)
#
#
# Indices 1 2 3 4 5 6 
#
# 1 0.006429 -0.003911 -0.000853 0.000000 -0.000577 0.000000
# 2 -0.003911 0.016177 -0.001529 0.000000 -0.002533 0.000000
# 3 -0.000853 -0.001529 0.034660 0.000000 -0.008948 0.000000
# 4 0.000000 0.000000 0.000000 0.035403 0.000000 -0.005723
# 5 -0.000577 -0.002533 -0.008948 0.000000 0.028401 0.000000
# 6 0.000000 0.000000 0.000000 -0.005723 0.000000 0.024701
#
#
# Mechanical properties :
#
#
# Convention : Reuss Voigt Hill
#
# Bulk Modulus (GPa) = 22.38046 47.07148 34.72597
# Shear Modulus (GPa) = 28.85999 37.58791 33.22395
#
# Velocity S-wave (km/s) = 3.80682 4.34449 4.08451
# Velocity P-wave (km/s) = 5.52818 6.98590 6.29935
#
# Compressibility (1/GPa) = 0.04468183
#
# Stress axis : x y z
#
# Youngs Moduli (GPa) = 155.53732 61.81586 28.85157
#
# Poissons Ratio (x) = 0.24175 0.02460
# Poissons Ratio (y) = 0.60827 0.04412
# Poissons Ratio (z) = 0.13260 0.09452
#
# Static dielectric constant tensor:
#      x y z
#    x 1.730690 0.000000 0.027530 
#    y 0.000000 1.685780 0.000000 
#    z 0.027530 0.000000 1.983820 
# 
# From -- ./inp_files/187230.got.cif
#   From: 2010.05.17/outbox.ucp.g08.bks.cvg/sg12_94_cif.got.tgz:187230.got - 2010.06.11 11:47:21.
