data_PCOD9225357
_publ_section_title
;
Structure prediction by ZEFSAII (Michael W. Deem and Ramdas Pophale) SiO2 
 PCOD9225357
Probable space group: C 2/M
;
_chemical_formula_sum "Si O2"
_cell_formula_units_Z 32
_cell_length_a 30.000000
_cell_length_b 9.000000
_cell_length_c 24.000000
_cell_angle_alpha 90.000000
_cell_angle_beta 30.000000
_cell_angle_gamma 90.000000
_cell_volume 3240.000000
_symmetry_space_group_name_H-M "C 2/M"
_symmetry_group_IT_number 12
_symmetry_cell_setting 'monoclinic'
loop_
_space_group_symop_operation_xyz
x,y,z
-x,y,-z
-x,-y,-z
x,-y,z
1/2+x,1/2+y,z
1/2-x,1/2+y,-z
1/2-x,1/2-y,-z
1/2+x,1/2-y,z
loop_
_atom_site_type_symbol
_atom_site_label
_atom_site_fract_x
_atom_site_fract_y
_atom_site_fract_z
Si Si1 0.913766 0.179155 0.054959
Si Si2 0.185995 0.679731 0.187225
Si Si3 0.725065 0.322633 0.264282
Si Si4 0.157826 0.675953 0.443304
Si Si5 0.787128 0.176303 0.404228
Si Si6 0.984658 0.832836 0.226305
Si Si7 0.628240 0.173334 0.015754
Si Si8 0.488958 0.671555 0.671852
O O1 0.822031 0.253491 0.174902
O O2 0.915858 0.251100 0.991299
O O3 0.904487 0.000000 0.061902
O O4 0.000000 0.211080 0.000000
O O5 0.179596 0.500000 0.193024
O O6 0.188334 0.742590 0.248361
O O7 0.283439 0.736970 0.062787
O O8 0.108255 0.759859 0.236226
O O9 0.729905 0.500000 0.251461
O O10 0.666752 0.274882 0.379113
O O11 0.169675 0.500000 0.419326
O O12 0.231966 0.722736 0.409276
O O13 0.059709 0.713540 0.570496
O O14 0.750000 0.250000 0.500000
O O15 0.893322 0.199728 0.292342
O O16 0.773309 0.000000 0.423603
O O17 0.979026 0.839802 0.298820
O O18 0.014853 0.000000 0.175578
O O19 0.054100 0.702488 0.141319
O O20 0.647555 0.000000 0.985672
O O21 0.491881 0.500000 0.647015
#
# Coordination Sequence:
#
# PCOD9225357 Si02
#       8
#     8   8   8   8   8   8   8   8
#     4  10  21  38  60  85 118 159 201 246 300 360
#     4  11  23  43  67  89 120 158 199 251 309 363
#     4  11  23  40  62  89 122 157 201 250 301 357
#     4  11  23  39  61  92 126 162 205 247 298 362
#     4  10  21  38  61  87 122 163 202 247 298 353
#     4  10  22  40  61  89 124 164 203 245 299 359
#     4  11  23  39  61  90 122 157 201 251 300 356
#     4  11  23  41  65  91 121 158 204 254 304 356
#
# _framework density 9.8765429999999999
#
# number of rings (size 3 to 8) (size 9 to 14) (size 15 to 20)
#    0.000    1.375    1.250    6.000    1.750    4.000 
#    0.000    2.500    0.000    0.000    0.000    0.000 
#    0.000    0.000    0.000    0.000    0.000    0.000 
#
# Total GULP energy -178460.225777 kJ/mol
# GULP energy per Si atom -5576.882056 kJ/mol
# Density = 0.985406 g / cm^3
# Si number density = 9.876543 Si / 1000 Ang^3
#
#
#
# Elastic Constant Matrix: (Units=GPa)
#
#
# Indices 1 2 3 4 5 6 
#
# 1 3.6504 10.5019 -2.6822 0.0050 -43.1913 0.0005
# 2 10.5019 104.2091 13.0530 0.0019 -8.7616 -0.0056
# 3 -2.6822 13.0530 36.7247 0.0038 -4.8567 -0.0016
# 4 0.0050 0.0019 0.0038 29.2523 0.0007 -2.4962
# 5 -43.1913 -8.7616 -4.8567 0.0007 22.9165 0.0017
# 6 0.0005 -0.0056 -0.0016 -2.4962 0.0017 31.2936
#
#
#
# Elastic Compliance Matrix: (Units=1/GPa)
#
#
# Indices 1 2 3 4 5 6 
#
# 1 -0.012235 -0.000289 -0.003966 0.000003 -0.024011 0.000002
# 2 -0.000289 0.010266 -0.003316 0.000000 0.002678 0.000002
# 3 -0.003966 -0.003316 0.027740 -0.000003 -0.002864 0.000001
# 4 0.000003 0.000000 -0.000003 0.034420 0.000004 0.002746
# 5 -0.024011 0.002678 -0.002864 0.000004 -0.001200 0.000001
# 6 0.000002 0.000002 0.000001 0.002746 0.000001 0.032174
#
#
# Mechanical properties :
#
#
# Convention : Reuss Voigt Hill
#
# Bulk Modulus (GPa) = 94.08715 20.70329 57.39522
# Shear Modulus (GPa) = 45.51721 24.93990 35.22855
#
# Velocity S-wave (km/s) = 4.80553 3.55714 4.22767
# Velocity P-wave (km/s) = 8.86148 5.23209 7.27670
#
# Compressibility (1/GPa) = 0.01062844
#
# Stress axis : x y z
#
# Youngs Moduli (GPa) = -81.73204 97.41218 36.04941
#
# Poissons Ratio (x) = 0.02815 0.14298
# Poissons Ratio (y) = -0.02362 0.11953
# Poissons Ratio (z) = -0.32417 0.32299
#
# Static dielectric constant tensor:
#      x y z
#    x 1.654840 0.000000 0.016920 
#    y 0.000000 1.677660 0.000000 
#    z 0.016920 0.000000 1.737940 
# 
# From -- ./inp_files/353285.got.cif
#   From: 2010.05.17/outbox.ucp.g08.bks.cvg/sg12_177_cif.got.tgz:353285.got - 2010.06.11 11:47:21.
