data_PCOD9225454
_publ_section_title
;
Structure prediction by ZEFSAII (Michael W. Deem and Ramdas Pophale) SiO2 
 PCOD9225454
Probable space group: C 2/M
;
_chemical_formula_sum "Si O2"
_cell_formula_units_Z 28
_cell_length_a 24.000000
_cell_length_b 15.000000
_cell_length_c 9.000000
_cell_angle_alpha 90.000000
_cell_angle_beta 60.000000
_cell_angle_gamma 90.000000
_cell_volume 2805.922308
_symmetry_space_group_name_H-M "C 2/M"
_symmetry_group_IT_number 12
_symmetry_cell_setting 'monoclinic'
loop_
_space_group_symop_operation_xyz
x,y,z
-x,y,-z
-x,-y,-z
x,-y,z
1/2+x,1/2+y,z
1/2-x,1/2+y,-z
1/2-x,1/2-y,-z
1/2+x,1/2-y,z
loop_
_atom_site_type_symbol
_atom_site_label
_atom_site_fract_x
_atom_site_fract_y
_atom_site_fract_z
Si Si1 0.012500 0.106016 0.304450
Si Si2 0.308007 0.399041 0.741073
Si Si3 0.200084 0.894607 0.728664
Si Si4 0.115744 0.803373 0.610339
Si Si5 0.146105 0.204468 0.062057
Si Si6 0.845277 0.400504 0.077790
Si Si7 0.652533 0.102947 0.574254
O O1 0.956607 0.162243 0.300181
O O2 0.000000 0.115181 0.500000
O O3 0.079238 0.149841 0.163181
O O4 0.010333 0.000000 0.274256
O O5 0.328619 0.500000 0.763930
O O6 0.345184 0.374372 0.542725
O O7 0.324588 0.312382 0.815661
O O8 0.232095 0.402193 0.823056
O O9 0.149913 0.826322 0.719561
O O10 0.270992 0.888374 0.562273
O O11 0.181855 0.000000 0.749487
O O12 0.196688 0.853454 0.897061
O O13 0.122876 0.698305 0.559584
O O14 0.136362 0.307580 0.028223
O O15 0.867036 0.500000 0.992657
O O16 0.861937 0.395943 0.230198
O O17 0.635091 0.000000 0.545685
#
# Coordination Sequence:
#
# PCOD9225454 Si02
#       7
#     8   8   8   8   8   8   8
#     4  11  24  42  63  85 119 162 199 237 295 365
#     4  11  21  36  62  91 123 160 196 240 307 368
#     4  11  21  35  61  94 125 153 196 253 302 351
#     4  12  21  38  63  88 118 161 205 238 295 358
#     4  12  23  39  59  91 126 157 199 252 296 344
#     4  10  21  39  62  90 121 160 202 244 298 359
#     4  10  21  39  62  90 123 159 199 246 300 356
#
# _framework density 9.9788940000000004
#
# number of rings (size 3 to 8) (size 9 to 14) (size 15 to 20)
#    0.000    1.000    4.286    4.286    0.000    0.571 
#    0.000    4.286    0.000    2.571    0.000    0.000 
#    0.000    0.000    0.000    0.000    0.000    0.000 
#
# Total GULP energy -156021.989374 kJ/mol
# GULP energy per Si atom -5572.213906 kJ/mol
# Density = 0.995618 g / cm^3
# Si number density = 9.978894 Si / 1000 Ang^3
#
#
#
# Elastic Constant Matrix: (Units=GPa)
#
#
# Indices 1 2 3 4 5 6 
#
# 1 51.1061 35.2204 -17.0032 0.0000 -19.1926 0.0000
# 2 35.2204 215.0578 11.2157 0.0000 -20.8204 0.0000
# 3 -17.0032 11.2157 34.8401 0.0000 0.7033 0.0000
# 4 0.0000 0.0000 0.0000 -41.8005 0.0000 62.2402
# 5 -19.1926 -20.8204 0.7033 0.0000 16.0226 0.0000
# 6 0.0000 0.0000 0.0000 62.2402 0.0000 -19.1283
#
#
#
# Elastic Compliance Matrix: (Units=1/GPa)
#
#
# Indices 1 2 3 4 5 6 
#
# 1 0.051986 -0.004501 0.025704 0.000000 0.055294 0.000000
# 2 -0.004501 0.005831 -0.004122 0.000000 0.002366 0.000000
# 3 0.025704 -0.004122 0.042098 0.000000 0.023586 0.000000
# 4 0.000000 0.000000 0.000000 0.006222 0.000000 0.020246
# 5 0.055294 0.002366 0.023586 0.000000 0.130686 0.000000
# 6 0.000000 0.000000 0.000000 0.020246 0.000000 0.013597
#
#
# Mechanical properties :
#
#
# Convention : Reuss Voigt Hill
#
# Bulk Modulus (GPa) = 7.45836 39.98554 23.72195
# Shear Modulus (GPa) = 19.16074 9.12349 14.14211
#
# Velocity S-wave (km/s) = 3.10185 2.14040 2.66484
# Velocity P-wave (km/s) = 4.07109 5.11732 4.62389
#
# Compressibility (1/GPa) = 0.13407778
#
# Stress axis : x y z
#
# Youngs Moduli (GPa) = 19.23576 171.49307 23.75421
#
# Poissons Ratio (x) = 0.77193 -0.61058
# Poissons Ratio (y) = 0.08658 0.09791
# Poissons Ratio (z) = -0.49444 0.70684
#
# Static dielectric constant tensor:
#      x y z
#    x 1.691960 0.000000 0.010460 
#    y 0.000000 1.688080 0.000000 
#    z 0.010460 0.000000 1.676070 
# 
# From -- ./inp_files/96737.got.cif
#   From: 2010.05.17/outbox.ucp.g08.bks.cvg/sg12_49_cif.got.tgz:96737.got - 2010.06.11 11:47:21.
