data_PCOD9225584
_publ_section_title
;
Structure prediction by ZEFSAII (Michael W. Deem and Ramdas Pophale) SiO2 
 PCOD9225584
Probable space group: C 2/M
;
_chemical_formula_sum "Si O2"
_cell_formula_units_Z 20
_cell_length_a 18.000000
_cell_length_b 21.000000
_cell_length_c 15.000000
_cell_angle_alpha 90.000000
_cell_angle_beta 160.000000
_cell_angle_gamma 90.000000
_cell_volume 1939.254213
_symmetry_space_group_name_H-M "C 2/M"
_symmetry_group_IT_number 12
_symmetry_cell_setting 'monoclinic'
loop_
_space_group_symop_operation_xyz
x,y,z
-x,y,-z
-x,-y,-z
x,-y,z
1/2+x,1/2+y,z
1/2-x,1/2+y,-z
1/2-x,1/2-y,-z
1/2+x,1/2-y,z
loop_
_atom_site_type_symbol
_atom_site_label
_atom_site_fract_x
_atom_site_fract_y
_atom_site_fract_z
Si Si1 0.923889 0.832773 0.720907
Si Si2 0.139488 0.757546 0.522172
Si Si3 0.985382 0.423906 0.761257
Si Si4 0.265259 0.125754 0.789110
Si Si5 0.611755 0.871095 0.714875
O O1 0.977312 0.799142 0.686729
O O2 0.828828 0.779285 0.680883
O O3 0.743786 0.886144 0.494366
O O4 0.131083 0.863413 0.000784
O O5 0.223924 0.805746 0.694147
O O6 0.987796 0.700114 0.383855
O O7 0.973119 0.500000 0.767038
O O8 0.063087 0.412051 0.747841
O O9 0.145381 0.387466 0.010796
O O10 0.000000 0.102468 0.500000
O O11 0.500000 0.103171 0.000000
O O12 0.500000 0.897370 0.500000
#
# Coordination Sequence:
#
# PCOD9225584 Si02
#       5
#     8   8   8   8   8
#     4  10  22  42  66 100 140 189 238 298 364 438
#     4  10  22  37  67 103 147 182 231 294 373 450
#     4  11  27  48  69 100 142 195 252 304 359 434
#     4  12  26  45  74 113 153 193 239 297 374 446
#     4  11  25  41  67 100 136 189 246 304 372 428
#
# _framework density 10.313243
#
# number of rings (size 3 to 8) (size 9 to 14) (size 15 to 20)
#    0.000    1.200    2.000    2.400    5.600    4.400 
#    0.000    1.000    0.000    0.000    0.000    0.000 
#    0.000    0.000    0.000    0.000    0.000    0.000 
#
# Total GULP energy -111445.592727 kJ/mol
# GULP energy per Si atom -5572.279636 kJ/mol
# Density = 1.028977 g / cm^3
# Si number density = 10.313243 Si / 1000 Ang^3
#
#
#
# Elastic Constant Matrix: (Units=GPa)
#
#
# Indices 1 2 3 4 5 6 
#
# 1 102.4882 25.6546 47.1626 0.0000 -22.4327 -0.0001
# 2 25.6546 74.2845 14.4201 0.0000 -24.1340 0.0000
# 3 47.1626 14.4201 136.5284 -0.0001 -19.7801 -0.0003
# 4 0.0000 0.0000 -0.0001 19.3188 -0.0001 -3.6903
# 5 -22.4327 -24.1340 -19.7801 -0.0001 44.2735 -0.0002
# 6 -0.0001 0.0000 -0.0003 -3.6903 -0.0002 21.8500
#
#
#
# Elastic Compliance Matrix: (Units=1/GPa)
#
#
# Indices 1 2 3 4 5 6 
#
# 1 0.012851 -0.002605 -0.003664 0.000000 0.003455 0.000000
# 2 -0.002605 0.016915 0.000276 0.000000 0.008024 0.000000
# 3 -0.003664 0.000276 0.008889 0.000000 0.002265 0.000000
# 4 0.000000 0.000000 0.000000 0.053489 0.000000 0.009034
# 5 0.003455 0.008024 0.002265 0.000000 0.029723 0.000000
# 6 0.000000 0.000000 0.000000 0.009034 0.000000 0.047292
#
#
# Mechanical properties :
#
#
# Convention : Reuss Voigt Hill
#
# Bulk Modulus (GPa) = 37.49558 54.19729 45.84644
# Shear Modulus (GPa) = 26.31097 32.15940 29.23518
#
# Velocity S-wave (km/s) = 3.57542 3.95287 3.76887
# Velocity P-wave (km/s) = 5.93824 6.86776 6.41984
#
# Compressibility (1/GPa) = 0.02666981
#
# Stress axis : x y z
#
# Youngs Moduli (GPa) = 77.81251 59.12053 112.49635
#
# Poissons Ratio (x) = 0.15399 0.41216
# Poissons Ratio (y) = 0.20267 -0.03102
# Poissons Ratio (z) = 0.28509 -0.01630
#
# Static dielectric constant tensor:
#      x y z
#    x 1.813930 0.000000 0.051310 
#    y 0.000000 1.713890 0.000000 
#    z 0.051310 0.000000 1.768810 
# 
# From -- ./inp_files/227510.got.cif
#   From: 2010.05.17/outbox.ucp.g08.bks.cvg/sg12_114_cif.got.tgz:227510.got - 2010.06.11 11:47:21.
