data_PCOD9225958
_publ_section_title
;
Structure prediction by ZEFSAII (Michael W. Deem and Ramdas Pophale) SiO2 
 PCOD9225958
Probable space group: C 2/M
;
_chemical_formula_sum "Si O2"
_cell_formula_units_Z 21
_cell_length_a 18.000000
_cell_length_b 15.000000
_cell_length_c 9.000000
_cell_angle_alpha 90.000000
_cell_angle_beta 120.000000
_cell_angle_gamma 90.000000
_cell_volume 2104.441731
_symmetry_space_group_name_H-M "C 2/M"
_symmetry_group_IT_number 12
_symmetry_cell_setting 'monoclinic'
loop_
_space_group_symop_operation_xyz
x,y,z
-x,y,-z
-x,-y,-z
x,-y,z
1/2+x,1/2+y,z
1/2-x,1/2+y,-z
1/2-x,1/2-y,-z
1/2+x,1/2-y,z
loop_
_atom_site_type_symbol
_atom_site_label
_atom_site_fract_x
_atom_site_fract_y
_atom_site_fract_z
Si Si1 0.000000 0.500000 0.000000
Si Si2 0.413072 0.500000 0.613578
Si Si3 0.918478 0.838681 0.830243
Si Si4 0.381178 0.500000 0.235731
Si Si5 0.789972 0.160709 0.967164
Si Si6 0.032597 0.655414 0.280493
Si Si7 0.615408 0.102380 0.659465
O O1 0.977487 0.578673 0.852589
O O2 0.387611 0.412655 0.682363
O O3 0.375217 0.500000 0.409190
O O4 0.517216 0.500000 0.700938
O O5 0.852042 0.814870 0.893185
O O6 0.947202 0.749430 0.774612
O O7 0.000000 0.877894 0.000000
O O8 0.337495 0.589607 0.123350
O O9 0.710603 0.110203 0.813142
O O10 0.750000 0.250000 0.000000
O O11 0.102840 0.632298 0.477209
O O12 0.945486 0.658518 0.291264
O O13 0.587271 0.000000 0.644775
#
# Coordination Sequence:
#
# PCOD9225958 Si02
#       7
#     2   4   8   4   8   8   8
#     4  12  20  38  66 106 126 164 226 272 308 402
#     4  11  26  45  77  99 132 177 248 280 331 412
#     4  12  24  45  69  98 132 183 228 281 335 406
#     4  11  25  48  71 103 133 182 226 289 345 404
#     4  12  27  45  67  99 139 177 222 281 346 403
#     4  11  24  41  70  98 133 178 223 270 337 408
#     4  11  23  45  66  95 137 179 216 272 345 406
#
# _framework density 9.9788940000000004
#
# number of rings (size 3 to 8) (size 9 to 14) (size 15 to 20)
#    0.000    0.571    5.714    2.571    2.667    2.286 
#    0.000    0.000    0.000    0.000    0.000    0.000 
#    0.000    0.000    0.000    0.000    0.000    0.000 
#
# Total GULP energy -117121.243408 kJ/mol
# GULP energy per Si atom -5577.202067 kJ/mol
# Density = 0.995618 g / cm^3
# Si number density = 9.978894 Si / 1000 Ang^3
#
#
#
# Elastic Constant Matrix: (Units=GPa)
#
#
# Indices 1 2 3 4 5 6 
#
# 1 82.2509 33.2593 49.5772 0.0000 -19.3798 0.0000
# 2 33.2593 139.2847 57.5972 0.0000 -38.1747 0.0000
# 3 49.5772 57.5972 168.7990 0.0000 -23.9529 0.0000
# 4 0.0000 0.0000 0.0000 30.5575 0.0000 -4.1297
# 5 -19.3798 -38.1747 -23.9529 0.0000 43.6042 0.0000
# 6 0.0000 0.0000 0.0000 -4.1297 0.0000 27.1406
#
#
#
# Elastic Compliance Matrix: (Units=1/GPa)
#
#
# Indices 1 2 3 4 5 6 
#
# 1 0.015779 -0.001157 -0.003675 0.000000 0.003981 0.000000
# 2 -0.001157 0.010368 -0.002151 0.000000 0.007382 0.000000
# 3 -0.003675 -0.002151 0.007850 0.000000 0.000796 0.000000
# 4 0.000000 0.000000 0.000000 0.033412 0.000000 0.005084
# 5 0.003981 0.007382 0.000796 0.000000 0.031603 0.000000
# 6 0.000000 0.000000 0.000000 0.005084 0.000000 0.037619
#
#
# Mechanical properties :
#
#
# Convention : Reuss Voigt Hill
#
# Bulk Modulus (GPa) = 49.91770 74.57801 62.24785
# Shear Modulus (GPa) = 31.79180 36.92051 34.35616
#
# Velocity S-wave (km/s) = 3.99551 4.30575 4.15353
# Velocity P-wave (km/s) = 6.80819 7.88469 7.36613
#
# Compressibility (1/GPa) = 0.02003297
#
# Stress axis : x y z
#
# Youngs Moduli (GPa) = 63.37652 96.44822 127.38439
#
# Poissons Ratio (x) = 0.11160 0.46808
# Poissons Ratio (y) = 0.07333 0.27394
# Poissons Ratio (z) = 0.23288 0.20741
#
# Static dielectric constant tensor:
#      x y z
#    x 1.730040 0.000000 0.028950 
#    y 0.000000 1.682070 0.000000 
#    z 0.028950 0.000000 1.706040 
# 
# From -- ./inp_files/73766.got.cif
#   From: 2010.05.17/outbox.ucp.g08.bks.cvg/sg12_37_cif.got.tgz:73766.got - 2010.06.11 11:47:21.
