data_PCOD9225755
_publ_section_title
;
Structure prediction by ZEFSAII (Michael W. Deem and Ramdas Pophale) SiO2 
 PCOD9225755
Probable space group: C 2/M
;
_chemical_formula_sum "Si O2"
_cell_formula_units_Z 24
_cell_length_a 18.000000
_cell_length_b 15.000000
_cell_length_c 18.000000
_cell_angle_alpha 90.000000
_cell_angle_beta 150.000000
_cell_angle_gamma 90.000000
_cell_volume 2430.000000
_symmetry_space_group_name_H-M "C 2/M"
_symmetry_group_IT_number 12
_symmetry_cell_setting 'monoclinic'
loop_
_space_group_symop_operation_xyz
x,y,z
-x,y,-z
-x,-y,-z
x,-y,z
1/2+x,1/2+y,z
1/2-x,1/2+y,-z
1/2-x,1/2-y,-z
1/2+x,1/2-y,z
loop_
_atom_site_type_symbol
_atom_site_label
_atom_site_fract_x
_atom_site_fract_y
_atom_site_fract_z
Si Si1 0.814673 0.393386 0.127746
Si Si2 0.028876 0.104294 0.200510
Si Si3 0.051139 0.397197 0.206929
Si Si4 0.572678 0.220914 0.638396
Si Si5 0.340093 0.328332 0.535870
Si Si6 0.617318 0.258506 0.160130
O O1 0.820850 0.500000 0.139663
O O2 0.877725 0.349761 0.256833
O O3 0.924506 0.367940 0.155706
O O4 0.643498 0.369503 0.962728
O O5 0.072961 0.119911 0.324099
O O6 0.129015 0.168370 0.235751
O O7 0.047130 0.000000 0.197463
O O8 0.026339 0.500000 0.166017
O O9 0.212428 0.385386 0.385109
O O10 0.050404 0.330326 0.137821
O O11 0.500000 0.183218 0.500000
O O12 0.456186 0.287028 0.577487
O O13 0.727056 0.262987 0.743702
O O14 0.250000 0.250000 0.500000
O O15 0.500000 0.296570 0.000000
#
# Coordination Sequence:
#
# PCOD9225755 Si02
#       6
#     8   8   8   8   8   8
#     4  10  23  41  65  96 127 166 219 267 311 375
#     4  11  24  43  67  96 130 172 215 260 317 382
#     4  11  24  45  67  93 127 168 221 269 313 376
#     4  12  23  40  63  94 128 167 212 258 322 383
#     4  12  22  42  68  92 124 170 218 259 317 375
#     4  12  25  41  66  95 130 172 206 262 325 383
#
# _framework density 9.8765429999999999
#
# number of rings (size 3 to 8) (size 9 to 14) (size 15 to 20)
#    0.000    0.667    6.667    0.500    2.333    3.000 
#    0.000    2.500    0.000    0.000    0.000    0.000 
#    0.000    0.000    0.000    0.000    0.000    0.000 
#
# Total GULP energy -134135.855373 kJ/mol
# GULP energy per Si atom -5588.993974 kJ/mol
# Density = 0.985406 g / cm^3
# Si number density = 9.876543 Si / 1000 Ang^3
#
#
#
# Elastic Constant Matrix: (Units=GPa)
#
#
# Indices 1 2 3 4 5 6 
#
# 1 134.0500 35.9844 13.4562 -0.0010 24.2793 -0.0002
# 2 35.9844 54.9452 -2.7720 -0.0011 11.8519 -0.0005
# 3 13.4562 -2.7720 50.3623 -0.0029 4.2222 -0.0010
# 4 -0.0010 -0.0011 -0.0029 31.9593 -0.0008 2.9442
# 5 24.2793 11.8519 4.2222 -0.0008 32.0762 0.0000
# 6 -0.0002 -0.0005 -0.0010 2.9442 0.0000 12.5291
#
#
#
# Elastic Compliance Matrix: (Units=1/GPa)
#
#
# Indices 1 2 3 4 5 6 
#
# 1 0.010200 -0.005671 -0.002594 0.000000 -0.005283 0.000000
# 2 -0.005671 0.023078 0.003176 0.000001 -0.004652 0.000001
# 3 -0.002594 0.003176 0.020888 0.000002 -0.001959 0.000001
# 4 0.000000 0.000001 0.000002 0.031982 0.000000 -0.007516
# 5 -0.005283 -0.004652 -0.001959 0.000000 0.037152 -0.000001
# 6 0.000000 0.000001 0.000001 -0.007516 -0.000001 0.081581
#
#
# Mechanical properties :
#
#
# Convention : Reuss Voigt Hill
#
# Bulk Modulus (GPa) = 22.73460 36.96606 29.85033
# Shear Modulus (GPa) = 21.76541 28.15884 24.96212
#
# Velocity S-wave (km/s) = 3.32305 3.77973 3.55872
# Velocity P-wave (km/s) = 5.12425 6.14843 5.65955
#
# Compressibility (1/GPa) = 0.04398581
#
# Stress axis : x y z
#
# Youngs Moduli (GPa) = 98.04276 43.33166 47.87357
#
# Poissons Ratio (x) = 0.24574 0.12420
# Poissons Ratio (y) = 0.55601 -0.15202
# Poissons Ratio (z) = 0.25436 -0.13760
#
# Static dielectric constant tensor:
#      x y z
#    x 1.685420 0.000000 -0.003080 
#    y 0.000000 1.674370 0.000000 
#    z -0.003080 0.000000 1.701140 
# 
# From -- ./inp_files/104960.got.cif
#   From: 2010.05.17/outbox.ucp.g08.bks.cvg/sg12_53_cif.got.tgz:104960.got - 2010.06.11 11:47:21.
