data_PCOD9225897
_publ_section_title
;
Structure prediction by ZEFSAII (Michael W. Deem and Ramdas Pophale) SiO2 
 PCOD9225897
Probable space group: C 2/M
;
_chemical_formula_sum "Si O2"
_cell_formula_units_Z 28
_cell_length_a 9.000000
_cell_length_b 30.000000
_cell_length_c 18.000000
_cell_angle_alpha 90.000000
_cell_angle_beta 140.000000
_cell_angle_gamma 90.000000
_cell_volume 3123.947783
_symmetry_space_group_name_H-M "C 2/M"
_symmetry_group_IT_number 12
_symmetry_cell_setting 'monoclinic'
loop_
_space_group_symop_operation_xyz
x,y,z
-x,y,-z
-x,-y,-z
x,-y,z
1/2+x,1/2+y,z
1/2-x,1/2+y,-z
1/2-x,1/2-y,-z
1/2+x,1/2-y,z
loop_
_atom_site_type_symbol
_atom_site_label
_atom_site_fract_x
_atom_site_fract_y
_atom_site_fract_z
Si Si1 0.779100 0.133909 0.616049
Si Si2 0.072002 0.791601 0.442598
Si Si3 0.270999 0.645841 0.957334
Si Si4 0.878179 0.051943 0.200649
Si Si5 0.077662 0.190275 0.841113
Si Si6 0.656437 0.051115 0.952446
Si Si7 0.888654 0.281527 0.823727
O O1 0.500000 0.125238 0.500000
O O2 0.845603 0.162998 0.567783
O O3 0.940215 0.089528 0.697394
O O4 0.862561 0.168555 0.713344
O O5 0.250000 0.750000 0.500000
O O6 0.000000 0.799255 0.500000
O O7 0.834504 0.777604 0.313028
O O8 0.218567 0.593581 0.925801
O O9 0.058988 0.679356 0.860851
O O10 0.500000 0.658265 0.000000
O O11 0.324202 0.654139 0.064517
O O12 0.618187 0.056901 0.134992
O O13 0.953291 0.000000 0.243537
O O14 0.814705 0.054642 0.088005
O O15 0.277328 0.204850 0.859922
O O16 0.011577 0.233810 0.863785
O O17 0.686731 0.000000 0.936203
#
# Coordination Sequence:
#
# PCOD9225897 Si02
#       7
#     8   8   8   8   8   8   8
#     4  11  22  36  60  88 118 155 193 239 287 345
#     4  11  22  39  59  83 113 153 202 244 281 338
#     4  12  24  36  55  86 121 152 190 237 295 349
#     4   9  18  36  63  89 111 146 193 241 292 345
#     4  11  22  39  55  80 117 155 199 236 286 342
#     4   9  18  36  62  85 112 147 190 242 292 348
#     4  11  23  37  59  80 113 158 196 241 286 338
#
# _framework density 8.9630179999999999
#
# number of rings (size 3 to 8) (size 9 to 14) (size 15 to 20)
#    0.000    1.429    1.429    7.286    2.000    1.714 
#    0.000    0.000    0.000    0.429    0.000    0.000 
#    0.000    0.000    0.000    0.000    0.000    0.000 
#
# Total GULP energy -156090.878484 kJ/mol
# GULP energy per Si atom -5574.674232 kJ/mol
# Density = 0.894262 g / cm^3
# Si number density = 8.963018 Si / 1000 Ang^3
#
#
#
# Elastic Constant Matrix: (Units=GPa)
#
#
# Indices 1 2 3 4 5 6 
#
# 1 65.0690 38.0407 26.7646 0.0000 9.9666 0.0000
# 2 38.0407 158.3978 45.2561 0.0000 17.3712 0.0000
# 3 26.7646 45.2561 104.5692 0.0000 19.1287 0.0000
# 4 0.0000 0.0000 0.0000 38.1205 0.0000 9.3016
# 5 9.9666 17.3712 19.1287 0.0000 32.8626 0.0000
# 6 0.0000 0.0000 0.0000 9.3016 0.0000 29.2770
#
#
#
# Elastic Compliance Matrix: (Units=1/GPa)
#
#
# Indices 1 2 3 4 5 6 
#
# 1 0.018943 -0.003467 -0.002946 0.000000 -0.002198 0.000000
# 2 -0.003467 0.007988 -0.002227 0.000000 -0.001875 0.000000
# 3 -0.002946 -0.002227 0.012201 0.000000 -0.005032 0.000000
# 4 0.000000 0.000000 0.000000 0.028437 0.000000 -0.009035
# 5 -0.002198 -0.001875 -0.005032 0.000000 0.035016 0.000000
# 6 0.000000 0.000000 0.000000 -0.009035 0.000000 0.037027
#
#
# Mechanical properties :
#
#
# Convention : Reuss Voigt Hill
#
# Bulk Modulus (GPa) = 45.76005 60.90653 53.33329
# Shear Modulus (GPa) = 30.45515 34.58367 32.51941
#
# Velocity S-wave (km/s) = 4.12628 4.39708 4.26383
# Velocity P-wave (km/s) = 6.94868 7.73495 7.35233
#
# Compressibility (1/GPa) = 0.02185313
#
# Stress axis : x y z
#
# Youngs Moduli (GPa) = 52.78863 125.19479 81.95895
#
# Poissons Ratio (x) = 0.43401 0.24147
# Poissons Ratio (y) = 0.18300 0.18250
# Poissons Ratio (z) = 0.15553 0.27877
#
# Static dielectric constant tensor:
#      x y z
#    x 1.677720 0.000000 -0.045800 
#    y 0.000000 1.639310 0.000000 
#    z -0.045800 0.000000 1.656040 
# 
# From -- ./inp_files/178670.got.cif
#   From: 2010.05.17/outbox.ucp.g08.bks.cvg/sg12_90_cif.got.tgz:178670.got - 2010.06.11 11:47:21.
