data_PCOD9225333
_publ_section_title
;
Structure prediction by ZEFSAII (Michael W. Deem and Ramdas Pophale) SiO2 
 PCOD9225333
Probable space group: C 2/M
;
_chemical_formula_sum "Si O2"
_cell_formula_units_Z 32
_cell_length_a 15.000000
_cell_length_b 24.000000
_cell_length_c 18.000000
_cell_angle_alpha 90.000000
_cell_angle_beta 30.000000
_cell_angle_gamma 90.000000
_cell_volume 3240.000000
_symmetry_space_group_name_H-M "C 2/M"
_symmetry_group_IT_number 12
_symmetry_cell_setting 'monoclinic'
loop_
_space_group_symop_operation_xyz
x,y,z
-x,y,-z
-x,-y,-z
x,-y,z
1/2+x,1/2+y,z
1/2-x,1/2+y,-z
1/2-x,1/2-y,-z
1/2+x,1/2-y,z
loop_
_atom_site_type_symbol
_atom_site_label
_atom_site_fract_x
_atom_site_fract_y
_atom_site_fract_z
Si Si1 0.487155 0.850204 0.629923
Si Si2 0.293948 0.345204 0.283684
Si Si3 0.879989 0.757139 0.800109
Si Si4 0.517893 0.380928 0.247714
Si Si5 0.708994 0.933001 0.568460
Si Si6 0.988185 0.729755 0.130177
Si Si7 0.708071 0.065580 0.863008
Si Si8 0.200685 0.868136 0.345248
O O1 0.648333 0.839801 0.455186
O O2 0.315480 0.869557 0.706314
O O3 0.441008 0.790674 0.699869
O O4 0.553252 0.896718 0.640650
O O5 0.453116 0.378301 0.209473
O O6 0.375701 0.286183 0.201174
O O7 0.977942 0.817149 0.724473
O O8 0.934010 0.733036 0.841988
O O9 0.667246 0.769341 0.951005
O O10 0.381261 0.418714 0.392991
O O11 0.713488 0.405269 0.120567
O O12 0.745335 0.905621 0.622694
O O13 0.680497 0.000000 0.592543
O O14 0.851064 0.678729 0.223495
O O15 0.805138 0.092835 0.722713
O O16 0.740020 0.000000 0.843446
O O17 0.500000 0.075168 0.000000
O O18 0.000000 0.844347 0.500000
#
# Coordination Sequence:
#
# PCOD9225333 Si02
#       8
#     8   8   8   8   8   8   8   8
#     4  10  21  40  62  90 123 166 202 258 306 364
#     4   9  22  36  60  88 127 158 206 246 306 368
#     4  10  21  38  63  88 128 161 199 246 310 378
#     4  10  21  38  58  87 124 160 199 255 301 361
#     4  11  23  40  63  90 121 160 212 262 304 358
#     4  10  22  38  57  96 125 161 195 243 314 380
#     4  11  24  40  59  85 120 164 209 251 306 365
#     4  12  24  37  61  92 123 161 203 254 303 377
#
# _framework density 9.8765429999999999
#
# number of rings (size 3 to 8) (size 9 to 14) (size 15 to 20)
#    0.000    1.625    2.500    1.500    5.250    2.500 
#    0.000    5.625    0.000    0.000    0.000    1.750 
#    0.000    0.000    0.000    0.000    0.000    0.000 
#
# Total GULP energy -178760.368781 kJ/mol
# GULP energy per Si atom -5586.261524 kJ/mol
# Density = 0.985406 g / cm^3
# Si number density = 9.876543 Si / 1000 Ang^3
#
#
#
# Elastic Constant Matrix: (Units=GPa)
#
#
# Indices 1 2 3 4 5 6 
#
# 1 132.4144 44.0045 25.2767 0.0173 -34.9087 -0.0184
# 2 44.0045 89.8026 33.0289 0.0230 -26.6778 -0.0239
# 3 25.2767 33.0289 44.3596 -0.0095 -17.7804 0.0018
# 4 0.0173 0.0230 -0.0095 23.2483 0.0082 -8.4087
# 5 -34.9087 -26.6778 -17.7804 0.0082 29.9927 0.0039
# 6 -0.0184 -0.0239 0.0018 -8.4087 0.0039 23.4178
#
#
#
# Elastic Compliance Matrix: (Units=1/GPa)
#
#
# Indices 1 2 3 4 5 6 
#
# 1 0.011211 -0.002078 -0.000461 -0.000010 0.010927 0.000001
# 2 -0.002078 0.017834 -0.008796 -0.000019 0.008230 0.000009
# 3 -0.000461 -0.008796 0.034109 0.000016 0.011860 -0.000008
# 4 -0.000010 -0.000019 0.000016 0.049434 -0.000035 0.017750
# 5 0.010927 0.008230 0.011860 -0.000035 0.060411 -0.000007
# 6 0.000001 0.000009 -0.000008 0.017750 -0.000007 0.049076
#
#
# Mechanical properties :
#
#
# Convention : Reuss Voigt Hill
#
# Bulk Modulus (GPa) = 24.70120 52.35520 38.52820
# Shear Modulus (GPa) = 19.36189 26.28287 22.82238
#
# Velocity S-wave (km/s) = 3.13420 3.65166 3.40278
# Velocity P-wave (km/s) = 5.06259 6.65896 5.91488
#
# Compressibility (1/GPa) = 0.04048386
#
# Stress axis : x y z
#
# Youngs Moduli (GPa) = 89.19460 56.07399 29.31803
#
# Poissons Ratio (x) = 0.11651 0.01353
# Poissons Ratio (y) = 0.18533 0.25787
# Poissons Ratio (z) = 0.04115 0.49321
#
# Static dielectric constant tensor:
#      x y z
#    x 1.745610 -0.000010 -0.026490 
#    y -0.000010 1.650790 0.000020 
#    z -0.026490 0.000020 1.721580 
# 
# From -- ./inp_files/272825.got.cif
#   From: 2010.05.17/outbox.ucp.g08.bks.cvg/sg12_137_cif.got.tgz:272825.got - 2010.06.11 11:47:21.
