data_PCOD9225918
_publ_section_title
;
Structure prediction by ZEFSAII (Michael W. Deem and Ramdas Pophale) SiO2 
 PCOD9225918
Probable space group: C 2/M
;
_chemical_formula_sum "Si O2"
_cell_formula_units_Z 29
_cell_length_a 9.000000
_cell_length_b 27.000000
_cell_length_c 24.000000
_cell_angle_alpha 90.000000
_cell_angle_beta 30.000000
_cell_angle_gamma 90.000000
_cell_volume 2916.000000
_symmetry_space_group_name_H-M "C 2/M"
_symmetry_group_IT_number 12
_symmetry_cell_setting 'monoclinic'
loop_
_space_group_symop_operation_xyz
x,y,z
-x,y,-z
-x,-y,-z
x,-y,z
1/2+x,1/2+y,z
1/2-x,1/2+y,-z
1/2-x,1/2-y,-z
1/2+x,1/2-y,z
loop_
_atom_site_type_symbol
_atom_site_label
_atom_site_fract_x
_atom_site_fract_y
_atom_site_fract_z
Si Si1 0.817391 0.385687 0.693065
Si Si2 0.356262 0.112968 0.889296
Si Si3 0.307084 0.405516 0.446585
Si Si4 0.890104 0.441385 0.302439
Si Si5 0.500000 0.000000 0.500000
Si Si6 0.690054 0.058992 0.881204
Si Si7 0.174511 0.811593 0.292630
Si Si8 0.344734 0.209997 0.364961
O O1 0.476972 0.403841 0.792956
O O2 0.005478 0.391348 0.575699
O O3 0.938909 0.425485 0.697957
O O4 0.935180 0.332617 0.680318
O O5 0.459002 0.085231 0.799462
O O6 0.476592 0.079164 0.901111
O O7 0.542240 0.164687 0.831553
O O8 0.000000 0.119370 0.000000
O O9 0.555556 0.420526 0.411423
O O10 0.247330 0.455626 0.431802
O O11 0.442698 0.357519 0.372347
O O12 0.891453 0.500000 0.295519
O O13 0.772793 0.000000 0.845651
O O14 0.500000 0.061230 0.000000
O O15 0.297132 0.799293 0.314716
O O16 0.002843 0.763124 0.325413
O O17 0.000000 0.208219 0.500000
#
# Coordination Sequence:
#
# PCOD9225918 Si02
#       8
#     8   8   8   8   2   8   8   8
#     4  12  24  41  68  98 141 177 228 286 342 411
#     4  11  25  47  70  96 135 179 229 290 343 414
#     4  11  25  40  61 100 143 184 219 277 343 409
#     4  11  22  40  65  96 136 181 223 272 341 416
#     4  12  28  36  62  96 156 180 234 272 338 406
#     4  11  27  45  69 104 137 183 235 282 342 410
#     4  11  27  44  71 100 138 174 239 281 349 405
#     4  12  24  46  70 105 136 185 227 284 343 415
#
# _framework density 9.9451300000000007
#
# number of rings (size 3 to 8) (size 9 to 14) (size 15 to 20)
#    0.000    0.690    4.828    2.483    8.690    2.759 
#    0.000    1.379    0.000    0.000    0.000    0.000 
#    0.000    0.000    0.000    0.000    0.000    0.000 
#
# Total GULP energy -161759.091752 kJ/mol
# GULP energy per Si atom -5577.899716 kJ/mol
# Density = 0.992249 g / cm^3
# Si number density = 9.945130 Si / 1000 Ang^3
#
#
#
# Elastic Constant Matrix: (Units=GPa)
#
#
# Indices 1 2 3 4 5 6 
#
# 1 111.6484 47.3237 41.7320 -0.0010 -28.0057 0.0000
# 2 47.3237 172.9887 50.2388 -0.0009 -16.5603 0.0002
# 3 41.7320 50.2388 117.6786 -0.0083 -28.8650 0.0011
# 4 -0.0010 -0.0009 -0.0083 29.8293 0.0002 -12.2868
# 5 -28.0057 -16.5603 -28.8650 0.0002 34.7141 -0.0005
# 6 0.0000 0.0002 0.0011 -12.2868 -0.0005 41.0847
#
#
#
# Elastic Compliance Matrix: (Units=1/GPa)
#
#
# Indices 1 2 3 4 5 6 
#
# 1 0.012396 -0.002200 -0.001584 0.000000 0.007634 0.000000
# 2 -0.002200 0.007018 -0.002299 -0.000001 -0.000339 0.000000
# 3 -0.001584 -0.002299 0.011882 0.000003 0.007505 0.000001
# 4 0.000000 -0.000001 0.000003 0.038234 0.000003 0.011434
# 5 0.007634 -0.000339 0.007505 0.000003 0.041044 0.000001
# 6 0.000000 0.000000 0.000001 0.011434 0.000001 0.027760
#
#
# Mechanical properties :
#
#
# Convention : Reuss Voigt Hill
#
# Bulk Modulus (GPa) = 52.27605 75.65607 63.96606
# Shear Modulus (GPa) = 31.87212 38.66037 35.26625
#
# Velocity S-wave (km/s) = 4.00734 4.41351 4.21532
# Velocity P-wave (km/s) = 6.91021 8.00571 7.47805
#
# Compressibility (1/GPa) = 0.01912922
#
# Stress axis : x y z
#
# Youngs Moduli (GPa) = 80.66897 142.49387 84.16203
#
# Poissons Ratio (x) = 0.31353 0.13333
# Poissons Ratio (y) = 0.17750 0.19347
# Poissons Ratio (z) = 0.12780 0.32757
#
# Static dielectric constant tensor:
#      x y z
#    x 1.737670 0.000000 0.000860 
#    y 0.000000 1.611580 0.000010 
#    z 0.000860 0.000010 1.723030 
# 
# From -- ./inp_files/334226.got.cif
#   From: 2010.05.17/outbox.ucp.g08.bks.cvg/sg12_168_cif.got.tgz:334226.got - 2010.06.11 11:47:21.
