data_PCOD9225407
_publ_section_title
;
Structure prediction by ZEFSAII (Michael W. Deem and Ramdas Pophale) SiO2 
 PCOD9225407
Probable space group: C 2/M
;
_chemical_formula_sum "Si O2"
_cell_formula_units_Z 28
_cell_length_a 21.000000
_cell_length_b 30.000000
_cell_length_c 9.000000
_cell_angle_alpha 90.000000
_cell_angle_beta 150.000000
_cell_angle_gamma 90.000000
_cell_volume 2835.000000
_symmetry_space_group_name_H-M "C 2/M"
_symmetry_group_IT_number 12
_symmetry_cell_setting 'monoclinic'
loop_
_space_group_symop_operation_xyz
x,y,z
-x,y,-z
-x,-y,-z
x,-y,z
1/2+x,1/2+y,z
1/2-x,1/2+y,-z
1/2-x,1/2-y,-z
1/2+x,1/2-y,z
loop_
_atom_site_type_symbol
_atom_site_label
_atom_site_fract_x
_atom_site_fract_y
_atom_site_fract_z
Si Si1 0.057365 0.143088 0.851831
Si Si2 0.109850 0.447762 0.325941
Si Si3 0.875061 0.767044 0.844026
Si Si4 0.704227 0.363170 0.842047
Si Si5 0.645493 0.052921 0.739438
Si Si6 0.863041 0.276819 0.143332
Si Si7 0.887076 0.950543 0.888425
O O1 0.133715 0.150295 0.853048
O O2 0.905997 0.143369 0.505868
O O3 0.105411 0.180464 0.067008
O O4 0.088426 0.092736 0.963973
O O5 0.075411 0.500000 0.277432
O O6 0.135581 0.431925 0.546147
O O7 0.248785 0.445280 0.532641
O O8 0.000000 0.427601 0.000000
O O9 0.750000 0.750000 0.500000
O O10 0.874263 0.741855 0.999820
O O11 0.000000 0.755908 0.000000
O O12 0.762477 0.412920 0.985552
O O13 0.817683 0.328163 0.046835
O O14 0.500000 0.055748 0.500000
O O15 0.683027 0.000000 0.825155
O O16 0.000000 0.271677 0.500000
O O17 0.750000 0.250000 0.000000
O O18 0.883356 0.000000 0.955654
O O19 0.000000 0.951589 0.000000
#
# Coordination Sequence:
#
# PCOD9225407 Si02
#       7
#     8   8   8   8   8   8   8
#     4  11  23  41  66  96 135 178 222 277 339 405
#     4   9  18  35  58  85 122 170 218 267 327 391
#     4  12  26  46  71 102 135 172 223 287 346 404
#     4  11  23  40  67  97 130 180 228 271 339 414
#     4  10  21  39  63  94 134 177 228 287 335 389
#     4  12  24  44  73 100 134 177 223 273 344 422
#     4  10  21  38  62  93 132 178 224 271 331 398
#
# _framework density 9.8765429999999999
#
# number of rings (size 3 to 8) (size 9 to 14) (size 15 to 20)
#    0.000    1.286    2.857    3.429    0.000    1.714 
#    0.000    6.429    0.000    0.000    0.000    0.000 
#    0.000    0.000    0.000    0.000    0.000    0.000 
#
# Total GULP energy -156212.699307 kJ/mol
# GULP energy per Si atom -5579.024975 kJ/mol
# Density = 0.985406 g / cm^3
# Si number density = 9.876543 Si / 1000 Ang^3
#
#
#
# Elastic Constant Matrix: (Units=GPa)
#
#
# Indices 1 2 3 4 5 6 
#
# 1 104.1330 36.1008 49.8678 0.0000 14.4088 0.0000
# 2 36.1008 125.6330 68.5089 0.0000 -6.0904 0.0000
# 3 49.8678 68.5089 182.1122 0.0000 4.7116 0.0000
# 4 0.0000 0.0000 0.0000 36.3258 0.0000 -1.8413
# 5 14.4088 -6.0904 4.7116 0.0000 35.0031 0.0000
# 6 0.0000 0.0000 0.0000 -1.8413 0.0000 25.2511
#
#
#
# Elastic Compliance Matrix: (Units=1/GPa)
#
#
# Indices 1 2 3 4 5 6 
#
# 1 0.012294 -0.002544 -0.002275 0.000000 -0.005197 0.000000
# 2 -0.002544 0.010721 -0.003424 0.000000 0.003374 0.000000
# 3 -0.002275 -0.003424 0.007419 0.000000 -0.000658 0.000000
# 4 0.000000 0.000000 0.000000 0.027631 0.000000 0.002015
# 5 -0.005197 0.003374 -0.000658 0.000000 0.031384 0.000000
# 6 0.000000 0.000000 0.000000 0.002015 0.000000 0.039749
#
#
# Mechanical properties :
#
#
# Convention : Reuss Voigt Hill
#
# Bulk Modulus (GPa) = 71.69256 80.09258 75.89257
# Shear Modulus (GPa) = 33.25952 36.47604 34.86778
#
# Velocity S-wave (km/s) = 4.10782 4.30187 4.20596
# Velocity P-wave (km/s) = 7.67281 8.08144 7.87978
#
# Compressibility (1/GPa) = 0.01394845
#
# Stress axis : x y z
#
# Youngs Moduli (GPa) = 81.34337 93.27175 134.78692
#
# Poissons Ratio (x) = 0.23728 0.30662
# Poissons Ratio (y) = 0.20694 0.46150
# Poissons Ratio (z) = 0.18504 0.31936
#
# Static dielectric constant tensor:
#      x y z
#    x 1.739180 0.000000 0.009210 
#    y 0.000000 1.730130 0.000000 
#    z 0.009210 0.000000 1.689410 
# 
# From -- ./inp_files/91607.got.cif
#   From: 2010.05.17/outbox.ucp.g08.bks.cvg/sg12_46_cif.got.tgz:91607.got - 2010.06.11 11:47:21.
