data_PCOD9225657
_publ_section_title
;
Structure prediction by ZEFSAII (Michael W. Deem and Ramdas Pophale) SiO2 
 PCOD9225657
Probable space group: C 2/M
;
_chemical_formula_sum "Si O2"
_cell_formula_units_Z 24
_cell_length_a 21.000000
_cell_length_b 15.000000
_cell_length_c 12.000000
_cell_angle_alpha 90.000000
_cell_angle_beta 40.000000
_cell_angle_gamma 90.000000
_cell_volume 2429.737165
_symmetry_space_group_name_H-M "C 2/M"
_symmetry_group_IT_number 12
_symmetry_cell_setting 'monoclinic'
loop_
_space_group_symop_operation_xyz
x,y,z
-x,y,-z
-x,-y,-z
x,-y,z
1/2+x,1/2+y,z
1/2-x,1/2+y,-z
1/2-x,1/2-y,-z
1/2+x,1/2-y,z
loop_
_atom_site_type_symbol
_atom_site_label
_atom_site_fract_x
_atom_site_fract_y
_atom_site_fract_z
Si Si1 0.191305 0.608457 0.994610
Si Si2 0.112925 0.607713 0.342253
Si Si3 0.788520 0.105631 0.268974
Si Si4 0.228802 0.105684 0.442599
Si Si5 0.892313 0.716037 0.092901
Si Si6 0.105635 0.892451 0.398604
O O1 0.180434 0.500000 0.997351
O O2 0.120519 0.661405 0.004652
O O3 0.302354 0.632726 0.804614
O O4 0.166387 0.633160 0.154941
O O5 0.107347 0.500000 0.347524
O O6 0.182733 0.628756 0.353897
O O7 0.000000 0.640980 0.500000
O O8 0.787690 0.116244 0.403903
O O9 0.862696 0.179892 0.121342
O O10 0.809783 0.000000 0.216393
O O11 0.316173 0.167797 0.280056
O O12 0.136748 0.128485 0.484190
O O13 0.251881 0.000000 0.392460
O O14 0.000000 0.708766 0.000000
O O15 0.000000 0.857038 0.500000
O O16 0.100642 0.000000 0.399617
#
# Coordination Sequence:
#
# PCOD9225657 Si02
#       6
#     8   8   8   8   8   8
#     4   9  19  36  59  91 124 150 194 252 301 359
#     4   9  19  37  62  88 116 157 201 244 302 361
#     4  10  22  41  60  82 119 162 203 244 290 357
#     4   9  19  37  61  88 118 152 196 249 301 356
#     4  11  23  37  58  88 121 156 196 247 302 354
#     4   8  14  29  54  85 118 153 190 234 291 350
#
# _framework density 9.8776119999999992
#
# number of rings (size 3 to 8) (size 9 to 14) (size 15 to 20)
#    0.000    2.667    0.000    2.000    2.333    2.333 
#    3.000    3.333    0.000    0.000    0.000    0.000 
#    0.000    0.667    0.000    0.000    0.000    0.000 
#
# Total GULP energy -133932.688082 kJ/mol
# GULP energy per Si atom -5580.528670 kJ/mol
# Density = 0.985513 g / cm^3
# Si number density = 9.877612 Si / 1000 Ang^3
#
#
#
# Elastic Constant Matrix: (Units=GPa)
#
#
# Indices 1 2 3 4 5 6 
#
# 1 190.5733 32.9214 84.6097 0.0000 -16.8816 0.0000
# 2 32.9214 71.5914 11.7486 0.0000 -2.0703 0.0000
# 3 84.6097 11.7486 68.2434 0.0000 2.8927 0.0000
# 4 0.0000 0.0000 0.0000 14.7286 0.0000 -6.7368
# 5 -16.8816 -2.0703 2.8927 0.0000 39.0150 0.0000
# 6 0.0000 0.0000 0.0000 -6.7368 0.0000 17.9868
#
#
#
# Elastic Compliance Matrix: (Units=1/GPa)
#
#
# Indices 1 2 3 4 5 6 
#
# 1 0.014137 -0.003464 -0.017237 0.000000 0.007211 0.000000
# 2 -0.003464 0.015258 0.001702 0.000000 -0.000815 0.000000
# 3 -0.017237 0.001702 0.036157 0.000000 -0.010049 0.000000
# 4 0.000000 0.000000 0.000000 0.081931 0.000000 0.030686
# 5 0.007211 -0.000815 -0.010049 0.000000 0.029453 0.000000
# 6 0.000000 0.000000 0.000000 0.030686 0.000000 0.067090
#
#
# Mechanical properties :
#
#
# Convention : Reuss Voigt Hill
#
# Bulk Modulus (GPa) = 36.29051 65.44083 50.86567
# Shear Modulus (GPa) = 17.16978 27.75464 22.46221
#
# Velocity S-wave (km/s) = 2.95129 3.75230 3.37564
# Velocity P-wave (km/s) = 5.47937 7.20908 6.40290
#
# Compressibility (1/GPa) = 0.02755541
#
# Stress axis : x y z
#
# Youngs Moduli (GPa) = 70.73436 65.53912 27.65684
#
# Poissons Ratio (x) = 0.22702 0.47673
# Poissons Ratio (y) = 0.24501 -0.04708
# Poissons Ratio (z) = 1.21926 -0.11157
#
# Static dielectric constant tensor:
#      x y z
#    x 1.690820 0.000000 -0.003280 
#    y 0.000000 1.707140 0.000000 
#    z -0.003280 0.000000 1.673920 
# 
# From -- ./inp_files/143509.got.cif
#   From: 2010.05.17/outbox.ucp.g08.bks.cvg/sg12_72_cif.got.tgz:143509.got - 2010.06.11 11:47:21.
