data_PCOD9225941
_publ_section_title
;
Structure prediction by ZEFSAII (Michael W. Deem and Ramdas Pophale) SiO2 
 PCOD9225941
Probable space group: C 2/M
;
_chemical_formula_sum "Si O2"
_cell_formula_units_Z 32
_cell_length_a 12.000000
_cell_length_b 18.000000
_cell_length_c 30.000000
_cell_angle_alpha 90.000000
_cell_angle_beta 150.000000
_cell_angle_gamma 90.000000
_cell_volume 3240.000000
_symmetry_space_group_name_H-M "C 2/M"
_symmetry_group_IT_number 12
_symmetry_cell_setting 'monoclinic'
loop_
_space_group_symop_operation_xyz
x,y,z
-x,y,-z
-x,-y,-z
x,-y,z
1/2+x,1/2+y,z
1/2-x,1/2+y,-z
1/2-x,1/2-y,-z
1/2+x,1/2-y,z
loop_
_atom_site_type_symbol
_atom_site_label
_atom_site_fract_x
_atom_site_fract_y
_atom_site_fract_z
Si Si1 0.355083 0.909948 0.996555
Si Si2 0.009090 0.909172 0.737962
Si Si3 0.440333 0.153404 0.838839
Si Si4 0.756601 0.675234 0.421446
Si Si5 0.163688 0.912856 0.478334
Si Si6 0.551833 0.165561 0.346976
Si Si7 0.373701 0.913539 0.719311
Si Si8 0.957375 0.828997 0.813915
O O1 0.112413 0.877350 0.900435
O O2 0.361454 0.000000 0.004744
O O3 0.500000 0.895187 0.000000
O O4 0.426755 0.870848 0.069003
O O5 0.792482 0.882917 0.635408
O O6 0.201213 0.879997 0.771143
O O7 0.033001 0.858264 0.790710
O O8 0.020922 0.000000 0.749350
O O9 0.469256 0.113443 0.800314
O O10 0.466652 0.241761 0.834375
O O11 0.750656 0.632595 0.466059
O O12 0.595124 0.746233 0.364550
O O13 0.000000 0.708893 0.500000
O O14 0.266620 0.876246 0.558841
O O15 0.896104 0.909121 0.378607
O O16 0.225510 0.000000 0.499092
O O17 0.552846 0.137559 0.296443
O O18 0.302507 0.150566 0.277040
O O19 0.435142 0.000000 0.733913
#
# Coordination Sequence:
#
# PCOD9225941 Si02
#       8
#     8   8   8   8   8   8   8   8
#     4  11  24  45  76 108 138 177 230 289 355 421
#     4  12  24  44  73 103 140 186 238 293 352 410
#     4  12  24  46  72 102 139 180 232 287 348 419
#     4  12  24  40  64  96 139 182 237 296 350 404
#     4  11  23  40  62  93 133 182 239 287 342 412
#     4  12  25  43  63  98 142 188 228 284 353 421
#     4  11  23  41  67  95 134 185 236 281 341 422
#     4  12  26  44  71 104 141 180 229 291 346 418
#
# _framework density 9.8765429999999999
#
# number of rings (size 3 to 8) (size 9 to 14) (size 15 to 20)
#    0.000    0.375    3.750    5.625    0.000    5.000 
#    0.000    0.625    0.000    1.500    0.000    0.000 
#    0.000    0.000    0.000    0.000    0.000    0.000 
#
# Total GULP energy -178445.383719 kJ/mol
# GULP energy per Si atom -5576.418241 kJ/mol
# Density = 0.985406 g / cm^3
# Si number density = 9.876543 Si / 1000 Ang^3
#
#
#
# Elastic Constant Matrix: (Units=GPa)
#
#
# Indices 1 2 3 4 5 6 
#
# 1 87.3012 52.3460 15.1304 0.0000 -38.3368 0.0000
# 2 52.3460 132.7856 21.8458 0.0000 -15.2933 0.0000
# 3 15.1304 21.8458 81.5900 0.0003 -26.1594 0.0001
# 4 0.0000 0.0000 0.0003 40.5008 0.0000 -11.2700
# 5 -38.3368 -15.2933 -26.1594 0.0000 47.8066 0.0000
# 6 0.0000 0.0000 0.0001 -11.2700 0.0000 36.5991
#
#
#
# Elastic Compliance Matrix: (Units=1/GPa)
#
#
# Indices 1 2 3 4 5 6 
#
# 1 0.023554 -0.007761 0.003602 0.000000 0.018376 0.000000
# 2 -0.007761 0.010545 -0.002787 0.000000 -0.004376 0.000000
# 3 0.003602 -0.002787 0.015736 0.000000 0.010607 0.000000
# 4 0.000000 0.000000 0.000000 0.027005 0.000000 0.008316
# 5 0.018376 -0.004376 0.010607 0.000000 0.040058 0.000000
# 6 0.000000 0.000000 0.000000 0.008316 0.000000 0.029884
#
#
# Mechanical properties :
#
#
# Convention : Reuss Voigt Hill
#
# Bulk Modulus (GPa) = 27.82302 53.36901 40.59601
# Shear Modulus (GPa) = 28.95960 39.13827 34.04894
#
# Velocity S-wave (km/s) = 3.83310 4.45609 4.15628
# Velocity P-wave (km/s) = 5.80570 7.31795 6.60525
#
# Compressibility (1/GPa) = 0.03594146
#
# Stress axis : x y z
#
# Youngs Moduli (GPa) = 42.45645 94.83046 63.55008
#
# Poissons Ratio (x) = 0.73601 -0.22891
# Poissons Ratio (y) = 0.32952 0.17712
# Poissons Ratio (z) = -0.15293 0.26430
#
# Static dielectric constant tensor:
#      x y z
#    x 1.735350 0.000000 0.023990 
#    y 0.000000 1.675660 0.000000 
#    z 0.023990 0.000000 1.738190 
# 
# From -- ./inp_files/374495.got.cif
#   From: 2010.05.17/outbox.ucp.g08.bks.cvg/sg12_188_cif.got.tgz:374495.got - 2010.06.11 11:47:21.
