data_PCOD9225152
_publ_section_title
;
Structure prediction by ZEFSAII (Michael W. Deem and Ramdas Pophale) SiO2 
 PCOD9225152
Probable space group: C 2/M
;
_chemical_formula_sum "Si O2"
_cell_formula_units_Z 28
_cell_length_a 24.000000
_cell_length_b 9.000000
_cell_length_c 15.000000
_cell_angle_alpha 90.000000
_cell_angle_beta 110.000000
_cell_angle_gamma 90.000000
_cell_volume 3044.604091
_symmetry_space_group_name_H-M "C 2/M"
_symmetry_group_IT_number 12
_symmetry_cell_setting 'monoclinic'
loop_
_space_group_symop_operation_xyz
x,y,z
-x,y,-z
-x,-y,-z
x,-y,z
1/2+x,1/2+y,z
1/2-x,1/2+y,-z
1/2-x,1/2-y,-z
1/2+x,1/2-y,z
loop_
_atom_site_type_symbol
_atom_site_label
_atom_site_fract_x
_atom_site_fract_y
_atom_site_fract_z
Si Si1 0.762649 0.822707 0.103416
Si Si2 0.909428 0.677663 0.512079
Si Si3 0.677680 0.320169 0.205410
Si Si4 0.399129 0.323673 0.154913
Si Si5 0.432103 0.319243 0.974203
Si Si6 0.044318 0.323879 0.649442
Si Si7 0.808019 0.821010 0.577135
O O1 0.725191 0.750590 0.163109
O O2 0.832733 0.797857 0.153317
O O3 0.751492 0.000000 0.093340
O O4 0.750000 0.750000 0.000000
O O5 0.896548 0.500000 0.506706
O O6 0.914195 0.726731 0.410855
O O7 0.863173 0.762777 0.548602
O O8 0.976035 0.698891 0.585105
O O9 0.682628 0.500000 0.202471
O O10 0.613349 0.276470 0.129241
O O11 0.685850 0.279325 0.314108
O O12 0.409400 0.500000 0.158741
O O13 0.442128 0.251155 0.249813
O O14 0.407613 0.270654 0.057652
O O15 0.432727 0.500000 0.974432
O O16 0.500000 0.269121 0.000000
O O17 0.053672 0.500000 0.662363
O O18 0.750000 0.750000 0.500000
O O19 0.804874 0.000000 0.571552
#
# Coordination Sequence:
#
# PCOD9225152 Si02
#       7
#     8   8   8   8   8   8   8
#     4  11  22  38  59  85 118 153 191 241 289 339
#     4   9  20  41  62  83 116 156 196 240 297 354
#     4  10  22  41  61  85 114 155 201 239 292 355
#     4  10  21  35  57  88 116 147 192 241 287 343
#     4   9  18  35  59  84 116 152 187 231 284 346
#     4   9  20  38  61  86 116 154 192 239 296 354
#     4  11  25  41  62  88 118 157 202 250 299 356
#
# _framework density 9.1965979999999998
#
# number of rings (size 3 to 8) (size 9 to 14) (size 15 to 20)
#    0.000    2.143    1.429    1.714    4.000    3.429 
#    0.000    1.429    0.000    0.857    0.000    0.000 
#    0.000    0.000    0.000    0.000    0.000    0.000 
#
# Total GULP energy -156213.934618 kJ/mol
# GULP energy per Si atom -5579.069093 kJ/mol
# Density = 0.917567 g / cm^3
# Si number density = 9.196598 Si / 1000 Ang^3
#
#
#
# Elastic Constant Matrix: (Units=GPa)
#
#
# Indices 1 2 3 4 5 6 
#
# 1 124.4410 40.3370 65.4558 0.0000 -20.8565 0.0000
# 2 40.3370 17.9241 25.5446 0.0000 1.8867 0.0000
# 3 65.4558 25.5446 148.8955 0.0000 -5.7733 0.0000
# 4 0.0000 0.0000 0.0000 34.6095 0.0000 -3.1214
# 5 -20.8565 1.8867 -5.7733 0.0000 25.5125 0.0000
# 6 0.0000 0.0000 0.0000 -3.1214 0.0000 32.9147
#
#
#
# Elastic Compliance Matrix: (Units=1/GPa)
#
#
# Indices 1 2 3 4 5 6 
#
# 1 0.114010 -0.269112 0.000439 0.000000 0.113204 0.000000
# 2 -0.269112 0.710896 -0.014352 0.000000 -0.275820 0.000000
# 3 0.000439 -0.014352 0.009121 0.000000 0.003484 0.000000
# 4 0.000000 0.000000 0.000000 0.029143 0.000000 0.002764
# 5 0.113204 -0.275820 0.003484 0.000000 0.152927 0.000000
# 6 0.000000 0.000000 0.000000 0.002764 0.000000 0.030644
#
#
# Mechanical properties :
#
#
# Convention : Reuss Voigt Hill
#
# Bulk Modulus (GPa) = 3.73169 61.54836 32.64003
# Shear Modulus (GPa) = 2.93752 29.26890 16.10321
#
# Velocity S-wave (km/s) = 1.26512 3.99342 2.96209
# Velocity P-wave (km/s) = 2.04140 7.40260 5.42981
#
# Compressibility (1/GPa) = 0.26797490
#
# Stress axis : x y z
#
# Youngs Moduli (GPa) = 8.77116 1.40668 109.64155
#
# Poissons Ratio (x) = 0.37855 -0.04809
# Poissons Ratio (y) = 2.36043 1.57359
# Poissons Ratio (z) = -0.00385 0.02019
#
# Static dielectric constant tensor:
#      x y z
#    x 1.632850 0.000000 0.016780 
#    y 0.000000 1.620330 0.000000 
#    z 0.016780 0.000000 1.630750 
# 
# From -- ./inp_files/237834.got.cif
#   From: 2010.05.17/outbox.ucp.g08.bks.cvg/sg12_119_cif.got.tgz:237834.got - 2010.06.11 11:47:21.
