data_PCOD9225389
_publ_section_title
;
Structure prediction by ZEFSAII (Michael W. Deem and Ramdas Pophale) SiO2 
 PCOD9225389
Probable space group: C 2/M
;
_chemical_formula_sum "Si O2"
_cell_formula_units_Z 20
_cell_length_a 18.000000
_cell_length_b 30.000000
_cell_length_c 12.000000
_cell_angle_alpha 90.000000
_cell_angle_beta 20.000000
_cell_angle_gamma 90.000000
_cell_volume 2216.290529
_symmetry_space_group_name_H-M "C 2/M"
_symmetry_group_IT_number 12
_symmetry_cell_setting 'monoclinic'
loop_
_space_group_symop_operation_xyz
x,y,z
-x,y,-z
-x,-y,-z
x,-y,z
1/2+x,1/2+y,z
1/2-x,1/2+y,-z
1/2-x,1/2-y,-z
1/2+x,1/2-y,z
loop_
_atom_site_type_symbol
_atom_site_label
_atom_site_fract_x
_atom_site_fract_y
_atom_site_fract_z
Si Si1 0.595904 0.298864 0.989916
Si Si2 0.842385 0.552867 0.329607
Si Si3 0.161054 0.374660 0.987533
Si Si4 0.014113 0.119640 0.680136
Si Si5 0.538276 0.775249 0.244291
O O1 0.843142 0.283082 0.608823
O O2 0.500000 0.307372 0.000000
O O3 0.557560 0.341471 0.129087
O O4 0.488856 0.257830 0.209905
O O5 0.811219 0.500000 0.409519
O O6 0.622804 0.578556 0.596737
O O7 0.000000 0.550125 0.000000
O O8 0.973337 0.588063 0.226357
O O9 0.299659 0.368404 0.676244
O O10 0.312839 0.390143 0.878663
O O11 0.085355 0.324972 0.130382
O O12 0.750000 0.750000 0.000000
#
# Coordination Sequence:
#
# PCOD9225389 Si02
#       5
#     8   8   8   8   8
#     4  12  25  40  61  90 124 167 212 259 311 373
#     4   9  19  37  62  94 126 158 206 266 320 371
#     4  10  21  38  63  88 126 167 206 256 312 373
#     4  10  21  38  61  92 125 164 208 257 311 371
#     4  12  24  39  61  88 127 168 210 255 307 376
#
# _framework density 9.0240880000000008
#
# number of rings (size 3 to 8) (size 9 to 14) (size 15 to 20)
#    0.000    1.400    2.000    3.600    2.800    3.200 
#    0.000    4.000    0.000    5.400    0.000    7.000 
#    0.000    0.000    0.000    0.000    0.000    0.000 
#
# Total GULP energy -111383.600541 kJ/mol
# GULP energy per Si atom -5569.180027 kJ/mol
# Density = 0.900355 g / cm^3
# Si number density = 9.024088 Si / 1000 Ang^3
#
#
#
# Elastic Constant Matrix: (Units=GPa)
#
#
# Indices 1 2 3 4 5 6 
#
# 1 148.1427 63.7927 38.6355 0.0032 -10.5513 -0.0013
# 2 63.7927 174.2765 47.8489 0.0017 -9.7394 -0.0003
# 3 38.6355 47.8489 92.7328 0.0412 3.2828 -0.0036
# 4 0.0032 0.0017 0.0412 33.3452 -0.0108 2.3767
# 5 -10.5513 -9.7394 3.2828 -0.0108 33.8464 0.0006
# 6 -0.0013 -0.0003 -0.0036 2.3767 0.0006 40.6611
#
#
#
# Elastic Compliance Matrix: (Units=1/GPa)
#
#
# Indices 1 2 3 4 5 6 
#
# 1 0.008550 -0.002336 -0.002436 0.000003 0.002229 0.000000
# 2 -0.002336 0.007501 -0.002958 0.000004 0.001717 -0.000001
# 3 -0.002436 -0.002958 0.013428 -0.000017 -0.002913 0.000002
# 4 0.000003 0.000004 -0.000017 0.030115 0.000013 -0.001760
# 5 0.002229 0.001717 -0.002913 0.000013 0.031017 -0.000001
# 6 0.000000 -0.000001 0.000002 -0.001760 -0.000001 0.024696
#
#
# Mechanical properties :
#
#
# Convention : Reuss Voigt Hill
#
# Bulk Modulus (GPa) = 71.32997 79.52292 75.42645
# Shear Modulus (GPa) = 36.91643 39.22885 38.07264
#
# Velocity S-wave (km/s) = 4.52756 4.66721 4.59791
# Velocity P-wave (km/s) = 8.18166 8.55575 8.37079
#
# Compressibility (1/GPa) = 0.01401935
#
# Stress axis : x y z
#
# Youngs Moduli (GPa) = 116.95368 133.30952 74.47211
#
# Poissons Ratio (x) = 0.31148 0.18139
# Poissons Ratio (y) = 0.27326 0.22028
# Poissons Ratio (z) = 0.28486 0.39432
#
# Static dielectric constant tensor:
#      x y z
#    x 1.673960 0.000000 -0.050240 
#    y 0.000000 1.617980 0.000000 
#    z -0.050240 0.000000 1.662740 
# 
# From -- ./inp_files/79268.got.cif
#   From: 2010.05.17/outbox.ucp.g08.bks.cvg/sg12_40_cif.got.tgz:79268.got - 2010.06.11 11:47:21.
