data_PCOD9225586
_publ_section_title
;
Structure prediction by ZEFSAII (Michael W. Deem and Ramdas Pophale) SiO2 
 PCOD9225586
Probable space group: C 2/M
;
_chemical_formula_sum "Si O2"
_cell_formula_units_Z 24
_cell_length_a 21.000000
_cell_length_b 18.000000
_cell_length_c 21.000000
_cell_angle_alpha 90.000000
_cell_angle_beta 160.000000
_cell_angle_gamma 90.000000
_cell_volume 2714.955898
_symmetry_space_group_name_H-M "C 2/M"
_symmetry_group_IT_number 12
_symmetry_cell_setting 'monoclinic'
loop_
_space_group_symop_operation_xyz
x,y,z
-x,y,-z
-x,-y,-z
x,-y,z
1/2+x,1/2+y,z
1/2-x,1/2+y,-z
1/2-x,1/2-y,-z
1/2+x,1/2-y,z
loop_
_atom_site_type_symbol
_atom_site_label
_atom_site_fract_x
_atom_site_fract_y
_atom_site_fract_z
Si Si1 0.513572 0.000000 0.764870
Si Si2 0.706345 0.724823 0.865720
Si Si3 0.826071 0.127289 0.040700
Si Si4 0.046633 0.338229 0.113880
Si Si5 0.505429 0.000000 0.907064
Si Si6 0.401194 0.500000 0.679981
Si Si7 0.940422 0.839352 0.517094
Si Si8 0.546492 0.500000 0.671995
O O1 0.648793 0.071557 0.881756
O O2 0.457808 0.000000 0.787167
O O3 0.322562 0.000000 0.543218
O O4 0.769568 0.809089 0.937256
O O5 0.557502 0.715347 0.670719
O O6 0.639306 0.679481 0.864794
O O7 0.879831 0.677768 0.003797
O O8 0.005726 0.073585 0.200423
O O9 0.073448 0.426665 0.134919
O O10 0.231639 0.310289 0.320073
O O11 0.000000 0.308979 0.000000
O O12 0.729590 0.000000 0.123670
O O13 0.493465 0.500000 0.696273
O O14 0.000000 0.839954 0.500000
O O15 0.969801 0.923446 0.570305
#
# Coordination Sequence:
#
# PCOD9225586 Si02
#       8
#     4   8   8   8   4   4   8   4
#     4  11  19  35  58  81 108 146 191 231 280 332
#     4  11  22  38  54  80 118 153 190 228 278 329
#     4  10  22  38  56  80 116 152 186 236 277 327
#     4  12  22  35  53  79 114 154 192 225 269 329
#     4  12  19  34  51  78 116 154 192 226 261 321
#     4  11  19  35  58  81 108 146 191 231 280 332
#     4  12  22  35  53  79 114 154 192 225 269 329
#     4  12  19  34  51  78 116 154 192 226 261 321
#
# _framework density 8.8399230000000006
#
# number of rings (size 3 to 8) (size 9 to 14) (size 15 to 20)
#    0.000    0.667    8.333    2.000    0.000    1.333 
#    0.000    3.333    0.000    0.000    0.000    4.667 
#    0.000    0.000    0.000    0.000    0.000    0.000 
#
# Total GULP energy -133865.974254 kJ/mol
# GULP energy per Si atom -5577.748927 kJ/mol
# Density = 0.881980 g / cm^3
# Si number density = 8.839923 Si / 1000 Ang^3
#
#
#
# Elastic Constant Matrix: (Units=GPa)
#
#
# Indices 1 2 3 4 5 6 
#
# 1 23.9891 5.0369 8.2488 0.0227 -21.7527 -0.0089
# 2 5.0369 77.6128 26.4749 0.0230 -29.8066 0.0468
# 3 8.2488 26.4749 140.4854 0.0364 -18.0096 0.0114
# 4 0.0227 0.0230 0.0364 16.7742 0.0150 -3.9030
# 5 -21.7527 -29.8066 -18.0096 0.0150 22.3041 0.0121
# 6 -0.0089 0.0468 0.0114 -3.9030 0.0121 34.1193
#
#
#
# Elastic Compliance Matrix: (Units=1/GPa)
#
#
# Indices 1 2 3 4 5 6 
#
# 1 -0.076946 -0.048645 -0.004762 0.000342 -0.143898 0.000138
# 2 -0.048645 -0.004252 -0.003517 0.000136 -0.055964 0.000030
# 3 -0.004762 -0.003517 0.007655 -0.000002 -0.003163 0.000002
# 4 0.000342 0.000136 -0.000002 0.061245 0.000469 0.007006
# 5 -0.143898 -0.055964 -0.003163 0.000469 -0.172850 0.000155
# 6 0.000138 0.000030 0.000002 0.007006 0.000155 0.030110
#
#
# Mechanical properties :
#
#
# Convention : Reuss Voigt Hill
#
# Bulk Modulus (GPa) = -5.33645 35.73430 15.19893
# Shear Modulus (GPa) = -48.23758 28.12795 -10.05482
#
# Velocity S-wave (km/s) = -5.22907 3.99301 -2.38736
# Velocity P-wave (km/s) = 6.28351 6.44318 1.00800
#
# Compressibility (1/GPa) = -0.18739056
#
# Stress axis : x y z
#
# Youngs Moduli (GPa) = -12.99608 -235.20148 130.63215
#
# Poissons Ratio (x) = -11.44141 0.62204
# Poissons Ratio (y) = -0.63220 0.45942
# Poissons Ratio (z) = -0.06188 -0.82718
#
# Static dielectric constant tensor:
#      x y z
#    x 1.369320 -0.000010 -0.152390 
#    y -0.000010 1.613240 0.000000 
#    z -0.152390 0.000000 1.553240 
# 
# From -- ./inp_files/317915.got.cif
#   From: 2010.05.17/outbox.ucp.g08.bks.cvg/sg12_159_cif.got.tgz:317915.got - 2010.06.11 11:47:21.
