data_PCOD9225451
_publ_section_title
;
Structure prediction by ZEFSAII (Michael W. Deem and Ramdas Pophale) SiO2 
 PCOD9225451
Probable space group: C 2/M
;
_chemical_formula_sum "Si O2"
_cell_formula_units_Z 32
_cell_length_a 30.000000
_cell_length_b 9.000000
_cell_length_c 18.000000
_cell_angle_alpha 90.000000
_cell_angle_beta 40.000000
_cell_angle_gamma 90.000000
_cell_volume 3123.947783
_symmetry_space_group_name_H-M "C 2/M"
_symmetry_group_IT_number 12
_symmetry_cell_setting 'monoclinic'
loop_
_space_group_symop_operation_xyz
x,y,z
-x,y,-z
-x,-y,-z
x,-y,z
1/2+x,1/2+y,z
1/2-x,1/2+y,-z
1/2-x,1/2-y,-z
1/2+x,1/2-y,z
loop_
_atom_site_type_symbol
_atom_site_label
_atom_site_fract_x
_atom_site_fract_y
_atom_site_fract_z
Si Si1 0.316171 0.321854 0.953812
Si Si2 0.968405 0.175340 0.751355
Si Si3 0.066752 0.320698 0.732723
Si Si4 0.201677 0.822830 0.499120
Si Si5 0.337214 0.668277 0.092347
Si Si6 0.581848 0.832114 0.881009
Si Si7 0.055046 0.177173 0.492864
Si Si8 0.694219 0.831693 0.357323
O O1 0.304949 0.500000 0.971264
O O2 0.390805 0.293264 0.821458
O O3 0.250000 0.250000 0.000000
O O4 0.331459 0.265225 0.017737
O O5 0.994444 0.265907 0.789954
O O6 0.019514 0.202997 0.617824
O O7 0.971185 0.000000 0.766440
O O8 0.069695 0.500000 0.726978
O O9 0.125280 0.242499 0.609237
O O10 0.085099 0.270745 0.793165
O O11 0.250000 0.750000 0.500000
O O12 0.219489 0.767950 0.394103
O O13 0.203493 0.000000 0.502416
O O14 0.364658 0.500000 0.049971
O O15 0.381470 0.747326 0.099266
O O16 0.258504 0.661841 0.220362
O O17 0.610192 0.000000 0.843177
O O18 0.500000 0.838955 0.000000
O O19 0.127312 0.263093 0.403128
O O20 0.000000 0.221637 0.500000
O O21 0.067851 0.000000 0.468219
O O22 0.678949 0.000000 0.403319
#
# Coordination Sequence:
#
# PCOD9225451 Si02
#       8
#     8   8   8   8   8   8   8   8
#     4  10  23  42  63  90 122 159 205 254 304 360
#     4  10  21  39  62  89 122 160 203 251 301 361
#     4  11  22  37  60  90 122 157 198 246 300 360
#     4  12  24  39  59  86 121 160 202 247 298 358
#     4  10  23  41  60  88 124 159 201 250 300 358
#     4  10  22  39  60  89 122 157 202 249 297 355
#     4  10  22  39  61  90 122 159 204 253 305 362
#     4  11  23  40  61  89 124 162 204 251 304 362
#
# _framework density 10.243449
#
# number of rings (size 3 to 8) (size 9 to 14) (size 15 to 20)
#    0.000    1.500    1.250    3.375    1.750    5.500 
#    0.000    0.000    0.000    0.000    0.000    0.000 
#    0.000    0.000    0.000    0.000    0.000    0.000 
#
# Total GULP energy -178676.458566 kJ/mol
# GULP energy per Si atom -5583.639330 kJ/mol
# Density = 1.022013 g / cm^3
# Si number density = 10.243449 Si / 1000 Ang^3
#
#
#
# Elastic Constant Matrix: (Units=GPa)
#
#
# Indices 1 2 3 4 5 6 
#
# 1 164.5433 62.0707 18.2985 0.0030 -20.2988 -0.0005
# 2 62.0707 66.9315 12.1968 0.0253 -6.4183 -0.0083
# 3 18.2985 12.1968 52.3701 0.0140 -8.3328 -0.0058
# 4 0.0030 0.0253 0.0140 7.6167 -0.0046 2.7435
# 5 -20.2988 -6.4183 -8.3328 -0.0046 31.0523 0.0008
# 6 -0.0005 -0.0083 -0.0058 2.7435 0.0008 37.7813
#
#
#
# Elastic Compliance Matrix: (Units=1/GPa)
#
#
# Indices 1 2 3 4 5 6 
#
# 1 0.010005 -0.008707 -0.000746 0.000031 0.004541 -0.000004
# 2 -0.008707 0.023347 -0.002646 -0.000074 -0.001576 0.000010
# 3 -0.000746 -0.002646 0.020690 -0.000028 0.004518 0.000004
# 4 0.000031 -0.000074 -0.000028 0.134818 0.000017 -0.009790
# 5 0.004541 -0.001576 0.004518 0.000017 0.036058 -0.000002
# 6 -0.000004 0.000010 0.000004 -0.009790 -0.000002 0.027179
#
#
# Mechanical properties :
#
#
# Convention : Reuss Voigt Hill
#
# Bulk Modulus (GPa) = 33.50641 52.10856 42.80748
# Shear Modulus (GPa) = 17.46769 28.04197 22.75483
#
# Velocity S-wave (km/s) = 2.92315 3.70371 3.33633
# Velocity P-wave (km/s) = 5.27101 6.61666 5.98180
#
# Compressibility (1/GPa) = 0.02984504
#
# Stress axis : x y z
#
# Youngs Moduli (GPa) = 99.94884 42.83288 48.33149
#
# Poissons Ratio (x) = 0.37296 0.03603
# Poissons Ratio (y) = 0.87028 0.12787
# Poissons Ratio (z) = 0.07451 0.11333
#
# Static dielectric constant tensor:
#      x y z
#    x 1.704100 0.000000 0.026460 
#    y 0.000000 1.717400 0.000000 
#    z 0.026460 0.000000 1.833450 
# 
# From -- ./inp_files/295574.got.cif
#   From: 2010.05.17/outbox.ucp.g08.bks.cvg/sg12_148_cif.got.tgz:295574.got - 2010.06.11 11:47:21.
