data_PCOD9225541
_publ_section_title
;
Structure prediction by ZEFSAII (Michael W. Deem and Ramdas Pophale) SiO2 
 PCOD9225541
Probable space group: C 2/M
;
_chemical_formula_sum "Si O2"
_cell_formula_units_Z 24
_cell_length_a 30.000000
_cell_length_b 9.000000
_cell_length_c 15.000000
_cell_angle_alpha 90.000000
_cell_angle_beta 140.000000
_cell_angle_gamma 90.000000
_cell_volume 2603.289819
_symmetry_space_group_name_H-M "C 2/M"
_symmetry_group_IT_number 12
_symmetry_cell_setting 'monoclinic'
loop_
_space_group_symop_operation_xyz
x,y,z
-x,y,-z
-x,-y,-z
x,-y,z
1/2+x,1/2+y,z
1/2-x,1/2+y,-z
1/2-x,1/2-y,-z
1/2+x,1/2-y,z
loop_
_atom_site_type_symbol
_atom_site_label
_atom_site_fract_x
_atom_site_fract_y
_atom_site_fract_z
Si Si1 0.179325 0.326569 0.858701
Si Si2 0.563586 0.822036 0.341487
Si Si3 0.191105 0.671754 0.666582
Si Si4 0.166167 0.323745 0.135213
Si Si5 0.072886 0.319892 0.153295
Si Si6 0.082119 0.823518 0.844910
O O1 0.180381 0.500000 0.886315
O O2 0.173465 0.317294 0.743669
O O3 0.116855 0.243353 0.810355
O O4 0.250000 0.250000 0.000000
O O5 0.626029 0.795956 0.504655
O O6 0.581892 0.774669 0.268867
O O7 0.495267 0.735662 0.264606
O O8 0.549007 0.000000 0.318489
O O9 0.212871 0.500000 0.683328
O O10 0.254158 0.780616 0.744787
O O11 0.155800 0.500000 0.107872
O O12 0.132954 0.275899 0.177955
O O13 0.126491 0.240451 0.995325
O O14 0.070777 0.500000 0.150330
O O15 0.000000 0.268191 0.000000
O O16 0.085604 0.000000 0.850262
#
# Coordination Sequence:
#
# PCOD9225541 Si02
#       6
#     8   8   8   8   8   8
#     4  11  22  38  61  89 118 155 199 243 293 350
#     4  10  21  41  63  85 120 160 194 238 297 354
#     4  10  23  40  60  88 122 154 192 244 297 353
#     4  11  21  36  62  89 117 157 199 242 292 353
#     4   9  17  33  60  90 115 150 200 240 285 352
#     4  12  24  38  59  89 120 153 200 250 295 347
#
# _framework density 9.2191039999999997
#
# number of rings (size 3 to 8) (size 9 to 14) (size 15 to 20)
#    0.000    1.500    3.333    2.500    0.000    2.667 
#    0.000    5.833    0.000    0.000    0.000    0.000 
#    0.000    0.000    0.000    0.000    0.000    0.000 
#
# Total GULP energy -134040.747147 kJ/mol
# GULP energy per Si atom -5585.031131 kJ/mol
# Density = 0.919812 g / cm^3
# Si number density = 9.219104 Si / 1000 Ang^3
#
#
#
# Elastic Constant Matrix: (Units=GPa)
#
#
# Indices 1 2 3 4 5 6 
#
# 1 116.5710 62.2892 40.9271 0.0000 3.9023 0.0000
# 2 62.2892 93.8059 59.5828 0.0000 7.7594 0.0000
# 3 40.9271 59.5828 93.0159 0.0000 -13.4479 0.0000
# 4 0.0000 0.0000 0.0000 17.9954 0.0000 8.9597
# 5 3.9023 7.7594 -13.4479 0.0000 18.8625 0.0000
# 6 0.0000 0.0000 0.0000 8.9597 0.0000 20.5214
#
#
#
# Elastic Compliance Matrix: (Units=1/GPa)
#
#
# Indices 1 2 3 4 5 6 
#
# 1 0.013311 -0.008888 -0.000037 0.000000 0.000876 0.000000
# 2 -0.008888 0.031065 -0.019589 0.000000 -0.024906 0.000000
# 3 -0.000037 -0.019589 0.027295 0.000000 0.027526 0.000000
# 4 0.000000 0.000000 0.000000 0.071005 0.000000 -0.031001
# 5 0.000876 -0.024906 0.027526 0.000000 0.082704 0.000000
# 6 0.000000 0.000000 0.000000 -0.031001 0.000000 0.062265
#
#
# Mechanical properties :
#
#
# Convention : Reuss Voigt Hill
#
# Bulk Modulus (GPa) = 68.29367 69.88790 69.09078
# Shear Modulus (GPa) = 14.30394 20.84877 17.57636
#
# Velocity S-wave (km/s) = 2.78830 3.36629 3.09084
# Velocity P-wave (km/s) = 6.89099 7.28666 7.09158
#
# Compressibility (1/GPa) = 0.01464265
#
# Stress axis : x y z
#
# Youngs Moduli (GPa) = 75.12356 32.19076 36.63685
#
# Poissons Ratio (x) = 0.28611 0.00136
# Poissons Ratio (y) = 0.66770 0.71769
# Poissons Ratio (z) = 0.00278 0.63059
#
# Static dielectric constant tensor:
#      x y z
#    x 1.645830 0.000000 -0.001940 
#    y 0.000000 1.632560 0.000000 
#    z -0.001940 0.000000 1.595040 
# 
# From -- ./inp_files/248784.got.cif
#   From: 2010.05.17/outbox.ucp.g08.bks.cvg/sg12_125_cif.got.tgz:248784.got - 2010.06.11 11:47:21.
