data_PCOD9225201
_publ_section_title
;
Structure prediction by ZEFSAII (Michael W. Deem and Ramdas Pophale) SiO2 
 PCOD9225201
Probable space group: C 2/M
;
_chemical_formula_sum "Si O2"
_cell_formula_units_Z 32
_cell_length_a 30.000000
_cell_length_b 9.000000
_cell_length_c 18.000000
_cell_angle_alpha 90.000000
_cell_angle_beta 140.000000
_cell_angle_gamma 90.000000
_cell_volume 3123.947783
_symmetry_space_group_name_H-M "C 2/M"
_symmetry_group_IT_number 12
_symmetry_cell_setting 'monoclinic'
loop_
_space_group_symop_operation_xyz
x,y,z
-x,y,-z
-x,-y,-z
x,-y,z
1/2+x,1/2+y,z
1/2-x,1/2+y,-z
1/2-x,1/2-y,-z
1/2+x,1/2-y,z
loop_
_atom_site_type_symbol
_atom_site_label
_atom_site_fract_x
_atom_site_fract_y
_atom_site_fract_z
Si Si1 0.876934 0.674576 0.448087
Si Si2 0.866157 0.179662 0.002502
Si Si3 0.348273 0.329633 0.678225
Si Si4 0.486825 0.672646 0.395124
Si Si5 0.278486 0.332708 0.426907
Si Si6 0.283658 0.820050 0.196719
Si Si7 0.139263 0.676493 0.844129
Si Si8 0.499430 0.680461 0.084346
O O1 0.895071 0.500000 0.467511
O O2 0.941799 0.775766 0.551324
O O3 0.816007 0.707224 0.427358
O O4 0.844639 0.727940 0.328796
O O5 0.792212 0.226923 0.874261
O O6 0.867827 0.000000 0.005813
O O7 0.865996 0.238013 0.085895
O O8 0.932344 0.235375 0.042356
O O9 0.343347 0.500000 0.701469
O O10 0.316969 0.332716 0.555689
O O11 0.300317 0.217169 0.662130
O O12 0.428219 0.284010 0.783699
O O13 0.500000 0.689993 0.500000
O O14 0.470313 0.500000 0.358824
O O15 0.428444 0.781063 0.289890
O O16 0.284407 0.500000 0.403469
O O17 0.298911 0.774214 0.131983
O O18 0.285569 0.000000 0.200638
O O19 0.143766 0.500000 0.862193
O O20 0.494701 0.500000 0.077210
O O21 0.500000 0.731140 0.000000
#
# Coordination Sequence:
#
# PCOD9225201 Si02
#       8
#     8   8   8   8   8   8   8   8
#     4  11  22  37  60  88 119 157 196 239 294 357
#     4  10  21  38  61  89 116 153 202 248 298 352
#     4   9  19  37  59  83 113 150 193 242 296 353
#     4  11  23  39  59  86 119 155 196 243 294 347
#     4  10  21  36  56  86 119 151 192 243 294 351
#     4   9  20  37  59  86 118 155 201 249 292 349
#     4  11  22  39  60  86 121 159 199 246 298 353
#     4   9  19  35  60  88 113 147 195 248 295 351
#
# _framework density 10.243449
#
# number of rings (size 3 to 8) (size 9 to 14) (size 15 to 20)
#    0.000    2.000    1.250    1.875    3.500    1.000 
#    0.000    2.500    0.000    0.750    0.000    0.000 
#    0.000    0.000    0.000    0.000    0.000    0.000 
#
# Total GULP energy -178520.435318 kJ/mol
# GULP energy per Si atom -5578.763604 kJ/mol
# Density = 1.022013 g / cm^3
# Si number density = 10.243449 Si / 1000 Ang^3
#
#
#
# Elastic Constant Matrix: (Units=GPa)
#
#
# Indices 1 2 3 4 5 6 
#
# 1 91.3557 2.3928 26.8677 0.0000 30.6928 0.0000
# 2 2.3928 12.9698 0.1832 0.0000 -0.4786 0.0000
# 3 26.8677 0.1832 52.0765 0.0000 30.0487 0.0000
# 4 0.0000 0.0000 0.0000 9.5006 0.0000 0.1923
# 5 30.6928 -0.4786 30.0487 0.0000 26.1234 0.0000
# 6 0.0000 0.0000 0.0000 0.1923 0.0000 24.4411
#
#
#
# Elastic Compliance Matrix: (Units=1/GPa)
#
#
# Indices 1 2 3 4 5 6 
#
# 1 0.019848 -0.005079 0.009775 0.000000 -0.034656 0.000000
# 2 -0.005079 0.078637 -0.005741 0.000000 0.014011 0.000000
# 3 0.009775 -0.005741 0.062051 0.000000 -0.082965 0.000000
# 4 0.000000 0.000000 0.000000 0.105273 0.000000 -0.000828
# 5 -0.034656 0.014011 -0.082965 0.000000 0.174686 0.000000
# 6 0.000000 0.000000 0.000000 -0.000828 0.000000 0.040921
#
#
# Mechanical properties :
#
#
# Convention : Reuss Voigt Hill
#
# Bulk Modulus (GPa) = 6.31127 23.92105 15.11616
# Shear Modulus (GPa) = 9.32275 20.47690 14.89983
#
# Velocity S-wave (km/s) = 2.13553 3.16494 2.69975
# Velocity P-wave (km/s) = 3.02786 5.00573 4.13675
#
# Compressibility (1/GPa) = 0.15844670
#
# Stress axis : x y z
#
# Youngs Moduli (GPa) = 50.38293 12.71663 16.11571
#
# Poissons Ratio (x) = 0.06458 -0.15753
# Poissons Ratio (y) = 0.25588 0.09252
# Poissons Ratio (z) = -0.49249 0.07301
#
# Static dielectric constant tensor:
#      x y z
#    x 1.766280 0.000000 0.007090 
#    y 0.000000 1.683080 0.000000 
#    z 0.007090 0.000000 1.744060 
# 
# From -- ./inp_files/295834.got.cif
#   From: 2010.05.17/outbox.ucp.g08.bks.cvg/sg12_148_cif.got.tgz:295834.got - 2010.06.11 11:47:21.
