data_PCOD9225284
_publ_section_title
;
Structure prediction by ZEFSAII (Michael W. Deem and Ramdas Pophale) SiO2 
 PCOD9225284
Probable space group: C 2/M
;
_chemical_formula_sum "Si O2"
_cell_formula_units_Z 32
_cell_length_a 18.000000
_cell_length_b 9.000000
_cell_length_c 30.000000
_cell_angle_alpha 90.000000
_cell_angle_beta 140.000000
_cell_angle_gamma 90.000000
_cell_volume 3123.947783
_symmetry_space_group_name_H-M "C 2/M"
_symmetry_group_IT_number 12
_symmetry_cell_setting 'monoclinic'
loop_
_space_group_symop_operation_xyz
x,y,z
-x,y,-z
-x,-y,-z
x,-y,z
1/2+x,1/2+y,z
1/2-x,1/2+y,-z
1/2-x,1/2-y,-z
1/2+x,1/2-y,z
loop_
_atom_site_type_symbol
_atom_site_label
_atom_site_fract_x
_atom_site_fract_y
_atom_site_fract_z
Si Si1 0.427561 0.677446 0.085267
Si Si2 0.685366 0.679973 0.223489
Si Si3 0.216008 0.323621 0.056064
Si Si4 0.146875 0.669873 0.621303
Si Si5 0.220339 0.824861 0.575083
Si Si6 0.807906 0.321162 0.186457
Si Si7 0.407005 0.171054 0.562942
Si Si8 0.046819 0.822159 0.321038
O O1 0.432310 0.500000 0.078697
O O2 0.552528 0.727965 0.159897
O O3 0.330895 0.701541 0.078695
O O4 0.386933 0.759278 0.021695
O O5 0.818648 0.500000 0.188950
O O6 0.759086 0.728827 0.299914
O O7 0.747185 0.718452 0.205434
O O8 0.202736 0.500000 0.056871
O O9 0.235443 0.240139 0.111470
O O10 0.176291 0.500000 0.620551
O O11 0.132890 0.775429 0.572929
O O12 0.026469 0.661536 0.591342
O O13 0.181937 0.754612 0.510449
O O14 0.337106 0.745863 0.646081
O O15 0.232265 0.000000 0.577597
O O16 0.933458 0.244887 0.245994
O O17 0.186385 0.000000 0.226562
O O18 0.440264 0.259668 0.622745
O O19 0.370276 0.000000 0.555348
O O20 0.045147 0.000000 0.319018
#
# Coordination Sequence:
#
# PCOD9225284 Si02
#       8
#     8   8   8   8   8   8   8   8
#     4   9  19  38  63  88 118 160 203 242 293 359
#     4   9  19  38  63  88 116 158 205 246 295 359
#     4  10  21  37  59  91 125 159 199 249 300 350
#     4  10  21  40  64  90 122 161 204 251 306 366
#     4  12  26  41  60  91 124 159 206 256 305 361
#     4  11  22  40  63  89 121 159 202 250 302 364
#     4  11  22  42  67  90 121 161 202 250 309 369
#     4  12  25  42  63  89 122 161 204 253 308 366
#
# _framework density 10.243449
#
# number of rings (size 3 to 8) (size 9 to 14) (size 15 to 20)
#    0.000    1.500    1.250    4.125    1.750    3.500 
#    0.000    4.375    0.000    0.000    0.000    0.000 
#    0.000    0.000    0.000    0.000    0.000    0.000 
#
# Total GULP energy -178821.142299 kJ/mol
# GULP energy per Si atom -5588.160697 kJ/mol
# Density = 1.022013 g / cm^3
# Si number density = 10.243449 Si / 1000 Ang^3
#
#
#
# Elastic Constant Matrix: (Units=GPa)
#
#
# Indices 1 2 3 4 5 6 
#
# 1 63.5573 29.4341 21.1196 0.0000 -11.1222 0.0000
# 2 29.4341 106.1697 15.9783 0.0000 -10.0809 0.0000
# 3 21.1196 15.9783 38.2312 0.0000 -5.7782 0.0000
# 4 0.0000 0.0000 0.0000 36.8883 0.0000 -3.7712
# 5 -11.1222 -10.0809 -5.7782 0.0000 39.3814 0.0000
# 6 0.0000 0.0000 0.0000 -3.7712 0.0000 19.8027
#
#
#
# Elastic Compliance Matrix: (Units=1/GPa)
#
#
# Indices 1 2 3 4 5 6 
#
# 1 0.021477 -0.004172 -0.009578 0.000000 0.003592 0.000000
# 2 -0.004172 0.011018 -0.002099 0.000000 0.001334 0.000000
# 3 -0.009578 -0.002099 0.032557 0.000000 0.001535 0.000000
# 4 0.000000 0.000000 0.000000 0.027647 0.000000 0.005265
# 5 0.003592 0.001334 0.001535 0.000000 0.026974 0.000000
# 6 0.000000 0.000000 0.000000 0.005265 0.000000 0.051501
#
#
# Mechanical properties :
#
#
# Convention : Reuss Voigt Hill
#
# Bulk Modulus (GPa) = 29.98021 37.89134 33.93577
# Shear Modulus (GPa) = 23.36573 28.64290 26.00432
#
# Velocity S-wave (km/s) = 3.38082 3.74319 3.56661
# Velocity P-wave (km/s) = 5.46860 6.10061 5.79323
#
# Compressibility (1/GPa) = 0.03335534
#
# Stress axis : x y z
#
# Youngs Moduli (GPa) = 46.56120 90.76089 30.71564
#
# Poissons Ratio (x) = 0.37863 0.29419
# Poissons Ratio (y) = 0.19424 0.06446
# Poissons Ratio (z) = 0.44596 0.19048
#
# Static dielectric constant tensor:
#      x y z
#    x 1.818630 0.000000 0.030110 
#    y 0.000000 1.686290 0.000000 
#    z 0.030110 0.000000 1.695030 
# 
# From -- ./inp_files/378279.got.cif
#   From: 2010.05.17/outbox.ucp.g08.bks.cvg/sg12_190_cif.got.tgz:378279.got - 2010.06.11 11:47:21.
