data_PCOD9225462
_publ_section_title
;
Structure prediction by ZEFSAII (Michael W. Deem and Ramdas Pophale) SiO2 
 PCOD9225462
Probable space group: C 2/M
;
_chemical_formula_sum "Si O2"
_cell_formula_units_Z 24
_cell_length_a 30.000000
_cell_length_b 9.000000
_cell_length_c 18.000000
_cell_angle_alpha 90.000000
_cell_angle_beta 30.000000
_cell_angle_gamma 90.000000
_cell_volume 2430.000000
_symmetry_space_group_name_H-M "C 2/M"
_symmetry_group_IT_number 12
_symmetry_cell_setting 'monoclinic'
loop_
_space_group_symop_operation_xyz
x,y,z
-x,y,-z
-x,-y,-z
x,-y,z
1/2+x,1/2+y,z
1/2-x,1/2+y,-z
1/2-x,1/2-y,-z
1/2+x,1/2-y,z
loop_
_atom_site_type_symbol
_atom_site_label
_atom_site_fract_x
_atom_site_fract_y
_atom_site_fract_z
Si Si1 0.914678 0.823470 0.437195
Si Si2 0.598290 0.667108 0.826408
Si Si3 0.743608 0.325707 0.745116
Si Si4 0.613285 0.322397 0.203526
Si Si5 0.236402 0.674380 0.904193
Si Si6 0.157139 0.673113 0.608048
O O1 0.831946 0.770336 0.605671
O O2 0.891860 0.745434 0.391692
O O3 0.009437 0.787573 0.339044
O O4 0.912485 0.000000 0.429386
O O5 0.618145 0.500000 0.767147
O O6 0.672066 0.698769 0.782887
O O7 0.598304 0.792514 0.764468
O O8 0.500000 0.660220 0.000000
O O9 0.764993 0.500000 0.713863
O O10 0.708768 0.274096 0.874706
O O11 0.625150 0.500000 0.170807
O O12 0.662219 0.298676 0.212298
O O13 0.670502 0.222320 0.065093
O O14 0.227932 0.500000 0.899538
O O15 0.171264 0.500000 0.573380
O O16 0.250000 0.750000 0.500000
#
# Coordination Sequence:
#
# PCOD9225462 Si02
#       6
#     8   8   8   8   8   8
#     4  11  23  40  63  88 119 158 201 245 295 353
#     4  10  23  42  62  86 119 160 201 243 293 350
#     4  11  23  39  60  88 122 157 199 246 297 355
#     4   9  21  41  63  88 118 158 200 241 298 360
#     4  10  21  39  63  89 121 156 197 247 297 353
#     4  12  24  40  62  89 122 158 198 243 295 351
#
# _framework density 9.8765429999999999
#
# number of rings (size 3 to 8) (size 9 to 14) (size 15 to 20)
#    0.000    1.500    1.667    3.000    2.333    3.667 
#    0.000    3.333    0.000    0.000    0.000    0.000 
#    0.000    0.000    0.000    0.000    0.000    0.000 
#
# Total GULP energy -133905.892282 kJ/mol
# GULP energy per Si atom -5579.412178 kJ/mol
# Density = 0.985406 g / cm^3
# Si number density = 9.876543 Si / 1000 Ang^3
#
#
#
# Elastic Constant Matrix: (Units=GPa)
#
#
# Indices 1 2 3 4 5 6 
#
# 1 27.8122 10.9318 -6.5252 -0.0011 2.4388 0.0008
# 2 10.9318 58.2072 9.6792 -0.0004 -0.6902 0.0006
# 3 -6.5252 9.6792 46.6052 -0.0008 -13.7994 0.0008
# 4 -0.0011 -0.0004 -0.0008 29.4139 -0.0003 2.6509
# 5 2.4388 -0.6902 -13.7994 -0.0003 34.5641 0.0000
# 6 0.0008 0.0006 0.0008 2.6509 0.0000 32.1441
#
#
#
# Elastic Compliance Matrix: (Units=1/GPa)
#
#
# Indices 1 2 3 4 5 6 
#
# 1 0.041302 -0.009029 0.007645 0.000002 -0.000042 -0.000001
# 2 -0.009029 0.019818 -0.005754 0.000000 -0.001265 0.000000
# 3 0.007645 -0.005754 0.026683 0.000001 0.009999 -0.000001
# 4 0.000002 0.000000 0.000001 0.034252 0.000001 -0.002825
# 5 -0.000042 -0.001265 0.009999 0.000001 0.032901 0.000000
# 6 -0.000001 0.000000 -0.000001 -0.002825 0.000000 0.031343
#
#
# Mechanical properties :
#
#
# Convention : Reuss Voigt Hill
#
# Bulk Modulus (GPa) = 13.60053 17.86626 15.73340
# Shear Modulus (GPa) = 22.21408 27.12701 24.67055
#
# Velocity S-wave (km/s) = 3.35713 3.70983 3.53788
# Velocity P-wave (km/s) = 4.68266 5.23593 4.96700
#
# Compressibility (1/GPa) = 0.07352653
#
# Stress axis : x y z
#
# Youngs Moduli (GPa) = 24.21213 50.46038 37.47734
#
# Poissons Ratio (x) = 0.45559 -0.28652
# Poissons Ratio (y) = 0.21860 0.21566
# Poissons Ratio (z) = -0.18511 0.29037
#
# Static dielectric constant tensor:
#      x y z
#    x 1.722890 0.000000 0.102230 
#    y 0.000000 1.676820 0.000000 
#    z 0.102230 0.000000 1.927780 
# 
# From -- ./inp_files/244661.got.cif
#   From: 2010.05.17/outbox.ucp.g08.bks.cvg/sg12_123_cif.got.tgz:244661.got - 2010.06.11 11:47:21.
