data_PCOD9225424
_publ_section_title
;
Structure prediction by ZEFSAII (Michael W. Deem and Ramdas Pophale) SiO2 
 PCOD9225424
Probable space group: C 2/M
;
_chemical_formula_sum "Si O2"
_cell_formula_units_Z 32
_cell_length_a 30.000000
_cell_length_b 9.000000
_cell_length_c 15.000000
_cell_angle_alpha 90.000000
_cell_angle_beta 60.000000
_cell_angle_gamma 90.000000
_cell_volume 3507.402885
_symmetry_space_group_name_H-M "C 2/M"
_symmetry_group_IT_number 12
_symmetry_cell_setting 'monoclinic'
loop_
_space_group_symop_operation_xyz
x,y,z
-x,y,-z
-x,-y,-z
x,-y,z
1/2+x,1/2+y,z
1/2-x,1/2+y,-z
1/2-x,1/2-y,-z
1/2+x,1/2-y,z
loop_
_atom_site_type_symbol
_atom_site_label
_atom_site_fract_x
_atom_site_fract_y
_atom_site_fract_z
Si Si1 0.779585 0.678614 0.888146
Si Si2 0.361760 0.679137 0.568185
Si Si3 0.030594 0.676068 0.213047
Si Si4 0.855836 0.824534 0.220200
Si Si5 0.080000 0.822352 0.665268
Si Si6 0.251497 0.820909 0.266410
Si Si7 0.556023 0.176717 0.983972
Si Si8 0.611959 0.678799 0.258336
O O1 0.778535 0.500000 0.890813
O O2 0.753843 0.742690 0.824118
O O3 0.837859 0.739786 0.830843
O O4 0.750000 0.750000 0.000000
O O5 0.362184 0.500000 0.563016
O O6 0.393166 0.732504 0.452034
O O7 0.301617 0.721481 0.630331
O O8 0.387222 0.718295 0.637414
O O9 0.031445 0.500000 0.230110
O O10 0.062464 0.763801 0.255627
O O11 0.972661 0.735850 0.266528
O O12 0.054990 0.700529 0.090910
O O13 0.881182 0.801929 0.291568
O O14 0.802810 0.736505 0.261734
O O15 0.898193 0.765290 0.108132
O O16 0.846862 0.000000 0.216008
O O17 0.069174 0.000000 0.669570
O O18 0.252408 0.000000 0.254955
O O19 0.562582 0.000000 0.960108
O O20 0.500000 0.219185 0.000000
O O21 0.617238 0.500000 0.245500
#
# Coordination Sequence:
#
# PCOD9225424 Si02
#       8
#     8   8   8   8   8   8   8   8
#     4  11  22  38  59  85 117 151 192 240 289 343
#     4   8  18  39  63  84 111 153 197 238 289 349
#     4  11  23  38  58  86 117 152 196 243 293 350
#     4  11  23  36  57  89 120 150 192 244 293 345
#     4  10  21  39  61  85 115 152 197 244 293 349
#     4  10  21  39  61  84 116 156 196 236 286 346
#     4  10  21  39  59  78 112 156 194 235 288 351
#     4  10  21  39  61  85 116 154 194 238 289 346
#
# _framework density 9.1235599999999994
#
# number of rings (size 3 to 8) (size 9 to 14) (size 15 to 20)
#    0.000    1.875    1.250    3.375    1.750    2.750 
#    0.000    6.250    0.000    0.000    0.000    0.000 
#    0.000    0.000    0.000    0.000    0.000    0.000 
#
# Total GULP energy -178696.452234 kJ/mol
# GULP energy per Si atom -5584.264132 kJ/mol
# Density = 0.910279 g / cm^3
# Si number density = 9.123560 Si / 1000 Ang^3
#
#
#
# Elastic Constant Matrix: (Units=GPa)
#
#
# Indices 1 2 3 4 5 6 
#
# 1 66.2944 28.8766 -12.4459 0.0000 15.1168 0.0000
# 2 28.8766 83.5675 23.8472 0.0000 10.9449 0.0000
# 3 -12.4459 23.8472 62.4160 0.0000 17.1223 0.0000
# 4 0.0000 0.0000 0.0000 18.4338 0.0000 -1.0918
# 5 15.1168 10.9449 17.1223 0.0000 -2.0464 0.0000
# 6 0.0000 0.0000 0.0000 -1.0918 0.0000 37.2641
#
#
#
# Elastic Compliance Matrix: (Units=1/GPa)
#
#
# Indices 1 2 3 4 5 6 
#
# 1 0.011404 -0.006744 -0.002538 0.000000 0.026934 0.000000
# 2 -0.006744 0.016919 -0.005756 0.000000 -0.007485 0.000000
# 3 -0.002538 -0.005756 0.009499 0.000000 0.029947 0.000000
# 4 0.000000 0.000000 0.000000 0.054342 0.000000 0.001592
# 5 0.026934 -0.007485 0.029947 0.000000 -0.079164 0.000000
# 6 0.000000 0.000000 0.000000 0.001592 0.000000 0.026882
#
#
# Mechanical properties :
#
#
# Convention : Reuss Voigt Hill
#
# Bulk Modulus (GPa) = 129.08422 32.53707 80.81064
# Shear Modulus (GPa) = 68.92725 22.19697 45.56211
#
# Velocity S-wave (km/s) = 6.15275 3.49157 5.00237
# Velocity P-wave (km/s) = 11.01685 5.84164 8.81747
#
# Compressibility (1/GPa) = 0.00774688
#
# Stress axis : x y z
#
# Youngs Moduli (GPa) = 87.69165 59.10363 105.27030
#
# Poissons Ratio (x) = 0.39858 0.26719
# Poissons Ratio (y) = 0.59137 0.60593
# Poissons Ratio (z) = 0.22257 0.34020
#
# Static dielectric constant tensor:
#      x y z
#    x 1.607130 0.000000 0.004590 
#    y 0.000000 1.605610 0.000000 
#    z 0.004590 0.000000 1.621810 
# 
# From -- ./inp_files/249025.got.cif
#   From: 2010.05.17/outbox.ucp.g08.bks.cvg/sg12_125_cif.got.tgz:249025.got - 2010.06.11 11:47:21.
