data_PCOD9225306
_publ_section_title
;
Structure prediction by ZEFSAII (Michael W. Deem and Ramdas Pophale) SiO2 
 PCOD9225306
Probable space group: C 2/M
;
_chemical_formula_sum "Si O2"
_cell_formula_units_Z 28
_cell_length_a 30.000000
_cell_length_b 9.000000
_cell_length_c 21.000000
_cell_angle_alpha 90.000000
_cell_angle_beta 150.000000
_cell_angle_gamma 90.000000
_cell_volume 2835.000000
_symmetry_space_group_name_H-M "C 2/M"
_symmetry_group_IT_number 12
_symmetry_cell_setting 'monoclinic'
loop_
_space_group_symop_operation_xyz
x,y,z
-x,y,-z
-x,-y,-z
x,-y,z
1/2+x,1/2+y,z
1/2-x,1/2+y,-z
1/2-x,1/2-y,-z
1/2+x,1/2-y,z
loop_
_atom_site_type_symbol
_atom_site_label
_atom_site_fract_x
_atom_site_fract_y
_atom_site_fract_z
Si Si1 0.416478 0.179067 0.433634
Si Si2 0.883362 0.674382 0.886506
Si Si3 0.838939 0.822271 0.079098
Si Si4 0.528547 0.821413 0.357840
Si Si5 0.725720 0.325217 0.144575
Si Si6 0.061891 0.822962 0.162012
Si Si7 0.153352 0.322174 0.392240
O O1 0.500000 0.242674 0.500000
O O2 0.428523 0.229102 0.521693
O O3 0.331009 0.200373 0.282630
O O4 0.423343 0.000000 0.446684
O O5 0.891906 0.500000 0.883854
O O6 0.811259 0.712582 0.849315
O O7 0.866606 0.767733 0.801718
O O8 0.972510 0.742441 0.028157
O O9 0.933289 0.753479 0.220381
O O10 0.839817 0.000000 0.091823
O O11 0.750000 0.750000 0.000000
O O12 0.821257 0.800402 0.981380
O O13 0.605459 0.796715 0.400441
O O14 0.511440 0.000000 0.339049
O O15 0.708582 0.500000 0.140295
O O16 0.089089 0.757735 0.262568
O O17 0.052392 0.000000 0.149886
O O18 0.158575 0.500000 0.388175
O O19 0.250000 0.250000 0.500000
#
# Coordination Sequence:
#
# PCOD9225306 Si02
#       7
#     8   8   8   8   8   8   8
#     4   9  18  36  62  89 118 155 202 253 302 363
#     4  11  22  37  59  89 121 153 193 251 314 368
#     4  11  23  39  63  93 124 162 206 259 317 378
#     4  10  22  40  63  91 124 165 208 256 316 377
#     4  10  21  37  61  89 118 155 206 251 300 371
#     4  11  22  39  61  84 116 159 205 251 302 361
#     4  11  24  40  60  90 126 166 212 260 313 375
#
# _framework density 9.8765429999999999
#
# number of rings (size 3 to 8) (size 9 to 14) (size 15 to 20)
#    0.000    1.571    0.000    6.000    2.000    6.857 
#    0.000    0.714    0.000    1.714    0.000    0.000 
#    0.000    0.000    0.000    0.000    0.000    0.000 
#
# Total GULP energy -156139.264062 kJ/mol
# GULP energy per Si atom -5576.402288 kJ/mol
# Density = 0.985406 g / cm^3
# Si number density = 9.876543 Si / 1000 Ang^3
#
#
#
# Elastic Constant Matrix: (Units=GPa)
#
#
# Indices 1 2 3 4 5 6 
#
# 1 42.0126 -1.6634 -18.7231 0.0000 -2.4467 0.0000
# 2 -1.6634 50.2146 -20.2117 0.0000 7.2894 0.0000
# 3 -18.7231 -20.2117 37.0094 0.0000 -1.2630 0.0000
# 4 0.0000 0.0000 0.0000 35.4408 0.0000 3.6590
# 5 -2.4467 7.2894 -1.2630 0.0000 35.4854 0.0000
# 6 0.0000 0.0000 0.0000 3.6590 0.0000 25.5520
#
#
#
# Elastic Compliance Matrix: (Units=1/GPa)
#
#
# Indices 1 2 3 4 5 6 
#
# 1 0.034604 0.010317 0.023178 0.000000 0.001092 0.000000
# 2 0.010317 0.029428 0.021134 0.000000 -0.004582 0.000000
# 3 0.023178 0.021134 0.050255 0.000000 -0.000955 0.000000
# 4 0.000000 0.000000 0.000000 0.028639 0.000000 -0.004101
# 5 0.001092 -0.004582 -0.000955 0.000000 0.029163 0.000000
# 6 0.000000 0.000000 0.000000 -0.004101 0.000000 0.039723
#
#
# Mechanical properties :
#
#
# Convention : Reuss Voigt Hill
#
# Bulk Modulus (GPa) = 4.47339 5.33781 4.90560
# Shear Modulus (GPa) = 28.23746 30.61793 29.42770
#
# Velocity S-wave (km/s) = 3.78500 3.94132 3.86395
# Velocity P-wave (km/s) = 4.62290 4.83943 4.73241
#
# Compressibility (1/GPa) = 0.22354419
#
# Stress axis : x y z
#
# Youngs Moduli (GPa) = 28.89872 33.98119 19.89850
#
# Poissons Ratio (x) = -0.35058 -0.46120
# Poissons Ratio (y) = -0.29815 -0.42054
# Poissons Ratio (z) = -0.66980 -0.71817
#
# Static dielectric constant tensor:
#      x y z
#    x 1.788110 0.000000 -0.007640 
#    y 0.000000 1.694160 0.000000 
#    z -0.007640 0.000000 1.443080 
# 
# From -- ./inp_files/329675.got.cif
#   From: 2010.05.17/outbox.ucp.g08.bks.cvg/sg12_165_cif.got.tgz:329675.got - 2010.06.11 11:47:21.
