data_PCOD9225471
_publ_section_title
;
Structure prediction by ZEFSAII (Michael W. Deem and Ramdas Pophale) SiO2 
 PCOD9225471
Probable space group: C 2/M
;
_chemical_formula_sum "Si O2"
_cell_formula_units_Z 32
_cell_length_a 30.000000
_cell_length_b 9.000000
_cell_length_c 15.000000
_cell_angle_alpha 90.000000
_cell_angle_beta 50.000000
_cell_angle_gamma 90.000000
_cell_volume 3102.479995
_symmetry_space_group_name_H-M "C 2/M"
_symmetry_group_IT_number 12
_symmetry_cell_setting 'monoclinic'
loop_
_space_group_symop_operation_xyz
x,y,z
-x,y,-z
-x,-y,-z
x,-y,z
1/2+x,1/2+y,z
1/2-x,1/2+y,-z
1/2-x,1/2-y,-z
1/2+x,1/2-y,z
loop_
_atom_site_type_symbol
_atom_site_label
_atom_site_fract_x
_atom_site_fract_y
_atom_site_fract_z
Si Si1 0.313412 0.821082 0.932199
Si Si2 0.000727 0.822583 0.220232
Si Si3 0.183937 0.330937 0.737417
Si Si4 0.199494 0.323009 0.387667
Si Si5 0.111070 0.667319 0.653364
Si Si6 0.030955 0.175373 0.542770
Si Si7 0.152756 0.172153 0.286281
Si Si8 0.376244 0.319789 0.019411
O O1 0.352052 0.760885 0.799498
O O2 0.311861 0.000000 0.935945
O O3 0.250000 0.750000 0.000000
O O4 0.337147 0.751119 0.992316
O O5 0.942109 0.769319 0.250075
O O6 0.989806 0.764646 0.335589
O O7 0.002563 0.000000 0.221983
O O8 0.058410 0.776736 0.094680
O O9 0.198351 0.500000 0.748383
O O10 0.240910 0.233698 0.648812
O O11 0.152995 0.340636 0.682863
O O12 0.143829 0.251112 0.862187
O O13 0.196833 0.500000 0.383680
O O14 0.147256 0.277049 0.521277
O O15 0.199040 0.251445 0.290135
O O16 0.090096 0.500000 0.659795
O O17 0.096665 0.176584 0.422851
O O18 0.000000 0.252778 0.500000
O O19 0.014007 0.000000 0.568635
O O20 0.165878 0.000000 0.249806
O O21 0.371101 0.500000 0.027887
#
# Coordination Sequence:
#
# PCOD9225471 Si02
#       8
#     8   8   8   8   8   8   8   8
#     4  12  25  42  63  89 124 165 209 255 306 366
#     4  10  21  39  64  91 123 164 207 254 305 366
#     4  11  24  42  63  89 121 164 211 256 315 375
#     4  11  22  39  62  92 127 160 203 260 314 369
#     4  10  23  41  63  91 126 163 203 258 316 371
#     4   9  17  32  56  86 117 152 195 241 291 351
#     4  11  21  36  61  90 123 160 199 246 303 366
#     4  11  24  43  65  92 125 163 210 261 308 363
#
# _framework density 10.314329000000001
#
# number of rings (size 3 to 8) (size 9 to 14) (size 15 to 20)
#    0.000    1.375    1.250    4.500    0.000    5.000 
#    0.000    2.500    0.000    1.875    0.000    0.000 
#    0.000    0.000    0.000    0.000    0.000    0.000 
#
# Total GULP energy -178482.710897 kJ/mol
# GULP energy per Si atom -5577.584716 kJ/mol
# Density = 1.029085 g / cm^3
# Si number density = 10.314329 Si / 1000 Ang^3
#
#
#
# Elastic Constant Matrix: (Units=GPa)
#
#
# Indices 1 2 3 4 5 6 
#
# 1 -22.3063 -51.4971 -39.4279 0.0000 17.1278 0.0000
# 2 -51.4971 -25.1842 2.8243 0.0000 20.2582 0.0000
# 3 -39.4279 2.8243 51.3267 0.0000 4.6488 0.0000
# 4 0.0000 0.0000 0.0000 30.7265 0.0000 0.4987
# 5 17.1278 20.2582 4.6488 0.0000 30.4758 0.0000
# 6 0.0000 0.0000 0.0000 0.4987 0.0000 28.7092
#
#
#
# Elastic Compliance Matrix: (Units=1/GPa)
#
#
# Indices 1 2 3 4 5 6 
#
# 1 0.027645 -0.045133 0.022723 0.000000 0.010998 0.000000
# 2 -0.045133 0.047812 -0.037234 0.000000 -0.000737 0.000000
# 3 0.022723 -0.037234 0.038433 0.000000 0.006117 0.000000
# 4 0.000000 0.000000 0.000000 0.032554 0.000000 -0.000565
# 5 0.010998 -0.000737 0.006117 0.000000 0.026189 0.000000
# 6 0.000000 0.000000 0.000000 -0.000565 0.000000 0.034842
#
#
# Mechanical properties :
#
#
# Convention : Reuss Voigt Hill
#
# Bulk Modulus (GPa) = -185.28620 -19.15169 -102.21894
# Shear Modulus (GPa) = 15.38638 24.11142 19.74890
#
# Velocity S-wave (km/s) = 2.73403 3.42253 3.09747
# Velocity P-wave (km/s) = 8.94697 2.51278 6.07183
#
# Compressibility (1/GPa) = -0.00539706
#
# Stress axis : x y z
#
# Youngs Moduli (GPa) = 36.17344 20.91528 26.01910
#
# Poissons Ratio (x) = 0.94396 -0.59124
# Poissons Ratio (y) = 1.63261 0.96880
# Poissons Ratio (z) = -0.82198 0.77876
#
# Static dielectric constant tensor:
#      x y z
#    x 1.841350 0.000000 -0.017650 
#    y 0.000000 1.729410 0.000000 
#    z -0.017650 0.000000 1.755250 
# 
# From -- ./inp_files/249852.got.cif
#   From: 2010.05.17/outbox.ucp.g08.bks.cvg/sg12_125_cif.got.tgz:249852.got - 2010.06.11 11:47:21.
