data_PCOD9225382
_publ_section_title
;
Structure prediction by ZEFSAII (Michael W. Deem and Ramdas Pophale) SiO2 
 PCOD9225382
Probable space group: C 2/M
;
_chemical_formula_sum "Si O2"
_cell_formula_units_Z 28
_cell_length_a 18.000000
_cell_length_b 9.000000
_cell_length_c 18.000000
_cell_angle_alpha 90.000000
_cell_angle_beta 110.000000
_cell_angle_gamma 90.000000
_cell_volume 2740.143682
_symmetry_space_group_name_H-M "C 2/M"
_symmetry_group_IT_number 12
_symmetry_cell_setting 'monoclinic'
loop_
_space_group_symop_operation_xyz
x,y,z
-x,y,-z
-x,-y,-z
x,-y,z
1/2+x,1/2+y,z
1/2-x,1/2+y,-z
1/2-x,1/2-y,-z
1/2+x,1/2-y,z
loop_
_atom_site_type_symbol
_atom_site_label
_atom_site_fract_x
_atom_site_fract_y
_atom_site_fract_z
Si Si1 0.070736 0.821429 0.468795
Si Si2 0.608479 0.179118 0.328482
Si Si3 0.669622 0.828044 0.765573
Si Si4 0.290451 0.678826 0.374780
Si Si5 0.475398 0.172067 0.178871
Si Si6 0.271676 0.824737 0.928327
Si Si7 0.581558 0.333729 0.985366
O O1 0.069211 0.747523 0.388082
O O2 0.152840 0.781462 0.537522
O O3 0.000000 0.776891 0.500000
O O4 0.066803 0.000000 0.459068
O O5 0.699892 0.224728 0.355856
O O6 0.560631 0.221252 0.237801
O O7 0.604574 0.000000 0.331815
O O8 0.676920 0.750458 0.689114
O O9 0.581845 0.823803 0.769374
O O10 0.723171 0.745844 0.844785
O O11 0.693801 0.000000 0.768385
O O12 0.292478 0.500000 0.367688
O O13 0.437210 0.272968 0.102803
O O14 0.478053 0.000000 0.153754
O O15 0.260903 0.000000 0.927094
O O16 0.250000 0.750000 0.000000
O O17 0.362643 0.779246 0.952172
O O18 0.616684 0.500000 0.994538
O O19 0.500000 0.341885 0.000000
#
# Coordination Sequence:
#
# PCOD9225382 Si02
#       7
#     8   8   8   8   8   8   8
#     4  10  21  38  61  89 121 159 200 244 301 362
#     4  10  22  39  60  88 120 156 202 249 301 362
#     4  11  23  39  61  89 120 157 204 253 303 365
#     4  10  22  39  59  88 123 158 199 250 304 365
#     4  10  22  40  60  85 118 160 204 251 307 365
#     4  12  24  41  65  91 122 163 207 256 311 365
#     4  11  25  42  62  91 124 160 207 257 309 369
#
# _framework density 10.218442
#
# number of rings (size 3 to 8) (size 9 to 14) (size 15 to 20)
#    0.000    1.429    1.429    3.429    2.000    3.714 
#    0.000    0.000    0.000    0.000    0.000    0.000 
#    0.000    0.000    0.000    0.000    0.000    0.000 
#
# Total GULP energy -156483.873214 kJ/mol
# GULP energy per Si atom -5588.709758 kJ/mol
# Density = 1.019518 g / cm^3
# Si number density = 10.218442 Si / 1000 Ang^3
#
#
#
# Elastic Constant Matrix: (Units=GPa)
#
#
# Indices 1 2 3 4 5 6 
#
# 1 52.7881 3.6986 -8.1209 0.0000 13.7215 0.0000
# 2 3.6986 35.8938 19.2259 0.0000 4.6423 0.0000
# 3 -8.1209 19.2259 69.0955 0.0000 11.0847 0.0000
# 4 0.0000 0.0000 0.0000 1641.3561 0.0000 200.3674
# 5 13.7215 4.6423 11.0847 0.0000 37.5747 0.0000
# 6 0.0000 0.0000 0.0000 200.3674 0.0000 49.0733
#
#
#
# Elastic Compliance Matrix: (Units=1/GPa)
#
#
# Indices 1 2 3 4 5 6 
#
# 1 0.022419 -0.003902 0.005203 0.000000 -0.009240 0.000000
# 2 -0.003902 0.033491 -0.009807 0.000000 0.000180 0.000000
# 3 0.005203 -0.009807 0.018814 0.000000 -0.006239 0.000000
# 4 0.000000 0.000000 0.000000 0.001215 0.000000 -0.004960
# 5 -0.009240 0.000180 -0.006239 0.000000 0.031806 0.000000
# 6 0.000000 0.000000 0.000000 -0.004960 0.000000 0.040628
#
#
# Mechanical properties :
#
#
# Convention : Reuss Voigt Hill
#
# Bulk Modulus (GPa) = 17.32699 20.82052 19.07376
# Shear Modulus (GPa) = 27.08235 355.13241 191.10738
#
# Velocity S-wave (km/s) = 3.64424 13.19650 9.68060
# Velocity P-wave (km/s) = 5.11898 15.56941 11.58902
#
# Compressibility (1/GPa) = 0.05771343
#
# Stress axis : x y z
#
# Youngs Moduli (GPa) = 44.60445 29.85837 53.15261
#
# Poissons Ratio (x) = 0.11651 -0.27656
# Poissons Ratio (y) = 0.17405 0.52124
# Poissons Ratio (z) = -0.23208 0.29281
#
# Static dielectric constant tensor:
#      x y z
#    x 1.794070 0.000000 0.028120 
#    y 0.000000 1.704120 0.000000 
#    z 0.028120 0.000000 1.671720 
# 
# From -- ./inp_files/275621.got.cif
#   From: 2010.05.17/outbox.ucp.g08.bks.cvg/sg12_138_cif.got.tgz:275621.got - 2010.06.11 11:47:21.
