data_PCOD9225244
_publ_section_title
;
Structure prediction by ZEFSAII (Michael W. Deem and Ramdas Pophale) SiO2 
 PCOD9225244
Probable space group: C 2/M
;
_chemical_formula_sum "Si O2"
_cell_formula_units_Z 22
_cell_length_a 15.000000
_cell_length_b 18.000000
_cell_length_c 9.000000
_cell_angle_alpha 90.000000
_cell_angle_beta 80.000000
_cell_angle_gamma 90.000000
_cell_volume 2393.082840
_symmetry_space_group_name_H-M "C 2/M"
_symmetry_group_IT_number 12
_symmetry_cell_setting 'monoclinic'
loop_
_space_group_symop_operation_xyz
x,y,z
-x,y,-z
-x,-y,-z
x,-y,z
1/2+x,1/2+y,z
1/2-x,1/2+y,-z
1/2-x,1/2-y,-z
1/2+x,1/2-y,z
loop_
_atom_site_type_symbol
_atom_site_label
_atom_site_fract_x
_atom_site_fract_y
_atom_site_fract_z
Si Si1 0.500000 0.692455 0.000000
Si Si2 0.440342 0.811836 0.773702
Si Si3 0.166233 0.083731 0.907774
Si Si4 0.359893 0.817569 0.329975
Si Si5 0.760214 0.329455 0.643987
Si Si6 0.652605 0.912962 0.964099
O O1 0.465801 0.744636 0.876576
O O2 0.584624 0.640653 0.939336
O O3 0.534193 0.821379 0.658255
O O4 0.350155 0.798938 0.702763
O O5 0.413193 0.880998 0.888199
O O6 0.220431 0.100958 0.741881
O O7 0.132952 0.000000 0.925323
O O8 0.243825 0.094953 0.009245
O O9 0.316456 0.734817 0.332861
O O10 0.295142 0.852278 0.472703
O O11 0.356409 0.860559 0.175711
O O12 0.634802 0.000000 0.941183
#
# Coordination Sequence:
#
# PCOD9225244 Si02
#       6
#     4   8   8   8   8   8
#     4  12  19  34  61  84 104 142 192 228 269 320
#     4  11  20  35  57  85 108 144 182 231 266 320
#     4  10  21  37  56  81 112 145 181 229 272 322
#     4  11  20  36  55  83 107 152 179 226 272 319
#     4  10  22  36  55  80 116 141 187 221 273 326
#     4  10  21  37  57  82 113 144 182 224 274 326
#
# _framework density 9.1931630000000002
#
# number of rings (size 3 to 8) (size 9 to 14) (size 15 to 20)
#    0.000    1.455    3.636    1.909    0.000    5.091 
#    0.000    0.000    0.000    5.455    0.000    6.364 
#    0.000    0.000    0.000    0.000    0.000    0.000 
#
# Total GULP energy -122655.767814 kJ/mol
# GULP energy per Si atom -5575.262173 kJ/mol
# Density = 0.917224 g / cm^3
# Si number density = 9.193163 Si / 1000 Ang^3
#
#
#
# Elastic Constant Matrix: (Units=GPa)
#
#
# Indices 1 2 3 4 5 6 
#
# 1 68.8749 15.3022 8.3810 0.0000 -24.1930 0.0000
# 2 15.3022 39.4823 4.3911 0.0000 -15.1665 0.0000
# 3 8.3810 4.3911 58.6568 0.0000 -14.3637 0.0000
# 4 0.0000 0.0000 0.0000 23.0787 0.0000 -1.0754
# 5 -24.1930 -15.1665 -14.3637 0.0000 23.9510 0.0000
# 6 0.0000 0.0000 0.0000 -1.0754 0.0000 19.2636
#
#
#
# Elastic Compliance Matrix: (Units=1/GPa)
#
#
# Indices 1 2 3 4 5 6 
#
# 1 0.022896 0.000462 0.002847 0.000000 0.025127 0.000000
# 2 0.000462 0.033981 0.003251 0.000000 0.023934 0.000000
# 3 0.002847 0.003251 0.020637 0.000000 0.017311 0.000000
# 4 0.000000 0.000000 0.000000 0.043443 0.000000 0.002425
# 5 0.025127 0.023934 0.017311 0.000000 0.092670 0.000000
# 6 0.000000 0.000000 0.000000 0.002425 0.000000 0.052047
#
#
# Mechanical properties :
#
#
# Convention : Reuss Voigt Hill
#
# Bulk Modulus (GPa) = 11.03337 24.79584 17.91460
# Shear Modulus (GPa) = 17.68245 22.52132 20.10188
#
# Velocity S-wave (km/s) = 3.10452 3.50365 3.31011
# Velocity P-wave (km/s) = 4.34334 5.46651 4.93697
#
# Compressibility (1/GPa) = 0.09063417
#
# Stress axis : x y z
#
# Youngs Moduli (GPa) = 43.67515 29.42819 48.45623
#
# Poissons Ratio (x) = -0.01359 -0.13796
# Poissons Ratio (y) = -0.02016 -0.15753
# Poissons Ratio (z) = -0.12435 -0.09567
#
# Static dielectric constant tensor:
#      x y z
#    x 1.643960 0.000000 0.012270 
#    y 0.000000 1.600880 0.000000 
#    z 0.012270 0.000000 1.665180 
# 
# From -- ./inp_files/61043.got.cif
#   From: 2010.05.17/outbox.ucp.g08.bks.cvg/sg12_31_cif.got.tgz:61043.got - 2010.06.11 11:47:21.
