data_PCOD9225562
_publ_section_title
;
Structure prediction by ZEFSAII (Michael W. Deem and Ramdas Pophale) SiO2 
 PCOD9225562
Probable space group: C 2/M
;
_chemical_formula_sum "Si O2"
_cell_formula_units_Z 29
_cell_length_a 27.000000
_cell_length_b 18.000000
_cell_length_c 12.000000
_cell_angle_alpha 90.000000
_cell_angle_beta 30.000000
_cell_angle_gamma 90.000000
_cell_volume 2916.000000
_symmetry_space_group_name_H-M "C 2/M"
_symmetry_group_IT_number 12
_symmetry_cell_setting 'monoclinic'
loop_
_space_group_symop_operation_xyz
x,y,z
-x,y,-z
-x,-y,-z
x,-y,z
1/2+x,1/2+y,z
1/2-x,1/2+y,-z
1/2-x,1/2-y,-z
1/2+x,1/2-y,z
loop_
_atom_site_type_symbol
_atom_site_label
_atom_site_fract_x
_atom_site_fract_y
_atom_site_fract_z
Si Si1 0.901126 0.623014 0.539595
Si Si2 0.261969 0.584453 0.322685
Si Si3 0.975518 0.150924 0.915601
Si Si4 0.000000 0.500000 0.500000
Si Si5 0.776281 0.771289 0.823117
Si Si6 0.175385 0.584325 0.730336
Si Si7 0.924978 0.303622 0.923685
Si Si8 0.354065 0.583184 0.561617
O O1 0.822602 0.588253 0.605786
O O2 0.851047 0.703965 0.651651
O O3 0.925539 0.566087 0.591908
O O4 0.008906 0.641913 0.279724
O O5 0.297317 0.500000 0.264380
O O6 0.213275 0.604867 0.535021
O O7 0.360906 0.631802 0.115860
O O8 0.987420 0.234197 0.846448
O O9 0.047360 0.100276 0.701144
O O10 0.000000 0.144419 0.000000
O O11 0.829710 0.850555 0.695509
O O12 0.750000 0.750000 0.000000
O O13 0.674253 0.777083 0.949303
O O14 0.134356 0.500000 0.808064
O O15 0.266201 0.584019 0.641069
O O16 0.104032 0.647006 0.914129
O O17 0.357483 0.500000 0.604167
#
# Coordination Sequence:
#
# PCOD9225562 Si02
#       8
#     8   8   8   2   8   8   8   8
#     4  12  25  46  68  98 136 172 240 290 347 417
#     4  11  23  41  65  99 138 181 228 289 336 413
#     4  12  23  38  70 104 147 191 228 277 352 431
#     4  12  28  48  72  98 124 190 228 294 364 412
#     4  11  24  47  71  95 132 181 237 304 351 406
#     4   9  21  38  62  94 138 181 227 278 341 410
#     4  11  25  41  67 101 135 186 228 284 350 426
#     4  10  21  42  67 102 141 185 235 284 351 426
#
# _framework density 9.9451300000000007
#
# number of rings (size 3 to 8) (size 9 to 14) (size 15 to 20)
#    0.000    1.103    4.828    1.241    2.897    1.103 
#    6.207    1.379    0.000    0.828    0.000    0.000 
#    0.000    0.000    0.000    0.000    0.000    0.000 
#
# Total GULP energy -161486.394785 kJ/mol
# GULP energy per Si atom -5568.496372 kJ/mol
# Density = 0.992249 g / cm^3
# Si number density = 9.945130 Si / 1000 Ang^3
#
#
#
# Elastic Constant Matrix: (Units=GPa)
#
#
# Indices 1 2 3 4 5 6 
#
# 1 -56.0776 -242.2945 274.4670 0.0000 -23.2404 0.0000
# 2 -242.2945 -484.5862 583.8143 0.0000 -41.6378 0.0000
# 3 274.4670 583.8143 -451.5050 0.0000 52.6314 0.0000
# 4 0.0000 0.0000 0.0000 -29.1086 0.0000 2.5306
# 5 -23.2404 -41.6378 52.6314 0.0000 24.2515 0.0000
# 6 0.0000 0.0000 0.0000 2.5306 0.0000 25.0390
#
#
#
# Elastic Compliance Matrix: (Units=1/GPa)
#
#
# Indices 1 2 3 4 5 6 
#
# 1 0.015703 -0.006666 0.001075 0.000000 0.001271 0.000000
# 2 -0.006666 0.006872 0.004362 0.000000 -0.004054 0.000000
# 3 0.001075 0.004362 0.004048 0.000000 -0.000265 0.000000
# 4 0.000000 0.000000 0.000000 -0.034055 0.000000 0.003442
# 5 0.001271 -0.004054 -0.000265 0.000000 0.036068 0.000000
# 6 0.000000 0.000000 0.000000 0.003442 0.000000 0.039590
#
#
# Mechanical properties :
#
#
# Convention : Reuss Voigt Hill
#
# Bulk Modulus (GPa) = 41.38164 26.64500 34.01332
# Shear Modulus (GPa) = 63.50070 -103.17400 -19.83665
#
# Velocity S-wave (km/s) = 5.65640 -7.21001 -3.16144
# Velocity P-wave (km/s) = 7.96931 7.47578 1.95227
#
# Compressibility (1/GPa) = 0.02416531
#
# Stress axis : x y z
#
# Youngs Moduli (GPa) = 63.68025 145.50877 247.06187
#
# Poissons Ratio (x) = 0.96993 -0.26561
# Poissons Ratio (y) = 0.42448 -1.07760
# Poissons Ratio (z) = -0.06846 -0.63466
#
# Static dielectric constant tensor:
#      x y z
#    x 1.663640 0.000000 0.004670 
#    y 0.000000 1.743200 0.000000 
#    z 0.004670 0.000000 1.743730 
# 
# From -- ./inp_files/184417.got.cif
#   From: 2010.05.17/outbox.ucp.g08.bks.cvg/sg12_93_cif.got.tgz:184417.got - 2010.06.11 11:47:21.
