data_PCOD9225222
_publ_section_title
;
Structure prediction by ZEFSAII (Michael W. Deem and Ramdas Pophale) SiO2 
 PCOD9225222
Probable space group: C 2/M
;
_chemical_formula_sum "Si O2"
_cell_formula_units_Z 32
_cell_length_a 24.000000
_cell_length_b 18.000000
_cell_length_c 15.000000
_cell_angle_alpha 90.000000
_cell_angle_beta 30.000000
_cell_angle_gamma 90.000000
_cell_volume 3240.000000
_symmetry_space_group_name_H-M "C 2/M"
_symmetry_group_IT_number 12
_symmetry_cell_setting 'monoclinic'
loop_
_space_group_symop_operation_xyz
x,y,z
-x,y,-z
-x,-y,-z
x,-y,z
1/2+x,1/2+y,z
1/2-x,1/2+y,-z
1/2-x,1/2-y,-z
1/2+x,1/2-y,z
loop_
_atom_site_type_symbol
_atom_site_label
_atom_site_fract_x
_atom_site_fract_y
_atom_site_fract_z
Si Si1 0.432957 0.081485 0.001966
Si Si2 0.533668 0.413338 0.851107
Si Si3 0.747207 0.293516 0.239182
Si Si4 0.916444 0.415783 0.542106
Si Si5 0.745576 0.331042 0.049288
Si Si6 0.503949 0.153613 0.740688
Si Si7 0.347152 0.287525 0.425839
Si Si8 0.190382 0.130857 0.932636
O O1 0.514754 0.095615 0.805831
O O2 0.378913 0.000000 0.067560
O O3 0.500000 0.083299 0.000000
O O4 0.348938 0.150109 0.115055
O O5 0.569066 0.500000 0.805710
O O6 0.619436 0.361122 0.676957
O O7 0.500000 0.390429 0.000000
O O8 0.420794 0.403712 0.951744
O O9 0.691498 0.326649 0.223770
O O10 0.687581 0.293356 0.419826
O O11 0.788818 0.212869 0.143496
O O12 0.953056 0.500000 0.471485
O O13 0.921140 0.368580 0.446449
O O14 0.796276 0.414331 0.751705
O O15 0.000000 0.382945 0.500000
O O16 0.750000 0.250000 0.000000
O O17 0.691566 0.372666 0.039478
O O18 0.875561 0.351556 0.885694
O O19 0.544516 0.233370 0.719954
O O20 0.250000 0.250000 0.500000
#
# Coordination Sequence:
#
# PCOD9225222 Si02
#       8
#     8   8   8   8   8   8   8   8
#     4  10  21  38  57  81 116 158 201 251 315 376
#     4  11  26  46  66  91 128 173 216 266 331 399
#     4  10  21  36  60  90 122 159 208 264 311 374
#     4  11  22  36  61  99 134 161 204 264 325 383
#     4   9  19  35  60  90 122 162 204 256 317 379
#     4  11  21  38  60  91 125 160 209 264 314 378
#     4  12  24  40  66  95 126 167 221 273 318 380
#     4  11  20  42  64  92 127 167 216 255 318 392
#
# _framework density 9.8765429999999999
#
# number of rings (size 3 to 8) (size 9 to 14) (size 15 to 20)
#    0.000    1.375    2.500    4.500    0.000    1.500 
#    0.000    3.125    0.000    0.750    0.000    0.000 
#    0.000    0.000    0.000    0.000    0.000    0.000 
#
# Total GULP energy -178258.584969 kJ/mol
# GULP energy per Si atom -5570.580780 kJ/mol
# Density = 0.985406 g / cm^3
# Si number density = 9.876543 Si / 1000 Ang^3
#
#
#
# Elastic Constant Matrix: (Units=GPa)
#
#
# Indices 1 2 3 4 5 6 
#
# 1 145.7617 25.5879 49.0596 0.0000 34.3329 0.0000
# 2 25.5879 88.2184 20.4533 0.0000 13.7676 0.0000
# 3 49.0596 20.4533 78.9111 0.0000 24.5395 0.0000
# 4 0.0000 0.0000 0.0000 121.3095 0.0000 -65.0021
# 5 34.3329 13.7676 24.5395 0.0000 42.7184 0.0000
# 6 0.0000 0.0000 0.0000 -65.0021 0.0000 59.6165
#
#
#
# Elastic Compliance Matrix: (Units=1/GPa)
#
#
# Indices 1 2 3 4 5 6 
#
# 1 0.009622 -0.001046 -0.004153 0.000000 -0.005011 0.000000
# 2 -0.001046 0.012406 -0.001928 0.000000 -0.002050 0.000000
# 3 -0.004153 -0.001928 0.017681 0.000000 -0.006198 0.000000
# 4 0.000000 0.000000 0.000000 0.019827 0.000000 0.021619
# 5 -0.005011 -0.002050 -0.006198 0.000000 0.031657 0.000000
# 6 0.000000 0.000000 0.000000 0.021619 0.000000 0.040345
#
#
# Mechanical properties :
#
#
# Convention : Reuss Voigt Hill
#
# Bulk Modulus (GPa) = 39.28295 55.89919 47.59107
# Shear Modulus (GPa) = 32.40904 59.24825 45.82865
#
# Velocity S-wave (km/s) = 4.05496 5.48266 4.82194
# Velocity P-wave (km/s) = 6.46945 8.27283 7.42609
#
# Compressibility (1/GPa) = 0.02545633
#
# Stress axis : x y z
#
# Youngs Moduli (GPa) = 103.92773 80.60749 56.55656
#
# Poissons Ratio (x) = 0.08433 0.23487
# Poissons Ratio (y) = 0.10872 0.10902
# Poissons Ratio (z) = 0.43159 0.15538
#
# Static dielectric constant tensor:
#      x y z
#    x 1.678040 0.000000 0.014030 
#    y 0.000000 1.702780 0.000000 
#    z 0.014030 0.000000 1.750730 
# 
# From -- ./inp_files/241463.got.cif
#   From: 2010.05.17/outbox.ucp.g08.bks.cvg/sg12_121_cif.got.tgz:241463.got - 2010.06.11 11:47:21.
