data_PCOD9225325
_publ_section_title
;
Structure prediction by ZEFSAII (Michael W. Deem and Ramdas Pophale) SiO2 
 PCOD9225325
Probable space group: C 2/M
;
_chemical_formula_sum "Si O2"
_cell_formula_units_Z 24
_cell_length_a 27.000000
_cell_length_b 9.000000
_cell_length_c 21.000000
_cell_angle_alpha 90.000000
_cell_angle_beta 150.000000
_cell_angle_gamma 90.000000
_cell_volume 2551.500000
_symmetry_space_group_name_H-M "C 2/M"
_symmetry_group_IT_number 12
_symmetry_cell_setting 'monoclinic'
loop_
_space_group_symop_operation_xyz
x,y,z
-x,y,-z
-x,-y,-z
x,-y,z
1/2+x,1/2+y,z
1/2-x,1/2+y,-z
1/2-x,1/2-y,-z
1/2+x,1/2-y,z
loop_
_atom_site_type_symbol
_atom_site_label
_atom_site_fract_x
_atom_site_fract_y
_atom_site_fract_z
Si Si1 0.912744 0.819137 0.354344
Si Si2 0.807561 0.322044 0.847454
Si Si3 0.289220 0.321291 0.477879
Si Si4 0.441900 0.679284 0.098826
Si Si5 0.628495 0.321879 0.211293
Si Si6 0.980408 0.820772 0.287803
O O1 0.807818 0.778464 0.270404
O O2 0.932762 0.768806 0.302593
O O3 0.000000 0.772610 0.500000
O O4 0.913974 0.000000 0.353211
O O5 0.812703 0.500000 0.844489
O O6 0.867642 0.245099 0.855926
O O7 0.858528 0.269434 0.969203
O O8 0.280018 0.500000 0.471982
O O9 0.250000 0.250000 0.500000
O O10 0.222842 0.253277 0.348814
O O11 0.402678 0.286358 0.586868
O O12 0.427177 0.500000 0.080219
O O13 0.540016 0.708209 0.164052
O O14 0.444137 0.724357 0.176113
O O15 0.635010 0.500000 0.213372
O O16 0.970899 0.000000 0.278355
#
# Coordination Sequence:
#
# PCOD9225325 Si02
#       6
#     8   8   8   8   8   8
#     4   9  18  35  59  84 111 145 189 236 282 342
#     4  11  23  37  57  87 113 145 193 243 289 336
#     4  11  20  34  58  88 118 149 188 235 284 336
#     4  10  21  38  57  80 113 155 194 231 285 350
#     4  11  22  38  58  83 115 156 196 234 284 345
#     4   9  18  35  58  83 114 154 193 227 277 346
#
# _framework density 9.4062319999999993
#
# number of rings (size 3 to 8) (size 9 to 14) (size 15 to 20)
#    0.000    1.833    1.667    3.000    0.000    6.667 
#    0.000    0.000    0.000   12.000    0.000    0.000 
#    0.000    0.000    0.000    0.000    0.000    0.000 
#
# Total GULP energy -133764.819497 kJ/mol
# GULP energy per Si atom -5573.534146 kJ/mol
# Density = 0.938482 g / cm^3
# Si number density = 9.406232 Si / 1000 Ang^3
#
#
#
# Elastic Constant Matrix: (Units=GPa)
#
#
# Indices 1 2 3 4 5 6 
#
# 1 124.0798 14.6654 7.4746 0.0000 -12.4681 0.0000
# 2 14.6654 33.3903 13.0942 0.0000 4.7556 0.0000
# 3 7.4746 13.0942 61.5664 0.0000 -6.2026 0.0000
# 4 0.0000 0.0000 0.0000 26.6952 0.0000 -7.0313
# 5 -12.4681 4.7556 -6.2026 0.0000 34.3580 0.0000
# 6 0.0000 0.0000 0.0000 -7.0313 0.0000 26.4092
#
#
#
# Elastic Compliance Matrix: (Units=1/GPa)
#
#
# Indices 1 2 3 4 5 6 
#
# 1 0.008986 -0.004624 0.000291 0.000000 0.003953 0.000000
# 2 -0.004624 0.036264 -0.007971 0.000000 -0.008136 0.000000
# 3 0.000291 -0.007971 0.018358 0.000000 0.004523 0.000000
# 4 0.000000 0.000000 0.000000 0.040285 0.000000 0.010726
# 5 0.003953 -0.008136 0.004523 0.000000 0.032483 0.000000
# 6 0.000000 0.000000 0.000000 0.010726 0.000000 0.040721
#
#
# Mechanical properties :
#
#
# Convention : Reuss Voigt Hill
#
# Bulk Modulus (GPa) = 25.64097 32.16721 28.90409
# Shear Modulus (GPa) = 23.28776 29.74596 26.51686
#
# Velocity S-wave (km/s) = 3.52218 3.98072 3.75845
# Velocity P-wave (km/s) = 5.49549 6.18581 5.85084
#
# Compressibility (1/GPa) = 0.03900008
#
# Stress axis : x y z
#
# Youngs Moduli (GPa) = 111.29002 27.57531 54.47115
#
# Poissons Ratio (x) = 0.12750 -0.01584
# Poissons Ratio (y) = 0.51456 0.43420
# Poissons Ratio (z) = -0.03235 0.21981
#
# Static dielectric constant tensor:
#      x y z
#    x 1.676720 0.000000 -0.029730 
#    y 0.000000 1.622570 0.000000 
#    z -0.029730 0.000000 1.740280 
# 
# From -- ./inp_files/327310.got.cif
#   From: 2010.05.17/outbox.ucp.g08.bks.cvg/sg12_164_cif.got.tgz:327310.got - 2010.06.11 11:47:21.
