data_PCOD9225271
_publ_section_title
;
Structure prediction by ZEFSAII (Michael W. Deem and Ramdas Pophale) SiO2 
 PCOD9225271
Probable space group: C 2/M
;
_chemical_formula_sum "Si O2"
_cell_formula_units_Z 32
_cell_length_a 15.000000
_cell_length_b 9.000000
_cell_length_c 30.000000
_cell_angle_alpha 90.000000
_cell_angle_beta 50.000000
_cell_angle_gamma 90.000000
_cell_volume 3102.479995
_symmetry_space_group_name_H-M "C 2/M"
_symmetry_group_IT_number 12
_symmetry_cell_setting 'monoclinic'
loop_
_space_group_symop_operation_xyz
x,y,z
-x,y,-z
-x,-y,-z
x,-y,z
1/2+x,1/2+y,z
1/2-x,1/2+y,-z
1/2-x,1/2-y,-z
1/2+x,1/2-y,z
loop_
_atom_site_type_symbol
_atom_site_label
_atom_site_fract_x
_atom_site_fract_y
_atom_site_fract_z
Si Si1 0.436701 0.677967 0.656282
Si Si2 0.370069 0.330579 0.023296
Si Si3 0.708767 0.322032 0.558590
Si Si4 0.922371 0.671228 0.261720
Si Si5 0.834810 0.676507 0.778567
Si Si6 0.213153 0.676351 0.372397
Si Si7 0.893593 0.330945 0.168332
Si Si8 0.636406 0.667892 0.083011
O O1 0.422625 0.500000 0.664848
O O2 0.573452 0.714908 0.610331
O O3 0.381796 0.757371 0.716903
O O4 0.373144 0.736102 0.632264
O O5 0.353278 0.500000 0.045842
O O6 0.254444 0.230933 0.067928
O O7 0.500000 0.283580 0.000000
O O8 0.362133 0.337935 0.971805
O O9 0.715533 0.500000 0.553121
O O10 0.750000 0.250000 0.500000
O O11 0.787637 0.278206 0.575605
O O12 0.910737 0.500000 0.281957
O O13 0.844151 0.783836 0.314593
O O14 0.870337 0.673413 0.228816
O O15 0.059824 0.708251 0.220731
O O16 0.822163 0.500000 0.779749
O O17 0.706244 0.743736 0.826105
O O18 0.193186 0.500000 0.374814
O O19 0.893405 0.500000 0.152887
O O20 0.023010 0.267231 0.125705
O O21 0.617154 0.500000 0.105196
#
# Coordination Sequence:
#
# PCOD9225271 Si02
#       8
#     8   8   8   8   8   8   8   8
#     4  11  22  39  60  86 117 151 190 235 292 353
#     4   9  19  38  63  86 114 156 200 242 295 354
#     4  10  24  42  61  86 118 152 192 242 296 349
#     4  10  22  38  58  84 115 154 195 236 290 352
#     4  11  22  37  59  87 114 151 197 241 289 346
#     4  11  22  38  61  88 115 149 193 241 287 344
#     4  11  23  39  58  84 122 161 196 240 293 351
#     4  10  21  37  58  87 120 153 195 248 295 345
#
# _framework density 10.314329000000001
#
# number of rings (size 3 to 8) (size 9 to 14) (size 15 to 20)
#    0.000    1.625    2.500    1.875    0.000    5.250 
#    0.000    7.500    0.000    0.000    0.000    0.000 
#    0.000    0.000    0.000    0.000    0.000    0.000 
#
# Total GULP energy -178624.000663 kJ/mol
# GULP energy per Si atom -5582.000021 kJ/mol
# Density = 1.029085 g / cm^3
# Si number density = 10.314329 Si / 1000 Ang^3
#
#
#
# Elastic Constant Matrix: (Units=GPa)
#
#
# Indices 1 2 3 4 5 6 
#
# 1 123.7306 25.5712 -14.0613 0.0000 -15.1011 0.0000
# 2 25.5712 59.1547 5.8463 0.0000 -6.7375 -0.0001
# 3 -14.0613 5.8463 16.8483 0.0000 -4.5834 0.0000
# 4 0.0000 0.0000 0.0000 26.8485 0.0000 -9.9725
# 5 -15.1011 -6.7375 -4.5834 0.0000 23.5342 0.0000
# 6 0.0000 -0.0001 0.0000 -9.9725 0.0000 36.3517
#
#
#
# Elastic Compliance Matrix: (Units=1/GPa)
#
#
# Indices 1 2 3 4 5 6 
#
# 1 0.011938 -0.005566 0.014303 0.000000 0.008852 0.000000
# 2 -0.005566 0.020472 -0.011749 0.000000 0.000001 0.000000
# 3 0.014303 -0.011749 0.081254 0.000000 0.021639 0.000000
# 4 0.000000 0.000000 0.000000 0.041472 0.000000 0.011377
# 5 0.008852 0.000001 0.021639 0.000000 0.052386 0.000000
# 6 0.000000 0.000000 0.000000 0.011377 0.000000 0.030630
#
#
# Mechanical properties :
#
#
# Convention : Reuss Voigt Hill
#
# Bulk Modulus (GPa) = 9.29016 26.04958 17.66987
# Shear Modulus (GPa) = 17.85359 29.50537 23.67948
#
# Velocity S-wave (km/s) = 2.94509 3.78605 3.39173
# Velocity P-wave (km/s) = 4.00974 5.63626 4.89109
#
# Compressibility (1/GPa) = 0.10764080
#
# Stress axis : x y z
#
# Youngs Moduli (GPa) = 83.76423 48.84688 12.30715
#
# Poissons Ratio (x) = 0.27188 -0.17603
# Poissons Ratio (y) = 0.46623 0.14459
# Poissons Ratio (z) = -1.19808 0.57389
#
# Static dielectric constant tensor:
#      x y z
#    x 1.715450 0.000000 0.002530 
#    y 0.000000 1.715150 0.000000 
#    z 0.002530 0.000000 1.791200 
# 
# From -- ./inp_files/359947.got.cif
#   From: 2010.05.17/outbox.ucp.g08.bks.cvg/sg12_180_cif.got.tgz:359947.got - 2010.06.11 11:47:21.
