data_PCOD9225571
_publ_section_title
;
Structure prediction by ZEFSAII (Michael W. Deem and Ramdas Pophale) SiO2 
 PCOD9225571
Probable space group: C 2/M
;
_chemical_formula_sum "Si O2"
_cell_formula_units_Z 20
_cell_length_a 15.000000
_cell_length_b 15.000000
_cell_length_c 15.000000
_cell_angle_alpha 90.000000
_cell_angle_beta 140.000000
_cell_angle_gamma 90.000000
_cell_volume 2169.408183
_symmetry_space_group_name_H-M "C 2/M"
_symmetry_group_IT_number 12
_symmetry_cell_setting 'monoclinic'
loop_
_space_group_symop_operation_xyz
x,y,z
-x,y,-z
-x,-y,-z
x,-y,z
1/2+x,1/2+y,z
1/2-x,1/2+y,-z
1/2-x,1/2-y,-z
1/2+x,1/2-y,z
loop_
_atom_site_type_symbol
_atom_site_label
_atom_site_fract_x
_atom_site_fract_y
_atom_site_fract_z
Si Si1 0.473711 0.344329 0.208374
Si Si2 0.704594 0.895052 0.109737
Si Si3 0.926620 0.341517 0.807564
Si Si4 0.956027 0.000000 0.865475
Si Si5 0.145193 0.500000 0.556624
Si Si6 0.755950 0.358212 0.508160
O O1 0.330253 0.348174 0.152620
O O2 0.519502 0.251430 0.196150
O O3 0.477668 0.415203 0.132271
O O4 0.594657 0.379013 0.368063
O O5 0.662782 0.842574 0.168906
O O6 0.736073 0.000000 0.152383
O O7 0.566720 0.891976 0.942833
O O8 0.828697 0.382938 0.656416
O O9 0.788165 0.000000 0.724041
O O10 0.000000 0.000000 0.000000
O O11 0.161645 0.411815 0.506237
O O12 0.000000 0.500000 0.500000
O O13 0.750000 0.250000 0.500000
#
# Coordination Sequence:
#
# PCOD9225571 Si02
#       6
#     8   8   8   4   4   8
#     4  10  21  43  60  88 119 159 198 249 291 357
#     4  11  23  39  61  90 122 155 199 244 298 356
#     4  10  22  39  61  90 120 155 198 248 298 351
#     4  10  22  38  61  84 125 155 200 245 294 350
#     4  10  22  40  63  90 119 159 202 249 300 350
#     4   9  21  42  61  86 125 155 198 251 296 356
#
# _framework density 9.2191039999999997
#
# number of rings (size 3 to 8) (size 9 to 14) (size 15 to 20)
#    0.000    2.000    1.000    1.800    5.600    2.400 
#   21.600    1.000    0.000    0.000    0.000    0.000 
#    0.000    0.000    0.000    0.000    0.000    0.000 
#
# Total GULP energy -111383.376267 kJ/mol
# GULP energy per Si atom -5569.168813 kJ/mol
# Density = 0.919812 g / cm^3
# Si number density = 9.219104 Si / 1000 Ang^3
#
#
#
# Elastic Constant Matrix: (Units=GPa)
#
#
# Indices 1 2 3 4 5 6 
#
# 1 182.8691 54.6662 79.3912 0.0000 12.3181 0.0000
# 2 54.6662 93.7674 12.2714 0.0000 -4.6931 0.0000
# 3 79.3912 12.2714 133.8764 0.0000 -23.4659 0.0000
# 4 0.0000 0.0000 0.0000 24.2667 0.0000 -1.7583
# 5 12.3181 -4.6931 -23.4659 0.0000 28.9546 0.0000
# 6 0.0000 0.0000 0.0000 -1.7583 0.0000 33.1305
#
#
#
# Elastic Compliance Matrix: (Units=1/GPa)
#
#
# Indices 1 2 3 4 5 6 
#
# 1 0.012354 -0.006696 -0.009120 0.000000 -0.013732 0.000000
# 2 -0.006696 0.014454 0.004145 0.000000 0.008551 0.000000
# 3 -0.009120 0.004145 0.015497 0.000000 0.017111 0.000000
# 4 0.000000 0.000000 0.000000 0.041368 0.000000 0.002196
# 5 -0.013732 0.008551 0.017111 0.000000 0.055632 0.000000
# 6 0.000000 0.000000 0.000000 0.002196 0.000000 0.030300
#
#
# Mechanical properties :
#
#
# Convention : Reuss Voigt Hill
#
# Bulk Modulus (GPa) = 52.73273 78.13005 65.43139
# Shear Modulus (GPa) = 25.09178 34.88263 29.98720
#
# Velocity S-wave (km/s) = 3.69298 4.35428 4.03719
# Velocity P-wave (km/s) = 6.84441 8.23077 7.56940
#
# Compressibility (1/GPa) = 0.01896355
#
# Stress axis : x y z
#
# Youngs Moduli (GPa) = 80.94320 69.18417 64.52918
#
# Poissons Ratio (x) = 0.46328 0.58847
# Poissons Ratio (y) = 0.54203 -0.26747
# Poissons Ratio (z) = 0.73816 -0.28677
#
# Static dielectric constant tensor:
#      x y z
#    x 1.609160 0.000000 -0.002540 
#    y 0.000000 2.665620 0.000000 
#    z -0.002540 0.000000 1.665450 
# 
# From -- ./inp_files/129832.got.cif
#   From: 2010.05.17/outbox.ucp.g08.bks.cvg/sg12_65_cif.got.tgz:129832.got - 2010.06.11 11:47:21.
