data_PCOD9225514
_publ_section_title
;
Structure prediction by ZEFSAII (Michael W. Deem and Ramdas Pophale) SiO2 
 PCOD9225514
Probable space group: C 2/M
;
_chemical_formula_sum "Si O2"
_cell_formula_units_Z 32
_cell_length_a 18.000000
_cell_length_b 9.000000
_cell_length_c 30.000000
_cell_angle_alpha 90.000000
_cell_angle_beta 40.000000
_cell_angle_gamma 90.000000
_cell_volume 3123.947783
_symmetry_space_group_name_H-M "C 2/M"
_symmetry_group_IT_number 12
_symmetry_cell_setting 'monoclinic'
loop_
_space_group_symop_operation_xyz
x,y,z
-x,y,-z
-x,-y,-z
x,-y,z
1/2+x,1/2+y,z
1/2-x,1/2+y,-z
1/2-x,1/2-y,-z
1/2+x,1/2-y,z
loop_
_atom_site_type_symbol
_atom_site_label
_atom_site_fract_x
_atom_site_fract_y
_atom_site_fract_z
Si Si1 0.923456 0.169363 0.226922
Si Si2 0.902697 0.176001 0.006366
Si Si3 0.414821 0.321370 0.499866
Si Si4 0.018862 0.178128 0.356192
Si Si5 0.829711 0.177603 0.367926
Si Si6 0.325442 0.330426 0.854051
Si Si7 0.934080 0.326377 0.132991
Si Si8 0.793475 0.673976 0.783554
O O1 0.870099 0.211592 0.299096
O O2 0.900484 0.284553 0.198625
O O3 0.061791 0.165071 0.167474
O O4 0.884604 0.000000 0.233523
O O5 0.787179 0.265383 0.070739
O O6 0.879653 0.000000 0.015485
O O7 0.000000 0.201133 0.000000
O O8 0.957395 0.235373 0.935466
O O9 0.500000 0.271647 0.500000
O O10 0.406650 0.500000 0.505220
O O11 0.467550 0.282414 0.427671
O O12 0.289305 0.254777 0.565081
O O13 0.133929 0.267226 0.291382
O O14 0.925686 0.214794 0.360776
O O15 0.041201 0.000000 0.344265
O O16 0.815331 0.000000 0.376459
O O17 0.306509 0.500000 0.846725
O O18 0.359000 0.222525 0.798026
O O19 0.951648 0.500000 0.118577
O O20 0.824642 0.263820 0.156770
O O21 0.771913 0.500000 0.791673
#
# Coordination Sequence:
#
# PCOD9225514 Si02
#       8
#     8   8   8   8   8   8   8   8
#     4  10  23  43  64  92 129 164 206 261 316 370
#     4  11  23  40  64  94 127 164 209 262 312 367
#     4  10  23  40  60  92 129 163 206 259 311 366
#     4  10  21  41  64  89 125 168 211 255 310 372
#     4  10  21  40  65  90 122 166 209 254 309 369
#     4  11  22  41  68  94 126 167 209 256 314 375
#     4  12  26  42  64  92 125 168 212 257 317 378
#     4  12  24  39  63  95 127 162 211 264 313 369
#
# _framework density 10.243449
#
# number of rings (size 3 to 8) (size 9 to 14) (size 15 to 20)
#    0.000    1.250    2.500    3.375    1.750    3.750 
#    0.000    0.000    0.000    0.000    0.000    0.000 
#    0.000    0.000    0.000    0.000    0.000    0.000 
#
# Total GULP energy -178771.588163 kJ/mol
# GULP energy per Si atom -5586.612130 kJ/mol
# Density = 1.022013 g / cm^3
# Si number density = 10.243449 Si / 1000 Ang^3
#
#
#
# Elastic Constant Matrix: (Units=GPa)
#
#
# Indices 1 2 3 4 5 6 
#
# 1 37.4155 8.1413 13.1418 -0.0001 14.7372 0.0009
# 2 8.1413 13.0913 3.1505 0.0000 10.8337 0.0013
# 3 13.1418 3.1505 97.2856 -0.0002 11.0130 0.0004
# 4 -0.0001 0.0000 -0.0002 31.1716 0.0000 -2.1785
# 5 14.7372 10.8337 11.0130 0.0000 27.9323 -0.0001
# 6 0.0009 0.0013 0.0004 -2.1785 -0.0001 18.8859
#
#
#
# Elastic Compliance Matrix: (Units=1/GPa)
#
#
# Indices 1 2 3 4 5 6 
#
# 1 0.035274 -0.009990 -0.002903 0.000000 -0.013591 -0.000001
# 2 -0.009990 0.115494 0.002181 0.000000 -0.040384 -0.000008
# 3 -0.002903 0.002181 0.011015 0.000000 -0.003657 0.000000
# 4 0.000000 0.000000 0.000000 0.032341 0.000000 0.003730
# 5 -0.013591 -0.040384 -0.003657 0.000000 0.060077 0.000004
# 6 -0.000001 -0.000008 0.000000 0.003730 0.000004 0.053380
#
#
# Mechanical properties :
#
#
# Convention : Reuss Voigt Hill
#
# Bulk Modulus (GPa) = 7.12462 21.85108 14.48785
# Shear Modulus (GPa) = 13.30529 23.82188 18.56358
#
# Velocity S-wave (km/s) = 2.55120 3.41366 3.01345
# Velocity P-wave (km/s) = 3.48760 5.12118 4.38120
#
# Compressibility (1/GPa) = 0.14035836
#
# Stress axis : x y z
#
# Youngs Moduli (GPa) = 28.34980 8.65844 90.78932
#
# Poissons Ratio (x) = 0.08650 0.26355
# Poissons Ratio (y) = 0.28322 -0.19801
# Poissons Ratio (z) = 0.08229 -0.01888
#
# Static dielectric constant tensor:
#      x y z
#    x 1.794430 0.000000 0.005220 
#    y 0.000000 1.682900 0.000000 
#    z 0.005220 0.000000 1.719480 
# 
# From -- ./inp_files/378246.got.cif
#   From: 2010.05.17/outbox.ucp.g08.bks.cvg/sg12_190_cif.got.tgz:378246.got - 2010.06.11 11:47:21.
