data_PCOD9225606
_publ_section_title
;
Structure prediction by ZEFSAII (Michael W. Deem and Ramdas Pophale) SiO2 
 PCOD9225606
Probable space group: C 2/M
;
_chemical_formula_sum "Si O2"
_cell_formula_units_Z 24
_cell_length_a 15.000000
_cell_length_b 9.000000
_cell_length_c 27.000000
_cell_angle_alpha 90.000000
_cell_angle_beta 140.000000
_cell_angle_gamma 90.000000
_cell_volume 2342.960837
_symmetry_space_group_name_H-M "C 2/M"
_symmetry_group_IT_number 12
_symmetry_cell_setting 'monoclinic'
loop_
_space_group_symop_operation_xyz
x,y,z
-x,y,-z
-x,-y,-z
x,-y,z
1/2+x,1/2+y,z
1/2-x,1/2+y,-z
1/2-x,1/2-y,-z
1/2+x,1/2-y,z
loop_
_atom_site_type_symbol
_atom_site_label
_atom_site_fract_x
_atom_site_fract_y
_atom_site_fract_z
Si Si1 0.832232 0.169451 0.177016
Si Si2 0.206441 0.821558 0.705160
Si Si3 0.392248 0.328488 0.860911
Si Si4 0.338373 0.678769 0.427158
Si Si5 0.932294 0.174319 0.652636
Si Si6 0.165313 0.329620 0.005962
O O1 0.744131 0.299144 0.164715
O O2 0.990428 0.190170 0.260853
O O3 0.797019 0.000000 0.180857
O O4 0.772541 0.171386 0.096933
O O5 0.341163 0.751959 0.789116
O O6 0.201239 0.780449 0.645805
O O7 0.058349 0.779821 0.668741
O O8 0.215164 0.000000 0.711982
O O9 0.423030 0.500000 0.865319
O O10 0.518331 0.253945 0.944510
O O11 0.500000 0.726381 0.500000
O O12 0.336872 0.500000 0.432550
O O13 0.215785 0.744188 0.409550
O O14 0.906919 0.000000 0.632755
O O15 0.132104 0.500000 0.980826
O O16 0.250000 0.250000 0.000000
#
# Coordination Sequence:
#
# PCOD9225606 Si02
#       6
#     8   8   8   8   8   8
#     4   9  20  39  59  79 111 152 189 234 291 342
#     4   9  20  40  61  83 116 159 193 234 297 356
#     4  11  22  36  57  84 112 147 195 243 282 337
#     4  10  22  39  60  88 119 150 188 237 294 354
#     4   9  19  37  60  85 115 152 194 235 286 350
#     4  11  23  37  54  81 116 154 192 236 287 338
#
# _framework density 10.243449
#
# number of rings (size 3 to 8) (size 9 to 14) (size 15 to 20)
#    0.000    2.167    0.000    3.500    2.333    7.667 
#    0.000    0.000    0.000    0.000    0.000    0.000 
#    0.000    0.000    0.000    0.000    0.000    0.000 
#
# Total GULP energy -133656.023336 kJ/mol
# GULP energy per Si atom -5569.000972 kJ/mol
# Density = 1.022013 g / cm^3
# Si number density = 10.243449 Si / 1000 Ang^3
#
#
#
# Elastic Constant Matrix: (Units=GPa)
#
#
# Indices 1 2 3 4 5 6 
#
# 1 39.6080 9.0386 -5.6181 0.0000 11.5701 0.0000
# 2 9.0386 46.2952 10.2841 0.0000 6.4688 0.0000
# 3 -5.6181 10.2841 22.4647 0.0000 10.4953 0.0000
# 4 0.0000 0.0000 0.0000 27.3910 0.0000 14.5338
# 5 11.5701 6.4688 10.4953 0.0000 39.3490 0.0000
# 6 0.0000 0.0000 0.0000 14.5338 0.0000 22.0476
#
#
#
# Elastic Compliance Matrix: (Units=1/GPa)
#
#
# Indices 1 2 3 4 5 6 
#
# 1 0.033924 -0.008929 0.018901 0.000000 -0.013548 0.000000
# 2 -0.008929 0.026442 -0.015460 0.000000 0.002402 0.000000
# 3 0.018901 -0.015460 0.065945 0.000000 -0.020605 0.000000
# 4 0.000000 0.000000 0.000000 0.056147 0.000000 -0.037012
# 5 -0.013548 0.002402 -0.020605 0.000000 0.034498 0.000000
# 6 0.000000 0.000000 0.000000 -0.037012 0.000000 0.069755
#
#
# Mechanical properties :
#
#
# Convention : Reuss Voigt Hill
#
# Bulk Modulus (GPa) = 8.67037 15.08632 11.87834
# Shear Modulus (GPa) = 14.87506 24.06840 19.47173
#
# Velocity S-wave (km/s) = 2.69750 3.43128 3.08628
# Velocity P-wave (km/s) = 3.73408 4.80397 4.30241
#
# Compressibility (1/GPa) = 0.11533530
#
# Stress axis : x y z
#
# Youngs Moduli (GPa) = 29.47796 37.81796 15.16412
#
# Poissons Ratio (x) = 0.33767 -0.28662
# Poissons Ratio (y) = 0.26320 0.23444
# Poissons Ratio (z) = -0.55716 0.58467
#
# Static dielectric constant tensor:
#      x y z
#    x 1.844470 0.000000 0.146370 
#    y 0.000000 1.716190 0.000000 
#    z 0.146370 0.000000 2.269970 
# 
# From -- ./inp_files/274594.got.cif
#   From: 2010.05.17/outbox.ucp.g08.bks.cvg/sg12_138_cif.got.tgz:274594.got - 2010.06.11 11:47:21.
