data_PCOD9225872
_publ_section_title
;
Structure prediction by ZEFSAII (Michael W. Deem and Ramdas Pophale) SiO2 
 PCOD9225872
Probable space group: C 2/M
;
_chemical_formula_sum "Si O2"
_cell_formula_units_Z 24
_cell_length_a 12.000000
_cell_length_b 15.000000
_cell_length_c 21.000000
_cell_angle_alpha 90.000000
_cell_angle_beta 40.000000
_cell_angle_gamma 90.000000
_cell_volume 2429.737165
_symmetry_space_group_name_H-M "C 2/M"
_symmetry_group_IT_number 12
_symmetry_cell_setting 'monoclinic'
loop_
_space_group_symop_operation_xyz
x,y,z
-x,y,-z
-x,-y,-z
x,-y,z
1/2+x,1/2+y,z
1/2-x,1/2+y,-z
1/2-x,1/2-y,-z
1/2+x,1/2-y,z
loop_
_atom_site_type_symbol
_atom_site_label
_atom_site_fract_x
_atom_site_fract_y
_atom_site_fract_z
Si Si1 0.261860 0.598655 0.450089
Si Si2 0.085756 0.648121 0.322816
Si Si3 0.522751 0.000000 0.099207
Si Si4 0.792831 0.000000 0.863409
Si Si5 0.915063 0.849057 0.255964
Si Si6 0.538125 0.856243 0.767485
Si Si7 0.565493 0.665773 0.401314
O O1 0.263799 0.500000 0.421311
O O2 0.309787 0.660321 0.369124
O O3 0.413566 0.608157 0.435865
O O4 0.078296 0.613558 0.564369
O O5 0.272183 0.616040 0.267688
O O6 0.087682 0.752444 0.342183
O O7 0.048441 0.630086 0.264595
O O8 0.341403 0.000000 0.137811
O O9 0.531271 0.084073 0.143955
O O10 0.674166 0.000000 0.979386
O O11 0.922531 0.085116 0.805844
O O12 0.976284 0.749461 0.211978
O O13 0.745011 0.876752 0.673011
O O14 0.500000 0.694218 0.500000
#
# Coordination Sequence:
#
# PCOD9225872 Si02
#       7
#     8   8   4   4   8   8   8
#     4  12  23  36  60  96 139 187 231 267 318 392
#     4  11  23  38  59  98 142 179 219 269 323 399
#     4  11  28  49  77 102 126 169 223 295 346 408
#     4  11  26  53  75  99 132 165 228 287 348 410
#     4  11  24  42  71  97 137 188 224 271 338 404
#     4  11  24  42  69 102 137 176 226 276 339 397
#     4  11  21  37  61  92 139 187 227 269 318 390
#
# _framework density 9.8776119999999992
#
# number of rings (size 3 to 8) (size 9 to 14) (size 15 to 20)
#    0.000    0.833    4.167    4.000    5.833    1.667 
#    0.000    1.667    0.000    0.000    0.000    0.000 
#    0.000    0.000    0.000    0.000    0.000    0.000 
#
# Total GULP energy -134111.543967 kJ/mol
# GULP energy per Si atom -5587.980999 kJ/mol
# Density = 0.985513 g / cm^3
# Si number density = 9.877612 Si / 1000 Ang^3
#
#
#
# Elastic Constant Matrix: (Units=GPa)
#
#
# Indices 1 2 3 4 5 6 
#
# 1 164.1034 25.7248 51.0346 0.0000 8.5262 0.0000
# 2 25.7248 93.7635 29.3284 -0.0001 6.0663 0.0000
# 3 51.0346 29.3284 100.5659 -0.0003 12.0763 0.0001
# 4 0.0000 -0.0001 -0.0003 24.6228 0.0001 0.7582
# 5 8.5262 6.0663 12.0763 0.0001 42.5296 0.0000
# 6 0.0000 0.0000 0.0001 0.7582 0.0000 27.8724
#
#
#
# Elastic Compliance Matrix: (Units=1/GPa)
#
#
# Indices 1 2 3 4 5 6 
#
# 1 0.007314 -0.000920 -0.003399 0.000000 -0.000370 0.000000
# 2 -0.000920 0.011873 -0.002914 0.000000 -0.000682 0.000000
# 3 -0.003399 -0.002914 0.012824 0.000000 -0.002544 0.000000
# 4 0.000000 0.000000 0.000000 0.040647 0.000000 -0.001106
# 5 -0.000370 -0.000682 -0.002544 0.000000 0.024407 0.000000
# 6 0.000000 0.000000 0.000000 -0.001106 0.000000 0.035908
#
#
# Mechanical properties :
#
#
# Convention : Reuss Voigt Hill
#
# Bulk Modulus (GPa) = 56.99386 63.40093 60.19739
# Shear Modulus (GPa) = 32.61856 35.82797 34.22326
#
# Velocity S-wave (km/s) = 4.06783 4.26325 4.16668
# Velocity P-wave (km/s) = 7.13972 7.50977 7.32708
#
# Compressibility (1/GPa) = 0.01754575
#
# Stress axis : x y z
#
# Youngs Moduli (GPa) = 136.72035 84.22462 77.97828
#
# Poissons Ratio (x) = 0.07745 0.26506
# Poissons Ratio (y) = 0.12572 0.22723
# Poissons Ratio (z) = 0.46474 0.24544
#
# Static dielectric constant tensor:
#      x y z
#    x 1.713720 0.000000 -0.015210 
#    y 0.000000 1.748790 0.000000 
#    z -0.015210 0.000000 1.657490 
# 
# From -- ./inp_files/305658.got.cif
#   From: 2010.05.17/outbox.ucp.g08.bks.cvg/sg12_153_cif.got.tgz:305658.got - 2010.06.11 11:47:21.
