data_PCOD9225825
_publ_section_title
;
Structure prediction by ZEFSAII (Michael W. Deem and Ramdas Pophale) SiO2 
 PCOD9225825
Probable space group: C 2/M
;
_chemical_formula_sum "Si O2"
_cell_formula_units_Z 28
_cell_length_a 27.000000
_cell_length_b 9.000000
_cell_length_c 18.000000
_cell_angle_alpha 90.000000
_cell_angle_beta 50.000000
_cell_angle_gamma 90.000000
_cell_volume 3350.678394
_symmetry_space_group_name_H-M "C 2/M"
_symmetry_group_IT_number 12
_symmetry_cell_setting 'monoclinic'
loop_
_space_group_symop_operation_xyz
x,y,z
-x,y,-z
-x,-y,-z
x,-y,z
1/2+x,1/2+y,z
1/2-x,1/2+y,-z
1/2-x,1/2-y,-z
1/2+x,1/2-y,z
loop_
_atom_site_type_symbol
_atom_site_label
_atom_site_fract_x
_atom_site_fract_y
_atom_site_fract_z
Si Si1 0.291464 0.820631 0.893831
Si Si2 0.517499 0.178510 0.097132
Si Si3 0.495458 0.824745 0.620462
Si Si4 0.113940 0.324964 0.400155
Si Si5 0.073716 0.174611 0.189198
Si Si6 0.891507 0.677353 0.134410
Si Si7 0.253839 0.319934 0.771950
O O1 0.364124 0.764564 0.840377
O O2 0.263998 0.754945 0.843079
O O3 0.289116 0.000000 0.895242
O O4 0.250000 0.750000 0.000000
O O5 0.549408 0.264343 0.134220
O O6 0.444043 0.228553 0.146224
O O7 0.515624 0.000000 0.113041
O O8 0.566789 0.201006 0.980769
O O9 0.565312 0.801168 0.515828
O O10 0.436125 0.797938 0.619883
O O11 0.483317 0.714534 0.699050
O O12 0.491413 0.000000 0.645191
O O13 0.131300 0.500000 0.380137
O O14 0.180215 0.232006 0.333656
O O15 0.088519 0.000000 0.172764
O O16 0.886569 0.500000 0.150111
O O17 0.816380 0.727127 0.195607
O O18 0.253331 0.500000 0.779191
#
# Coordination Sequence:
#
# PCOD9225825 Si02
#       7
#     8   8   8   8   8   8   8
#     4  12  24  37  51  73 107 144 177 210 256 312
#     4   9  17  35  58  75  99 141 183 217 252 304
#     4   9  18  34  54  74 101 138 179 218 257 310
#     4   9  18  33  53  76 102 137 179 216 258 313
#     4  12  23  34  51  80 110 137 172 216 265 315
#     4   8  17  33  55  79 101 134 181 218 254 306
#     4  11  20  32  52  81 111 137 169 215 265 316
#
# _framework density 8.3565170000000002
#
# number of rings (size 3 to 8) (size 9 to 14) (size 15 to 20)
#    0.000    2.000    1.429    5.571    0.000    1.714 
#    0.000    5.000    0.000    0.857    0.000    0.000 
#    0.000    0.000    0.000    0.000    0.000    0.000 
#
# Total GULP energy -156013.137915 kJ/mol
# GULP energy per Si atom -5571.897783 kJ/mol
# Density = 0.833750 g / cm^3
# Si number density = 8.356517 Si / 1000 Ang^3
#
#
#
# Elastic Constant Matrix: (Units=GPa)
#
#
# Indices 1 2 3 4 5 6 
#
# 1 80.6355 19.6900 17.8215 -0.0003 -31.2329 -0.0003
# 2 19.6900 73.7303 24.5215 -0.0005 -8.5959 -0.0008
# 3 17.8215 24.5215 59.1484 -0.0004 -20.8751 0.0000
# 4 -0.0003 -0.0005 -0.0004 25.8943 0.0001 -2.6219
# 5 -31.2329 -8.5959 -20.8751 0.0001 30.8450 0.0000
# 6 -0.0003 -0.0008 0.0000 -2.6219 0.0000 28.3515
#
#
#
# Elastic Compliance Matrix: (Units=1/GPa)
#
#
# Indices 1 2 3 4 5 6 
#
# 1 0.021570 -0.004196 0.003332 0.000000 0.022927 0.000000
# 2 -0.004196 0.016548 -0.007184 0.000000 -0.004499 0.000000
# 3 0.003332 -0.007184 0.025442 0.000000 0.018590 0.000000
# 4 0.000000 0.000000 0.000000 0.038984 0.000000 0.003605
# 5 0.022927 -0.004499 0.018590 0.000000 0.066963 0.000000
# 6 0.000000 0.000000 0.000000 0.003605 0.000000 0.035605
#
#
# Mechanical properties :
#
#
# Convention : Reuss Voigt Hill
#
# Bulk Modulus (GPa) = 21.06825 37.50891 29.28858
# Shear Modulus (GPa) = 21.09446 27.11690 24.10568
#
# Velocity S-wave (km/s) = 3.55654 4.03240 3.80192
# Velocity P-wave (km/s) = 5.43125 6.64620 6.06920
#
# Compressibility (1/GPa) = 0.04746480
#
# Stress axis : x y z
#
# Youngs Moduli (GPa) = 46.36069 60.42950 39.30496
#
# Poissons Ratio (x) = 0.25353 -0.13096
# Poissons Ratio (y) = 0.19451 0.28237
# Poissons Ratio (z) = -0.15447 0.43413
#
# Static dielectric constant tensor:
#      x y z
#    x 1.585200 0.000000 0.038100 
#    y 0.000000 1.558930 0.000000 
#    z 0.038100 0.000000 1.669890 
# 
# From -- ./inp_files/291857.got.cif
#   From: 2010.05.17/outbox.ucp.g08.bks.cvg/sg12_146_cif.got.tgz:291857.got - 2010.06.11 11:47:21.
