data_PCOD9225638
_publ_section_title
;
Structure prediction by ZEFSAII (Michael W. Deem and Ramdas Pophale) SiO2 
 PCOD9225638
Probable space group: C 2/M
;
_chemical_formula_sum "Si O2"
_cell_formula_units_Z 28
_cell_length_a 24.000000
_cell_length_b 24.000000
_cell_length_c 15.000000
_cell_angle_alpha 90.000000
_cell_angle_beta 20.000000
_cell_angle_gamma 90.000000
_cell_volume 2955.054038
_symmetry_space_group_name_H-M "C 2/M"
_symmetry_group_IT_number 12
_symmetry_cell_setting 'monoclinic'
loop_
_space_group_symop_operation_xyz
x,y,z
-x,y,-z
-x,-y,-z
x,-y,z
1/2+x,1/2+y,z
1/2-x,1/2+y,-z
1/2-x,1/2-y,-z
1/2+x,1/2-y,z
loop_
_atom_site_type_symbol
_atom_site_label
_atom_site_fract_x
_atom_site_fract_y
_atom_site_fract_z
Si Si1 0.838374 0.843253 0.080601
Si Si2 0.182296 0.754009 0.203183
Si Si3 0.348754 0.803951 0.466108
Si Si4 0.791600 0.932611 0.645468
Si Si5 0.311203 0.870742 0.022595
Si Si6 0.185767 0.066578 0.034791
Si Si7 0.206039 0.826767 0.488280
O O1 0.792127 0.786971 0.096674
O O2 0.768913 0.833839 0.284395
O O3 0.782721 0.896191 0.102498
O O4 0.032539 0.844950 0.789120
O O5 0.000000 0.733930 0.500000
O O6 0.250000 0.750000 0.000000
O O7 0.187263 0.819099 0.220474
O O8 0.520757 0.834635 0.229099
O O9 0.317178 0.816371 0.408545
O O10 0.322667 0.735552 0.513928
O O11 0.743729 0.880249 0.649885
O O12 0.990149 0.930180 0.348622
O O13 0.752874 0.000000 0.684901
O O14 0.715163 0.913387 0.855371
O O15 0.276991 0.903433 0.981142
O O16 0.225557 0.000000 0.966599
#
# Coordination Sequence:
#
# PCOD9225638 Si02
#       7
#     8   8   8   8   8   8   8
#     4  11  22  40  62  87 123 162 213 254 316 381
#     4  12  23  35  59  94 131 162 199 262 324 391
#     4  11  24  40  63  93 125 165 208 272 328 375
#     4  10  22  42  67  91 125 171 214 259 313 386
#     4  12  22  37  61  96 129 161 202 258 326 385
#     4  10  22  40  62  89 126 171 210 250 309 389
#     4  10  23  43  64  90 122 165 219 265 318 376
#
# _framework density 9.4752919999999996
#
# number of rings (size 3 to 8) (size 9 to 14) (size 15 to 20)
#    0.000    1.143    2.857    3.857    2.000    1.714 
#    0.000    5.000    0.000    3.429    0.000    0.000 
#    0.000    0.000    0.000    0.000    0.000    0.000 
#
# Total GULP energy -156084.987161 kJ/mol
# GULP energy per Si atom -5574.463827 kJ/mol
# Density = 0.945373 g / cm^3
# Si number density = 9.475292 Si / 1000 Ang^3
#
#
#
# Elastic Constant Matrix: (Units=GPa)
#
#
# Indices 1 2 3 4 5 6 
#
# 1 78.8305 45.6341 2.6337 -0.0080 8.9299 0.0090
# 2 45.6341 172.8370 1.3687 -0.0081 5.3074 0.0043
# 3 2.6337 1.3687 46.4373 -0.0032 11.7526 0.0050
# 4 -0.0080 -0.0081 -0.0032 30.1344 0.0032 3.5987
# 5 8.9299 5.3074 11.7526 0.0032 32.9195 -0.0082
# 6 0.0090 0.0043 0.0050 3.5987 -0.0082 38.1286
#
#
#
# Elastic Compliance Matrix: (Units=1/GPa)
#
#
# Indices 1 2 3 4 5 6 
#
# 1 0.015373 -0.003950 0.000153 0.000004 -0.003588 -0.000004
# 2 -0.003950 0.006830 0.000033 0.000001 -0.000041 0.000000
# 3 0.000153 0.000033 0.023676 0.000004 -0.008499 -0.000005
# 4 0.000004 0.000001 0.000004 0.033563 -0.000007 -0.003168
# 5 -0.003588 -0.000041 -0.008499 -0.000007 0.034391 0.000010
# 6 -0.000004 0.000000 -0.000005 -0.003168 0.000010 0.026526
#
#
# Mechanical properties :
#
#
# Convention : Reuss Voigt Hill
#
# Bulk Modulus (GPa) = 26.07535 44.15308 35.11422
# Shear Modulus (GPa) = 31.11941 36.80106 33.96023
#
# Velocity S-wave (km/s) = 4.05672 4.41154 4.23784
# Velocity P-wave (km/s) = 5.97764 7.02129 6.52038
#
# Compressibility (1/GPa) = 0.03835040
#
# Stress axis : x y z
#
# Youngs Moduli (GPa) = 65.04721 146.41836 42.23722
#
# Poissons Ratio (x) = 0.57836 -0.00644
# Poissons Ratio (y) = 0.25694 -0.00140
# Poissons Ratio (z) = -0.00992 -0.00487
#
# Static dielectric constant tensor:
#      x y z
#    x 1.700120 0.000000 -0.050240 
#    y 0.000000 1.660600 0.000010 
#    z -0.050240 0.000010 1.723340 
# 
# From -- ./inp_files/242151.got.cif
#   From: 2010.05.17/outbox.ucp.g08.bks.cvg/sg12_122_cif.got.tgz:242151.got - 2010.06.11 11:47:21.
