data_PCOD9225678
_publ_section_title
;
Structure prediction by ZEFSAII (Michael W. Deem and Ramdas Pophale) SiO2 
 PCOD9225678
Probable space group: C 2/M
;
_chemical_formula_sum "Si O2"
_cell_formula_units_Z 28
_cell_length_a 18.000000
_cell_length_b 9.000000
_cell_length_c 18.000000
_cell_angle_alpha 90.000000
_cell_angle_beta 110.000000
_cell_angle_gamma 90.000000
_cell_volume 2740.143682
_symmetry_space_group_name_H-M "C 2/M"
_symmetry_group_IT_number 12
_symmetry_cell_setting 'monoclinic'
loop_
_space_group_symop_operation_xyz
x,y,z
-x,y,-z
-x,-y,-z
x,-y,z
1/2+x,1/2+y,z
1/2-x,1/2+y,-z
1/2-x,1/2-y,-z
1/2+x,1/2-y,z
loop_
_atom_site_type_symbol
_atom_site_label
_atom_site_fract_x
_atom_site_fract_y
_atom_site_fract_z
Si Si1 0.366082 0.170146 0.767822
Si Si2 0.414825 0.330516 0.932106
Si Si3 0.827373 0.319610 0.485422
Si Si4 0.814161 0.172850 0.318108
Si Si5 0.587660 0.677485 0.787038
Si Si6 0.335614 0.823856 0.040114
Si Si7 0.419872 0.323958 0.645020
O O1 0.409599 0.264360 0.846980
O O2 0.272627 0.165685 0.748083
O O3 0.364647 0.245725 0.686426
O O4 0.396793 0.000000 0.775650
O O5 0.381636 0.500000 0.919965
O O6 0.500000 0.342732 0.000000
O O7 0.373460 0.216621 0.973707
O O8 0.825292 0.500000 0.486961
O O9 0.750000 0.250000 0.500000
O O10 0.825633 0.260683 0.399512
O O11 0.901597 0.257233 0.560308
O O12 0.862739 0.236714 0.265822
O O13 0.838286 0.000000 0.341038
O O14 0.601263 0.500000 0.802596
O O15 0.613997 0.754882 0.873270
O O16 0.500712 0.692519 0.720729
O O17 0.329989 0.000000 0.048974
O O18 0.250000 0.750000 0.000000
O O19 0.405939 0.500000 0.630217
#
# Coordination Sequence:
#
# PCOD9225678 Si02
#       7
#     8   8   8   8   8   8   8
#     4  11  22  37  62  92 122 160 208 262 312 367
#     4  11  24  41  62  90 126 166 210 261 316 375
#     4  12  24  40  64  93 125 161 207 257 310 372
#     4  10  22  41  64  90 122 160 205 253 307 369
#     4  10  23  43  65  92 127 167 208 254 312 375
#     4  12  25  42  66  93 127 169 214 263 316 377
#     4  11  23  40  64  92 128 168 206 254 312 374
#
# _framework density 10.218442
#
# number of rings (size 3 to 8) (size 9 to 14) (size 15 to 20)
#    0.000    1.000    1.429    5.571    0.000    8.571 
#    0.000    2.857    0.000    0.000    0.000    0.000 
#    0.000    0.000    0.000    0.000    0.000    0.000 
#
# Total GULP energy -156112.133218 kJ/mol
# GULP energy per Si atom -5575.433329 kJ/mol
# Density = 1.019518 g / cm^3
# Si number density = 10.218442 Si / 1000 Ang^3
#
#
#
# Elastic Constant Matrix: (Units=GPa)
#
#
# Indices 1 2 3 4 5 6 
#
# 1 21.5209 3.1386 -10.6349 0.0000 4.0235 0.0000
# 2 3.1386 137.0804 43.3932 0.0000 15.9340 0.0000
# 3 -10.6349 43.3932 135.6963 0.0000 17.3524 0.0000
# 4 0.0000 0.0000 0.0000 33.4492 0.0000 1.3005
# 5 4.0235 15.9340 17.3524 0.0000 24.5765 0.0000
# 6 0.0000 0.0000 0.0000 1.3005 0.0000 16.1674
#
#
#
# Elastic Compliance Matrix: (Units=1/GPa)
#
#
# Indices 1 2 3 4 5 6 
#
# 1 0.051939 -0.001772 0.006131 0.000000 -0.011683 0.000000
# 2 -0.001772 0.008508 -0.002409 0.000000 -0.003525 0.000000
# 3 0.006131 -0.002409 0.009397 0.000000 -0.006077 0.000000
# 4 0.000000 0.000000 0.000000 0.029990 0.000000 -0.002412
# 5 -0.011683 -0.003525 -0.006077 0.000000 0.049178 0.000000
# 6 0.000000 0.000000 0.000000 -0.002412 0.000000 0.062047
#
#
# Mechanical properties :
#
#
# Convention : Reuss Voigt Hill
#
# Bulk Modulus (GPa) = 13.56020 40.67681 27.11851
# Shear Modulus (GPa) = 21.57592 32.06534 26.82063
#
# Velocity S-wave (km/s) = 3.25273 3.96535 3.62659
# Velocity P-wave (km/s) = 4.55594 6.39626 5.55287
#
# Compressibility (1/GPa) = 0.07374520
#
# Stress axis : x y z
#
# Youngs Moduli (GPa) = 19.25336 117.53903 106.41337
#
# Poissons Ratio (x) = 0.20828 -0.65245
# Poissons Ratio (y) = 0.03412 0.25632
# Poissons Ratio (z) = -0.11805 0.28312
#
# Static dielectric constant tensor:
#      x y z
#    x 1.998650 0.000000 0.010490 
#    y 0.000000 1.725430 0.000000 
#    z 0.010490 0.000000 1.663060 
# 
# From -- ./inp_files/275581.got.cif
#   From: 2010.05.17/outbox.ucp.g08.bks.cvg/sg12_138_cif.got.tgz:275581.got - 2010.06.11 11:47:21.
