data_PCOD9225301
_publ_section_title
;
Structure prediction by ZEFSAII (Michael W. Deem and Ramdas Pophale) SiO2 
 PCOD9225301
Probable space group: C 2/M
;
_chemical_formula_sum "Si O2"
_cell_formula_units_Z 32
_cell_length_a 21.000000
_cell_length_b 9.000000
_cell_length_c 24.000000
_cell_angle_alpha 90.000000
_cell_angle_beta 130.000000
_cell_angle_gamma 90.000000
_cell_volume 3474.777594
_symmetry_space_group_name_H-M "C 2/M"
_symmetry_group_IT_number 12
_symmetry_cell_setting 'monoclinic'
loop_
_space_group_symop_operation_xyz
x,y,z
-x,y,-z
-x,-y,-z
x,-y,z
1/2+x,1/2+y,z
1/2-x,1/2+y,-z
1/2-x,1/2-y,-z
1/2+x,1/2-y,z
loop_
_atom_site_type_symbol
_atom_site_label
_atom_site_fract_x
_atom_site_fract_y
_atom_site_fract_z
Si Si1 0.125238 0.178642 0.161577
Si Si2 0.226591 0.678771 0.569890
Si Si3 0.456738 0.176169 0.108824
Si Si4 0.383990 0.322988 0.588365
Si Si5 0.934970 0.679353 0.305826
Si Si6 0.852381 0.821264 0.150403
Si Si7 0.702189 0.179966 0.682840
Si Si8 0.339697 0.825025 0.936037
O O1 0.212673 0.225200 0.238816
O O2 0.131938 0.232003 0.101489
O O3 0.046692 0.251291 0.148523
O O4 0.118175 0.000000 0.160235
O O5 0.213393 0.500000 0.557163
O O6 0.322528 0.706091 0.606301
O O7 0.168163 0.763506 0.493612
O O8 0.205867 0.726785 0.620783
O O9 0.403612 0.253442 0.127721
O O10 0.465062 0.000000 0.125004
O O11 0.403948 0.194103 0.022437
O O12 0.396956 0.500000 0.592193
O O13 0.471535 0.240089 0.639769
O O14 0.935145 0.500000 0.302240
O O15 0.890235 0.750009 0.227323
O O16 0.879156 0.724359 0.328021
O O17 0.753553 0.786330 0.095635
O O18 0.861269 0.000000 0.155524
O O19 0.702355 0.000000 0.682631
O O20 0.338703 0.000000 0.919834
#
# Coordination Sequence:
#
# PCOD9225301 Si02
#       8
#     8   8   8   8   8   8   8   8
#     4  11  22  38  61  89 120 156 203 250 296 354
#     4   9  19  39  63  85 116 157 196 237 288 347
#     4  11  24  40  59  87 119 156 200 248 302 360
#     4  10  21  37  60  91 122 153 192 243 293 345
#     4  11  22  39  61  86 118 157 198 242 294 356
#     4  11  23  40  61  87 117 155 200 249 302 355
#     4   9  20  38  60  85 114 155 200 242 288 343
#     4  10  22  41  62  84 119 158 196 247 306 360
#
# _framework density 9.2092220000000005
#
# number of rings (size 3 to 8) (size 9 to 14) (size 15 to 20)
#    0.000    1.750    1.250    2.625    1.750    4.000 
#    0.000    5.000    0.000    0.000    0.000    0.000 
#    0.000    0.000    0.000    0.000    0.000    0.000 
#
# Total GULP energy -178747.467692 kJ/mol
# GULP energy per Si atom -5585.858365 kJ/mol
# Density = 0.918826 g / cm^3
# Si number density = 9.209222 Si / 1000 Ang^3
#
#
#
# Elastic Constant Matrix: (Units=GPa)
#
#
# Indices 1 2 3 4 5 6 
#
# 1 54.5044 21.2828 -6.4454 0.0000 6.7638 0.0000
# 2 21.2828 57.7723 8.6708 0.0000 3.1083 0.0000
# 3 -6.4454 8.6708 25.6811 0.0000 6.7102 0.0000
# 4 0.0000 0.0000 0.0000 30.8968 0.0000 1.3367
# 5 6.7638 3.1083 6.7102 0.0000 41.6817 0.0000
# 6 0.0000 0.0000 0.0000 1.3367 0.0000 36.9040
#
#
#
# Elastic Compliance Matrix: (Units=1/GPa)
#
#
# Indices 1 2 3 4 5 6 
#
# 1 0.024264 -0.010303 0.010853 0.000000 -0.004916 0.000000
# 2 -0.010303 0.022614 -0.010666 0.000000 0.001703 0.000000
# 3 0.010853 -0.010666 0.047515 0.000000 -0.008615 0.000000
# 4 0.000000 0.000000 0.000000 0.032417 0.000000 -0.001174
# 5 -0.004916 0.001703 -0.008615 0.000000 0.026049 0.000000
# 6 0.000000 0.000000 0.000000 -0.001174 0.000000 0.027140
#
#
# Mechanical properties :
#
#
# Convention : Reuss Voigt Hill
#
# Bulk Modulus (GPa) = 13.48418 20.55269 17.01843
# Shear Modulus (GPa) = 22.22709 29.52647 25.87678
#
# Velocity S-wave (km/s) = 3.47765 4.00821 3.75232
# Velocity P-wave (km/s) = 4.84379 5.70999 5.29463
#
# Compressibility (1/GPa) = 0.07416099
#
# Stress axis : x y z
#
# Youngs Moduli (GPa) = 41.21382 44.22034 21.04589
#
# Poissons Ratio (x) = 0.45560 -0.22841
# Poissons Ratio (y) = 0.42462 0.22447
# Poissons Ratio (z) = -0.44729 0.47165
#
# Static dielectric constant tensor:
#      x y z
#    x 1.621330 0.000000 -0.002670 
#    y 0.000000 1.618170 0.000000 
#    z -0.002670 0.000000 1.619330 
# 
# From -- ./inp_files/346171.got.cif
#   From: 2010.05.17/outbox.ucp.g08.bks.cvg/sg12_174_cif.got.tgz:346171.got - 2010.06.11 11:47:21.
