data_PCOD9225161
_publ_section_title
;
Structure prediction by ZEFSAII (Michael W. Deem and Ramdas Pophale) SiO2 
 PCOD9225161
Probable space group: C 2/M
;
_chemical_formula_sum "Si O2"
_cell_formula_units_Z 32
_cell_length_a 12.000000
_cell_length_b 18.000000
_cell_length_c 30.000000
_cell_angle_alpha 90.000000
_cell_angle_beta 30.000000
_cell_angle_gamma 90.000000
_cell_volume 3240.000000
_symmetry_space_group_name_H-M "C 2/M"
_symmetry_group_IT_number 12
_symmetry_cell_setting 'monoclinic'
loop_
_space_group_symop_operation_xyz
x,y,z
-x,y,-z
-x,-y,-z
x,-y,z
1/2+x,1/2+y,z
1/2-x,1/2+y,-z
1/2-x,1/2-y,-z
1/2+x,1/2-y,z
loop_
_atom_site_type_symbol
_atom_site_label
_atom_site_fract_x
_atom_site_fract_y
_atom_site_fract_z
Si Si1 0.477410 0.694837 0.700290
Si Si2 0.263728 0.845037 0.366427
Si Si3 0.772282 0.327581 0.020050
Si Si4 0.795224 0.816672 0.856733
Si Si5 0.302465 0.587205 0.037469
Si Si6 0.443235 0.824863 0.210314
Si Si7 0.207326 0.587148 0.459179
Si Si8 0.714944 0.413700 0.470282
O O1 0.642488 0.764057 0.652423
O O2 0.423983 0.659154 0.767294
O O3 0.248135 0.714805 0.753341
O O4 0.593098 0.636852 0.627450
O O5 0.347647 0.861964 0.287889
O O6 0.338039 0.897677 0.381420
O O7 0.997993 0.858826 0.455300
O O8 0.672318 0.387621 0.021635
O O9 0.037061 0.331685 0.936514
O O10 0.750000 0.250000 0.000000
O O11 0.663417 0.339523 0.106335
O O12 0.869118 0.730951 0.835933
O O13 0.302593 0.500000 0.041277
O O14 0.068301 0.618581 0.135293
O O15 0.500000 0.618014 0.000000
O O16 0.260300 0.500000 0.436015
O O17 0.154897 0.600566 0.529249
O O18 0.000000 0.604861 0.500000
O O19 0.640687 0.500000 0.496664
#
# Coordination Sequence:
#
# PCOD9225161 Si02
#       8
#     8   8   8   8   8   8   8   8
#     4  11  22  38  58  93 126 153 204 252 307 357
#     4  10  22  35  61  94 123 151 201 259 298 359
#     4  11  19  37  64  86 119 164 200 242 299 357
#     4  10  21  35  60  92 116 155 205 243 296 360
#     4  11  24  40  61  92 124 159 203 249 303 367
#     4  11  21  39  59  92 125 158 197 251 307 361
#     4  10  23  42  62  83 117 167 210 243 295 372
#     4  10  21  41  63  90 124 165 206 242 314 375
#
# _framework density 9.8765429999999999
#
# number of rings (size 3 to 8) (size 9 to 14) (size 15 to 20)
#    0.000    1.500    3.750    1.500    1.750    5.000 
#    0.000    1.875    0.000    3.000    0.000    0.875 
#    0.000    0.000    0.000    0.000    0.000    0.000 
#
# Total GULP energy -178155.314336 kJ/mol
# GULP energy per Si atom -5567.353573 kJ/mol
# Density = 0.985406 g / cm^3
# Si number density = 9.876543 Si / 1000 Ang^3
#
#
#
# Elastic Constant Matrix: (Units=GPa)
#
#
# Indices 1 2 3 4 5 6 
#
# 1 142.2799 22.5047 33.7164 -0.0273 25.0467 -0.0295
# 2 22.5047 5.7695 22.9527 -0.0385 -13.2245 -0.0397
# 3 33.7164 22.9527 46.5246 -0.2027 22.5166 -0.2688
# 4 -0.0273 -0.0385 -0.2027 -0.1884 0.0372 -0.8637
# 5 25.0467 -13.2245 22.5166 0.0372 40.4521 0.0490
# 6 -0.0295 -0.0397 -0.2688 -0.8637 0.0490 16.7280
#
#
#
# Elastic Compliance Matrix: (Units=1/GPa)
#
#
# Indices 1 2 3 4 5 6 
#
# 1 0.008192 0.004225 -0.008491 0.006317 0.001029 0.000211
# 2 0.004225 -0.037121 0.030456 -0.027761 -0.031678 -0.000932
# 3 -0.008491 0.030456 0.007136 -0.008967 0.011251 -0.000324
# 4 0.006317 -0.027761 -0.008967 -4.279472 -0.003792 -0.221134
# 5 0.001029 -0.031678 0.011251 -0.003792 0.007469 -0.000110
# 6 0.000211 -0.000932 -0.000324 -0.221134 -0.000110 0.048356
#
#
# Mechanical properties :
#
#
# Convention : Reuss Voigt Hill
#
# Bulk Modulus (GPa) = 32.69185 39.21351 35.95268
# Shear Modulus (GPa) = -1.16615 19.09169 8.96277
#
# Velocity S-wave (km/s) = -0.76918 3.11226 2.13243
# Velocity P-wave (km/s) = 3.97458 5.72798 4.92986
#
# Compressibility (1/GPa) = 0.03058866
#
# Stress axis : x y z
#
# Youngs Moduli (GPa) = 122.06645 -26.93875 140.13964
#
# Poissons Ratio (x) = 0.11382 1.18987
# Poissons Ratio (y) = -0.51575 -4.26815
# Poissons Ratio (z) = 1.03642 0.82046
#
# Static dielectric constant tensor:
#      x y z
#    x 1.739160 0.000000 0.016360 
#    y 0.000000 1.686800 0.000000 
#    z 0.016360 0.000000 1.758370 
# 
# From -- ./inp_files/374431.got.cif
#   From: 2010.05.17/outbox.ucp.g08.bks.cvg/sg12_188_cif.got.tgz:374431.got - 2010.06.11 11:47:21.
