data_PCOD9225326
_publ_section_title
;
Structure prediction by ZEFSAII (Michael W. Deem and Ramdas Pophale) SiO2 
 PCOD9225326
Probable space group: C 2/M
;
_chemical_formula_sum "Si O2"
_cell_formula_units_Z 24
_cell_length_a 30.000000
_cell_length_b 9.000000
_cell_length_c 18.000000
_cell_angle_alpha 90.000000
_cell_angle_beta 30.000000
_cell_angle_gamma 90.000000
_cell_volume 2430.000000
_symmetry_space_group_name_H-M "C 2/M"
_symmetry_group_IT_number 12
_symmetry_cell_setting 'monoclinic'
loop_
_space_group_symop_operation_xyz
x,y,z
-x,y,-z
-x,-y,-z
x,-y,z
1/2+x,1/2+y,z
1/2-x,1/2+y,-z
1/2-x,1/2-y,-z
1/2+x,1/2-y,z
loop_
_atom_site_type_symbol
_atom_site_label
_atom_site_fract_x
_atom_site_fract_y
_atom_site_fract_z
Si Si1 0.339893 0.165109 0.355901
Si Si2 0.525298 0.327952 0.736235
Si Si3 0.009038 0.819942 0.599876
Si Si4 0.674294 0.671408 0.925008
Si Si5 0.650603 0.678351 0.265240
Si Si6 0.090624 0.668640 0.904899
O O1 0.250000 0.250000 0.500000
O O2 0.424809 0.242201 0.271041
O O3 0.349188 0.158289 0.254327
O O4 0.334554 0.000000 0.394401
O O5 0.554052 0.500000 0.699511
O O6 0.544100 0.263906 0.627836
O O7 0.418636 0.324200 0.896381
O O8 0.910091 0.770466 0.717146
O O9 0.082802 0.790800 0.431164
O O10 0.002633 0.000000 0.614924
O O11 0.697798 0.500000 0.877439
O O12 0.755312 0.747938 0.851723
O O13 0.644262 0.749068 0.891577
O O14 0.662843 0.500000 0.242387
O O15 0.067300 0.500000 0.964481
O O16 0.000000 0.736975 0.000000
#
# Coordination Sequence:
#
# PCOD9225326 Si02
#       6
#     8   8   8   8   8   8
#     4  11  24  40  59  84 113 146 186 230 277 330
#     4  10  21  38  57  81 115 150 186 229 279 331
#     4   8  17  36  60  82 106 144 190 231 272 329
#     4  11  23  35  54  85 118 147 181 232 287 329
#     4   9  18  36  61  83 106 143 192 233 270 332
#     4  10  21  40  61  79 107 149 193 228 264 328
#
# _framework density 9.8765429999999999
#
# number of rings (size 3 to 8) (size 9 to 14) (size 15 to 20)
#    0.000    2.167    1.667    2.000    2.333    3.000 
#    0.000    2.500    0.000    0.000    0.000    0.000 
#    0.000    0.000    0.000    0.000    0.000    0.000 
#
# Total GULP energy -133710.784672 kJ/mol
# GULP energy per Si atom -5571.282695 kJ/mol
# Density = 0.985406 g / cm^3
# Si number density = 9.876543 Si / 1000 Ang^3
#
#
#
# Elastic Constant Matrix: (Units=GPa)
#
#
# Indices 1 2 3 4 5 6 
#
# 1 28.4323 14.1492 -8.0966 -0.0006 9.9964 0.0002
# 2 14.1492 57.3168 12.3674 0.0001 -6.0658 -0.0009
# 3 -8.0966 12.3674 28.5155 0.0002 -8.7263 -0.0007
# 4 -0.0006 0.0001 0.0002 24.4097 -0.0004 -11.0644
# 5 9.9964 -6.0658 -8.7263 -0.0004 35.0301 0.0004
# 6 0.0002 -0.0009 -0.0007 -11.0644 0.0004 23.0440
#
#
#
# Elastic Compliance Matrix: (Units=1/GPa)
#
#
# Indices 1 2 3 4 5 6 
#
# 1 0.055564 -0.019515 0.019869 0.000001 -0.014286 0.000000
# 2 -0.019515 0.026162 -0.014936 0.000000 0.006379 0.000001
# 3 0.019869 -0.014936 0.048347 0.000001 0.003787 0.000001
# 4 0.000001 0.000000 0.000001 0.052364 0.000000 0.025142
# 5 -0.014286 0.006379 0.003787 0.000000 0.034672 0.000000
# 6 0.000000 0.000001 0.000001 0.025142 0.000000 0.055467
#
#
# Mechanical properties :
#
#
# Convention : Reuss Voigt Hill
#
# Bulk Modulus (GPa) = 9.91003 16.78940 13.34971
# Shear Modulus (GPa) = 14.90862 22.88640 18.89751
#
# Velocity S-wave (km/s) = 2.75025 3.40755 3.09639
# Velocity P-wave (km/s) = 3.88755 4.89897 4.42227
#
# Compressibility (1/GPa) = 0.10090787
#
# Stress axis : x y z
#
# Youngs Moduli (GPa) = 17.99738 38.22294 20.68378
#
# Poissons Ratio (x) = 0.74594 -0.41096
# Poissons Ratio (y) = 0.35123 0.30893
# Poissons Ratio (z) = -0.35759 0.57090
#
# Static dielectric constant tensor:
#      x y z
#    x 1.681320 0.000000 0.022240 
#    y 0.000000 1.689850 0.000000 
#    z 0.022240 0.000000 1.644380 
# 
# From -- ./inp_files/229939.got.cif
#   From: 2010.05.17/outbox.ucp.g08.bks.cvg/sg12_115_cif.got.tgz:229939.got - 2010.06.11 11:47:21.
