data_PCOD9225542
_publ_section_title
;
Structure prediction by ZEFSAII (Michael W. Deem and Ramdas Pophale) SiO2 
 PCOD9225542
Probable space group: C 2/M
;
_chemical_formula_sum "Si O2"
_cell_formula_units_Z 28
_cell_length_a 9.000000
_cell_length_b 18.000000
_cell_length_c 27.000000
_cell_angle_alpha 90.000000
_cell_angle_beta 40.000000
_cell_angle_gamma 90.000000
_cell_volume 2811.553005
_symmetry_space_group_name_H-M "C 2/M"
_symmetry_group_IT_number 12
_symmetry_cell_setting 'monoclinic'
loop_
_space_group_symop_operation_xyz
x,y,z
-x,y,-z
-x,-y,-z
x,-y,z
1/2+x,1/2+y,z
1/2-x,1/2+y,-z
1/2-x,1/2-y,-z
1/2+x,1/2-y,z
loop_
_atom_site_type_symbol
_atom_site_label
_atom_site_fract_x
_atom_site_fract_y
_atom_site_fract_z
Si Si1 0.742115 0.184513 0.963172
Si Si2 0.643882 0.297476 0.690571
Si Si3 0.459849 0.692353 0.452623
Si Si4 0.254996 0.911771 0.948402
Si Si5 0.228373 0.192586 0.784263
Si Si6 0.552398 0.585531 0.632421
Si Si7 0.001559 0.413512 0.787685
O O1 0.968267 0.189820 0.871593
O O2 0.500000 0.194229 0.000000
O O3 0.750000 0.250000 0.000000
O O4 0.716289 0.110878 0.002569
O O5 0.381670 0.266052 0.755924
O O6 0.715080 0.316359 0.728426
O O7 0.664009 0.365432 0.647361
O O8 0.812227 0.232880 0.627234
O O9 0.500000 0.674681 0.500000
O O10 0.250000 0.750000 0.500000
O O11 0.404008 0.622793 0.431870
O O12 0.424460 0.884036 0.861653
O O13 0.262200 0.000000 0.943830
O O14 0.000000 0.884459 0.000000
O O15 0.369212 0.130496 0.778748
O O16 0.623227 0.500000 0.616233
O O17 0.275695 0.590179 0.711564
O O18 0.933953 0.500000 0.801647
#
# Coordination Sequence:
#
# PCOD9225542 Si02
#       7
#     8   8   8   8   8   8   8
#     4  12  27  38  57  92 128 164 221 286 331 378
#     4  12  24  43  68  97 131 177 218 264 328 402
#     4  12  23  43  73 103 132 170 212 265 328 399
#     4  10  21  41  63  85 123 170 213 267 337 391
#     4  12  23  40  66  90 128 175 227 271 329 396
#     4  11  25  45  69 102 137 173 221 270 325 393
#     4  10  22  41  66  94 128 172 222 275 330 394
#
# _framework density 9.9589090000000002
#
# number of rings (size 3 to 8) (size 9 to 14) (size 15 to 20)
#    0.000    0.714    5.714    1.286    6.000    1.143 
#    0.000    1.429    0.000    0.000    0.000    0.000 
#    0.000    0.000    0.000    0.000    0.000    0.000 
#
# Total GULP energy -156395.924898 kJ/mol
# GULP energy per Si atom -5585.568746 kJ/mol
# Density = 0.993624 g / cm^3
# Si number density = 9.958909 Si / 1000 Ang^3
#
#
#
# Elastic Constant Matrix: (Units=GPa)
#
#
# Indices 1 2 3 4 5 6 
#
# 1 90.8257 25.1015 18.0122 -0.0035 12.4474 0.0053
# 2 25.1015 88.7014 13.6238 -0.0037 11.9119 0.0037
# 3 18.0122 13.6238 73.6377 -0.0066 22.5881 0.0078
# 4 -0.0035 -0.0037 -0.0066 29.6436 0.0016 9.1627
# 5 12.4474 11.9119 22.5881 0.0016 36.3244 -0.0033
# 6 0.0053 0.0037 0.0078 9.1627 -0.0033 24.5693
#
#
#
# Elastic Compliance Matrix: (Units=1/GPa)
#
#
# Indices 1 2 3 4 5 6 
#
# 1 0.012491 -0.002961 -0.001844 0.000002 -0.002162 -0.000003
# 2 -0.002961 0.012586 -0.000803 0.000002 -0.002614 -0.000002
# 3 -0.001844 -0.000803 0.017183 0.000007 -0.009790 -0.000009
# 4 0.000002 0.000002 0.000007 0.038129 -0.000008 -0.014220
# 5 -0.002162 -0.002614 -0.009790 -0.000008 0.035215 0.000012
# 6 -0.000003 -0.000002 -0.000009 -0.014220 0.000012 0.046004
#
#
# Mechanical properties :
#
#
# Convention : Reuss Voigt Hill
#
# Bulk Modulus (GPa) = 32.21272 40.73774 36.47523
# Shear Modulus (GPa) = 27.29688 31.20263 29.24976
#
# Velocity S-wave (km/s) = 3.70601 3.96228 3.83629
# Velocity P-wave (km/s) = 5.87542 6.43663 6.16242
#
# Compressibility (1/GPa) = 0.03104363
#
# Stress axis : x y z
#
# Youngs Moduli (GPa) = 80.06080 79.45352 58.19862
#
# Poissons Ratio (x) = 0.23526 0.10732
# Poissons Ratio (y) = 0.23706 0.04671
# Poissons Ratio (z) = 0.14764 0.06377
#
# Static dielectric constant tensor:
#      x y z
#    x 1.479020 0.000080 -0.239950 
#    y 0.000080 1.689380 0.000130 
#    z -0.239950 0.000130 1.396130 
# 
# From -- ./inp_files/257007.got.cif
#   From: 2010.05.17/outbox.ucp.g08.bks.cvg/sg12_129_cif.got.tgz:257007.got - 2010.06.11 11:47:21.
