data_PCOD9225996
_publ_section_title
;
Structure prediction by ZEFSAII (Michael W. Deem and Ramdas Pophale) SiO2 
 PCOD9225996
Probable space group: P 2/C
;
_chemical_formula_sum "Si O2"
_cell_formula_units_Z 26
_cell_length_a 26.466136
_cell_length_b 16.810237
_cell_length_c 5.314516
_cell_angle_alpha 90.000000
_cell_angle_beta 120.254232
_cell_angle_gamma 90.000000
_cell_volume 2042.398282
_symmetry_space_group_name_H-M "P 2/C"
_symmetry_group_IT_number 13
_symmetry_cell_setting 'monoclinic'
loop_
_space_group_symop_operation_xyz
x,y,z
-x,y,1/2-z
-x,-y,-z
x,-y,1/2+z
loop_
_atom_site_type_symbol
_atom_site_label
_atom_site_fract_x
_atom_site_fract_y
_atom_site_fract_z
Si Si1 0.500000 0.947351 0.750000
Si Si2 0.712850 0.945283 0.274255
Si Si3 0.025510 0.907929 0.563970
Si Si4 0.571008 0.545296 0.428013
Si Si5 0.843833 0.049392 0.164900
Si Si6 0.571121 0.267782 0.929140
Si Si7 0.606868 0.174703 0.518866
O O1 0.443333 0.892146 0.607605
O O2 0.500000 0.000000 0.500000
O O3 0.779958 0.914460 0.456099
O O4 0.667515 0.873156 0.168801
O O5 0.704880 0.003191 0.497707
O O6 0.095343 0.906895 0.734039
O O7 0.000000 0.870677 0.750000
O O8 0.000000 0.000000 0.500000
O O9 0.000000 0.870418 0.250000
O O10 0.500000 0.541165 0.250000
O O11 0.591437 0.500051 0.729367
O O12 0.585102 0.638502 0.463159
O O13 0.845820 0.020866 0.459650
O O14 0.500000 0.258509 0.750000
O O15 0.596699 0.226396 0.744212
O O16 0.596391 0.227079 0.243310
#
# Coordination Sequence:
#
# PCOD9225996 Si02
#       7
#     2   4   4   4   4   4   4
#     4  12  22  32  46  56  70  94 132 178 218 240
#     4  10  21  33  43  53  74 101 136 173 210 248
#     4  10  14  20  34  53  71  87 109 146 192 248
#     4   9  17  29  46  67  87 102 114 135 180 246
#     4  10  16  25  37  52  69  93 119 152 200 245
#     4  11  20  33  48  65  82 100 123 157 201 242
#     4  12  21  34  45  60  76 101 132 172 206 245
#
# _framework density 12.730133
#
# number of rings (size 3 to 8) (size 9 to 14) (size 15 to 20)
#    0.000    1.538    4.615    3.692    0.000    2.462 
#    0.000    0.000    0.000    0.000    0.000    0.000 
#    0.000    0.000    0.000    0.000    0.000    0.000 
#
# Total GULP energy -144868.272954 kJ/mol
# GULP energy per Si atom -5571.856652 kJ/mol
# Density = 1.270116 g / cm^3
# Si number density = 12.730133 Si / 1000 Ang^3
#
#
#
# Elastic Constant Matrix: (Units=GPa)
#
#
# Indices 1 2 3 4 5 6 
#
# 1 90.9057 44.8443 55.5897 0.0000 3.1354 0.0000
# 2 44.8443 74.9813 49.4005 0.0000 -6.7679 0.0000
# 3 55.5897 49.4005 97.8477 0.0000 -17.7313 0.0000
# 4 0.0000 0.0000 0.0000 9.4635 0.0000 -16.0004
# 5 3.1354 -6.7679 -17.7313 0.0000 37.6145 0.0000
# 6 0.0000 0.0000 0.0000 -16.0004 0.0000 -4.5663
#
#
#
# Elastic Compliance Matrix: (Units=1/GPa)
#
#
# Indices 1 2 3 4 5 6 
#
# 1 0.020342 -0.006498 -0.009617 0.000000 -0.007398 0.000000
# 2 -0.006498 0.022115 -0.007276 0.000000 0.001091 0.000000
# 3 -0.009617 -0.007276 0.021064 0.000000 0.009422 0.000000
# 4 0.000000 0.000000 0.000000 0.015260 0.000000 -0.053472
# 5 -0.007398 0.001091 0.009422 0.000000 0.031840 0.000000
# 6 0.000000 0.000000 0.000000 -0.053472 0.000000 -0.031627
#
#
# Mechanical properties :
#
#
# Convention : Reuss Voigt Hill
#
# Bulk Modulus (GPa) = 59.73699 62.60041 61.16870
# Shear Modulus (GPa) = 38.06469 16.09568 27.08019
#
# Velocity S-wave (km/s) = 5.47414 3.55967 4.61722
# Velocity P-wave (km/s) = 9.32644 8.13491 8.75097
#
# Compressibility (1/GPa) = 0.01674005
#
# Stress axis : x y z
#
# Youngs Moduli (GPa) = 49.16033 45.21834 47.47375
#
# Poissons Ratio (x) = 0.29381 0.45654
# Poissons Ratio (y) = 0.31943 0.34542
# Poissons Ratio (z) = 0.47276 0.32901
#
# Static dielectric constant tensor:
#      x y z
#    x 1.433730 0.000000 -0.018640 
#    y 0.000000 1.376940 0.000000 
#    z -0.018640 0.000000 1.452210 
# 
# From -- ./inp_files/7547.got.cif
#   From: 2010.05.17/outbox.cif.g08.bks.cpg/sg13_4_cif.got.tgz:7547.got - 2010.06.03 16:44:36.
