data_PCOD9225768
_publ_section_title
;
Structure prediction by ZEFSAII (Michael W. Deem and Ramdas Pophale) SiO2 
 PCOD9225768
Probable space group: C 2/M
;
_chemical_formula_sum "Si O2"
_cell_formula_units_Z 26
_cell_length_a 18.000000
_cell_length_b 9.000000
_cell_length_c 21.000000
_cell_angle_alpha 90.000000
_cell_angle_beta 130.000000
_cell_angle_gamma 90.000000
_cell_volume 2606.083195
_symmetry_space_group_name_H-M "C 2/M"
_symmetry_group_IT_number 12
_symmetry_cell_setting 'monoclinic'
loop_
_space_group_symop_operation_xyz
x,y,z
-x,y,-z
-x,-y,-z
x,-y,z
1/2+x,1/2+y,z
1/2-x,1/2+y,-z
1/2-x,1/2-y,-z
1/2+x,1/2-y,z
loop_
_atom_site_type_symbol
_atom_site_label
_atom_site_fract_x
_atom_site_fract_y
_atom_site_fract_z
Si Si1 0.763921 0.000000 0.123685
Si Si2 0.955178 0.333699 0.349195
Si Si3 0.799498 0.171734 0.350293
Si Si4 0.843798 0.170193 0.522585
Si Si5 0.607768 0.673159 0.217046
Si Si6 0.385210 0.000000 0.065923
Si Si7 0.580699 0.246528 0.810590
Si Si8 0.593783 0.000000 0.136115
O O1 0.835649 0.860775 0.162494
O O2 0.679143 0.000000 0.130320
O O3 0.710740 0.000000 0.027135
O O4 0.951891 0.500000 0.374869
O O5 0.879626 0.228822 0.344856
O O6 0.934359 0.340691 0.262823
O O7 0.060815 0.262583 0.410283
O O8 0.837968 0.165272 0.442970
O O9 0.712766 0.291265 0.303787
O O10 0.768713 0.000000 0.317308
O O11 0.750000 0.250000 0.500000
O O12 0.850219 0.000000 0.549569
O O13 0.606170 0.500000 0.190089
O O14 0.520227 0.682416 0.219799
O O15 0.600847 0.828990 0.171086
O O16 0.389775 0.140905 0.114973
O O17 0.475823 0.000000 0.066318
#
# Coordination Sequence:
#
# PCOD9225768 Si02
#       8
#     4   8   8   8   8   4   8   4
#     4  12  23  42  70 100 132 173 216 280 347 403
#     4  12  25  41  64  95 132 173 224 281 335 397
#     4  11  24  41  63  94 133 176 223 281 336 390
#     4  11  25  42  64  92 130 174 223 278 336 398
#     4  11  22  41  67  98 134 181 229 272 335 400
#     4  10  23  46  68  95 135 175 217 273 344 414
#     4  11  24  41  67  98 130 171 225 272 332 409
#     4  10  23  42  70  99 138 176 226 279 333 409
#
# _framework density 9.9766580000000005
#
# number of rings (size 3 to 8) (size 9 to 14) (size 15 to 20)
#    0.000    0.923    2.308    4.385    2.154    6.769 
#    1.385    0.000    0.000    1.846    0.000    0.000 
#    0.000    0.000    0.000    0.000    0.000    0.000 
#
# Total GULP energy -144865.976382 kJ/mol
# GULP energy per Si atom -5571.768322 kJ/mol
# Density = 0.995395 g / cm^3
# Si number density = 9.976658 Si / 1000 Ang^3
#
#
#
# Elastic Constant Matrix: (Units=GPa)
#
#
# Indices 1 2 3 4 5 6 
#
# 1 147.5174 51.0758 34.5926 0.0000 -0.2481 0.0000
# 2 51.0758 155.0287 37.0769 0.0000 8.7844 0.0000
# 3 34.5926 37.0769 72.5875 0.0000 8.6177 0.0000
# 4 0.0000 0.0000 0.0000 -22.3809 0.0000 -38.9725
# 5 -0.2481 8.7844 8.6177 0.0000 26.9981 0.0000
# 6 0.0000 0.0000 0.0000 -38.9725 0.0000 1.5243
#
#
#
# Elastic Compliance Matrix: (Units=1/GPa)
#
#
# Indices 1 2 3 4 5 6 
#
# 1 0.008218 -0.002073 -0.003063 0.000000 0.001727 0.000000
# 2 -0.002073 0.007911 -0.002853 0.000000 -0.001682 0.000000
# 3 -0.003063 -0.002853 0.017240 0.000000 -0.004603 0.000000
# 4 0.000000 0.000000 0.000000 -0.000982 0.000000 -0.025095
# 5 0.001727 -0.001682 -0.004603 0.000000 0.039072 0.000000
# 6 0.000000 0.000000 0.000000 -0.025095 0.000000 0.014412
#
#
# Mechanical properties :
#
#
# Convention : Reuss Voigt Hill
#
# Bulk Modulus (GPa) = 57.50044 68.95824 63.22934
# Shear Modulus (GPa) = 46.44891 18.05419 32.25155
#
# Velocity S-wave (km/s) = 4.83004 3.01129 4.02475
# Velocity P-wave (km/s) = 7.74505 6.83559 7.30449
#
# Compressibility (1/GPa) = 0.01739117
#
# Stress axis : x y z
#
# Youngs Moduli (GPa) = 121.68994 126.40534 58.00511
#
# Poissons Ratio (x) = 0.26202 0.17764
# Poissons Ratio (y) = 0.25224 0.16551
# Poissons Ratio (z) = 0.37268 0.36068
#
# Static dielectric constant tensor:
#      x y z
#    x 1.646790 0.000000 0.002510 
#    y 0.000000 1.545610 0.000000 
#    z 0.002510 0.000000 1.771460 
# 
# From -- ./inp_files/314935.got.cif
#   From: 2010.05.17/outbox.ucp.g08.bks.cvg/sg12_158_cif.got.tgz:314935.got - 2010.06.11 11:47:21.
