data_PCOD9225709
_publ_section_title
;
Structure prediction by ZEFSAII (Michael W. Deem and Ramdas Pophale) SiO2 
 PCOD9225709
Probable space group: C 2/M
;
_chemical_formula_sum "Si O2"
_cell_formula_units_Z 18
_cell_length_a 9.000000
_cell_length_b 18.000000
_cell_length_c 12.000000
_cell_angle_alpha 90.000000
_cell_angle_beta 110.000000
_cell_angle_gamma 90.000000
_cell_volume 1826.762455
_symmetry_space_group_name_H-M "C 2/M"
_symmetry_group_IT_number 12
_symmetry_cell_setting 'monoclinic'
loop_
_space_group_symop_operation_xyz
x,y,z
-x,y,-z
-x,-y,-z
x,-y,z
1/2+x,1/2+y,z
1/2-x,1/2+y,-z
1/2-x,1/2-y,-z
1/2+x,1/2-y,z
loop_
_atom_site_type_symbol
_atom_site_label
_atom_site_fract_x
_atom_site_fract_y
_atom_site_fract_z
Si Si1 0.875165 0.000000 0.353465
Si Si2 0.558636 0.838870 0.639077
Si Si3 0.874820 0.752857 0.776144
Si Si4 0.519836 0.000000 0.726101
Si Si5 0.308768 0.500000 0.986187
Si Si6 0.155013 0.867467 0.834123
O O1 0.677582 0.000000 0.313566
O O2 0.898788 0.076331 0.283561
O O3 0.000000 0.000000 0.500000
O O4 0.500000 0.827611 0.500000
O O5 0.729734 0.803638 0.700854
O O6 0.444096 0.795260 0.693174
O O7 0.556825 0.925128 0.669392
O O8 0.797236 0.689723 0.837275
O O9 0.014234 0.812310 0.840493
O O10 0.656517 0.000000 0.861258
O O11 0.293951 0.425787 0.057837
O O12 0.500000 0.500000 0.000000
#
# Coordination Sequence:
#
# PCOD9225709 Si02
#       6
#     4   8   8   4   4   8
#     4  11  25  43  70 100 139 185 233 276 340 413
#     4  11  23  40  65  97 139 176 226 279 344 405
#     4  10  22  42  66 103 133 178 227 278 351 406
#     4  12  25  45  67 102 133 183 234 277 340 401
#     4  11  25  49  73  98 138 182 234 282 340 411
#     4  10  23  45  72  98 138 180 228 286 345 404
#
# _framework density 9.8534980000000001
#
# number of rings (size 3 to 8) (size 9 to 14) (size 15 to 20)
#    0.000    1.333    2.222    2.333    3.111    6.222 
#    0.000   12.222    0.000    0.000    0.000    0.000 
#    0.000    0.000    0.000    0.000    0.000    0.000 
#
# Total GULP energy -100270.905956 kJ/mol
# GULP energy per Si atom -5570.605886 kJ/mol
# Density = 0.983107 g / cm^3
# Si number density = 9.853498 Si / 1000 Ang^3
#
#
#
# Elastic Constant Matrix: (Units=GPa)
#
#
# Indices 1 2 3 4 5 6 
#
# 1 124.3636 29.4758 14.7389 0.0000 20.3921 0.0000
# 2 29.4758 119.6620 -29.5569 0.0000 2.3623 0.0000
# 3 14.7389 -29.5569 17.5254 0.0000 14.9916 0.0000
# 4 0.0000 0.0000 0.0000 21.3023 0.0000 2.7110
# 5 20.3921 2.3623 14.9916 0.0000 11.9618 0.0000
# 6 0.0000 0.0000 0.0000 2.7110 0.0000 45.3021
#
#
#
# Elastic Compliance Matrix: (Units=1/GPa)
#
#
# Indices 1 2 3 4 5 6 
#
# 1 0.011676 -0.003711 -0.004465 0.000000 -0.013575 0.000000
# 2 -0.003711 0.002225 -0.025499 0.000000 0.037845 0.000000
# 3 -0.004465 -0.025499 -0.096964 0.000000 0.134172 0.000000
# 4 0.000000 0.000000 0.000000 0.047304 0.000000 -0.002831
# 5 -0.013575 0.037845 0.134172 0.000000 -0.068889 0.000000
# 6 0.000000 0.000000 0.000000 -0.002831 0.000000 0.022243
#
#
# Mechanical properties :
#
#
# Convention : Reuss Voigt Hill
#
# Bulk Modulus (GPa) = -6.64833 32.31851 12.83509
# Shear Modulus (GPa) = -76.69644 32.17279 -22.26182
#
# Velocity S-wave (km/s) = -6.24523 4.04487 -3.36466
# Velocity P-wave (km/s) = 7.44209 6.18464 2.92702
#
# Compressibility (1/GPa) = -0.15041367
#
# Stress axis : x y z
#
# Youngs Moduli (GPa) = 85.64880 449.35326 -10.31309
#
# Poissons Ratio (x) = 1.66750 -0.04605
# Poissons Ratio (y) = 0.31783 -0.26298
# Poissons Ratio (z) = 0.38243 11.45822
#
# Static dielectric constant tensor:
#      x y z
#    x 1.746010 0.000000 -0.012990 
#    y 0.000000 1.682010 0.000000 
#    z -0.012990 0.000000 1.714310 
# 
# From -- ./inp_files/118807.got.cif
#   From: 2010.05.17/outbox.ucp.g08.bks.cvg/sg12_60_cif.got.tgz:118807.got - 2010.06.11 11:47:21.
