data_PCOD9225197
_publ_section_title
;
Structure prediction by ZEFSAII (Michael W. Deem and Ramdas Pophale) SiO2 
 PCOD9225197
Probable space group: C 2/M
;
_chemical_formula_sum "Si O2"
_cell_formula_units_Z 28
_cell_length_a 12.000000
_cell_length_b 21.000000
_cell_length_c 12.000000
_cell_angle_alpha 90.000000
_cell_angle_beta 90.000000
_cell_angle_gamma 90.000000
_cell_volume 3024.000000
_symmetry_space_group_name_H-M "C 2/M"
_symmetry_group_IT_number 12
_symmetry_cell_setting 'monoclinic'
loop_
_space_group_symop_operation_xyz
x,y,z
-x,y,-z
-x,-y,-z
x,-y,z
1/2+x,1/2+y,z
1/2-x,1/2+y,-z
1/2-x,1/2-y,-z
1/2+x,1/2-y,z
loop_
_atom_site_type_symbol
_atom_site_label
_atom_site_fract_x
_atom_site_fract_y
_atom_site_fract_z
Si Si1 0.154903 0.073234 0.500791
Si Si2 0.589683 0.575637 0.762883
Si Si3 0.102358 0.570531 0.417046
Si Si4 0.903347 0.831813 0.697475
Si Si5 0.190949 0.691307 0.851294
Si Si6 0.753065 0.167137 0.097541
Si Si7 0.954058 0.312731 0.744699
O O1 0.120147 0.079948 0.630671
O O2 0.287581 0.078023 0.508721
O O3 0.112183 0.128730 0.418474
O O4 0.124988 0.000000 0.464350
O O5 0.575310 0.500000 0.787890
O O6 0.481386 0.621141 0.770718
O O7 0.683679 0.609561 0.839494
O O8 0.112646 0.500000 0.360036
O O9 0.083848 0.631487 0.339276
O O10 0.000000 0.567934 0.500000
O O11 0.785961 0.821457 0.759540
O O12 0.952199 0.759224 0.691866
O O13 0.180469 0.766512 0.883123
O O14 0.073969 0.672470 0.797205
O O15 0.228842 0.658011 0.966653
O O16 0.636350 0.183096 0.157043
#
# Coordination Sequence:
#
# PCOD9225197 Si02
#       7
#     8   8   8   8   8   8   8
#     4  10  21  39  60  84 124 167 201 244 301 366
#     4  11  22  41  64  89 124 163 206 248 300 365
#     4  10  21  36  56  83 119 162 196 239 306 362
#     4  11  23  37  60  93 122 158 207 249 306 356
#     4  10  22  40  61  88 123 156 198 258 306 355
#     4  10  21  40  63  87 117 162 207 241 306 366
#     4  11  21  38  62  90 119 157 202 257 299 359
#
# _framework density 9.2592590000000001
#
# number of rings (size 3 to 8) (size 9 to 14) (size 15 to 20)
#    0.000    1.571    2.857    2.143    0.000    3.429 
#    0.000    3.571    0.000    1.714    0.000    0.000 
#    0.000    0.000    0.000    0.000    0.000    0.000 
#
# Total GULP energy -156163.202698 kJ/mol
# GULP energy per Si atom -5577.257239 kJ/mol
# Density = 0.923818 g / cm^3
# Si number density = 9.259259 Si / 1000 Ang^3
#
#
#
# Elastic Constant Matrix: (Units=GPa)
#
#
# Indices 1 2 3 4 5 6 
#
# 1 101.0729 27.8130 10.8963 0.0000 21.7850 0.0000
# 2 27.8130 143.6865 46.5327 0.0000 22.4262 0.0000
# 3 10.8963 46.5327 81.2094 0.0000 18.0784 0.0000
# 4 0.0000 0.0000 0.0000 27.5864 0.0000 5.2247
# 5 21.7850 22.4262 18.0784 0.0000 23.1488 0.0000
# 6 0.0000 0.0000 0.0000 5.2247 0.0000 26.3758
#
#
#
# Elastic Compliance Matrix: (Units=1/GPa)
#
#
# Indices 1 2 3 4 5 6 
#
# 1 0.012624 -0.001079 0.001618 0.000000 -0.012098 0.000000
# 2 -0.001079 0.009232 -0.004092 0.000000 -0.004733 0.000000
# 3 0.001618 -0.004092 0.016822 0.000000 -0.010696 0.000000
# 4 0.000000 0.000000 0.000000 0.037663 0.000000 -0.007461
# 5 -0.012098 -0.004733 -0.010696 0.000000 0.067523 0.000000
# 6 0.000000 0.000000 0.000000 -0.007461 0.000000 0.039391
#
#
# Mechanical properties :
#
#
# Convention : Reuss Voigt Hill
#
# Bulk Modulus (GPa) = 31.67302 55.16144 43.41723
# Shear Modulus (GPa) = 24.88969 31.47064 28.18016
#
# Velocity S-wave (km/s) = 3.67010 4.12687 3.90517
# Velocity P-wave (km/s) = 5.92453 7.24982 6.62042
#
# Compressibility (1/GPa) = 0.03157261
#
# Stress axis : x y z
#
# Youngs Moduli (GPa) = 79.21388 108.31552 59.44447
#
# Poissons Ratio (x) = 0.11690 -0.09617
# Poissons Ratio (y) = 0.08549 0.24322
# Poissons Ratio (z) = -0.12815 0.44319
#
# Static dielectric constant tensor:
#      x y z
#    x 1.686700 0.000000 0.000980 
#    y 0.000000 1.648880 0.000000 
#    z 0.000980 0.000000 1.629340 
# 
# From -- ./inp_files/133203.got.cif
#   From: 2010.05.17/outbox.ucp.g08.bks.cvg/sg12_67_cif.got.tgz:133203.got - 2010.06.11 11:47:21.
