data_PCOD9225966
_publ_section_title
;
Structure prediction by ZEFSAII (Michael W. Deem and Ramdas Pophale) SiO2 
 PCOD9225966
Probable space group: C 2/M
;
_chemical_formula_sum "Si O2"
_cell_formula_units_Z 28
_cell_length_a 18.000000
_cell_length_b 9.000000
_cell_length_c 27.000000
_cell_angle_alpha 90.000000
_cell_angle_beta 140.000000
_cell_angle_gamma 90.000000
_cell_volume 2811.553005
_symmetry_space_group_name_H-M "C 2/M"
_symmetry_group_IT_number 12
_symmetry_cell_setting 'monoclinic'
loop_
_space_group_symop_operation_xyz
x,y,z
-x,y,-z
-x,-y,-z
x,-y,z
1/2+x,1/2+y,z
1/2-x,1/2+y,-z
1/2-x,1/2-y,-z
1/2+x,1/2-y,z
loop_
_atom_site_type_symbol
_atom_site_label
_atom_site_fract_x
_atom_site_fract_y
_atom_site_fract_z
Si Si1 0.084074 0.826695 0.995535
Si Si2 0.194800 0.820191 0.422965
Si Si3 0.636521 0.324029 0.571139
Si Si4 0.730814 0.825600 0.714974
Si Si5 0.665330 0.322072 0.868747
Si Si6 0.442791 0.175570 0.280525
Si Si7 0.518123 0.823316 0.149248
O O1 0.029517 0.712711 0.929121
O O2 0.088274 0.000000 0.980202
O O3 0.213419 0.766163 0.069036
O O4 0.000000 0.826092 0.000000
O O5 0.250000 0.750000 0.500000
O O6 0.281744 0.769733 0.423710
O O7 0.069769 0.741971 0.354931
O O8 0.185163 0.000000 0.419899
O O9 0.500000 0.290384 0.500000
O O10 0.652270 0.500000 0.569351
O O11 0.675105 0.277442 0.645129
O O12 0.646806 0.818570 0.719546
O O13 0.859244 0.760661 0.786511
O O14 0.737775 0.000000 0.703952
O O15 0.679430 0.500000 0.882944
O O16 0.609426 0.280687 0.788000
O O17 0.575705 0.252746 0.862488
O O18 0.451643 0.000000 0.270420
O O19 0.528861 0.000000 0.164439
#
# Coordination Sequence:
#
# PCOD9225966 Si02
#       7
#     8   8   8   8   8   8   8
#     4  11  24  43  66  93 127 164 205 255 311 370
#     4  12  25  42  65  93 127 165 208 257 310 369
#     4  11  24  42  65  93 126 164 208 257 309 368
#     4  11  24  42  65  93 126 164 206 255 311 369
#     4  12  25  42  65  93 127 165 209 257 308 368
#     4  11  24  43  66  93 127 165 207 256 311 369
#     4  12  25  42  65  92 126 165 208 257 309 368
#
# _framework density 9.9589090000000002
#
# number of rings (size 3 to 8) (size 9 to 14) (size 15 to 20)
#    0.000    0.571    0.000    8.571    0.000   10.286 
#    0.000    0.000    0.000    0.000    0.000    0.000 
#    0.000    0.000    0.000    0.000    0.000    0.000 
#
# Total GULP energy -156525.427518 kJ/mol
# GULP energy per Si atom -5590.193840 kJ/mol
# Density = 0.993624 g / cm^3
# Si number density = 9.958909 Si / 1000 Ang^3
#
#
#
# Elastic Constant Matrix: (Units=GPa)
#
#
# Indices 1 2 3 4 5 6 
#
# 1 112.7066 31.3712 17.8203 0.0000 25.9667 0.0000
# 2 31.3712 107.7659 -12.3813 0.0000 25.4053 0.0000
# 3 17.8203 -12.3813 93.2126 0.0000 34.7100 0.0000
# 4 0.0000 0.0000 0.0000 44.6025 0.0000 12.3278
# 5 25.9667 25.4053 34.7100 0.0000 41.7299 0.0000
# 6 0.0000 0.0000 0.0000 12.3278 0.0000 53.3924
#
#
#
# Elastic Compliance Matrix: (Units=1/GPa)
#
#
# Indices 1 2 3 4 5 6 
#
# 1 0.010654 -0.001935 -0.000382 0.000000 -0.005134 0.000000
# 2 -0.001935 0.013713 0.007029 0.000000 -0.012990 0.000000
# 3 -0.000382 0.007029 0.019181 0.000000 -0.019995 0.000000
# 4 0.000000 0.000000 0.000000 0.023949 0.000000 -0.005530
# 5 -0.005134 -0.012990 -0.019995 0.000000 0.051698 0.000000
# 6 0.000000 0.000000 0.000000 -0.005530 0.000000 0.020006
#
#
# Mechanical properties :
#
#
# Convention : Reuss Voigt Hill
#
# Bulk Modulus (GPa) = 18.87862 43.03393 30.95627
# Shear Modulus (GPa) = 33.91326 46.40329 40.15828
#
# Velocity S-wave (km/s) = 4.13081 4.83197 4.49508
# Velocity P-wave (km/s) = 5.67893 7.26521 6.52049
#
# Compressibility (1/GPa) = 0.05296998
#
# Stress axis : x y z
#
# Youngs Moduli (GPa) = 93.85748 72.92493 52.13605
#
# Poissons Ratio (x) = 0.14113 0.01994
# Poissons Ratio (y) = 0.18164 -0.36645
# Poissons Ratio (z) = 0.03589 -0.51257
#
# Static dielectric constant tensor:
#      x y z
#    x 1.581390 0.000000 -0.100290 
#    y 0.000000 1.655340 0.000000 
#    z -0.100290 0.000000 1.800390 
# 
# From -- ./inp_files/363212.got.cif
#   From: 2010.05.17/outbox.ucp.g08.bks.cvg/sg12_182_cif.got.tgz:363212.got - 2010.06.11 11:47:21.
