data_PCOD9225939
_publ_section_title
;
Structure prediction by ZEFSAII (Michael W. Deem and Ramdas Pophale) SiO2 
 PCOD9225939
Probable space group: C 2/M
;
_chemical_formula_sum "Si O2"
_cell_formula_units_Z 28
_cell_length_a 18.000000
_cell_length_b 21.000000
_cell_length_c 21.000000
_cell_angle_alpha 90.000000
_cell_angle_beta 20.000000
_cell_angle_gamma 90.000000
_cell_volume 2714.955898
_symmetry_space_group_name_H-M "C 2/M"
_symmetry_group_IT_number 12
_symmetry_cell_setting 'monoclinic'
loop_
_space_group_symop_operation_xyz
x,y,z
-x,y,-z
-x,-y,-z
x,-y,z
1/2+x,1/2+y,z
1/2-x,1/2+y,-z
1/2-x,1/2-y,-z
1/2+x,1/2-y,z
loop_
_atom_site_type_symbol
_atom_site_label
_atom_site_fract_x
_atom_site_fract_y
_atom_site_fract_z
Si Si1 0.574085 0.327762 0.313158
Si Si2 0.616566 0.344546 0.799943
Si Si3 0.138394 0.723612 0.026942
Si Si4 0.121804 0.612413 0.711980
Si Si5 0.015857 0.323686 0.390375
Si Si6 0.309102 0.925160 0.851984
Si Si7 0.767698 0.069251 0.722637
O O1 0.694093 0.317490 0.149504
O O2 0.355504 0.371694 0.490732
O O3 0.529704 0.253566 0.369312
O O4 0.732411 0.368757 0.232307
O O5 0.793854 0.342555 0.713133
O O6 0.773917 0.338807 0.611677
O O7 0.464593 0.282148 0.928394
O O8 0.443080 0.402218 0.939348
O O9 0.250000 0.750000 0.000000
O O10 0.946004 0.681158 0.208013
O O11 0.120223 0.573409 0.779104
O O12 0.943843 0.583225 0.808659
O O13 0.071516 0.371655 0.287968
O O14 0.320338 0.000000 0.822773
O O15 0.000000 0.071394 0.500000
O O16 0.745267 0.000000 0.773156
#
# Coordination Sequence:
#
# PCOD9225939 Si02
#       7
#     8   8   8   8   8   8   8
#     4  11  23  39  71 100 134 177 226 276 336 409
#     4  11  24  42  67  97 133 167 225 282 344 402
#     4  12  23  39  66 102 132 168 218 289 341 394
#     4  11  23  40  67  98 135 176 223 276 339 410
#     4  11  24  42  69 100 127 174 227 285 340 402
#     4  12  27  45  66  95 136 182 225 280 345 411
#     4   9  20  40  64  96 138 180 220 271 335 413
#
# _framework density 10.313243
#
# number of rings (size 3 to 8) (size 9 to 14) (size 15 to 20)
#    0.000    1.000    4.286    1.714    6.000    5.143 
#    0.000    3.571    0.000    0.000    0.000    0.000 
#    0.000    0.000    0.000    0.000    0.000    0.000 
#
# Total GULP energy -156140.599079 kJ/mol
# GULP energy per Si atom -5576.449967 kJ/mol
# Density = 1.028977 g / cm^3
# Si number density = 10.313243 Si / 1000 Ang^3
#
#
#
# Elastic Constant Matrix: (Units=GPa)
#
#
# Indices 1 2 3 4 5 6 
#
# 1 73.4172 25.7402 14.5245 -0.2349 2.9843 0.0818
# 2 25.7402 131.3143 12.5996 -0.2154 4.9987 0.0889
# 3 14.5245 12.5996 88.8393 -0.6360 7.0901 0.2351
# 4 -0.2349 -0.2154 -0.6360 -24.3331 0.1840 18.7197
# 5 2.9843 4.9987 7.0901 0.1840 29.2764 -0.0678
# 6 0.0818 0.0889 0.2351 18.7197 -0.0678 20.7333
#
#
#
# Elastic Compliance Matrix: (Units=1/GPa)
#
#
# Indices 1 2 3 4 5 6 
#
# 1 0.014999 -0.002724 -0.002020 -0.000055 -0.000574 0.000023
# 2 -0.002724 0.008248 -0.000647 -0.000031 -0.000974 0.000008
# 3 -0.002020 -0.000647 0.011881 -0.000240 -0.002559 0.000084
# 4 -0.000055 -0.000031 -0.000240 -0.024244 0.000272 0.021894
# 5 -0.000574 -0.000974 -0.002559 0.000272 0.035000 -0.000096
# 6 0.000023 0.000008 0.000084 0.021894 -0.000096 0.028463
#
#
# Mechanical properties :
#
#
# Convention : Reuss Voigt Hill
#
# Bulk Modulus (GPa) = 41.07740 44.36659 42.72200
# Shear Modulus (GPa) = 53.62233 21.18244 37.40239
#
# Velocity S-wave (km/s) = 5.10424 3.20809 4.26293
# Velocity P-wave (km/s) = 7.39566 5.93958 6.70725
#
# Compressibility (1/GPa) = 0.02434428
#
# Stress axis : x y z
#
# Youngs Moduli (GPa) = 66.67191 121.23489 84.17048
#
# Poissons Ratio (x) = 0.33030 0.17006
# Poissons Ratio (y) = 0.18164 0.05445
# Poissons Ratio (z) = 0.13471 0.07843
#
# Static dielectric constant tensor:
#      x y z
#    x 1.811220 -0.000070 -0.008140 
#    y -0.000070 1.716060 0.000070 
#    z -0.008140 0.000070 1.761130 
# 
# From -- ./inp_files/317999.got.cif
#   From: 2010.05.17/outbox.ucp.g08.bks.cvg/sg12_159_cif.got.tgz:317999.got - 2010.06.11 11:47:21.
