data_PCOD9225139
_publ_section_title
;
Structure prediction by ZEFSAII (Michael W. Deem and Ramdas Pophale) SiO2 
 PCOD9225139
Probable space group: C 2/M
;
_chemical_formula_sum "Si O2"
_cell_formula_units_Z 28
_cell_length_a 27.000000
_cell_length_b 9.000000
_cell_length_c 18.000000
_cell_angle_alpha 90.000000
_cell_angle_beta 40.000000
_cell_angle_gamma 90.000000
_cell_volume 2811.553005
_symmetry_space_group_name_H-M "C 2/M"
_symmetry_group_IT_number 12
_symmetry_cell_setting 'monoclinic'
loop_
_space_group_symop_operation_xyz
x,y,z
-x,y,-z
-x,-y,-z
x,-y,z
1/2+x,1/2+y,z
1/2-x,1/2+y,-z
1/2-x,1/2-y,-z
1/2+x,1/2-y,z
loop_
_atom_site_type_symbol
_atom_site_label
_atom_site_fract_x
_atom_site_fract_y
_atom_site_fract_z
Si Si1 0.869817 0.676121 0.969751
Si Si2 0.522551 0.178123 0.706601
Si Si3 0.540580 0.819902 0.378668
Si Si4 0.317717 0.324165 0.469866
Si Si5 0.214632 0.324776 0.179011
Si Si6 0.086755 0.175024 0.927518
Si Si7 0.249172 0.172568 0.686877
O O1 0.862284 0.500000 0.970478
O O2 0.941582 0.724853 0.836497
O O3 0.785771 0.747845 0.055640
O O4 0.895506 0.722342 0.022918
O O5 0.512380 0.209483 0.631084
O O6 0.598740 0.259206 0.647231
O O7 0.530786 0.000000 0.707651
O O8 0.500000 0.764274 0.500000
O O9 0.628166 0.767244 0.264671
O O10 0.547197 0.000000 0.377932
O O11 0.317079 0.500000 0.461289
O O12 0.250000 0.250000 0.500000
O O13 0.297049 0.276917 0.577953
O O14 0.217121 0.500000 0.158426
O O15 0.229051 0.309852 0.251422
O O16 0.156748 0.199581 0.789167
O O17 0.093708 0.000000 0.941356
O O18 0.000000 0.199589 0.000000
O O19 0.264376 0.000000 0.649177
#
# Coordination Sequence:
#
# PCOD9225139 Si02
#       7
#     8   8   8   8   8   8   8
#     4  10  21  35  53  82 120 155 186 237 295 341
#     4  10  22  40  59  85 119 152 194 242 288 341
#     4   9  17  33  61  89 113 150 199 243 281 332
#     4  12  26  41  59  82 112 151 192 236 291 348
#     4   9  18  35  61  88 114 153 197 234 278 339
#     4   9  19  35  57  82 107 144 192 238 279 336
#     4   9  18  35  57  83 113 144 186 237 282 333
#
# _framework density 9.9589090000000002
#
# number of rings (size 3 to 8) (size 9 to 14) (size 15 to 20)
#    0.000    2.286    0.000    3.429    2.000    6.571 
#    0.000    0.714    0.000    1.714    0.000    0.000 
#    0.000    0.000    0.000    0.000    0.000    0.000 
#
# Total GULP energy -156311.603946 kJ/mol
# GULP energy per Si atom -5582.557284 kJ/mol
# Density = 0.993624 g / cm^3
# Si number density = 9.958909 Si / 1000 Ang^3
#
#
#
# Elastic Constant Matrix: (Units=GPa)
#
#
# Indices 1 2 3 4 5 6 
#
# 1 66.4827 32.2859 40.6767 -0.0005 -34.4722 0.0005
# 2 32.2859 54.3318 47.7454 -0.0008 -11.7439 0.0015
# 3 40.6767 47.7454 119.2558 0.0001 -24.8758 0.0005
# 4 -0.0005 -0.0008 0.0001 34.4350 -0.0003 -7.1020
# 5 -34.4722 -11.7439 -24.8758 -0.0003 36.8051 -0.0002
# 6 0.0005 0.0015 0.0005 -7.1020 -0.0002 11.9824
#
#
#
# Elastic Compliance Matrix: (Units=1/GPa)
#
#
# Indices 1 2 3 4 5 6 
#
# 1 0.039631 -0.016403 -0.000349 0.000001 0.031650 0.000001
# 2 -0.016403 0.035266 -0.010921 0.000000 -0.011492 -0.000004
# 3 -0.000349 -0.010921 0.014065 0.000000 0.005694 0.000001
# 4 0.000001 0.000000 0.000000 0.033085 0.000001 0.019609
# 5 0.031650 -0.011492 0.005694 0.000001 0.056995 0.000001
# 6 0.000001 -0.000004 0.000001 0.019609 0.000001 0.095078
#
#
# Mechanical properties :
#
#
# Convention : Reuss Voigt Hill
#
# Bulk Modulus (GPa) = 29.74780 53.49849 41.62314
# Shear Modulus (GPa) = 14.67689 24.60198 19.63943
#
# Velocity S-wave (km/s) = 2.71748 3.51832 3.14351
# Velocity P-wave (km/s) = 4.98136 6.58959 5.84109
#
# Compressibility (1/GPa) = 0.03361593
#
# Stress axis : x y z
#
# Youngs Moduli (GPa) = 25.23261 28.35594 71.09998
#
# Poissons Ratio (x) = 0.46511 0.02481
# Poissons Ratio (y) = 0.41388 0.77652
# Poissons Ratio (z) = 0.00880 0.30969
#
# Static dielectric constant tensor:
#      x y z
#    x 1.721060 0.000000 0.002890 
#    y 0.000000 1.669300 0.000000 
#    z 0.002890 0.000000 1.722470 
# 
# From -- ./inp_files/292396.got.cif
#   From: 2010.05.17/outbox.ucp.g08.bks.cvg/sg12_147_cif.got.tgz:292396.got - 2010.06.11 11:47:21.
