data_PCOD9225747
_publ_section_title
;
Structure prediction by ZEFSAII (Michael W. Deem and Ramdas Pophale) SiO2 
 PCOD9225747
Probable space group: C 2/M
;
_chemical_formula_sum "Si O2"
_cell_formula_units_Z 28
_cell_length_a 27.000000
_cell_length_b 18.000000
_cell_length_c 6.000000
_cell_angle_alpha 90.000000
_cell_angle_beta 110.000000
_cell_angle_gamma 90.000000
_cell_volume 2740.143682
_symmetry_space_group_name_H-M "C 2/M"
_symmetry_group_IT_number 12
_symmetry_cell_setting 'monoclinic'
loop_
_space_group_symop_operation_xyz
x,y,z
-x,y,-z
-x,-y,-z
x,-y,z
1/2+x,1/2+y,z
1/2-x,1/2+y,-z
1/2-x,1/2-y,-z
1/2+x,1/2-y,z
loop_
_atom_site_type_symbol
_atom_site_label
_atom_site_fract_x
_atom_site_fract_y
_atom_site_fract_z
Si Si1 0.556949 0.419787 0.976462
Si Si2 0.415687 0.675634 0.351920
Si Si3 0.359451 0.792449 0.973471
Si Si4 0.058128 0.235441 0.172980
Si Si5 0.182933 0.913429 0.602181
Si Si6 0.729522 0.685981 0.304111
Si Si7 0.789450 0.587069 0.063151
O O1 0.583119 0.500000 0.043788
O O2 0.580053 0.344279 0.112389
O O3 0.500000 0.424301 0.000000
O O4 0.556234 0.394034 0.721950
O O5 0.451438 0.710448 0.593791
O O6 0.361983 0.637840 0.359744
O O7 0.400585 0.750209 0.194298
O O8 0.393427 0.791005 0.796630
O O9 0.310479 0.735027 0.902201
O O10 0.337050 0.871959 0.008114
O O11 0.000000 0.256549 0.000000
O O12 0.198278 0.877361 0.390308
O O13 0.167090 0.000000 0.565004
O O14 0.236475 0.910434 0.830798
O O15 0.750000 0.750000 0.500000
O O16 0.774936 0.641802 0.245105
O O17 0.798947 0.500000 0.132815
#
# Coordination Sequence:
#
# PCOD9225747 Si02
#       7
#     8   8   8   8   8   8   8
#     4   9  20  36  53  77 111 151 200 251 301 355
#     4  11  21  38  59  82 116 161 202 257 303 356
#     4  11  22  38  62  88 116 161 203 247 306 360
#     4  10  23  40  59  85 113 153 211 262 306 355
#     4  11  22  35  56  87 124 164 200 244 296 354
#     4  12  21  37  60  88 125 161 204 243 291 363
#     4  11  24  40  59  92 129 159 197 246 304 369
#
# _framework density 10.218442
#
# number of rings (size 3 to 8) (size 9 to 14) (size 15 to 20)
#    0.000    1.286    4.286    2.143    0.000    6.286 
#    0.000    3.571    0.000    0.429    0.000    1.000 
#    0.000    0.000    0.000    0.000    0.000    0.000 
#
# Total GULP energy -155902.107498 kJ/mol
# GULP energy per Si atom -5567.932411 kJ/mol
# Density = 1.019518 g / cm^3
# Si number density = 10.218442 Si / 1000 Ang^3
#
#
#
# Elastic Constant Matrix: (Units=GPa)
#
#
# Indices 1 2 3 4 5 6 
#
# 1 96.4535 38.5712 17.4097 0.0000 -15.4383 0.0000
# 2 38.5712 103.0632 24.8876 0.0000 -5.0946 0.0000
# 3 17.4097 24.8876 35.2226 0.0000 2.9355 0.0000
# 4 0.0000 0.0000 0.0000 61.4006 0.0000 -81.8412
# 5 -15.4383 -5.0946 2.9355 0.0000 24.2198 0.0000
# 6 0.0000 0.0000 0.0000 -81.8412 0.0000 160.9326
#
#
#
# Elastic Compliance Matrix: (Units=1/GPa)
#
#
# Indices 1 2 3 4 5 6 
#
# 1 0.014175 -0.003609 -0.005198 0.000000 0.008906 0.000000
# 2 -0.003609 0.012919 -0.007454 0.000000 0.001320 0.000000
# 3 -0.005198 -0.007454 0.037008 0.000000 -0.009367 0.000000
# 4 0.000000 0.000000 0.000000 0.050554 0.000000 0.025709
# 5 0.008906 0.001320 -0.009367 0.000000 0.048379 0.000000
# 6 0.000000 0.000000 0.000000 0.025709 0.000000 0.019288
#
#
# Mechanical properties :
#
#
# Convention : Reuss Voigt Hill
#
# Bulk Modulus (GPa) = 31.66766 44.05292 37.86029
# Shear Modulus (GPa) = 22.18554 59.56865 40.87710
#
# Velocity S-wave (km/s) = 3.29836 5.40471 4.47717
# Velocity P-wave (km/s) = 5.48038 7.78140 6.72996
#
# Compressibility (1/GPa) = 0.03157795
#
# Stress axis : x y z
#
# Youngs Moduli (GPa) = 70.54736 77.40598 27.02122
#
# Poissons Ratio (x) = 0.27939 0.14046
# Poissons Ratio (y) = 0.25463 0.20142
# Poissons Ratio (z) = 0.36672 0.57700
#
# Static dielectric constant tensor:
#      x y z
#    x 1.774460 0.000000 -0.133090 
#    y 0.000000 1.685860 0.000000 
#    z -0.133090 0.000000 2.131050 
# 
# From -- ./inp_files/28828.got.cif
#   From: 2010.05.17/outbox.ucp.g08.bks.cvg/sg12_15_cif.got.tgz:28828.got - 2010.06.11 11:47:21.
