data_PCOD9225080
_publ_section_title
;
Structure prediction by ZEFSAII (Michael W. Deem and Ramdas Pophale) SiO2 
 PCOD9225080
Probable space group: C 2/M
;
_chemical_formula_sum "Si O2"
_cell_formula_units_Z 24
_cell_length_a 18.000000
_cell_length_b 9.000000
_cell_length_c 15.000000
_cell_angle_alpha 90.000000
_cell_angle_beta 90.000000
_cell_angle_gamma 90.000000
_cell_volume 2430.000000
_symmetry_space_group_name_H-M "C 2/M"
_symmetry_group_IT_number 12
_symmetry_cell_setting 'monoclinic'
loop_
_space_group_symop_operation_xyz
x,y,z
-x,y,-z
-x,-y,-z
x,-y,z
1/2+x,1/2+y,z
1/2-x,1/2+y,-z
1/2-x,1/2-y,-z
1/2+x,1/2-y,z
loop_
_atom_site_type_symbol
_atom_site_label
_atom_site_fract_x
_atom_site_fract_y
_atom_site_fract_z
Si Si1 0.447290 0.329318 0.924572
Si Si2 0.076190 0.169788 0.446665
Si Si3 0.808476 0.676553 0.432489
Si Si4 0.637260 0.319100 0.745572
Si Si5 0.972564 0.680256 0.736685
Si Si6 0.809360 0.164559 0.056721
O O1 0.473998 0.500000 0.903316
O O2 0.441945 0.239844 0.832412
O O3 0.500000 0.257853 0.000000
O O4 0.374837 0.343851 0.984569
O O5 0.118274 0.282177 0.512176
O O6 0.066847 0.242350 0.348705
O O7 0.000000 0.151929 0.500000
O O8 0.108214 0.000000 0.439457
O O9 0.799116 0.500000 0.421750
O O10 0.750000 0.750000 0.500000
O O11 0.812853 0.756859 0.335916
O O12 0.630745 0.500000 0.739464
O O13 0.557203 0.241282 0.734253
O O14 0.665641 0.279190 0.845529
O O15 0.969593 0.500000 0.731598
O O16 0.780407 0.000000 0.075889
O O17 0.750000 0.250000 0.000000
#
# Coordination Sequence:
#
# PCOD9225080 Si02
#       6
#     8   8   8   8   8   8
#     4  10  20  40  64  88 122 167 214 257 308 376
#     4  11  23  41  67  94 125 168 214 262 316 378
#     4  12  26  44  67  97 132 170 213 265 321 384
#     4  11  22  42  66  91 125 171 215 259 319 386
#     4  12  24  37  62  99 131 164 210 270 323 377
#     4  10  23  41  65  92 125 167 208 258 315 375
#
# _framework density 9.8765429999999999
#
# number of rings (size 3 to 8) (size 9 to 14) (size 15 to 20)
#    0.000    1.000    3.333    4.000    0.000    4.333 
#    0.000    3.333    0.000    0.000    0.000    0.000 
#    0.000    0.000    0.000    0.000    0.000    0.000 
#
# Total GULP energy -133788.602316 kJ/mol
# GULP energy per Si atom -5574.525097 kJ/mol
# Density = 0.985406 g / cm^3
# Si number density = 9.876543 Si / 1000 Ang^3
#
#
#
# Elastic Constant Matrix: (Units=GPa)
#
#
# Indices 1 2 3 4 5 6 
#
# 1 44.8387 15.4828 16.0344 0.0000 -6.8150 0.0000
# 2 15.4828 123.4837 55.3874 0.0000 -3.6021 0.0000
# 3 16.0344 55.3874 175.2318 0.0000 -14.5971 0.0000
# 4 0.0000 0.0000 0.0000 33.8970 0.0000 -5.4571
# 5 -6.8150 -3.6021 -14.5971 0.0000 30.4684 0.0000
# 6 0.0000 0.0000 0.0000 -5.4571 0.0000 18.5783
#
#
#
# Elastic Compliance Matrix: (Units=1/GPa)
#
#
# Indices 1 2 3 4 5 6 
#
# 1 0.024223 -0.002425 -0.001065 0.000000 0.004621 0.000000
# 2 -0.002425 0.009682 -0.002904 0.000000 -0.000789 0.000000
# 3 -0.001065 -0.002904 0.006951 0.000000 0.002749 0.000000
# 4 0.000000 0.000000 0.000000 0.030965 0.000000 0.009096
# 5 0.004621 -0.000789 0.002749 0.000000 0.035078 0.000000
# 6 0.000000 0.000000 0.000000 0.009096 0.000000 0.056498
#
#
# Mechanical properties :
#
#
# Convention : Reuss Voigt Hill
#
# Bulk Modulus (GPa) = 35.62792 57.48483 46.55637
# Shear Modulus (GPa) = 26.94830 33.69872 30.32351
#
# Velocity S-wave (km/s) = 3.69759 4.13485 3.92232
# Velocity P-wave (km/s) = 6.02539 7.20839 6.64328
#
# Compressibility (1/GPa) = 0.02806788
#
# Stress axis : x y z
#
# Youngs Moduli (GPa) = 41.28375 103.28633 143.86226
#
# Poissons Ratio (x) = 0.25042 0.15324
# Poissons Ratio (y) = 0.10009 0.41779
# Poissons Ratio (z) = 0.04397 0.29996
#
# Static dielectric constant tensor:
#      x y z
#    x 1.622590 0.000000 0.039560 
#    y 0.000000 1.735070 0.000000 
#    z 0.039560 0.000000 1.667830 
# 
# From -- ./inp_files/221678.got.cif
#   From: 2010.05.17/outbox.ucp.g08.bks.cvg/sg12_111_cif.got.tgz:221678.got - 2010.06.11 11:47:21.
