data_PCOD9225064
_publ_section_title
;
Structure prediction by ZEFSAII (Michael W. Deem and Ramdas Pophale) SiO2 
 PCOD9225064
Probable space group: C 2/M
;
_chemical_formula_sum "Si O2"
_cell_formula_units_Z 24
_cell_length_a 9.000000
_cell_length_b 21.000000
_cell_length_c 27.000000
_cell_angle_alpha 90.000000
_cell_angle_beta 30.000000
_cell_angle_gamma 90.000000
_cell_volume 2551.500000
_symmetry_space_group_name_H-M "C 2/M"
_symmetry_group_IT_number 12
_symmetry_cell_setting 'monoclinic'
loop_
_space_group_symop_operation_xyz
x,y,z
-x,y,-z
-x,-y,-z
x,-y,z
1/2+x,1/2+y,z
1/2-x,1/2+y,-z
1/2-x,1/2-y,-z
1/2+x,1/2-y,z
loop_
_atom_site_type_symbol
_atom_site_label
_atom_site_fract_x
_atom_site_fract_y
_atom_site_fract_z
Si Si1 0.335603 0.306412 0.707114
Si Si2 0.767547 0.073139 0.384903
Si Si3 0.309266 0.194491 0.940173
Si Si4 0.595961 0.925682 0.915108
Si Si5 0.304341 0.073226 0.707749
Si Si6 0.230630 0.684387 0.618206
O O1 0.479795 0.374069 0.681091
O O2 0.292864 0.309738 0.659550
O O3 0.566269 0.249542 0.650522
O O4 0.055336 0.292398 0.825244
O O5 0.500000 0.084765 0.500000
O O6 0.632618 0.077534 0.368967
O O7 0.876576 0.000000 0.359814
O O8 0.425100 0.129683 0.934058
O O9 0.250000 0.250000 0.000000
O O10 0.000000 0.185389 0.000000
O O11 0.950889 0.913762 0.812608
O O12 0.548654 0.000000 0.911658
O O13 0.500000 0.922486 0.000000
O O14 0.506104 0.124826 0.676513
O O15 0.355419 0.000000 0.709573
O O16 0.500000 0.675957 0.500000
#
# Coordination Sequence:
#
# PCOD9225064 Si02
#       6
#     8   8   8   8   8   8
#     4  12  25  42  65  93 132 171 214 268 330 381
#     4  10  20  39  68  97 128 169 214 262 320 387
#     4  12  27  43  67  98 130 170 219 275 323 384
#     4  10  23  44  70  95 128 170 213 265 328 391
#     4  10  22  42  66  94 130 171 212 263 325 388
#     4  12  26  42  65  95 131 172 217 267 319 389
#
# _framework density 9.4062319999999993
#
# number of rings (size 3 to 8) (size 9 to 14) (size 15 to 20)
#    0.000    1.000    1.667    4.500    7.000    1.333 
#    0.000    0.000    0.000    0.000    0.000    0.000 
#    0.000    0.000    0.000    0.000    0.000    0.000 
#
# Total GULP energy -133978.304094 kJ/mol
# GULP energy per Si atom -5582.429337 kJ/mol
# Density = 0.938482 g / cm^3
# Si number density = 9.406232 Si / 1000 Ang^3
#
#
#
# Elastic Constant Matrix: (Units=GPa)
#
#
# Indices 1 2 3 4 5 6 
#
# 1 120.5364 73.4886 32.6383 0.0278 5.4691 -0.0314
# 2 73.4886 152.4928 44.7037 -0.1272 -18.1698 -0.0313
# 3 32.6383 44.7037 105.5563 0.0417 11.2981 -0.0863
# 4 0.0278 -0.1272 0.0417 38.2832 -0.0406 -7.8379
# 5 5.4691 -18.1698 11.2981 -0.0406 36.1608 0.0272
# 6 -0.0314 -0.0313 -0.0863 -7.8379 0.0272 41.8890
#
#
#
# Elastic Compliance Matrix: (Units=1/GPa)
#
#
# Indices 1 2 3 4 5 6 
#
# 1 0.012664 -0.006516 -0.000621 -0.000035 -0.004995 0.000000
# 2 -0.006516 0.011793 -0.003848 0.000057 0.008113 0.000001
# 3 -0.000621 -0.003848 0.011890 -0.000027 -0.005554 0.000020
# 4 -0.000035 0.000057 -0.000027 0.027162 0.000069 0.005082
# 5 -0.004995 0.008113 -0.005554 0.000069 0.034222 -0.000018
# 6 0.000000 0.000001 0.000020 0.005082 -0.000018 0.024824
#
#
# Mechanical properties :
#
#
# Convention : Reuss Voigt Hill
#
# Bulk Modulus (GPa) = 69.56171 75.58298 72.57234
# Shear Modulus (GPa) = 33.48596 38.45027 35.96812
#
# Velocity S-wave (km/s) = 4.22357 4.52583 4.37731
# Velocity P-wave (km/s) = 7.80009 8.22041 8.01300
#
# Compressibility (1/GPa) = 0.01437572
#
# Stress axis : x y z
#
# Youngs Moduli (GPa) = 78.96514 84.79905 84.10476
#
# Poissons Ratio (x) = 0.55254 0.05227
# Poissons Ratio (y) = 0.51453 0.32363
# Poissons Ratio (z) = 0.04908 0.32630
#
# Static dielectric constant tensor:
#      x y z
#    x 1.640940 0.000050 0.020300 
#    y 0.000050 1.657080 -0.000020 
#    z 0.020300 -0.000020 1.694530 
# 
# From -- ./inp_files/356891.got.cif
#   From: 2010.05.17/outbox.ucp.g08.bks.cvg/sg12_179_cif.got.tgz:356891.got - 2010.06.11 11:47:21.
