data_PCOD9225801
_publ_section_title
;
Structure prediction by ZEFSAII (Michael W. Deem and Ramdas Pophale) SiO2 
 PCOD9225801
Probable space group: C 2/M
;
_chemical_formula_sum "Si O2"
_cell_formula_units_Z 32
_cell_length_a 15.000000
_cell_length_b 24.000000
_cell_length_c 18.000000
_cell_angle_alpha 90.000000
_cell_angle_beta 150.000000
_cell_angle_gamma 90.000000
_cell_volume 3240.000000
_symmetry_space_group_name_H-M "C 2/M"
_symmetry_group_IT_number 12
_symmetry_cell_setting 'monoclinic'
loop_
_space_group_symop_operation_xyz
x,y,z
-x,y,-z
-x,-y,-z
x,-y,z
1/2+x,1/2+y,z
1/2-x,1/2+y,-z
1/2-x,1/2-y,-z
1/2+x,1/2-y,z
loop_
_atom_site_type_symbol
_atom_site_label
_atom_site_fract_x
_atom_site_fract_y
_atom_site_fract_z
Si Si1 0.708613 0.810430 0.932928
Si Si2 0.402323 0.332219 0.797635
Si Si3 0.286341 0.124071 0.829584
Si Si4 0.597857 0.567515 0.397718
Si Si5 0.773040 0.256562 0.212901
Si Si6 0.819737 0.362904 0.682075
Si Si7 0.289415 0.064653 0.370720
Si Si8 0.680235 0.244922 0.534254
O O1 0.700033 0.793023 0.841128
O O2 0.531957 0.845561 0.827656
O O3 0.750000 0.750000 0.000000
O O4 0.894205 0.842250 0.077848
O O5 0.374232 0.285767 0.841359
O O6 0.313218 0.390453 0.753281
O O7 0.290062 0.305086 0.649697
O O8 0.267336 0.191166 0.830845
O O9 0.275663 0.115220 0.732711
O O10 0.107325 0.094309 0.738767
O O11 0.500000 0.109593 0.000000
O O12 0.584333 0.500000 0.399693
O O13 0.728514 0.597808 0.553065
O O14 0.702997 0.574056 0.392762
O O15 0.969402 0.261578 0.390108
O O16 0.729733 0.302588 0.608957
O O17 0.500000 0.072868 0.500000
O O18 0.252483 0.000000 0.328019
O O19 0.750000 0.250000 0.500000
#
# Coordination Sequence:
#
# PCOD9225801 Si02
#       8
#     8   8   8   8   8   8   8   8
#     4  12  24  40  61  98 145 184 219 274 352 413
#     4  12  24  38  65  99 138 175 224 281 343 412
#     4  12  26  42  69 102 144 185 225 283 349 415
#     4  11  27  49  73 100 134 182 239 291 338 400
#     4  12  23  39  61  99 143 180 223 281 344 418
#     4  12  24  42  65  97 137 185 229 277 340 409
#     4  10  24  47  75 102 131 176 235 292 342 399
#     4  12  21  36  60  94 129 177 226 275 338 403
#
# _framework density 9.8765429999999999
#
# number of rings (size 3 to 8) (size 9 to 14) (size 15 to 20)
#    0.000    0.375    5.000    4.125    5.250    1.250 
#    0.000    0.625    0.000    1.500    0.000    0.000 
#    0.000    0.000    0.000    0.000    0.000    0.000 
#
# Total GULP energy -178518.034626 kJ/mol
# GULP energy per Si atom -5578.688582 kJ/mol
# Density = 0.985406 g / cm^3
# Si number density = 9.876543 Si / 1000 Ang^3
#
#
#
# Elastic Constant Matrix: (Units=GPa)
#
#
# Indices 1 2 3 4 5 6 
#
# 1 108.6346 18.6675 25.9176 0.0000 22.7153 0.0000
# 2 18.6675 116.5650 33.8675 0.0000 15.0731 0.0000
# 3 25.9176 33.8675 117.6731 0.0000 36.0977 0.0001
# 4 0.0000 0.0000 0.0000 24.5618 0.0000 10.8000
# 5 22.7153 15.0731 36.0977 0.0000 42.8583 0.0000
# 6 0.0000 0.0000 0.0001 10.8000 0.0000 37.5683
#
#
#
# Elastic Compliance Matrix: (Units=1/GPa)
#
#
# Indices 1 2 3 4 5 6 
#
# 1 0.010493 -0.000893 -0.000599 0.000000 -0.004743 0.000000
# 2 -0.000893 0.009499 -0.002235 0.000000 -0.000985 0.000000
# 3 -0.000599 -0.002235 0.012048 0.000000 -0.009044 0.000000
# 4 0.000000 0.000000 0.000000 0.046605 0.000000 -0.013398
# 5 -0.004743 -0.000985 -0.009044 0.000000 0.033810 0.000000
# 6 0.000000 0.000000 0.000000 -0.013398 0.000000 0.030470
#
#
# Mechanical properties :
#
#
# Convention : Reuss Voigt Hill
#
# Bulk Modulus (GPa) = 40.67531 55.53087 48.10309
# Shear Modulus (GPa) = 31.53117 38.62569 35.07843
#
# Velocity S-wave (km/s) = 3.99966 4.42682 4.21865
# Velocity P-wave (km/s) = 6.47814 7.36902 6.93790
#
# Compressibility (1/GPa) = 0.02458494
#
# Stress axis : x y z
#
# Youngs Moduli (GPa) = 95.29890 105.27809 83.00439
#
# Poissons Ratio (x) = 0.09402 0.04974
# Poissons Ratio (y) = 0.08511 0.18551
# Poissons Ratio (z) = 0.05710 0.23530
#
# Static dielectric constant tensor:
#      x y z
#    x 1.759850 0.000000 -0.036760 
#    y 0.000000 1.686120 0.000000 
#    z -0.036760 0.000000 1.786490 
# 
# From -- ./inp_files/272884.got.cif
#   From: 2010.05.17/outbox.ucp.g08.bks.cvg/sg12_137_cif.got.tgz:272884.got - 2010.06.11 11:47:21.
