data_PCOD9225359
_publ_section_title
;
Structure prediction by ZEFSAII (Michael W. Deem and Ramdas Pophale) SiO2 
 PCOD9225359
Probable space group: C 2/M
;
_chemical_formula_sum "Si O2"
_cell_formula_units_Z 28
_cell_length_a 18.000000
_cell_length_b 9.000000
_cell_length_c 18.000000
_cell_angle_alpha 90.000000
_cell_angle_beta 110.000000
_cell_angle_gamma 90.000000
_cell_volume 2740.143682
_symmetry_space_group_name_H-M "C 2/M"
_symmetry_group_IT_number 12
_symmetry_cell_setting 'monoclinic'
loop_
_space_group_symop_operation_xyz
x,y,z
-x,y,-z
-x,-y,-z
x,-y,z
1/2+x,1/2+y,z
1/2-x,1/2+y,-z
1/2-x,1/2-y,-z
1/2+x,1/2-y,z
loop_
_atom_site_type_symbol
_atom_site_label
_atom_site_fract_x
_atom_site_fract_y
_atom_site_fract_z
Si Si1 0.853639 0.834826 0.715197
Si Si2 0.431949 0.665997 0.415969
Si Si3 0.790223 0.333852 0.445862
Si Si4 0.918496 0.670150 0.008724
Si Si5 0.789818 0.669272 0.835620
Si Si6 0.373689 0.322247 0.143711
Si Si7 0.002361 0.324258 0.706003
O O1 0.776281 0.846445 0.639139
O O2 0.825974 0.768446 0.783484
O O3 0.914483 0.731032 0.692697
O O4 0.888872 0.000000 0.736104
O O5 0.500000 0.654390 0.500000
O O6 0.411472 0.500000 0.381778
O O7 0.359788 0.740990 0.433220
O O8 0.464042 0.762885 0.359531
O O9 0.816826 0.500000 0.476699
O O10 0.750000 0.250000 0.500000
O O11 0.934152 0.500000 0.040322
O O12 0.883460 0.765115 0.063561
O O13 0.853328 0.664491 0.922755
O O14 0.000000 0.726664 0.000000
O O15 0.778088 0.500000 0.803544
O O16 0.707491 0.723019 0.842804
O O17 0.376915 0.500000 0.146370
O O18 0.444790 0.249095 0.212433
O O19 0.007285 0.500000 0.709939
#
# Coordination Sequence:
#
# PCOD9225359 Si02
#       7
#     8   8   8   8   8   8   8
#     4  11  24  41  62  90 122 156 199 249 300 357
#     4  11  24  42  64  91 124 160 201 251 301 353
#     4  11  24  41  63  92 124 161 203 248 301 359
#     4  10  21  38  60  87 120 158 202 250 299 355
#     4  10  22  39  60  89 123 160 200 244 299 358
#     4  11  23  39  61  89 122 160 203 249 298 355
#     4  12  25  41  63  89 120 159 202 249 302 359
#
# _framework density 10.218442
#
# number of rings (size 3 to 8) (size 9 to 14) (size 15 to 20)
#    0.000    1.143    0.000    6.000    0.000   12.286 
#    0.000    0.000    0.000    0.000    0.000    0.000 
#    0.000    0.000    0.000    0.000    0.000    0.000 
#
# Total GULP energy -156511.990587 kJ/mol
# GULP energy per Si atom -5589.713950 kJ/mol
# Density = 1.019518 g / cm^3
# Si number density = 10.218442 Si / 1000 Ang^3
#
#
#
# Elastic Constant Matrix: (Units=GPa)
#
#
# Indices 1 2 3 4 5 6 
#
# 1 124.9708 35.8897 17.4036 0.0000 -18.3017 0.0000
# 2 35.8897 40.7331 29.9637 0.0000 -24.1571 0.0000
# 3 17.4036 29.9637 68.9271 0.0000 -19.3946 0.0000
# 4 0.0000 0.0000 0.0000 60.1908 0.0000 -11.3743
# 5 -18.3017 -24.1571 -19.3946 0.0000 41.4235 0.0000
# 6 0.0000 0.0000 0.0000 -11.3743 0.0000 34.4792
#
#
#
# Elastic Compliance Matrix: (Units=1/GPa)
#
#
# Indices 1 2 3 4 5 6 
#
# 1 0.010946 -0.011803 0.002063 0.000000 -0.001081 0.000000
# 2 -0.011803 0.060732 -0.017187 0.000000 0.022155 0.000000
# 3 0.002063 -0.017187 0.021762 0.000000 0.001077 0.000000
# 4 0.000000 0.000000 0.000000 0.017718 0.000000 0.005845
# 5 -0.001081 0.022155 0.001077 0.000000 0.037088 0.000000
# 6 0.000000 0.000000 0.000000 0.005845 0.000000 0.030931
#
#
# Mechanical properties :
#
#
# Convention : Reuss Voigt Hill
#
# Bulk Modulus (GPa) = 25.26171 44.57167 34.91669
# Shear Modulus (GPa) = 20.30648 37.31031 28.80840
#
# Velocity S-wave (km/s) = 3.15559 4.27738 3.75857
# Velocity P-wave (km/s) = 5.06603 6.80084 5.99650
#
# Compressibility (1/GPa) = 0.03958560
#
# Stress axis : x y z
#
# Youngs Moduli (GPa) = 91.35815 16.46575 45.95220
#
# Poissons Ratio (x) = 0.19435 -0.09480
# Poissons Ratio (y) = 1.07832 0.78977
# Poissons Ratio (z) = -0.18847 0.28299
#
# Static dielectric constant tensor:
#      x y z
#    x 1.792660 0.000000 -0.104950 
#    y 0.000000 1.749750 0.000000 
#    z -0.104950 0.000000 1.881510 
# 
# From -- ./inp_files/275684.got.cif
#   From: 2010.05.17/outbox.ucp.g08.bks.cvg/sg12_138_cif.got.tgz:275684.got - 2010.06.11 11:47:21.
