data_PCOD9225795
_publ_section_title
;
Structure prediction by ZEFSAII (Michael W. Deem and Ramdas Pophale) SiO2 
 PCOD9225795
Probable space group: C 2/M
;
_chemical_formula_sum "Si O2"
_cell_formula_units_Z 28
_cell_length_a 9.000000
_cell_length_b 30.000000
_cell_length_c 21.000000
_cell_angle_alpha 90.000000
_cell_angle_beta 150.000000
_cell_angle_gamma 90.000000
_cell_volume 2835.000000
_symmetry_space_group_name_H-M "C 2/M"
_symmetry_group_IT_number 12
_symmetry_cell_setting 'monoclinic'
loop_
_space_group_symop_operation_xyz
x,y,z
-x,y,-z
-x,-y,-z
x,-y,z
1/2+x,1/2+y,z
1/2-x,1/2+y,-z
1/2-x,1/2-y,-z
1/2+x,1/2-y,z
loop_
_atom_site_type_symbol
_atom_site_label
_atom_site_fract_x
_atom_site_fract_y
_atom_site_fract_z
Si Si1 0.268887 0.371302 0.548057
Si Si2 0.820078 0.448707 0.585675
Si Si3 0.100950 0.053286 0.111883
Si Si4 0.873680 0.312610 0.323073
Si Si5 0.212848 0.131436 0.939303
Si Si6 0.504099 0.752768 0.752033
Si Si7 0.132878 0.682031 0.182387
O O1 0.231559 0.418667 0.497043
O O2 0.585900 0.350979 0.692837
O O3 0.000000 0.370074 0.500000
O O4 0.158924 0.338956 0.451518
O O5 0.500000 0.447481 0.500000
O O6 0.890381 0.500000 0.593731
O O7 0.071735 0.435986 0.733536
O O8 0.886983 0.082312 0.077099
O O9 0.067885 0.000000 0.105019
O O10 0.000000 0.063690 0.000000
O O11 0.580888 0.342738 0.196915
O O12 0.779750 0.278865 0.344257
O O13 0.966910 0.283969 0.297470
O O14 0.500000 0.130056 0.000000
O O15 0.348886 0.155445 0.051746
O O16 0.761226 0.715859 0.834758
O O17 0.481176 0.785688 0.803600
#
# Coordination Sequence:
#
# PCOD9225795 Si02
#       7
#     8   8   8   8   8   8   8
#     4  12  24  42  64  97 132 172 219 273 320 389
#     4  10  24  46  72 100 131 167 212 266 329 401
#     4  10  24  46  72 100 131 167 212 266 329 401
#     4  11  24  42  63  90 128 169 223 277 321 383
#     4  12  24  42  64  97 132 172 219 273 320 389
#     4  10  24  44  62  90 128 178 222 276 326 380
#     4  11  26  40  65  94 132 175 227 269 327 379
#
# _framework density 9.8765429999999999
#
# number of rings (size 3 to 8) (size 9 to 14) (size 15 to 20)
#    0.000    1.143    4.286    0.000    6.000    7.429 
#    0.000    0.000    0.000    0.000    0.000    0.000 
#    0.000    0.000    0.000    0.000    0.000    0.000 
#
# Total GULP energy -155914.529024 kJ/mol
# GULP energy per Si atom -5568.376037 kJ/mol
# Density = 0.985406 g / cm^3
# Si number density = 9.876543 Si / 1000 Ang^3
#
#
#
# Elastic Constant Matrix: (Units=GPa)
#
#
# Indices 1 2 3 4 5 6 
#
# 1 80.1466 34.2718 2.8557 -0.0002 -0.6400 -0.0007
# 2 34.2718 71.7104 22.8935 -0.0022 -4.0303 -0.0006
# 3 2.8557 22.8935 117.0734 -0.0050 -4.7672 0.0024
# 4 -0.0002 -0.0022 -0.0050 104.2811 0.0034 -6.4451
# 5 -0.6400 -4.0303 -4.7672 0.0034 16.9224 -0.0007
# 6 -0.0007 -0.0006 0.0024 -6.4451 -0.0007 40.5944
#
#
#
# Elastic Compliance Matrix: (Units=1/GPa)
#
#
# Indices 1 2 3 4 5 6 
#
# 1 0.015846 -0.007991 0.001136 0.000000 -0.000984 0.000000
# 2 -0.007991 0.019031 -0.003393 0.000000 0.003274 0.000000
# 3 0.001136 -0.003393 0.009252 0.000000 0.001841 0.000000
# 4 0.000000 0.000000 0.000000 0.009684 -0.000002 0.001538
# 5 -0.000984 0.003274 0.001841 -0.000002 0.060355 0.000001
# 6 0.000000 0.000000 0.000000 0.001538 0.000001 0.024878
#
#
# Mechanical properties :
#
#
# Convention : Reuss Voigt Hill
#
# Bulk Modulus (GPa) = 42.31337 43.21913 42.76625
# Shear Modulus (GPa) = 29.86479 46.28688 38.07583
#
# Velocity S-wave (km/s) = 3.89254 4.84599 4.39519
# Velocity P-wave (km/s) = 6.45524 7.29648 6.88872
#
# Compressibility (1/GPa) = 0.02363319
#
# Stress axis : x y z
#
# Youngs Moduli (GPa) = 63.10787 52.54478 108.07923
#
# Poissons Ratio (x) = 0.41989 -0.12278
# Poissons Ratio (y) = 0.50430 0.36674
# Poissons Ratio (z) = -0.07169 0.17830
#
# Static dielectric constant tensor:
#      x y z
#    x 1.727200 0.000000 -0.024990 
#    y 0.000000 1.746890 0.000000 
#    z -0.024990 0.000000 1.706270 
# 
# From -- ./inp_files/303079.got.cif
#   From: 2010.05.17/outbox.ucp.g08.bks.cvg/sg12_152_cif.got.tgz:303079.got - 2010.06.11 11:47:21.
