data_PCOD9225009
_publ_section_title
;
Structure prediction by ZEFSAII (Michael W. Deem and Ramdas Pophale) SiO2 
 PCOD9225009
Probable space group: C 2/M
;
_chemical_formula_sum "Si O2"
_cell_formula_units_Z 24
_cell_length_a 27.000000
_cell_length_b 15.000000
_cell_length_c 9.000000
_cell_angle_alpha 90.000000
_cell_angle_beta 40.000000
_cell_angle_gamma 90.000000
_cell_volume 2342.960837
_symmetry_space_group_name_H-M "C 2/M"
_symmetry_group_IT_number 12
_symmetry_cell_setting 'monoclinic'
loop_
_space_group_symop_operation_xyz
x,y,z
-x,y,-z
-x,-y,-z
x,-y,z
1/2+x,1/2+y,z
1/2-x,1/2+y,-z
1/2-x,1/2-y,-z
1/2+x,1/2-y,z
loop_
_atom_site_type_symbol
_atom_site_label
_atom_site_fract_x
_atom_site_fract_y
_atom_site_fract_z
Si Si1 0.304786 0.100019 0.327926
Si Si2 0.426393 0.680626 0.754219
Si Si3 0.926185 0.240407 0.081126
Si Si4 0.848169 0.894996 0.485938
Si Si5 0.335922 0.240166 0.738604
Si Si6 0.256721 0.400088 0.206139
O O1 0.363160 0.181976 0.203347
O O2 0.243512 0.110271 0.336474
O O3 0.251236 0.101675 0.598010
O O4 0.339618 0.000000 0.241053
O O5 0.500000 0.639143 0.500000
O O6 0.399078 0.767232 0.721738
O O7 0.450482 0.705917 0.864066
O O8 0.343566 0.630134 0.962624
O O9 0.892458 0.157189 0.252854
O O10 0.000000 0.275453 0.000000
O O11 0.859365 0.830903 0.600820
O O12 0.868708 0.000000 0.452025
O O13 0.317216 0.158501 0.673977
O O14 0.250000 0.250000 0.000000
O O15 0.246875 0.500000 0.171794
#
# Coordination Sequence:
#
# PCOD9225009 Si02
#       6
#     8   8   8   8   8   8
#     4  10  20  38  68  96 119 157 214 267 304 358
#     4  11  24  40  60  91 131 168 204 253 320 376
#     4  12  24  41  66  90 128 167 209 263 311 365
#     4  11  22  40  66  94 122 161 212 257 307 371
#     4  10  21  38  61  91 125 164 201 250 309 371
#     4  10  20  38  66  94 122 161 208 257 309 369
#
# _framework density 10.243449
#
# number of rings (size 3 to 8) (size 9 to 14) (size 15 to 20)
#    0.000    1.333    3.333    3.500    0.000    3.667 
#    0.000    2.500    0.000    1.000    0.000    0.000 
#    0.000    0.000    0.000    0.000    0.000    0.000 
#
# Total GULP energy -133790.792736 kJ/mol
# GULP energy per Si atom -5574.616364 kJ/mol
# Density = 1.022013 g / cm^3
# Si number density = 10.243449 Si / 1000 Ang^3
#
#
#
# Elastic Constant Matrix: (Units=GPa)
#
#
# Indices 1 2 3 4 5 6 
#
# 1 79.8836 17.3671 13.2756 0.0000 5.2741 0.0000
# 2 17.3671 98.4179 39.3469 0.0000 -4.7859 0.0000
# 3 13.2756 39.3469 93.3587 0.0000 7.3078 0.0000
# 4 0.0000 0.0000 0.0000 6.8155 0.0000 -7.2002
# 5 5.2741 -4.7859 7.3078 0.0000 32.1441 0.0000
# 6 0.0000 0.0000 0.0000 -7.2002 0.0000 1.4369
#
#
#
# Elastic Compliance Matrix: (Units=1/GPa)
#
#
# Indices 1 2 3 4 5 6 
#
# 1 0.013268 -0.002131 -0.000808 0.000000 -0.002311 0.000000
# 2 -0.002131 0.012862 -0.005391 0.000000 0.003490 0.000000
# 3 -0.000808 -0.005391 0.013389 0.000000 -0.003714 0.000000
# 4 0.000000 0.000000 0.000000 -0.034172 0.000000 -0.171231
# 5 -0.002311 0.003490 -0.003714 0.000000 0.032853 0.000000
# 6 0.000000 0.000000 0.000000 -0.171231 0.000000 -0.162081
#
#
# Mechanical properties :
#
#
# Convention : Reuss Voigt Hill
#
# Bulk Modulus (GPa) = 43.74455 45.73772 44.74114
# Shear Modulus (GPa) = -50.19950 21.52399 -14.33775
#
# Velocity S-wave (km/s) = -4.95544 3.24485 -2.64834
# Velocity P-wave (km/s) = 3.36795 6.03428 3.54044
#
# Compressibility (1/GPa) = 0.02285999
#
# Stress axis : x y z
#
# Youngs Moduli (GPa) = 75.36785 77.75001 74.68801
#
# Poissons Ratio (x) = 0.16566 0.06034
# Poissons Ratio (y) = 0.16059 0.40264
# Poissons Ratio (z) = 0.06089 0.41914
#
# Static dielectric constant tensor:
#      x y z
#    x 1.829730 0.000000 0.066940 
#    y 0.000000 1.770370 0.000000 
#    z 0.066940 0.000000 1.749910 
# 
# From -- ./inp_files/104938.got.cif
#   From: 2010.05.17/outbox.ucp.g08.bks.cvg/sg12_53_cif.got.tgz:104938.got - 2010.06.11 11:47:21.
