data_PCOD9225930
_publ_section_title
;
Structure prediction by ZEFSAII (Michael W. Deem and Ramdas Pophale) SiO2 
 PCOD9225930
Probable space group: C 2/M
;
_chemical_formula_sum "Si O2"
_cell_formula_units_Z 32
_cell_length_a 12.000000
_cell_length_b 30.000000
_cell_length_c 18.000000
_cell_angle_alpha 90.000000
_cell_angle_beta 30.000000
_cell_angle_gamma 90.000000
_cell_volume 3240.000000
_symmetry_space_group_name_H-M "C 2/M"
_symmetry_group_IT_number 12
_symmetry_cell_setting 'monoclinic'
loop_
_space_group_symop_operation_xyz
x,y,z
-x,y,-z
-x,-y,-z
x,-y,z
1/2+x,1/2+y,z
1/2-x,1/2+y,-z
1/2-x,1/2-y,-z
1/2+x,1/2-y,z
loop_
_atom_site_type_symbol
_atom_site_label
_atom_site_fract_x
_atom_site_fract_y
_atom_site_fract_z
Si Si1 0.921137 0.685742 0.944904
Si Si2 0.627683 0.446637 0.044972
Si Si3 0.594478 0.643362 0.367107
Si Si4 0.881967 0.379600 0.492830
Si Si5 0.136994 0.887570 0.186374
Si Si6 0.153860 0.297241 0.578967
Si Si7 0.651227 0.053722 0.239205
Si Si8 0.301033 0.286335 0.066425
O O1 0.750252 0.683786 0.974908
O O2 0.171351 0.672174 0.771918
O O3 0.804184 0.652966 0.071380
O O4 0.892415 0.737076 0.989256
O O5 0.644424 0.500000 0.045750
O O6 0.674499 0.422763 0.097241
O O7 0.377086 0.438029 0.157534
O O8 0.789801 0.435027 0.881196
O O9 0.500000 0.624017 0.500000
O O10 0.648811 0.607211 0.270266
O O11 0.378055 0.675293 0.474897
O O12 0.624402 0.376867 0.664941
O O13 0.943738 0.330463 0.427337
O O14 0.000000 0.393026 0.500000
O O15 0.957241 0.415347 0.386279
O O16 0.250000 0.250000 0.500000
O O17 0.940745 0.285840 0.754041
O O18 0.606153 0.000000 0.269321
O O19 0.500000 0.306140 0.000000
#
# Coordination Sequence:
#
# PCOD9225930 Si02
#       8
#     8   8   8   8   8   8   8   8
#     4  11  24  43  63  88 124 170 221 271 332 393
#     4   9  19  37  62  95 132 175 216 267 338 405
#     4  11  23  45  65  86 120 173 228 269 332 397
#     4  11  23  37  56  96 133 171 216 271 334 401
#     4  11  23  37  63  90 124 164 218 270 315 392
#     4  11  24  41  61  87 129 174 220 280 332 394
#     4   9  19  37  62  92 138 181 212 262 345 428
#     4  11  23  39  63  92 121 165 216 276 337 399
#
# _framework density 9.8765429999999999
#
# number of rings (size 3 to 8) (size 9 to 14) (size 15 to 20)
#    0.000    1.500    2.500    4.125    3.500    1.250 
#    0.000    0.000    0.000    1.875    0.000    0.000 
#    0.000    0.000    0.000    0.000    0.000    0.000 
#
# Total GULP energy -178145.917569 kJ/mol
# GULP energy per Si atom -5567.059924 kJ/mol
# Density = 0.985406 g / cm^3
# Si number density = 9.876543 Si / 1000 Ang^3
#
#
#
# Elastic Constant Matrix: (Units=GPa)
#
#
# Indices 1 2 3 4 5 6 
#
# 1 103.4106 15.6321 38.3823 0.0000 19.1083 -0.0003
# 2 15.6321 56.8408 26.9939 0.0002 23.3730 -0.0001
# 3 38.3823 26.9939 149.0970 -0.0002 15.0182 -0.0007
# 4 0.0000 0.0002 -0.0002 21.2337 0.0002 0.8320
# 5 19.1083 23.3730 15.0182 0.0002 48.6262 0.0004
# 6 -0.0003 -0.0001 -0.0007 0.8320 0.0004 -0.1904
#
#
#
# Elastic Compliance Matrix: (Units=1/GPa)
#
#
# Indices 1 2 3 4 5 6 
#
# 1 0.011299 -0.000527 -0.002468 0.000001 -0.003424 -0.000012
# 2 -0.000527 0.023335 -0.003076 0.000001 -0.010059 -0.000020
# 3 -0.002468 -0.003076 0.007898 0.000001 0.000009 -0.000021
# 4 0.000001 0.000001 0.000001 0.040209 -0.000002 0.175743
# 5 -0.003424 -0.010059 0.000009 -0.000002 0.026743 0.000057
# 6 -0.000012 -0.000020 -0.000021 0.175743 0.000057 -4.485127
#
#
# Mechanical properties :
#
#
# Convention : Reuss Voigt Hill
#
# Bulk Modulus (GPa) = 32.90576 52.37387 42.63982
# Shear Modulus (GPa) = -1.14854 29.15659 14.00403
#
# Velocity S-wave (km/s) = -0.76335 3.84611 2.66551
# Velocity P-wave (km/s) = 3.98971 6.80406 5.57732
#
# Compressibility (1/GPa) = 0.03038982
#
# Stress axis : x y z
#
# Youngs Moduli (GPa) = 88.50539 42.85395 126.60726
#
# Poissons Ratio (x) = 0.02259 0.31251
# Poissons Ratio (y) = 0.04665 0.38943
# Poissons Ratio (z) = 0.21846 0.13181
#
# Static dielectric constant tensor:
#      x y z
#    x 1.829510 0.000000 0.035420 
#    y 0.000000 1.675600 0.000000 
#    z 0.035420 0.000000 1.687800 
# 
# From -- ./inp_files/266284.got.cif
#   From: 2010.05.17/outbox.ucp.g08.bks.cvg/sg12_134_cif.got.tgz:266284.got - 2010.06.11 11:47:21.
