data_PCOD9225644
_publ_section_title
;
Structure prediction by ZEFSAII (Michael W. Deem and Ramdas Pophale) SiO2 
 PCOD9225644
Probable space group: C 2/M
;
_chemical_formula_sum "Si O2"
_cell_formula_units_Z 24
_cell_length_a 15.000000
_cell_length_b 30.000000
_cell_length_c 6.000000
_cell_angle_alpha 90.000000
_cell_angle_beta 60.000000
_cell_angle_gamma 90.000000
_cell_volume 2338.268590
_symmetry_space_group_name_H-M "C 2/M"
_symmetry_group_IT_number 12
_symmetry_cell_setting 'monoclinic'
loop_
_space_group_symop_operation_xyz
x,y,z
-x,y,-z
-x,-y,-z
x,-y,z
1/2+x,1/2+y,z
1/2-x,1/2+y,-z
1/2-x,1/2-y,-z
1/2+x,1/2-y,z
loop_
_atom_site_type_symbol
_atom_site_label
_atom_site_fract_x
_atom_site_fract_y
_atom_site_fract_z
Si Si1 0.592808 0.877844 0.033499
Si Si2 0.706248 0.947716 0.185881
Si Si3 0.793909 0.218514 0.249652
Si Si4 0.912036 0.719799 0.781686
Si Si5 0.618665 0.451868 0.408366
Si Si6 0.221018 0.877875 0.535805
O O1 0.692229 0.866946 0.756864
O O2 0.500000 0.894134 0.000000
O O3 0.622087 0.918373 0.158778
O O4 0.558944 0.830225 0.177794
O O5 0.730757 0.914950 0.359847
O O6 0.680350 0.000000 0.265336
O O7 0.806859 0.948823 0.899108
O O8 0.750000 0.250000 0.500000
O O9 0.697326 0.213671 0.203960
O O10 0.815258 0.168360 0.308992
O O11 0.886102 0.244892 0.009965
O O12 0.000000 0.735681 0.500000
O O13 0.500000 0.454287 0.500000
O O14 0.646478 0.500000 0.485954
O O15 0.633932 0.407075 0.527790
#
# Coordination Sequence:
#
# PCOD9225644 Si02
#       6
#     8   8   8   8   8   8
#     4  11  23  39  67  93 123 171 214 256 312 385
#     4  10  22  40  63  95 128 165 208 261 320 374
#     4  11  23  42  65  92 127 167 209 266 317 375
#     4  11  24  41  67  93 124 171 217 259 318 382
#     4   9  20  39  64  91 124 166 211 258 316 383
#     4  11  21  40  65  89 129 167 209 261 322 370
#
# _framework density 10.264004999999999
#
# number of rings (size 3 to 8) (size 9 to 14) (size 15 to 20)
#    0.000    1.500    3.333    1.500    0.000    1.667 
#    0.000    8.333    0.000    0.000    0.000    0.000 
#    0.000    0.000    0.000    0.000    0.000    0.000 
#
# Total GULP energy -133938.298821 kJ/mol
# GULP energy per Si atom -5580.762451 kJ/mol
# Density = 1.024064 g / cm^3
# Si number density = 10.264005 Si / 1000 Ang^3
#
#
#
# Elastic Constant Matrix: (Units=GPa)
#
#
# Indices 1 2 3 4 5 6 
#
# 1 49.2406 0.0864 8.7934 0.0000 -0.8138 0.0000
# 2 0.0864 158.6714 63.4222 0.0000 6.3154 0.0000
# 3 8.7934 63.4222 81.8404 0.0000 -1.5684 0.0000
# 4 0.0000 0.0000 0.0000 33.6061 0.0000 13.3473
# 5 -0.8138 6.3154 -1.5684 0.0000 23.4356 0.0000
# 6 0.0000 0.0000 0.0000 13.3473 0.0000 59.6795
#
#
#
# Elastic Compliance Matrix: (Units=1/GPa)
#
#
# Indices 1 2 3 4 5 6 
#
# 1 0.020885 0.001272 -0.003226 0.000000 0.000167 0.000000
# 2 0.001272 0.009415 -0.007490 0.000000 -0.002994 0.000000
# 3 -0.003226 -0.007490 0.018430 0.000000 0.003140 0.000000
# 4 0.000000 0.000000 0.000000 0.032657 0.000000 -0.007304
# 5 0.000167 -0.002994 0.003140 0.000000 0.043693 0.000000
# 6 0.000000 0.000000 0.000000 -0.007304 0.000000 0.018390
#
#
# Mechanical properties :
#
#
# Convention : Reuss Voigt Hill
#
# Bulk Modulus (GPa) = 33.51133 48.26182 40.88657
# Shear Modulus (GPa) = 29.01826 37.84093 33.42960
#
# Velocity S-wave (km/s) = 3.76386 4.29812 4.03983
# Velocity P-wave (km/s) = 5.93708 6.94212 6.45918
#
# Compressibility (1/GPa) = 0.02984066
#
# Stress axis : x y z
#
# Youngs Moduli (GPa) = 47.88104 106.21875 54.25963
#
# Poissons Ratio (x) = -0.13506 0.17505
# Poissons Ratio (y) = -0.06088 0.40639
# Poissons Ratio (z) = 0.15447 0.79556
#
# Static dielectric constant tensor:
#      x y z
#    x 1.779990 0.000000 0.071150 
#    y 0.000000 1.744610 0.000000 
#    z 0.071150 0.000000 1.768880 
# 
# From -- ./inp_files/13046.got.cif
#   From: 2010.05.17/outbox.ucp.g08.bks.cvg/sg12_7_cif.got.tgz:13046.got - 2010.06.11 11:47:21.
