data_PCOD9225480
_publ_section_title
;
Structure prediction by ZEFSAII (Michael W. Deem and Ramdas Pophale) SiO2 
 PCOD9225480
Probable space group: C 2/M
;
_chemical_formula_sum "Si O2"
_cell_formula_units_Z 32
_cell_length_a 18.000000
_cell_length_b 9.000000
_cell_length_c 30.000000
_cell_angle_alpha 90.000000
_cell_angle_beta 140.000000
_cell_angle_gamma 90.000000
_cell_volume 3123.947783
_symmetry_space_group_name_H-M "C 2/M"
_symmetry_group_IT_number 12
_symmetry_cell_setting 'monoclinic'
loop_
_space_group_symop_operation_xyz
x,y,z
-x,y,-z
-x,-y,-z
x,-y,z
1/2+x,1/2+y,z
1/2-x,1/2+y,-z
1/2-x,1/2-y,-z
1/2+x,1/2-y,z
loop_
_atom_site_type_symbol
_atom_site_label
_atom_site_fract_x
_atom_site_fract_y
_atom_site_fract_z
Si Si1 0.923796 0.326789 0.863633
Si Si2 0.000505 0.678512 0.366663
Si Si3 0.339455 0.177453 0.641935
Si Si4 0.786962 0.330884 0.213661
Si Si5 0.142790 0.334537 0.851589
Si Si6 0.838073 0.173078 0.006365
Si Si7 0.424244 0.677158 0.506768
Si Si8 0.422189 0.326739 0.770616
O O1 0.941246 0.500000 0.868217
O O2 0.815073 0.281575 0.843104
O O3 0.887560 0.257696 0.799419
O O4 0.039563 0.251161 0.934331
O O5 0.009396 0.500000 0.373337
O O6 0.081003 0.728110 0.362628
O O7 0.039021 0.747814 0.430511
O O8 0.869630 0.713392 0.292154
O O9 0.208571 0.203111 0.566531
O O10 0.367656 0.258424 0.701005
O O11 0.356397 0.000000 0.656230
O O12 0.743201 0.500000 0.200381
O O13 0.863354 0.335756 0.204207
O O14 0.104255 0.500000 0.849927
O O15 0.058998 0.208637 0.830821
O O16 0.272299 0.317041 0.928941
O O17 0.851916 0.000000 0.023852
O O18 0.750000 0.250000 0.000000
O O19 0.500000 0.730741 0.500000
O O20 0.441661 0.500000 0.519409
O O21 0.398455 0.500000 0.762782
#
# Coordination Sequence:
#
# PCOD9225480 Si02
#       8
#     8   8   8   8   8   8   8   8
#     4  12  26  42  61  88 127 169 207 260 320 369
#     4  10  21  39  65  90 121 164 205 253 305 368
#     4  10  21  41  64  88 124 168 208 249 309 372
#     4  10  22  42  64  91 125 162 208 256 311 375
#     4  10  21  41  67  91 125 165 203 252 314 375
#     4  11  22  38  64  94 123 165 211 257 312 371
#     4  10  23  40  60  91 127 163 205 254 306 366
#     4  12  24  38  63  95 124 158 211 265 306 368
#
# _framework density 10.243449
#
# number of rings (size 3 to 8) (size 9 to 14) (size 15 to 20)
#    0.000    1.375    2.500    3.000    1.750    3.250 
#    0.000    2.500    0.000    0.000    0.000    0.000 
#    0.000    0.000    0.000    0.000    0.000    0.000 
#
# Total GULP energy -178730.961492 kJ/mol
# GULP energy per Si atom -5585.342547 kJ/mol
# Density = 1.022013 g / cm^3
# Si number density = 10.243449 Si / 1000 Ang^3
#
#
#
# Elastic Constant Matrix: (Units=GPa)
#
#
# Indices 1 2 3 4 5 6 
#
# 1 46.4498 20.0585 23.1495 0.0000 4.7765 0.0000
# 2 20.0585 83.2847 48.5113 0.0000 6.8206 0.0000
# 3 23.1495 48.5113 93.7552 0.0000 -11.1790 0.0000
# 4 0.0000 0.0000 0.0000 34.1510 0.0000 -5.8348
# 5 4.7765 6.8206 -11.1790 0.0000 25.6799 0.0000
# 6 0.0000 0.0000 0.0000 -5.8348 0.0000 19.0218
#
#
#
# Elastic Compliance Matrix: (Units=1/GPa)
#
#
# Indices 1 2 3 4 5 6 
#
# 1 0.026272 -0.002125 -0.006226 0.000000 -0.007033 0.000000
# 2 -0.002125 0.019530 -0.010708 0.000000 -0.009453 0.000000
# 3 -0.006226 -0.010708 0.019219 0.000000 0.012368 0.000000
# 4 0.000000 0.000000 0.000000 0.030901 0.000000 0.009479
# 5 -0.007033 -0.009453 0.012368 0.000000 0.048144 0.000000
# 6 0.000000 0.000000 0.000000 0.009479 0.000000 0.055479
#
#
# Mechanical properties :
#
#
# Convention : Reuss Voigt Hill
#
# Bulk Modulus (GPa) = 37.17022 45.21426 41.19224
# Shear Modulus (GPa) = 20.27328 24.55525 22.41427
#
# Velocity S-wave (km/s) = 3.14916 3.46581 3.31127
# Velocity P-wave (km/s) = 5.60408 6.17524 5.89658
#
# Compressibility (1/GPa) = 0.02690326
#
# Stress axis : x y z
#
# Youngs Moduli (GPa) = 38.06284 51.20326 52.03302
#
# Poissons Ratio (x) = 0.10881 0.32396
# Poissons Ratio (y) = 0.08089 0.55716
# Poissons Ratio (z) = 0.23698 0.54827
#
# Static dielectric constant tensor:
#      x y z
#    x 1.791640 0.000000 0.006260 
#    y 0.000000 1.706380 0.000000 
#    z 0.006260 0.000000 1.723050 
# 
# From -- ./inp_files/378406.got.cif
#   From: 2010.05.17/outbox.ucp.g08.bks.cvg/sg12_190_cif.got.tgz:378406.got - 2010.06.11 11:47:21.
