data_PCOD9225194
_publ_section_title
;
Structure prediction by ZEFSAII (Michael W. Deem and Ramdas Pophale) SiO2 
 PCOD9225194
Probable space group: C 2/M
;
_chemical_formula_sum "Si O2"
_cell_formula_units_Z 28
_cell_length_a 21.000000
_cell_length_b 9.000000
_cell_length_c 30.000000
_cell_angle_alpha 90.000000
_cell_angle_beta 30.000000
_cell_angle_gamma 90.000000
_cell_volume 2835.000000
_symmetry_space_group_name_H-M "C 2/M"
_symmetry_group_IT_number 12
_symmetry_cell_setting 'monoclinic'
loop_
_space_group_symop_operation_xyz
x,y,z
-x,y,-z
-x,-y,-z
x,-y,z
1/2+x,1/2+y,z
1/2-x,1/2+y,-z
1/2-x,1/2-y,-z
1/2+x,1/2-y,z
loop_
_atom_site_type_symbol
_atom_site_label
_atom_site_fract_x
_atom_site_fract_y
_atom_site_fract_z
Si Si1 0.073994 0.674513 0.909599
Si Si2 0.130859 0.827959 0.284125
Si Si3 0.492110 0.826997 0.291522
Si Si4 0.258738 0.175684 0.543301
Si Si5 0.510339 0.676796 0.544786
Si Si6 0.652175 0.672174 0.122361
Si Si7 0.589974 0.672696 0.061339
O O1 0.046039 0.500000 0.917585
O O2 0.225727 0.689026 0.819949
O O3 0.026027 0.775805 0.898484
O O4 0.000000 0.714011 0.000000
O O5 0.042275 0.719112 0.309756
O O6 0.111369 0.803098 0.348764
O O7 0.091512 0.000000 0.299269
O O8 0.370256 0.727264 0.354500
O O9 0.600264 0.779851 0.191411
O O10 0.461493 0.000000 0.308052
O O11 0.250000 0.250000 0.500000
O O12 0.376371 0.239665 0.499213
O O13 0.265814 0.000000 0.534394
O O14 0.500000 0.726380 0.500000
O O15 0.537646 0.500000 0.527539
O O16 0.650025 0.500000 0.138150
O O17 0.572526 0.688157 0.124899
O O18 0.793979 0.721604 0.023472
O O19 0.622875 0.500000 0.033318
#
# Coordination Sequence:
#
# PCOD9225194 Si02
#       7
#     8   8   8   8   8   8   8
#     4  10  21  36  56  83 117 160 202 242 299 366
#     4  10  21  38  60  85 119 161 202 251 307 370
#     4  12  24  38  62  93 121 155 203 256 308 367
#     4  12  24  41  65  92 124 163 206 256 311 370
#     4  10  22  41  64  92 127 167 209 257 317 383
#     4  10  21  38  59  85 119 158 198 248 305 366
#     4  10  21  37  58  85 118 157 201 251 302 355
#
# _framework density 9.8765429999999999
#
# number of rings (size 3 to 8) (size 9 to 14) (size 15 to 20)
#    0.000    1.429    1.429    4.286    0.000    5.143 
#    0.000    1.429    0.000    0.000    0.000    0.000 
#    0.000    0.000    0.000    0.000    0.000    0.000 
#
# Total GULP energy -156393.600542 kJ/mol
# GULP energy per Si atom -5585.485734 kJ/mol
# Density = 0.985406 g / cm^3
# Si number density = 9.876543 Si / 1000 Ang^3
#
#
#
# Elastic Constant Matrix: (Units=GPa)
#
#
# Indices 1 2 3 4 5 6 
#
# 1 92.8349 51.0594 30.5430 -0.0002 5.8759 0.0006
# 2 51.0594 68.6575 18.6489 -0.0004 2.3157 0.0015
# 3 30.5430 18.6489 71.3581 0.0000 14.9185 0.0001
# 4 -0.0002 -0.0004 0.0000 13.3860 -0.0001 -6.8817
# 5 5.8759 2.3157 14.9185 -0.0001 20.3538 -0.0001
# 6 0.0006 0.0015 0.0001 -6.8817 -0.0001 30.1885
#
#
#
# Elastic Compliance Matrix: (Units=1/GPa)
#
#
# Indices 1 2 3 4 5 6 
#
# 1 0.019743 -0.013350 -0.004827 0.000000 -0.000642 0.000000
# 2 -0.013350 0.024740 -0.001144 0.000000 0.001878 -0.000001
# 3 -0.004827 -0.001144 0.018967 0.000000 -0.012378 0.000000
# 4 0.000000 0.000000 0.000000 0.084622 0.000001 0.019290
# 5 -0.000642 0.001878 -0.012378 0.000001 0.058175 0.000000
# 6 0.000000 -0.000001 0.000000 0.019290 0.000000 0.037523
#
#
# Mechanical properties :
#
#
# Convention : Reuss Voigt Hill
#
# Bulk Modulus (GPa) = 40.30995 48.15031 44.23013
# Shear Modulus (GPa) = 17.20089 21.62561 19.41325
#
# Velocity S-wave (km/s) = 2.95412 3.31236 3.13836
# Velocity P-wave (km/s) = 5.66454 6.24964 5.96427
#
# Compressibility (1/GPa) = 0.02480777
#
# Stress axis : x y z
#
# Youngs Moduli (GPa) = 50.65077 40.41961 52.72322
#
# Poissons Ratio (x) = 0.53959 0.25451
# Poissons Ratio (y) = 0.67617 0.06033
# Poissons Ratio (z) = 0.24451 0.04625
#
# Static dielectric constant tensor:
#      x y z
#    x 1.693850 0.000000 0.005870 
#    y 0.000000 1.662250 0.000000 
#    z 0.005870 0.000000 1.739800 
# 
# From -- ./inp_files/380669.got.cif
#   From: 2010.05.17/outbox.ucp.g08.bks.cvg/sg12_191_cif.got.tgz:380669.got - 2010.06.11 11:47:21.
