data_PCOD9225141
_publ_section_title
;
Structure prediction by ZEFSAII (Michael W. Deem and Ramdas Pophale) SiO2 
 PCOD9225141
Probable space group: C 2/M
;
_chemical_formula_sum "Si O2"
_cell_formula_units_Z 28
_cell_length_a 21.000000
_cell_length_b 9.000000
_cell_length_c 15.000000
_cell_angle_alpha 90.000000
_cell_angle_beta 90.000000
_cell_angle_gamma 90.000000
_cell_volume 2835.000000
_symmetry_space_group_name_H-M "C 2/M"
_symmetry_group_IT_number 12
_symmetry_cell_setting 'monoclinic'
loop_
_space_group_symop_operation_xyz
x,y,z
-x,y,-z
-x,-y,-z
x,-y,z
1/2+x,1/2+y,z
1/2-x,1/2+y,-z
1/2-x,1/2-y,-z
1/2+x,1/2-y,z
loop_
_atom_site_type_symbol
_atom_site_label
_atom_site_fract_x
_atom_site_fract_y
_atom_site_fract_z
Si Si1 0.540586 0.672748 0.174830
Si Si2 0.610093 0.177254 0.329110
Si Si3 0.911755 0.174638 0.106670
Si Si4 0.853870 0.173709 0.302946
Si Si5 0.332262 0.670550 0.945565
Si Si6 0.729274 0.320899 0.228409
Si Si7 0.075281 0.177716 0.512205
O O1 0.526544 0.500000 0.198318
O O2 0.552987 0.761378 0.265954
O O3 0.483889 0.732661 0.112263
O O4 0.604783 0.671070 0.116830
O O5 0.672278 0.246208 0.283043
O O6 0.606611 0.236652 0.429693
O O7 0.610951 0.000000 0.326882
O O8 0.891842 0.181689 0.209887
O O9 0.916468 0.000000 0.079990
O O10 0.859794 0.239486 0.037559
O O11 0.792667 0.272414 0.279754
O O12 0.894671 0.216451 0.390839
O O13 0.835056 0.000000 0.315029
O O14 0.312458 0.500000 0.965122
O O15 0.279172 0.731590 0.875929
O O16 0.722762 0.500000 0.227794
O O17 0.000000 0.207584 0.500000
O O18 0.084085 0.000000 0.501066
#
# Coordination Sequence:
#
# PCOD9225141 Si02
#       7
#     8   8   8   8   8   8   8
#     4   9  16  30  54  82 111 143 179 219 265 319
#     4  11  22  36  57  82 109 141 177 223 273 317
#     4   9  16  29  52  81 110 142 181 222 264 312
#     4  10  21  35  54  80 109 140 177 224 269 312
#     4   8  15  28  51  81 107 138 183 225 258 306
#     4  10  21  38  57  77 106 144 184 222 263 316
#     4  10  21  39  61  84 110 141 177 214 260 321
#
# _framework density 9.8765429999999999
#
# number of rings (size 3 to 8) (size 9 to 14) (size 15 to 20)
#    0.000    2.429    0.000    3.857    0.000    6.000 
#    0.000    2.143    0.000   11.143    0.000    0.000 
#    0.000    0.000    0.000    0.000    0.000    0.000 
#
# Total GULP energy -156003.393714 kJ/mol
# GULP energy per Si atom -5571.549776 kJ/mol
# Density = 0.985406 g / cm^3
# Si number density = 9.876543 Si / 1000 Ang^3
#
#
#
# Elastic Constant Matrix: (Units=GPa)
#
#
# Indices 1 2 3 4 5 6 
#
# 1 95.4301 31.8218 47.7628 0.0000 34.4232 0.0000
# 2 31.8218 28.9008 25.7577 0.0000 17.2301 0.0000
# 3 47.7628 25.7577 139.4109 0.0000 55.3390 0.0000
# 4 0.0000 0.0000 0.0000 5.4415 0.0000 4.6274
# 5 34.4232 17.2301 55.3390 0.0000 35.9050 0.0000
# 6 0.0000 0.0000 0.0000 4.6274 0.0000 23.1298
#
#
#
# Elastic Compliance Matrix: (Units=1/GPa)
#
#
# Indices 1 2 3 4 5 6 
#
# 1 0.019736 -0.014571 0.001715 0.000000 -0.014572 0.000000
# 2 -0.014571 0.059253 -0.000551 0.000000 -0.013616 0.000000
# 3 0.001715 -0.000551 0.018637 0.000000 -0.030105 0.000000
# 4 0.000000 0.000000 0.000000 0.221450 0.000000 -0.044304
# 5 -0.014572 -0.013616 -0.030105 0.000000 0.094756 0.000000
# 6 0.000000 0.000000 0.000000 -0.044304 0.000000 0.052098
#
#
# Mechanical properties :
#
#
# Convention : Reuss Voigt Hill
#
# Bulk Modulus (GPa) = 14.12180 52.71406 33.41793
# Shear Modulus (GPa) = 9.68337 23.45521 16.56929
#
# Velocity S-wave (km/s) = 2.21649 3.44963 2.89938
# Velocity P-wave (km/s) = 3.70340 6.52772 5.30689
#
# Compressibility (1/GPa) = 0.07081249
#
# Stress axis : x y z
#
# Youngs Moduli (GPa) = 50.66918 16.87665 53.65546
#
# Poissons Ratio (x) = 0.24592 -0.09202
# Poissons Ratio (y) = 0.73832 0.02955
# Poissons Ratio (z) = -0.08690 0.00930
#
# Static dielectric constant tensor:
#      x y z
#    x 1.786210 0.000000 0.002900 
#    y 0.000000 1.670770 0.000000 
#    z 0.002900 0.000000 1.709670 
# 
# From -- ./inp_files/230899.got.cif
#   From: 2010.05.17/outbox.ucp.g08.bks.cvg/sg12_116_cif.got.tgz:230899.got - 2010.06.11 11:47:21.
