data_PCOD9225383
_publ_section_title
;
Structure prediction by ZEFSAII (Michael W. Deem and Ramdas Pophale) SiO2 
 PCOD9225383
Probable space group: C 2/M
;
_chemical_formula_sum "Si O2"
_cell_formula_units_Z 24
_cell_length_a 9.000000
_cell_length_b 27.000000
_cell_length_c 15.000000
_cell_angle_alpha 90.000000
_cell_angle_beta 40.000000
_cell_angle_gamma 90.000000
_cell_volume 2342.960837
_symmetry_space_group_name_H-M "C 2/M"
_symmetry_group_IT_number 12
_symmetry_cell_setting 'monoclinic'
loop_
_space_group_symop_operation_xyz
x,y,z
-x,y,-z
-x,-y,-z
x,-y,z
1/2+x,1/2+y,z
1/2-x,1/2+y,-z
1/2-x,1/2-y,-z
1/2+x,1/2-y,z
loop_
_atom_site_type_symbol
_atom_site_label
_atom_site_fract_x
_atom_site_fract_y
_atom_site_fract_z
Si Si1 0.926143 0.105221 0.928605
Si Si2 0.935669 0.558274 0.184764
Si Si3 0.481709 0.784956 0.403563
Si Si4 0.950462 0.941990 0.307985
Si Si5 0.490265 0.281339 0.899397
Si Si6 0.257309 0.619645 0.562195
O O1 0.063555 0.074607 0.789047
O O2 0.949553 0.162271 0.886572
O O3 0.661651 0.086936 0.048171
O O4 0.000000 0.100045 0.000000
O O5 0.988487 0.500000 0.169931
O O6 0.718203 0.562692 0.217641
O O7 0.857141 0.581763 0.315111
O O8 0.500000 0.796509 0.500000
O O9 0.250000 0.750000 0.500000
O O10 0.410729 0.833881 0.379924
O O11 0.745052 0.766314 0.254935
O O12 0.814759 0.907856 0.442148
O O13 0.886067 0.000000 0.346872
O O14 0.500000 0.284761 0.000000
O O15 0.250000 0.250000 0.000000
O O16 0.500000 0.635271 0.500000
#
# Coordination Sequence:
#
# PCOD9225383 Si02
#       6
#     8   8   8   8   8   8
#     4  11  23  39  59  87 124 162 204 257 315 373
#     4  10  21  38  61  89 122 163 211 258 305 368
#     4  12  25  43  67  95 128 166 214 266 319 383
#     4  10  21  38  61  90 123 163 211 257 305 369
#     4  11  25  44  65  91 126 164 208 260 318 380
#     4  10  21  39  64  92 125 164 208 262 319 371
#
# _framework density 10.243449
#
# number of rings (size 3 to 8) (size 9 to 14) (size 15 to 20)
#    0.000    1.333    0.000    6.000    0.000    8.667 
#    0.000    0.000    0.000    4.000    0.000    0.000 
#    0.000    0.000    0.000    0.000    0.000    0.000 
#
# Total GULP energy -133974.089591 kJ/mol
# GULP energy per Si atom -5582.253733 kJ/mol
# Density = 1.022013 g / cm^3
# Si number density = 10.243449 Si / 1000 Ang^3
#
#
#
# Elastic Constant Matrix: (Units=GPa)
#
#
# Indices 1 2 3 4 5 6 
#
# 1 66.3083 39.8286 20.4579 0.0000 7.1302 0.0000
# 2 39.8286 93.9201 19.4822 0.0000 -14.4746 0.0000
# 3 20.4579 19.4822 124.9544 0.0000 -5.0202 0.0000
# 4 0.0000 0.0000 0.0000 33.2252 0.0000 -5.7551
# 5 7.1302 -14.4746 -5.0202 0.0000 49.6773 0.0000
# 6 0.0000 0.0000 0.0000 -5.7551 0.0000 28.3475
#
#
#
# Elastic Compliance Matrix: (Units=1/GPa)
#
#
# Indices 1 2 3 4 5 6 
#
# 1 0.022543 -0.010053 -0.002381 0.000000 -0.006405 0.000000
# 2 -0.010053 0.015965 -0.000601 0.000000 0.006034 0.000000
# 3 -0.002381 -0.000601 0.008528 0.000000 0.001028 0.000000
# 4 0.000000 0.000000 0.000000 0.031195 0.000000 0.006333
# 5 -0.006405 0.006034 0.001028 0.000000 0.022911 0.000000
# 6 0.000000 0.000000 0.000000 0.006333 0.000000 0.036562
#
#
# Mechanical properties :
#
#
# Convention : Reuss Voigt Hill
#
# Bulk Modulus (GPa) = 47.69533 49.41335 48.55434
# Shear Modulus (GPa) = 29.28059 35.94427 32.61243
#
# Velocity S-wave (km/s) = 3.78462 4.19322 3.99415
# Velocity P-wave (km/s) = 6.51378 6.90043 6.70989
#
# Compressibility (1/GPa) = 0.02096641
#
# Stress axis : x y z
#
# Youngs Moduli (GPa) = 44.36019 62.63672 117.26502
#
# Poissons Ratio (x) = 0.62969 0.27917
# Poissons Ratio (y) = 0.44595 0.07046
# Poissons Ratio (z) = 0.10561 0.03764
#
# Static dielectric constant tensor:
#      x y z
#    x 1.788990 0.000000 -0.037050 
#    y 0.000000 1.782780 0.000000 
#    z -0.037050 0.000000 1.739450 
# 
# From -- ./inp_files/200115.got.cif
#   From: 2010.05.17/outbox.ucp.g08.bks.cvg/sg12_101_cif.got.tgz:200115.got - 2010.06.11 11:47:21.
