data_PCOD9225876
_publ_section_title
;
Structure prediction by ZEFSAII (Michael W. Deem and Ramdas Pophale) SiO2 
 PCOD9225876
Probable space group: C 2/M
;
_chemical_formula_sum "Si O2"
_cell_formula_units_Z 28
_cell_length_a 9.000000
_cell_length_b 18.000000
_cell_length_c 27.000000
_cell_angle_alpha 90.000000
_cell_angle_beta 40.000000
_cell_angle_gamma 90.000000
_cell_volume 2811.553005
_symmetry_space_group_name_H-M "C 2/M"
_symmetry_group_IT_number 12
_symmetry_cell_setting 'monoclinic'
loop_
_space_group_symop_operation_xyz
x,y,z
-x,y,-z
-x,-y,-z
x,-y,z
1/2+x,1/2+y,z
1/2-x,1/2+y,-z
1/2-x,1/2-y,-z
1/2+x,1/2-y,z
loop_
_atom_site_type_symbol
_atom_site_label
_atom_site_fract_x
_atom_site_fract_y
_atom_site_fract_z
Si Si1 0.175719 0.591461 0.652820
Si Si2 0.008913 0.170527 0.905191
Si Si3 0.515246 0.734474 0.441102
Si Si4 0.583601 0.156980 0.075472
Si Si5 0.953969 0.662941 0.212213
Si Si6 0.754375 0.318249 0.706992
Si Si7 0.140756 0.088846 0.152345
O O1 0.194361 0.500000 0.639920
O O2 0.389530 0.648704 0.585382
O O3 0.132115 0.609622 0.721993
O O4 0.959552 0.631260 0.678624
O O5 0.278000 0.182098 0.846206
O O6 0.919809 0.253763 0.916398
O O7 0.980848 0.113123 0.867725
O O8 0.842147 0.140788 0.991430
O O9 0.500000 0.762626 0.500000
O O10 0.250000 0.750000 0.500000
O O11 0.668481 0.785116 0.365526
O O12 0.479689 0.124364 0.152630
O O13 0.393131 0.127129 0.085828
O O14 0.807442 0.740249 0.248790
O O15 0.524580 0.368895 0.765831
O O16 0.150880 0.000000 0.155808
#
# Coordination Sequence:
#
# PCOD9225876 Si02
#       7
#     8   8   8   8   8   8   8
#     4  11  24  42  70 102 133 175 215 258 319 395
#     4  11  21  38  61  89 123 178 227 269 322 394
#     4  11  24  45  71 105 130 169 211 262 316 391
#     4  11  22  37  60  89 129 171 225 278 328 371
#     4  11  21  38  65  94 127 168 225 276 315 378
#     4  11  22  40  69  95 127 168 218 256 315 386
#     4  12  25  41  62  93 130 169 218 273 331 384
#
# _framework density 9.9589090000000002
#
# number of rings (size 3 to 8) (size 9 to 14) (size 15 to 20)
#    0.000    0.857    5.714    1.286    2.000    4.286 
#    0.000    0.000    0.000    5.571    0.000    0.000 
#    0.000    0.000    0.000    0.000    0.000    0.000 
#
# Total GULP energy -155925.085773 kJ/mol
# GULP energy per Si atom -5568.753063 kJ/mol
# Density = 0.993624 g / cm^3
# Si number density = 9.958909 Si / 1000 Ang^3
#
#
#
# Elastic Constant Matrix: (Units=GPa)
#
#
# Indices 1 2 3 4 5 6 
#
# 1 61.4022 6.4344 26.4981 0.0055 5.9901 -0.0018
# 2 6.4344 119.1090 27.4973 0.0051 0.7692 -0.0036
# 3 26.4981 27.4973 129.6968 0.0278 1.2563 -0.0050
# 4 0.0055 0.0051 0.0278 16.8388 -0.0027 1.1179
# 5 5.9901 0.7692 1.2563 -0.0027 24.4129 0.0013
# 6 -0.0018 -0.0036 -0.0050 1.1179 0.0013 24.4074
#
#
#
# Elastic Compliance Matrix: (Units=1/GPa)
#
#
# Indices 1 2 3 4 5 6 
#
# 1 0.018303 -0.000113 -0.003674 -0.000001 -0.004298 0.000001
# 2 -0.000113 0.008829 -0.001847 0.000000 -0.000155 0.000001
# 3 -0.003674 -0.001847 0.008848 -0.000013 0.000504 0.000002
# 4 -0.000001 0.000000 -0.000013 0.059568 0.000008 -0.002728
# 5 -0.004298 -0.000155 0.000504 0.000008 0.041996 -0.000003
# 6 0.000001 0.000001 0.000002 -0.002728 -0.000003 0.041096
#
#
# Mechanical properties :
#
#
# Convention : Reuss Voigt Hill
#
# Bulk Modulus (GPa) = 40.46694 47.89641 44.18167
# Shear Modulus (GPa) = 25.23413 29.78370 27.50891
#
# Velocity S-wave (km/s) = 3.56323 3.87114 3.72038
# Velocity P-wave (km/s) = 6.10655 6.63929 6.37848
#
# Compressibility (1/GPa) = 0.02471153
#
# Stress axis : x y z
#
# Youngs Moduli (GPa) = 54.63694 113.25999 113.02425
#
# Poissons Ratio (x) = 0.01278 0.41523
# Poissons Ratio (y) = 0.00616 0.20880
# Poissons Ratio (z) = 0.20073 0.20923
#
# Static dielectric constant tensor:
#      x y z
#    x 2.062150 -0.000020 -0.353930 
#    y -0.000020 1.655150 0.000030 
#    z -0.353930 0.000030 2.327280 
# 
# From -- ./inp_files/257172.got.cif
#   From: 2010.05.17/outbox.ucp.g08.bks.cvg/sg12_129_cif.got.tgz:257172.got - 2010.06.11 11:47:21.
