data_PCOD9225632
_publ_section_title
;
Structure prediction by ZEFSAII (Michael W. Deem and Ramdas Pophale) SiO2 
 PCOD9225632
Probable space group: C 2/M
;
_chemical_formula_sum "Si O2"
_cell_formula_units_Z 32
_cell_length_a 30.000000
_cell_length_b 9.000000
_cell_length_c 15.000000
_cell_angle_alpha 90.000000
_cell_angle_beta 50.000000
_cell_angle_gamma 90.000000
_cell_volume 3102.479995
_symmetry_space_group_name_H-M "C 2/M"
_symmetry_group_IT_number 12
_symmetry_cell_setting 'monoclinic'
loop_
_space_group_symop_operation_xyz
x,y,z
-x,y,-z
-x,-y,-z
x,-y,z
1/2+x,1/2+y,z
1/2-x,1/2+y,-z
1/2-x,1/2-y,-z
1/2+x,1/2-y,z
loop_
_atom_site_type_symbol
_atom_site_label
_atom_site_fract_x
_atom_site_fract_y
_atom_site_fract_z
Si Si1 0.868050 0.672592 0.159961
Si Si2 0.041356 0.170178 0.083920
Si Si3 0.134293 0.825835 0.477186
Si Si4 0.399484 0.178202 0.840957
Si Si5 0.746752 0.174018 0.279701
Si Si6 0.567340 0.178822 0.400928
Si Si7 0.906227 0.167508 0.272421
Si Si8 0.780837 0.175933 0.043034
O O1 0.860792 0.500000 0.148572
O O2 0.811141 0.766075 0.210908
O O3 0.877516 0.704374 0.251720
O O4 0.922092 0.738972 0.035323
O O5 0.048757 0.251783 0.168819
O O6 0.972990 0.164709 0.156040
O O7 0.063320 0.000000 0.058927
O O8 0.199614 0.763709 0.395683
O O9 0.102900 0.742444 0.437323
O O10 0.102079 0.805261 0.612484
O O11 0.135482 0.000000 0.456170
O O12 0.406548 0.223552 0.728775
O O13 0.343055 0.243639 0.963354
O O14 0.398679 0.000000 0.846526
O O15 0.742203 0.000000 0.304800
O O16 0.740368 0.196160 0.181432
O O17 0.500000 0.223982 0.500000
O O18 0.569626 0.000000 0.400686
O O19 0.882376 0.000000 0.284326
O O20 0.789654 0.000000 0.020935
O O21 0.750000 0.250000 0.000000
#
# Coordination Sequence:
#
# PCOD9225632 Si02
#       8
#     8   8   8   8   8   8   8   8
#     4  12  25  41  66  97 126 161 209 263 317 374
#     4  11  22  40  65  93 128 167 206 256 318 379
#     4  11  24  42  65  94 126 165 215 266 312 368
#     4  11  22  36  59  90 123 161 206 254 307 368
#     4  11  24  43  65  89 125 170 209 254 317 379
#     4  10  22  40  61  89 128 171 212 257 312 372
#     4  10  24  44  65  91 126 167 210 258 317 380
#     4  11  23  38  59  86 119 160 203 251 309 369
#
# _framework density 10.314329000000001
#
# number of rings (size 3 to 8) (size 9 to 14) (size 15 to 20)
#    0.000    1.125    1.250    4.875    0.000    9.750 
#    0.000    0.000    0.000    0.000    0.000    0.000 
#    0.000    0.000    0.000    0.000    0.000    0.000 
#
# Total GULP energy -178777.243488 kJ/mol
# GULP energy per Si atom -5586.788859 kJ/mol
# Density = 1.029085 g / cm^3
# Si number density = 10.314329 Si / 1000 Ang^3
#
#
#
# Elastic Constant Matrix: (Units=GPa)
#
#
# Indices 1 2 3 4 5 6 
#
# 1 32.0255 -14.9547 5.3463 0.0000 11.8689 0.0000
# 2 -14.9547 -41.8234 -17.8136 0.0000 14.9541 0.0000
# 3 5.3463 -17.8136 56.2203 0.0000 -2.3395 0.0000
# 4 0.0000 0.0000 0.0000 29.5192 0.0000 0.5400
# 5 11.8689 14.9541 -2.3395 0.0000 23.0480 0.0000
# 6 0.0000 0.0000 0.0000 0.5400 0.0000 24.2721
#
#
#
# Elastic Compliance Matrix: (Units=1/GPa)
#
#
# Indices 1 2 3 4 5 6 
#
# 1 0.030490 -0.011243 -0.006841 0.000000 -0.009101 0.000000
# 2 -0.011243 -0.013626 -0.002651 0.000000 0.014361 0.000000
# 3 -0.006841 -0.002651 0.017892 0.000000 0.007059 0.000000
# 4 0.000000 0.000000 0.000000 0.033890 0.000000 -0.000754
# 5 -0.009101 0.014361 0.007059 0.000000 0.039473 0.000000
# 6 0.000000 0.000000 0.000000 -0.000754 0.000000 0.041216
#
#
# Mechanical properties :
#
#
# Convention : Reuss Voigt Hill
#
# Bulk Modulus (GPa) = -148.97590 -0.93571 -74.95581
# Shear Modulus (GPa) = 26.51602 20.29082 23.40342
#
# Velocity S-wave (km/s) = 3.58913 3.13968 3.37190
# Velocity P-wave (km/s) = 7.42959 3.56214 4.61032
#
# Compressibility (1/GPa) = -0.00671250
#
# Stress axis : x y z
#
# Youngs Moduli (GPa) = 32.79760 -73.38887 55.89235
#
# Poissons Ratio (x) = -0.82510 0.38233
# Poissons Ratio (y) = 0.36874 0.14815
# Poissons Ratio (z) = 0.22435 -0.19453
#
# Static dielectric constant tensor:
#      x y z
#    x 1.849020 0.000000 -0.017590 
#    y 0.000000 1.690960 0.000000 
#    z -0.017590 0.000000 1.709110 
# 
# From -- ./inp_files/249817.got.cif
#   From: 2010.05.17/outbox.ucp.g08.bks.cvg/sg12_125_cif.got.tgz:249817.got - 2010.06.11 11:47:21.
