data_PCOD9225800
_publ_section_title
;
Structure prediction by ZEFSAII (Michael W. Deem and Ramdas Pophale) SiO2 
 PCOD9225800
Probable space group: C 2/M
;
_chemical_formula_sum "Si O2"
_cell_formula_units_Z 32
_cell_length_a 9.000000
_cell_length_b 30.000000
_cell_length_c 15.000000
_cell_angle_alpha 90.000000
_cell_angle_beta 50.000000
_cell_angle_gamma 90.000000
_cell_volume 3102.479995
_symmetry_space_group_name_H-M "C 2/M"
_symmetry_group_IT_number 12
_symmetry_cell_setting 'monoclinic'
loop_
_space_group_symop_operation_xyz
x,y,z
-x,y,-z
-x,-y,-z
x,-y,z
1/2+x,1/2+y,z
1/2-x,1/2+y,-z
1/2-x,1/2-y,-z
1/2+x,1/2-y,z
loop_
_atom_site_type_symbol
_atom_site_label
_atom_site_fract_x
_atom_site_fract_y
_atom_site_fract_z
Si Si1 0.041063 0.251004 0.747387
Si Si2 0.956868 0.051658 0.121237
Si Si3 0.052617 0.407451 0.275383
Si Si4 0.337116 0.552952 0.485479
Si Si5 0.674841 0.811063 0.861191
Si Si6 0.472392 0.948317 0.117728
Si Si7 0.583839 0.188419 0.366406
Si Si8 0.404772 0.404969 0.758540
O O1 0.082548 0.288174 0.807946
O O2 0.209683 0.213515 0.695113
O O3 0.835622 0.224724 0.834624
O O4 0.033248 0.276903 0.654237
O O5 0.732792 0.060709 0.227872
O O6 0.061762 0.084419 0.150062
O O7 0.008824 0.000000 0.118270
O O8 0.000000 0.060599 0.000000
O O9 0.858531 0.427137 0.395009
O O10 0.045333 0.414618 0.168502
O O11 0.090342 0.358144 0.305581
O O12 0.500000 0.555677 0.500000
O O13 0.314591 0.500000 0.469959
O O14 0.408108 0.584593 0.375447
O O15 0.795836 0.856918 0.793111
O O16 0.500000 0.818724 0.000000
O O17 0.242864 0.943209 0.217290
O O18 0.536102 0.000000 0.108699
O O19 0.500000 0.938334 0.000000
O O20 0.500000 0.181384 0.500000
#
# Coordination Sequence:
#
# PCOD9225800 Si02
#       8
#     8   8   8   8   8   8   8   8
#     4  10  24  47  73 103 138 183 232 290 368 433
#     4  11  25  44  65  96 141 187 232 288 352 414
#     4  12  25  42  71 103 140 183 240 291 356 418
#     4  11  24  43  68  99 142 187 235 290 341 408
#     4  11  24  45  73 105 142 178 233 293 360 430
#     4  11  22  40  67  98 134 179 233 288 343 410
#     4  11  25  46  71 103 141 184 236 293 351 432
#     4  12  24  41  66  99 135 179 235 281 344 411
#
# _framework density 10.314329000000001
#
# number of rings (size 3 to 8) (size 9 to 14) (size 15 to 20)
#    0.000    0.875    1.250    5.625    3.500    3.000 
#    0.000    4.375    0.000    0.000    0.000    0.000 
#    0.000    0.000    0.000    0.000    0.000    0.000 
#
# Total GULP energy -178658.957112 kJ/mol
# GULP energy per Si atom -5583.092410 kJ/mol
# Density = 1.029085 g / cm^3
# Si number density = 10.314329 Si / 1000 Ang^3
#
#
#
# Elastic Constant Matrix: (Units=GPa)
#
#
# Indices 1 2 3 4 5 6 
#
# 1 117.0811 46.0739 44.6283 0.0000 8.3070 0.0000
# 2 46.0739 147.0862 62.5015 0.0000 10.8358 0.0000
# 3 44.6283 62.5015 149.8938 0.0000 9.6631 0.0000
# 4 0.0000 0.0000 0.0000 38.7673 0.0000 5.2994
# 5 8.3070 10.8358 9.6631 0.0000 49.9044 0.0000
# 6 0.0000 0.0000 0.0000 5.2994 0.0000 44.6614
#
#
#
# Elastic Compliance Matrix: (Units=1/GPa)
#
#
# Indices 1 2 3 4 5 6 
#
# 1 0.010283 -0.002288 -0.002055 0.000000 -0.000817 0.000000
# 2 -0.002288 0.008836 -0.002941 0.000000 -0.000968 0.000000
# 3 -0.002055 -0.002941 0.008553 0.000000 -0.000676 0.000000
# 4 0.000000 0.000000 0.000000 0.026220 0.000000 -0.003111
# 5 -0.000817 -0.000968 -0.000676 0.000000 0.020515 0.000000
# 6 0.000000 0.000000 0.000000 -0.003111 0.000000 0.022760
#
#
# Mechanical properties :
#
#
# Convention : Reuss Voigt Hill
#
# Bulk Modulus (GPa) = 76.30675 80.05203 78.17939
# Shear Modulus (GPa) = 43.06529 44.05712 43.56121
#
# Velocity S-wave (km/s) = 4.57403 4.62640 4.60029
# Velocity P-wave (km/s) = 8.06019 8.21149 8.13619
#
# Compressibility (1/GPa) = 0.01310500
#
# Stress axis : x y z
#
# Youngs Moduli (GPa) = 97.25216 113.16878 116.91699
#
# Poissons Ratio (x) = 0.25888 0.24026
# Poissons Ratio (y) = 0.22247 0.34385
# Poissons Ratio (z) = 0.19985 0.33283
#
# Static dielectric constant tensor:
#      x y z
#    x 1.804260 0.000000 -0.013620 
#    y 0.000000 1.726180 0.000000 
#    z -0.013620 0.000000 1.752790 
# 
# From -- ./inp_files/201300.got.cif
#   From: 2010.05.17/outbox.ucp.g08.bks.cvg/sg12_101_cif.got.tgz:201300.got - 2010.06.11 11:47:21.
