data_PCOD9225690
_publ_section_title
;
Structure prediction by ZEFSAII (Michael W. Deem and Ramdas Pophale) SiO2 
 PCOD9225690
Probable space group: C 2/M
;
_chemical_formula_sum "Si O2"
_cell_formula_units_Z 28
_cell_length_a 12.000000
_cell_length_b 15.000000
_cell_length_c 30.000000
_cell_angle_alpha 90.000000
_cell_angle_beta 30.000000
_cell_angle_gamma 90.000000
_cell_volume 2700.000000
_symmetry_space_group_name_H-M "C 2/M"
_symmetry_group_IT_number 12
_symmetry_cell_setting 'monoclinic'
loop_
_space_group_symop_operation_xyz
x,y,z
-x,y,-z
-x,-y,-z
x,-y,z
1/2+x,1/2+y,z
1/2-x,1/2+y,-z
1/2-x,1/2-y,-z
1/2+x,1/2-y,z
loop_
_atom_site_type_symbol
_atom_site_label
_atom_site_fract_x
_atom_site_fract_y
_atom_site_fract_z
Si Si1 0.778353 0.244669 0.046150
Si Si2 0.601562 0.221181 0.664726
Si Si3 0.672688 0.397917 0.151305
Si Si4 0.271256 0.150533 0.473162
Si Si5 0.773646 0.400789 0.639279
Si Si6 0.206903 0.096873 0.329106
Si Si7 0.315363 0.832653 0.198391
O O1 0.723174 0.337194 0.091069
O O2 0.566034 0.181874 0.127928
O O3 0.750000 0.250000 0.000000
O O4 0.000000 0.216288 0.000000
O O5 0.688392 0.162757 0.593550
O O6 0.726313 0.317418 0.623240
O O7 0.657144 0.172958 0.691860
O O8 0.340378 0.244300 0.749864
O O9 0.723944 0.500000 0.123504
O O10 0.416230 0.391004 0.256700
O O11 0.802181 0.370012 0.152338
O O12 0.250000 0.250000 0.500000
O O13 0.485845 0.107698 0.421890
O O14 0.042560 0.103328 0.565220
O O15 0.746441 0.500000 0.628772
O O16 0.205048 0.110951 0.276516
O O17 0.303067 0.000000 0.305911
#
# Coordination Sequence:
#
# PCOD9225690 Si02
#       7
#     8   8   8   8   8   8   8
#     4  12  25  46  76 109 137 176 224 277 347 429
#     4  11  22  41  65  90 131 179 231 283 348 405
#     4  10  22  43  71 102 137 179 225 280 345 415
#     4  12  22  39  59  90 134 184 229 287 340 399
#     4  10  22  41  65  95 129 172 230 283 332 399
#     4  12  26  40  63  96 136 183 233 287 348 406
#     4  11  22  45  71  96 134 179 227 284 344 417
#
# _framework density 10.370369999999999
#
# number of rings (size 3 to 8) (size 9 to 14) (size 15 to 20)
#    0.000    0.857    4.286    3.857    0.000    2.571 
#    0.000    1.429    0.000    2.143    0.000    0.000 
#    0.000    0.000    0.000    0.000    0.000    0.000 
#
# Total GULP energy -156254.194115 kJ/mol
# GULP energy per Si atom -5580.506933 kJ/mol
# Density = 1.034677 g / cm^3
# Si number density = 10.370370 Si / 1000 Ang^3
#
#
#
# Elastic Constant Matrix: (Units=GPa)
#
#
# Indices 1 2 3 4 5 6 
#
# 1 114.2160 24.1354 40.0496 0.0119 -4.1508 0.0036
# 2 24.1354 92.6694 15.9373 -0.0011 -2.6638 0.0030
# 3 40.0496 15.9373 74.9326 0.0264 -10.8345 0.0147
# 4 0.0119 -0.0011 0.0264 9.0325 -0.0141 1.3236
# 5 -4.1508 -2.6638 -10.8345 -0.0141 53.6020 -0.0010
# 6 0.0036 0.0030 0.0147 1.3236 -0.0010 18.3428
#
#
#
# Elastic Compliance Matrix: (Units=1/GPa)
#
#
# Indices 1 2 3 4 5 6 
#
# 1 0.011108 -0.001945 -0.005576 0.000000 -0.000364 0.000003
# 2 -0.001945 0.011541 -0.001395 0.000008 0.000141 -0.000001
# 3 -0.005576 -0.001395 0.017048 -0.000037 0.002945 -0.000009
# 4 0.000000 0.000008 -0.000037 0.111895 0.000022 -0.008074
# 5 -0.000364 0.000141 0.002945 0.000022 0.019230 -0.000003
# 6 0.000003 -0.000001 -0.000009 -0.008074 -0.000003 0.055100
#
#
# Mechanical properties :
#
#
# Convention : Reuss Voigt Hill
#
# Bulk Modulus (GPa) = 45.73204 49.11806 47.42505
# Shear Modulus (GPa) = 19.91690 29.64184 24.77937
#
# Velocity S-wave (km/s) = 3.10220 3.78452 3.46022
# Velocity P-wave (km/s) = 5.91006 6.54448 6.23534
#
# Compressibility (1/GPa) = 0.02186651
#
# Stress axis : x y z
#
# Youngs Moduli (GPa) = 90.02291 86.64397 58.65756
#
# Poissons Ratio (x) = 0.16849 0.32708
# Poissons Ratio (y) = 0.17506 0.08183
# Poissons Ratio (z) = 0.50197 0.12087
#
# Static dielectric constant tensor:
#      x y z
#    x 1.742790 0.000000 -0.009690 
#    y 0.000000 1.805510 0.000040 
#    z -0.009690 0.000040 1.810450 
# 
# From -- ./inp_files/374204.got.cif
#   From: 2010.05.17/outbox.ucp.g08.bks.cvg/sg12_188_cif.got.tgz:374204.got - 2010.06.11 11:47:21.
