data_PCOD9225931
_publ_section_title
;
Structure prediction by ZEFSAII (Michael W. Deem and Ramdas Pophale) SiO2 
 PCOD9225931
Probable space group: C 2/M
;
_chemical_formula_sum "Si O2"
_cell_formula_units_Z 32
_cell_length_a 21.000000
_cell_length_b 27.000000
_cell_length_c 18.000000
_cell_angle_alpha 90.000000
_cell_angle_beta 20.000000
_cell_angle_gamma 90.000000
_cell_volume 3490.657583
_symmetry_space_group_name_H-M "C 2/M"
_symmetry_group_IT_number 12
_symmetry_cell_setting 'monoclinic'
loop_
_space_group_symop_operation_xyz
x,y,z
-x,y,-z
-x,-y,-z
x,-y,z
1/2+x,1/2+y,z
1/2-x,1/2+y,-z
1/2-x,1/2-y,-z
1/2+x,1/2-y,z
loop_
_atom_site_type_symbol
_atom_site_label
_atom_site_fract_x
_atom_site_fract_y
_atom_site_fract_z
Si Si1 0.529821 0.189055 0.274688
Si Si2 0.303075 0.711707 0.698855
Si Si3 0.201221 0.554679 0.868120
Si Si4 0.889281 0.053596 0.506160
Si Si5 0.352744 0.696762 0.220105
Si Si6 0.939268 0.787500 0.852940
Si Si7 0.936544 0.345428 0.916083
Si Si8 0.847243 0.844620 0.503404
O O1 0.353693 0.179255 0.521853
O O2 0.502884 0.235762 0.248326
O O3 0.580960 0.149517 0.153945
O O4 0.719654 0.204930 0.107647
O O5 0.500000 0.736242 0.500000
O O6 0.191139 0.752374 0.775546
O O7 0.360072 0.669115 0.576601
O O8 0.201381 0.689542 0.883207
O O9 0.123061 0.500000 0.969429
O O10 0.245754 0.557687 0.731951
O O11 0.404236 0.557776 0.684889
O O12 0.086283 0.600897 0.022004
O O13 0.857956 0.097108 0.484531
O O14 0.871187 0.000000 0.491746
O O15 0.458988 0.704035 0.181306
O O16 0.500000 0.670710 0.000000
O O17 0.001689 0.822944 0.717324
O O18 0.144503 0.326986 0.702582
#
# Coordination Sequence:
#
# PCOD9225931 Si02
#       8
#     8   8   8   8   8   8   8   8
#     4  11  23  38  57  77 107 147 181 231 281 324
#     4  12  24  35  52  78 106 150 194 223 267 326
#     4   9  18  33  52  75 108 147 187 226 264 316
#     4   9  18  32  51  77 108 146 187 224 266 316
#     4  12  25  39  56  78 106 136 188 237 278 334
#     4  11  23  40  56  77 109 142 186 233 277 324
#     4  12  23  36  53  81 111 147 191 229 270 324
#     4  12  21  35  54  77 112 146 188 234 265 319
#
# _framework density 9.1673270000000002
#
# number of rings (size 3 to 8) (size 9 to 14) (size 15 to 20)
#    0.000    1.000    3.750    6.000    3.500    0.500 
#    0.000    1.250    0.000    0.000    0.000    0.000 
#    0.000    2.000    0.000    5.250    0.000    0.500 
#
# Total GULP energy -178401.966047 kJ/mol
# GULP energy per Si atom -5575.061439 kJ/mol
# Density = 0.914646 g / cm^3
# Si number density = 9.167327 Si / 1000 Ang^3
#
#
#
# Elastic Constant Matrix: (Units=GPa)
#
#
# Indices 1 2 3 4 5 6 
#
# 1 44.2331 8.9333 31.6592 0.0196 -2.1327 -0.0042
# 2 8.9333 48.8503 11.2790 0.0253 -0.1797 -0.0106
# 3 31.6592 11.2790 121.0377 0.0607 8.6521 -0.0441
# 4 0.0196 0.0253 0.0607 13.0659 0.0330 4.7017
# 5 -2.1327 -0.1797 8.6521 0.0330 26.7701 0.0009
# 6 -0.0042 -0.0106 -0.0441 4.7017 0.0009 19.9250
#
#
#
# Elastic Compliance Matrix: (Units=1/GPa)
#
#
# Indices 1 2 3 4 5 6 
#
# 1 0.028982 -0.003530 -0.007590 -0.000009 0.004738 -0.000011
# 2 -0.003530 0.021367 -0.001083 -0.000038 0.000212 0.000017
# 3 -0.007590 -0.001083 0.010638 -0.000037 -0.004050 0.000030
# 4 -0.000009 -0.000038 -0.000037 0.083638 -0.000092 -0.019736
# 5 0.004738 0.000212 -0.004050 -0.000092 0.039043 0.000012
# 6 -0.000011 0.000017 0.000030 -0.019736 0.000012 0.054846
#
#
# Mechanical properties :
#
#
# Convention : Reuss Voigt Hill
#
# Bulk Modulus (GPa) = 27.33742 35.31825 31.32783
# Shear Modulus (GPa) = 18.17439 22.76882 20.47161
#
# Velocity S-wave (km/s) = 3.15184 3.52781 3.34511
# Velocity P-wave (km/s) = 5.30925 5.99156 5.66069
#
# Compressibility (1/GPa) = 0.03657990
#
# Stress axis : x y z
#
# Youngs Moduli (GPa) = 34.50469 46.80093 94.00525
#
# Poissons Ratio (x) = 0.16520 0.71353
# Poissons Ratio (y) = 0.12180 0.10180
# Poissons Ratio (z) = 0.26190 0.05068
#
# Static dielectric constant tensor:
#      x y z
#    x 1.683370 -0.000050 -0.050690 
#    y -0.000050 1.680750 0.000150 
#    z -0.050690 0.000150 1.720470 
# 
# From -- ./inp_files/286690.got.cif
#   From: 2010.05.17/outbox.ucp.g08.bks.cvg/sg12_144_cif.got.tgz:286690.got - 2010.06.11 11:47:21.
