data_PCOD9225884
_publ_section_title
;
Structure prediction by ZEFSAII (Michael W. Deem and Ramdas Pophale) SiO2 
 PCOD9225884
Probable space group: C 2/M
;
_chemical_formula_sum "Si O2"
_cell_formula_units_Z 22
_cell_length_a 15.000000
_cell_length_b 18.000000
_cell_length_c 24.000000
_cell_angle_alpha 90.000000
_cell_angle_beta 20.000000
_cell_angle_gamma 90.000000
_cell_volume 2216.290529
_symmetry_space_group_name_H-M "C 2/M"
_symmetry_group_IT_number 12
_symmetry_cell_setting 'monoclinic'
loop_
_space_group_symop_operation_xyz
x,y,z
-x,y,-z
-x,-y,-z
x,-y,z
1/2+x,1/2+y,z
1/2-x,1/2+y,-z
1/2-x,1/2-y,-z
1/2+x,1/2-y,z
loop_
_atom_site_type_symbol
_atom_site_label
_atom_site_fract_x
_atom_site_fract_y
_atom_site_fract_z
Si Si1 0.067868 0.588871 0.828467
Si Si2 0.816868 0.283090 0.160807
Si Si3 0.166160 0.220281 0.632076
Si Si4 0.000000 0.840111 0.500000
Si Si5 0.014118 0.833111 0.138187
Si Si6 0.512733 0.919437 0.425420
O O1 0.037141 0.500000 0.853397
O O2 0.169227 0.632869 0.823817
O O3 0.280139 0.609725 0.657194
O O4 0.797798 0.629962 0.970238
O O5 0.538260 0.262071 0.296837
O O6 0.935182 0.231895 0.141003
O O7 0.000000 0.276580 0.000000
O O8 0.364464 0.285686 0.533809
O O9 0.036261 0.196677 0.768683
O O10 0.327177 0.148038 0.518254
O O11 0.809595 0.896904 0.241448
O O12 0.500000 0.922656 0.500000
O O13 0.442145 0.000000 0.443796
#
# Coordination Sequence:
#
# PCOD9225884 Si02
#       6
#     8   8   8   4   8   8
#     4  12  26  43  67  97 137 178 215 271 337 395
#     4  12  24  40  69 101 127 169 226 277 324 387
#     4  11  21  41  68  98 130 172 223 275 322 390
#     4  12  23  46  67  96 134 180 228 262 327 394
#     4  11  21  44  66  95 130 175 223 268 327 388
#     4   9  18  34  61  96 131 168 211 268 331 385
#
# _framework density 9.9264960000000002
#
# number of rings (size 3 to 8) (size 9 to 14) (size 15 to 20)
#    0.000    0.909    6.364    2.455    0.000    4.727 
#    0.000    0.000    0.000   10.909    0.000    0.000 
#    0.000    0.000    0.000    0.000    0.000    0.000 
#
# Total GULP energy -122836.050703 kJ/mol
# GULP energy per Si atom -5583.456850 kJ/mol
# Density = 0.990390 g / cm^3
# Si number density = 9.926496 Si / 1000 Ang^3
#
#
#
# Elastic Constant Matrix: (Units=GPa)
#
#
# Indices 1 2 3 4 5 6 
#
# 1 113.5704 53.5290 40.4899 -0.0144 -21.0671 -0.0184
# 2 53.5290 137.5223 45.7549 0.0573 -14.7168 0.0424
# 3 40.4899 45.7549 127.0596 0.1504 -12.8846 0.0419
# 4 -0.0144 0.0573 0.1504 19.5294 0.0201 -5.1976
# 5 -21.0671 -14.7168 -12.8846 0.0201 30.3482 -0.0127
# 6 -0.0184 0.0424 0.0419 -5.1976 -0.0127 21.4159
#
#
#
# Elastic Compliance Matrix: (Units=1/GPa)
#
#
# Indices 1 2 3 4 5 6 
#
# 1 0.012276 -0.003453 -0.002063 0.000038 0.005971 0.000034
# 2 -0.003453 0.009478 -0.002184 -0.000021 0.001272 -0.000022
# 3 -0.002063 -0.002184 0.009469 -0.000079 0.001529 -0.000034
# 4 0.000038 -0.000021 -0.000079 0.054742 -0.000048 0.013286
# 5 0.005971 0.001272 0.001529 -0.000048 0.038362 0.000011
# 6 0.000034 -0.000022 -0.000034 0.013286 0.000011 0.049919
#
#
# Mechanical properties :
#
#
# Convention : Reuss Voigt Hill
#
# Bulk Modulus (GPa) = 63.19538 73.07777 68.13657
# Shear Modulus (GPa) = 25.65155 30.15060 27.90108
#
# Velocity S-wave (km/s) = 3.59844 3.90127 3.75291
# Velocity P-wave (km/s) = 7.01184 7.56191 7.29206
#
# Compressibility (1/GPa) = 0.01582394
#
# Stress axis : x y z
#
# Youngs Moduli (GPa) = 81.46172 105.50454 105.60409
#
# Poissons Ratio (x) = 0.36429 0.21787
# Poissons Ratio (y) = 0.28127 0.23062
# Poissons Ratio (z) = 0.16806 0.23040
#
# Static dielectric constant tensor:
#      x y z
#    x 1.669170 0.000030 0.009730 
#    y 0.000030 1.709680 0.000080 
#    z 0.009730 0.000080 1.799950 
# 
# From -- ./inp_files/340747.got.cif
#   From: 2010.05.17/outbox.ucp.g08.bks.cvg/sg12_171_cif.got.tgz:340747.got - 2010.06.11 11:47:21.
