data_PCOD9225457
_publ_section_title
;
Structure prediction by ZEFSAII (Michael W. Deem and Ramdas Pophale) SiO2 
 PCOD9225457
Probable space group: C 2/M
;
_chemical_formula_sum "Si O2"
_cell_formula_units_Z 28
_cell_length_a 18.000000
_cell_length_b 21.000000
_cell_length_c 9.000000
_cell_angle_alpha 90.000000
_cell_angle_beta 60.000000
_cell_angle_gamma 90.000000
_cell_volume 2946.218424
_symmetry_space_group_name_H-M "C 2/M"
_symmetry_group_IT_number 12
_symmetry_cell_setting 'monoclinic'
loop_
_space_group_symop_operation_xyz
x,y,z
-x,y,-z
-x,-y,-z
x,-y,z
1/2+x,1/2+y,z
1/2-x,1/2+y,-z
1/2-x,1/2-y,-z
1/2+x,1/2-y,z
loop_
_atom_site_type_symbol
_atom_site_label
_atom_site_fract_x
_atom_site_fract_y
_atom_site_fract_z
Si Si1 0.576613 0.871147 0.813871
Si Si2 0.096261 0.873735 0.562393
Si Si3 0.770143 0.423807 0.544138
Si Si4 0.986189 0.262549 0.339861
Si Si5 0.093161 0.923160 0.225804
Si Si6 0.850310 0.279557 0.008167
Si Si7 0.763892 0.148585 0.115276
O O1 0.651317 0.910699 0.652549
O O2 0.539779 0.827066 0.718301
O O3 0.500000 0.900355 0.000000
O O4 0.617409 0.820432 0.886508
O O5 0.181067 0.898201 0.560781
O O6 0.077627 0.798244 0.605007
O O7 0.106739 0.891307 0.376284
O O8 0.007520 0.907567 0.705350
O O9 0.765416 0.500000 0.572860
O O10 0.774703 0.387498 0.701099
O O11 0.000000 0.273939 0.500000
O O12 0.075174 0.247245 0.166438
O O13 0.104191 0.000000 0.223964
O O14 0.160241 0.893096 0.039670
O O15 0.802283 0.329961 0.948382
O O16 0.797744 0.219376 0.123129
#
# Coordination Sequence:
#
# PCOD9225457 Si02
#       7
#     8   8   8   8   8   8   8
#     4  10  24  42  66  90 117 157 203 264 323 376
#     4  11  21  37  61  89 127 170 211 251 297 365
#     4  12  26  42  60  90 126 164 212 257 306 374
#     4  11  19  37  64  96 128 156 205 264 315 361
#     4  11  21  37  57  87 129 178 213 241 293 372
#     4  10  21  39  62  92 123 157 208 260 311 369
#     4  11  22  38  62  90 126 165 204 259 312 356
#
# _framework density 9.5037079999999996
#
# number of rings (size 3 to 8) (size 9 to 14) (size 15 to 20)
#    0.000    1.143    2.857    4.714    0.000    5.429 
#    0.000    2.143    0.000    9.000    0.000    0.000 
#    0.000    0.000    0.000    0.000    0.000    0.000 
#
# Total GULP energy -156180.213669 kJ/mol
# GULP energy per Si atom -5577.864774 kJ/mol
# Density = 0.948208 g / cm^3
# Si number density = 9.503708 Si / 1000 Ang^3
#
#
#
# Elastic Constant Matrix: (Units=GPa)
#
#
# Indices 1 2 3 4 5 6 
#
# 1 59.5753 30.6835 26.9389 0.0000 -2.2914 0.0000
# 2 30.6835 84.0492 47.1156 0.0000 -1.0227 0.0000
# 3 26.9389 47.1156 144.2692 0.0000 -6.4877 0.0000
# 4 0.0000 0.0000 0.0000 40.8910 0.0000 -6.2015
# 5 -2.2914 -1.0227 -6.4877 0.0000 28.9350 0.0000
# 6 0.0000 0.0000 0.0000 -6.2015 0.0000 23.7284
#
#
#
# Elastic Compliance Matrix: (Units=1/GPa)
#
#
# Indices 1 2 3 4 5 6 
#
# 1 0.021054 -0.006728 -0.001687 0.000000 0.001051 0.000000
# 2 -0.006728 0.016723 -0.004245 0.000000 -0.000894 0.000000
# 3 -0.001687 -0.004245 0.008708 0.000000 0.001669 0.000000
# 4 0.000000 0.000000 0.000000 0.025465 0.000000 0.006655
# 5 0.001051 -0.000894 0.001669 0.000000 0.034986 0.000000
# 6 0.000000 0.000000 0.000000 0.006655 0.000000 0.043883
#
#
# Mechanical properties :
#
#
# Convention : Reuss Voigt Hill
#
# Bulk Modulus (GPa) = 47.24825 55.26330 51.25577
# Shear Modulus (GPa) = 27.29371 30.92126 29.10748
#
# Velocity S-wave (km/s) = 3.79350 4.03774 3.91752
# Velocity P-wave (km/s) = 6.64073 7.13270 6.89111
#
# Compressibility (1/GPa) = 0.02116481
#
# Stress axis : x y z
#
# Youngs Moduli (GPa) = 47.49775 59.79900 114.83747
#
# Poissons Ratio (x) = 0.40230 0.19372
# Poissons Ratio (y) = 0.31954 0.48752
# Poissons Ratio (z) = 0.08012 0.25386
#
# Static dielectric constant tensor:
#      x y z
#    x 1.730740 0.000000 -0.028720 
#    y 0.000000 1.651480 0.000000 
#    z -0.028720 0.000000 1.660250 
# 
# From -- ./inp_files/77393.got.cif
#   From: 2010.05.17/outbox.ucp.g08.bks.cvg/sg12_39_cif.got.tgz:77393.got - 2010.06.11 11:47:21.
