data_PCOD9225599
_publ_section_title
;
Structure prediction by ZEFSAII (Michael W. Deem and Ramdas Pophale) SiO2 
 PCOD9225599
Probable space group: C 2/M
;
_chemical_formula_sum "Si O2"
_cell_formula_units_Z 22
_cell_length_a 27.000000
_cell_length_b 12.000000
_cell_length_c 9.000000
_cell_angle_alpha 90.000000
_cell_angle_beta 130.000000
_cell_angle_gamma 90.000000
_cell_volume 2233.785596
_symmetry_space_group_name_H-M "C 2/M"
_symmetry_group_IT_number 12
_symmetry_cell_setting 'monoclinic'
loop_
_space_group_symop_operation_xyz
x,y,z
-x,y,-z
-x,-y,-z
x,-y,z
1/2+x,1/2+y,z
1/2-x,1/2+y,-z
1/2-x,1/2-y,-z
1/2+x,1/2-y,z
loop_
_atom_site_type_symbol
_atom_site_label
_atom_site_fract_x
_atom_site_fract_y
_atom_site_fract_z
Si Si1 0.140576 0.245931 0.102580
Si Si2 0.600859 0.251711 0.354318
Si Si3 0.222792 0.287378 0.786380
Si Si4 0.393289 0.000000 0.003540
Si Si5 0.639422 0.000000 0.715622
Si Si6 0.519310 0.634114 0.710078
Si Si7 0.547869 0.000000 0.286631
O O1 0.120233 0.207364 0.227857
O O2 0.212561 0.209534 0.190688
O O3 0.136741 0.381322 0.102499
O O4 0.085794 0.197365 0.884456
O O5 0.663981 0.272032 0.581709
O O6 0.538840 0.314637 0.303134
O O7 0.579286 0.119278 0.296887
O O8 0.184083 0.398546 0.752253
O O9 0.250000 0.250000 0.000000
O O10 0.378398 0.000000 0.148717
O O11 0.470520 0.000000 0.116660
O O12 0.570544 0.000000 0.500767
O O13 0.500000 0.653406 0.500000
O O14 0.525803 0.500000 0.744326
#
# Coordination Sequence:
#
# PCOD9225599 Si02
#       7
#     8   8   8   4   4   8   4
#     4  12  25  41  69  98 135 171 216 273 333 390
#     4  11  24  44  67  99 134 171 215 272 333 389
#     4  11  23  44  65  92 129 174 225 266 321 390
#     4  12  22  38  69 103 133 170 213 270 338 387
#     4  10  23  40  64  96 127 176 222 272 320 384
#     4  11  26  46  67  95 129 175 223 266 319 392
#     4  10  22  38  69 101 136 163 211 277 327 396
#
# _framework density 9.8487519999999993
#
# number of rings (size 3 to 8) (size 9 to 14) (size 15 to 20)
#    0.000    0.909    3.636    3.000    3.818    2.182 
#    3.273    0.000    0.000    0.000    0.000    0.000 
#    0.000    0.000    0.000    0.000    0.000    0.000 
#
# Total GULP energy -122726.958521 kJ/mol
# GULP energy per Si atom -5578.498115 kJ/mol
# Density = 0.982634 g / cm^3
# Si number density = 9.848752 Si / 1000 Ang^3
#
#
#
# Elastic Constant Matrix: (Units=GPa)
#
#
# Indices 1 2 3 4 5 6 
#
# 1 118.4228 -18.9485 2.9475 0.0000 -1.1676 0.0000
# 2 -18.9485 28.8734 -2.5969 0.0000 -12.4085 0.0000
# 3 2.9475 -2.5969 63.5915 0.0000 10.7035 0.0000
# 4 0.0000 0.0000 0.0000 17.4629 0.0000 10.7625
# 5 -1.1676 -12.4085 10.7035 0.0000 48.5336 0.0000
# 6 0.0000 0.0000 0.0000 10.7625 0.0000 17.3404
#
#
#
# Elastic Compliance Matrix: (Units=1/GPa)
#
#
# Indices 1 2 3 4 5 6 
#
# 1 0.009634 0.007217 -0.000521 0.000000 0.002192 0.000000
# 2 0.007217 0.044317 -0.000479 0.000000 0.011610 0.000000
# 3 -0.000521 -0.000479 0.016360 0.000000 -0.003743 0.000000
# 4 0.000000 0.000000 0.000000 0.092738 0.000000 -0.057558
# 5 0.002192 0.011610 -0.003743 0.000000 0.024451 0.000000
# 6 0.000000 0.000000 0.000000 -0.057558 0.000000 0.093393
#
#
# Mechanical properties :
#
#
# Convention : Reuss Voigt Hill
#
# Bulk Modulus (GPa) = 12.08519 19.29911 15.69215
# Shear Modulus (GPa) = 16.88973 31.96642 24.42808
#
# Velocity S-wave (km/s) = 2.93141 4.03285 3.52541
# Velocity P-wave (km/s) = 4.19598 5.61286 4.95532
#
# Compressibility (1/GPa) = 0.08274591
#
# Stress axis : x y z
#
# Youngs Moduli (GPa) = 103.80200 22.56488 61.12488
#
# Poissons Ratio (x) = -0.16286 0.03183
# Poissons Ratio (y) = -0.74918 0.02927
# Poissons Ratio (z) = 0.05405 0.01081
#
# Static dielectric constant tensor:
#      x y z
#    x 1.656470 0.000000 -0.035690 
#    y 0.000000 1.708580 0.000000 
#    z -0.035690 0.000000 1.732360 
# 
# From -- ./inp_files/84096.got.cif
#   From: 2010.05.17/outbox.ucp.g08.bks.cvg/sg12_43_cif.got.tgz:84096.got - 2010.06.11 11:47:21.
