data_PCOD9225948
_publ_section_title
;
Structure prediction by ZEFSAII (Michael W. Deem and Ramdas Pophale) SiO2 
 PCOD9225948
Probable space group: C 2/M
;
_chemical_formula_sum "Si O2"
_cell_formula_units_Z 24
_cell_length_a 21.000000
_cell_length_b 18.000000
_cell_length_c 18.000000
_cell_angle_alpha 90.000000
_cell_angle_beta 160.000000
_cell_angle_gamma 90.000000
_cell_volume 2327.105055
_symmetry_space_group_name_H-M "C 2/M"
_symmetry_group_IT_number 12
_symmetry_cell_setting 'monoclinic'
loop_
_space_group_symop_operation_xyz
x,y,z
-x,y,-z
-x,-y,-z
x,-y,z
1/2+x,1/2+y,z
1/2-x,1/2+y,-z
1/2-x,1/2-y,-z
1/2+x,1/2-y,z
loop_
_atom_site_type_symbol
_atom_site_label
_atom_site_fract_x
_atom_site_fract_y
_atom_site_fract_z
Si Si1 0.202291 0.334236 0.182847
Si Si2 0.925471 0.910896 0.818519
Si Si3 0.318786 0.088690 0.999197
Si Si4 0.220092 0.658977 0.736905
Si Si5 0.607648 0.588319 0.477159
Si Si6 0.690826 0.836953 0.433503
O O1 0.184080 0.382606 0.088706
O O2 0.254805 0.247829 0.227303
O O3 0.354243 0.372574 0.402620
O O4 0.000000 0.334074 0.000000
O O5 0.810737 0.870457 0.759185
O O6 0.817932 0.883268 0.628901
O O7 0.921691 0.000000 0.823546
O O8 0.138899 0.881923 0.051666
O O9 0.102082 0.098793 0.783892
O O10 0.363454 0.000000 0.053789
O O11 0.474641 0.140240 0.209628
O O12 0.000000 0.641153 0.500000
O O13 0.640715 0.500000 0.518640
O O14 0.754000 0.629022 0.584961
O O15 0.750000 0.750000 0.500000
#
# Coordination Sequence:
#
# PCOD9225948 Si02
#       6
#     8   8   8   8   8   8
#     4  12  21  38  66  94 127 166 205 253 307 362
#     4  11  24  42  63  93 125 158 209 261 309 366
#     4  11  24  41  63  94 128 164 207 253 306 369
#     4  11  23  42  66  92 123 161 207 257 313 368
#     4  11  24  41  63  94 128 164 207 253 306 369
#     4  12  25  42  65  90 126 168 208 254 313 370
#
# _framework density 10.313243
#
# number of rings (size 3 to 8) (size 9 to 14) (size 15 to 20)
#    0.000    0.667    3.333    6.500    0.000    5.333 
#    0.000    0.000    0.000    0.000    0.000    0.000 
#    0.000    0.000    0.000    0.000    0.000    0.000 
#
# Total GULP energy -134109.914284 kJ/mol
# GULP energy per Si atom -5587.913095 kJ/mol
# Density = 1.028977 g / cm^3
# Si number density = 10.313243 Si / 1000 Ang^3
#
#
#
# Elastic Constant Matrix: (Units=GPa)
#
#
# Indices 1 2 3 4 5 6 
#
# 1 27.4642 -4.1749 11.4526 0.0000 -0.2928 0.0001
# 2 -4.1749 150.4129 38.4744 -0.0006 3.4851 -0.0001
# 3 11.4526 38.4744 154.0656 0.0011 8.3215 0.0006
# 4 0.0000 -0.0006 0.0011 53.1725 0.0002 6.2409
# 5 -0.2928 3.4851 8.3215 0.0002 43.7537 0.0002
# 6 0.0001 -0.0001 0.0006 6.2409 0.0002 27.8380
#
#
#
# Elastic Compliance Matrix: (Units=1/GPa)
#
#
# Indices 1 2 3 4 5 6 
#
# 1 0.038102 0.001896 -0.003346 0.000000 0.000740 0.000000
# 2 0.001896 0.007199 -0.001928 0.000000 -0.000194 0.000000
# 3 -0.003346 -0.001928 0.007289 0.000000 -0.001255 0.000000
# 4 0.000000 0.000000 0.000000 0.019315 0.000000 -0.004330
# 5 0.000740 -0.000194 -0.001255 0.000000 0.023114 0.000000
# 6 0.000000 0.000000 0.000000 -0.004330 0.000000 0.036893
#
#
# Mechanical properties :
#
#
# Convention : Reuss Voigt Hill
#
# Bulk Modulus (GPa) = 21.81776 47.04966 34.43371
# Shear Modulus (GPa) = 32.47899 44.03222 38.25560
#
# Velocity S-wave (km/s) = 3.97246 4.62534 4.31128
# Velocity P-wave (km/s) = 5.62504 7.16832 6.44306
#
# Compressibility (1/GPa) = 0.04583423
#
# Stress axis : x y z
#
# Youngs Moduli (GPa) = 26.24508 138.91376 137.19721
#
# Poissons Ratio (x) = -0.26342 0.45905
# Poissons Ratio (y) = -0.04977 0.26454
# Poissons Ratio (z) = 0.08781 0.26785
#
# Static dielectric constant tensor:
#      x y z
#    x 1.526150 0.000000 0.138060 
#    y 0.000000 1.679510 0.000000 
#    z 0.138060 0.000000 1.721600 
# 
# From -- ./inp_files/285343.got.cif
#   From: 2010.05.17/outbox.ucp.g08.bks.cvg/sg12_143_cif.got.tgz:285343.got - 2010.06.11 11:47:21.
