data_PCOD9225123
_publ_section_title
;
Structure prediction by ZEFSAII (Michael W. Deem and Ramdas Pophale) SiO2 
 PCOD9225123
Probable space group: C 2/M
;
_chemical_formula_sum "Si O2"
_cell_formula_units_Z 32
_cell_length_a 21.000000
_cell_length_b 24.000000
_cell_length_c 18.000000
_cell_angle_alpha 90.000000
_cell_angle_beta 160.000000
_cell_angle_gamma 90.000000
_cell_volume 3102.806740
_symmetry_space_group_name_H-M "C 2/M"
_symmetry_group_IT_number 12
_symmetry_cell_setting 'monoclinic'
loop_
_space_group_symop_operation_xyz
x,y,z
-x,y,-z
-x,-y,-z
x,-y,z
1/2+x,1/2+y,z
1/2-x,1/2+y,-z
1/2-x,1/2-y,-z
1/2+x,1/2-y,z
loop_
_atom_site_type_symbol
_atom_site_label
_atom_site_fract_x
_atom_site_fract_y
_atom_site_fract_z
Si Si1 0.541116 0.851579 0.129696
Si Si2 0.065692 0.064471 0.226191
Si Si3 0.886957 0.160396 0.298680
Si Si4 0.577120 0.934529 0.298644
Si Si5 0.720667 0.260663 0.380786
Si Si6 0.640264 0.564173 0.842764
Si Si7 0.047053 0.281284 0.637096
Si Si8 0.582247 0.665116 0.008741
O O1 0.610954 0.899654 0.261051
O O2 0.670931 0.797126 0.282656
O O3 0.500000 0.868075 0.000000
O O4 0.332661 0.838646 0.927362
O O5 0.275149 0.082413 0.476906
O O6 0.950201 0.071382 0.176009
O O7 0.066893 0.000000 0.207247
O O8 0.973114 0.101726 0.062639
O O9 0.935008 0.109117 0.297965
O O10 0.908976 0.219970 0.283077
O O11 0.000000 0.154005 0.500000
O O12 0.609231 0.000000 0.318985
O O13 0.363910 0.927732 0.090182
O O14 0.750000 0.250000 0.500000
O O15 0.876544 0.295197 0.504662
O O16 0.537684 0.297606 0.177634
O O17 0.606323 0.500000 0.781844
O O18 0.211046 0.324255 0.797267
O O19 0.000000 0.267043 0.500000
O O20 0.500000 0.682959 0.000000
#
# Coordination Sequence:
#
# PCOD9225123 Si02
#       8
#     8   8   8   8   8   8   8   8
#     4  11  21  37  59  87 130 167 212 262 311 372
#     4  10  23  42  68  93 122 162 205 265 328 378
#     4  10  21  34  59  89 125 175 210 254 312 372
#     4   9  20  39  61  90 126 166 210 261 314 372
#     4  12  26  41  64  96 129 169 215 266 319 384
#     4   9  20  39  60  88 127 166 214 262 308 372
#     4  11  23  43  65  89 134 174 208 257 332 380
#     4  12  25  45  68  95 128 164 215 267 319 389
#
# _framework density 10.313243
#
# number of rings (size 3 to 8) (size 9 to 14) (size 15 to 20)
#    0.000    1.500    2.500    2.625    5.250    4.250 
#    0.000    0.000    0.000    0.375    0.000    0.000 
#    0.000    0.000    0.000    0.000    0.000    0.000 
#
# Total GULP energy -178281.781216 kJ/mol
# GULP energy per Si atom -5571.305663 kJ/mol
# Density = 1.028977 g / cm^3
# Si number density = 10.313243 Si / 1000 Ang^3
#
#
#
# Elastic Constant Matrix: (Units=GPa)
#
#
# Indices 1 2 3 4 5 6 
#
# 1 44.9365 2.8658 17.9933 0.0000 -4.9218 -0.0001
# 2 2.8658 64.7917 31.1787 0.0001 -9.6007 -0.0001
# 3 17.9933 31.1787 66.3149 -0.0004 2.0864 -0.0004
# 4 0.0000 0.0001 -0.0004 31.0072 -0.0001 -3.7883
# 5 -4.9218 -9.6007 2.0864 -0.0001 16.9116 -0.0002
# 6 -0.0001 -0.0001 -0.0004 -3.7883 -0.0002 16.5459
#
#
#
# Elastic Compliance Matrix: (Units=1/GPa)
#
#
# Indices 1 2 3 4 5 6 
#
# 1 0.027482 0.005714 -0.010538 0.000000 0.012542 0.000000
# 2 0.005714 0.024184 -0.013457 0.000000 0.017052 0.000000
# 3 -0.010538 -0.013457 0.024699 0.000000 -0.013754 0.000000
# 4 0.000000 0.000000 0.000000 0.033179 0.000000 0.007597
# 5 0.012542 0.017052 -0.013754 0.000000 0.074159 0.000001
# 6 0.000000 0.000000 0.000000 0.007597 0.000001 0.062177
#
#
# Mechanical properties :
#
#
# Convention : Reuss Voigt Hill
#
# Bulk Modulus (GPa) = 25.12401 31.12431 28.12416
# Shear Modulus (GPa) = 16.90846 21.15994 19.03420
#
# Velocity S-wave (km/s) = 2.86623 3.20638 3.04106
# Velocity P-wave (km/s) = 4.81254 5.36937 5.09856
#
# Compressibility (1/GPa) = 0.03980257
#
# Stress axis : x y z
#
# Youngs Moduli (GPa) = 36.38684 41.34966 40.48809
#
# Poissons Ratio (x) = -0.23627 0.42666
# Poissons Ratio (y) = -0.20791 0.54486
# Poissons Ratio (z) = 0.38344 0.55645
#
# Static dielectric constant tensor:
#      x y z
#    x 1.765350 0.000000 0.055910 
#    y 0.000000 1.832590 0.000000 
#    z 0.055910 0.000000 1.821420 
# 
# From -- ./inp_files/286467.got.cif
#   From: 2010.05.17/outbox.ucp.g08.bks.cvg/sg12_144_cif.got.tgz:286467.got - 2010.06.11 11:47:21.
