data_PCOD9225654
_publ_section_title
;
Structure prediction by ZEFSAII (Michael W. Deem and Ramdas Pophale) SiO2 
 PCOD9225654
Probable space group: C 2/M
;
_chemical_formula_sum "Si O2"
_cell_formula_units_Z 32
_cell_length_a 24.000000
_cell_length_b 18.000000
_cell_length_c 21.000000
_cell_angle_alpha 90.000000
_cell_angle_beta 20.000000
_cell_angle_gamma 90.000000
_cell_volume 3102.806740
_symmetry_space_group_name_H-M "C 2/M"
_symmetry_group_IT_number 12
_symmetry_cell_setting 'monoclinic'
loop_
_space_group_symop_operation_xyz
x,y,z
-x,y,-z
-x,-y,-z
x,-y,z
1/2+x,1/2+y,z
1/2-x,1/2+y,-z
1/2-x,1/2-y,-z
1/2+x,1/2-y,z
loop_
_atom_site_type_symbol
_atom_site_label
_atom_site_fract_x
_atom_site_fract_y
_atom_site_fract_z
Si Si1 0.338312 0.414955 0.870140
Si Si2 0.615754 0.911544 0.537766
Si Si3 0.466196 0.647146 0.460928
Si Si4 0.560982 0.185603 0.362034
Si Si5 0.992279 0.642685 0.215264
Si Si6 0.610834 0.308749 0.062206
Si Si7 0.393878 0.152550 0.176119
Si Si8 0.091851 0.167067 0.836417
O O1 0.386234 0.500000 0.832636
O O2 0.421028 0.387856 0.715040
O O3 0.367427 0.359598 0.898602
O O4 0.146232 0.408716 0.064464
O O5 0.458642 0.879694 0.669134
O O6 0.625101 0.874634 0.598317
O O7 0.743884 0.878268 0.349373
O O8 0.621336 0.000000 0.536652
O O9 0.500000 0.634514 0.500000
O O10 0.470080 0.736584 0.446683
O O11 0.284382 0.621326 0.643971
O O12 0.500000 0.165981 0.500000
O O13 0.745672 0.208972 0.144257
O O14 0.046523 0.729353 0.157187
O O15 0.941901 0.629260 0.196175
O O16 0.491252 0.349479 0.141979
O O17 0.390933 0.243284 0.179912
O O18 0.500000 0.131917 0.000000
O O19 0.000000 0.145506 0.000000
#
# Coordination Sequence:
#
# PCOD9225654 Si02
#       8
#     8   8   8   8   8   8   8   8
#     4  12  25  42  64  95 135 172 211 266 328 390
#     4  12  25  41  60  91 136 176 213 263 327 385
#     4  11  23  41  71  99 128 165 212 271 322 383
#     4  11  22  40  68  97 125 164 219 271 314 378
#     4  11  23  41  66  95 130 171 217 268 315 385
#     4  11  23  40  68  96 128 169 221 268 319 376
#     4  10  22  40  69 100 126 159 217 273 323 377
#     4  10  23  41  64  94 127 167 217 274 319 381
#
# _framework density 10.313243
#
# number of rings (size 3 to 8) (size 9 to 14) (size 15 to 20)
#    0.000    1.000    3.750    3.000    8.750    2.250 
#    0.000    1.875    0.000    2.625    0.000    0.000 
#    0.000    0.000    0.000    0.000    0.000    0.000 
#
# Total GULP energy -178271.003353 kJ/mol
# GULP energy per Si atom -5570.968855 kJ/mol
# Density = 1.028977 g / cm^3
# Si number density = 10.313243 Si / 1000 Ang^3
#
#
#
# Elastic Constant Matrix: (Units=GPa)
#
#
# Indices 1 2 3 4 5 6 
#
# 1 122.8310 29.8487 29.3013 -0.0043 29.7264 0.0015
# 2 29.8487 53.3188 -2.4741 -0.0066 17.3325 0.0032
# 3 29.3013 -2.4741 87.7683 -0.0094 35.1966 0.0040
# 4 -0.0043 -0.0066 -0.0094 6.2035 0.0011 8.0269
# 5 29.7264 17.3325 35.1966 0.0011 46.2368 -0.0003
# 6 0.0015 0.0032 0.0040 8.0269 -0.0003 10.6068
#
#
#
# Elastic Compliance Matrix: (Units=1/GPa)
#
#
# Indices 1 2 3 4 5 6 
#
# 1 0.010724 -0.005117 -0.002489 -0.000115 -0.003082 0.000088
# 2 -0.005117 0.025809 0.007192 0.002407 -0.011860 -0.001831
# 3 -0.002489 0.007192 0.018521 0.002341 -0.015195 -0.001781
# 4 -0.000115 0.002407 0.002341 7.756807 -0.002835 -5.870144
# 5 -0.003082 -0.011860 -0.015195 -0.002835 0.039622 0.002156
# 6 0.000088 -0.001831 -0.001781 -5.870144 0.002156 4.536647
#
#
# Mechanical properties :
#
#
# Convention : Reuss Voigt Hill
#
# Bulk Modulus (GPa) = 18.44069 41.91888 30.17978
# Shear Modulus (GPa) = 0.40300 26.42556 13.41428
#
# Velocity S-wave (km/s) = 0.44250 3.58319 2.55295
# Velocity P-wave (km/s) = 3.03657 6.12258 4.83253
#
# Compressibility (1/GPa) = 0.05422792
#
# Stress axis : x y z
#
# Youngs Moduli (GPa) = 93.24576 38.74569 53.99304
#
# Poissons Ratio (x) = 0.19827 0.13436
# Poissons Ratio (y) = 0.47715 -0.38834
# Poissons Ratio (z) = 0.23204 -0.27867
#
# Static dielectric constant tensor:
#      x y z
#    x 1.793080 0.000000 -0.095930 
#    y 0.000000 1.701470 0.000000 
#    z -0.095930 0.000000 1.947120 
# 
# From -- ./inp_files/326079.got.cif
#   From: 2010.05.17/outbox.ucp.g08.bks.cvg/sg12_164_cif.got.tgz:326079.got - 2010.06.11 11:47:21.
