data_PCOD9225003
_publ_section_title
;
Structure prediction by ZEFSAII (Michael W. Deem and Ramdas Pophale) SiO2 
 PCOD9225003
Probable space group: C 2/M
;
_chemical_formula_sum "Si O2"
_cell_formula_units_Z 32
_cell_length_a 9.000000
_cell_length_b 21.000000
_cell_length_c 21.000000
_cell_angle_alpha 90.000000
_cell_angle_beta 120.000000
_cell_angle_gamma 90.000000
_cell_volume 3437.254828
_symmetry_space_group_name_H-M "C 2/M"
_symmetry_group_IT_number 12
_symmetry_cell_setting 'monoclinic'
loop_
_space_group_symop_operation_xyz
x,y,z
-x,y,-z
-x,-y,-z
x,-y,z
1/2+x,1/2+y,z
1/2-x,1/2+y,-z
1/2-x,1/2-y,-z
1/2+x,1/2-y,z
loop_
_atom_site_type_symbol
_atom_site_label
_atom_site_fract_x
_atom_site_fract_y
_atom_site_fract_z
Si Si1 0.515681 0.208603 0.410208
Si Si2 0.032225 0.924910 0.301604
Si Si3 0.085714 0.428488 0.949577
Si Si4 0.376187 0.072064 0.778097
Si Si5 0.054742 0.178781 0.194221
Si Si6 0.947060 0.306595 0.247483
Si Si7 0.149051 0.816675 0.979527
Si Si8 0.717221 0.666880 0.436391
O O1 0.500646 0.196204 0.332699
O O2 0.577713 0.281538 0.429002
O O3 0.336032 0.199059 0.407313
O O4 0.651918 0.162758 0.475811
O O5 0.062402 0.880270 0.245765
O O6 0.132741 0.893482 0.383261
O O7 0.828235 0.921104 0.270388
O O8 0.076045 0.000000 0.301856
O O9 0.160999 0.500000 0.960284
O O10 0.939764 0.423319 0.864623
O O11 0.224714 0.373444 0.972783
O O12 0.000000 0.422396 0.000000
O O13 0.469214 0.129986 0.763240
O O14 0.422008 0.000000 0.765624
O O15 0.241659 0.188838 0.203621
O O16 0.005060 0.242838 0.222713
O O17 0.925122 0.169856 0.107256
O O18 0.250000 0.750000 0.000000
O O19 0.000000 0.811918 0.000000
#
# Coordination Sequence:
#
# PCOD9225003 Si02
#       8
#     8   8   8   8   8   8   8   8
#     4  10  20  38  64  90 124 151 200 243 300 352
#     4  11  23  41  61  90 127 162 205 251 300 359
#     4  10  21  41  64  85 114 159 206 247 302 366
#     4  10  23  40  61  87 121 159 199 251 304 357
#     4  12  24  38  64  90 120 160 205 250 310 361
#     4  12  22  40  62  92 120 158 201 253 296 367
#     4  12  25  41  59  89 124 159 199 257 310 363
#     4  10  21  39  61  96 118 159 196 247 300 355
#
# _framework density 9.3097549999999991
#
# number of rings (size 3 to 8) (size 9 to 14) (size 15 to 20)
#    0.000    1.125    2.500    4.125    1.750    2.250 
#    0.000    1.875    0.000    1.500    0.000    0.000 
#    0.000    0.000    0.000    0.000    0.000    0.000 
#
# Total GULP energy -178755.198572 kJ/mol
# GULP energy per Si atom -5586.099955 kJ/mol
# Density = 0.928857 g / cm^3
# Si number density = 9.309755 Si / 1000 Ang^3
#
#
#
# Elastic Constant Matrix: (Units=GPa)
#
#
# Indices 1 2 3 4 5 6 
#
# 1 79.5463 48.5634 -1.6201 0.0000 11.2059 0.0000
# 2 48.5634 119.7581 10.2260 0.0000 15.1518 0.0000
# 3 -1.6201 10.2260 77.8980 0.0000 6.5396 0.0000
# 4 0.0000 0.0000 0.0000 32.2502 0.0000 -0.2314
# 5 11.2059 15.1518 6.5396 0.0000 28.5287 0.0000
# 6 0.0000 0.0000 0.0000 -0.2314 0.0000 29.3921
#
#
#
# Elastic Compliance Matrix: (Units=1/GPa)
#
#
# Indices 1 2 3 4 5 6 
#
# 1 0.017156 -0.006636 0.001527 0.000000 -0.003564 0.000000
# 2 -0.006636 0.011567 -0.001386 0.000000 -0.003219 0.000000
# 3 0.001527 -0.001386 0.013295 0.000000 -0.002911 0.000000
# 4 0.000000 0.000000 0.000000 0.031009 0.000000 0.000244
# 5 -0.003564 -0.003219 -0.002911 0.000000 0.038829 0.000000
# 6 0.000000 0.000000 0.000000 0.000244 0.000000 0.034025
#
#
# Mechanical properties :
#
#
# Convention : Reuss Voigt Hill
#
# Bulk Modulus (GPa) = 34.45009 43.50457 38.97733
# Shear Modulus (GPa) = 29.66502 32.70306 31.18404
#
# Velocity S-wave (km/s) = 3.99585 4.19547 4.09688
# Velocity P-wave (km/s) = 6.31121 6.84727 6.58470
#
# Compressibility (1/GPa) = 0.02902750
#
# Stress axis : x y z
#
# Youngs Moduli (GPa) = 58.28830 86.45325 75.21363
#
# Poissons Ratio (x) = 0.57375 -0.11487
# Poissons Ratio (y) = 0.38683 0.10427
# Poissons Ratio (z) = -0.08902 0.11985
#
# Static dielectric constant tensor:
#      x y z
#    x 1.701600 0.000000 -0.008270 
#    y 0.000000 1.627570 0.000000 
#    z -0.008270 0.000000 1.674100 
# 
# From -- ./inp_files/301737.got.cif
#   From: 2010.05.17/outbox.ucp.g08.bks.cvg/sg12_151_cif.got.tgz:301737.got - 2010.06.11 11:47:21.
