data_PCOD9225776
_publ_section_title
;
Structure prediction by ZEFSAII (Michael W. Deem and Ramdas Pophale) SiO2 
 PCOD9225776
Probable space group: C 2/M
;
_chemical_formula_sum "Si O2"
_cell_formula_units_Z 24
_cell_length_a 15.000000
_cell_length_b 9.000000
_cell_length_c 27.000000
_cell_angle_alpha 90.000000
_cell_angle_beta 140.000000
_cell_angle_gamma 90.000000
_cell_volume 2342.960837
_symmetry_space_group_name_H-M "C 2/M"
_symmetry_group_IT_number 12
_symmetry_cell_setting 'monoclinic'
loop_
_space_group_symop_operation_xyz
x,y,z
-x,y,-z
-x,-y,-z
x,-y,z
1/2+x,1/2+y,z
1/2-x,1/2+y,-z
1/2-x,1/2-y,-z
1/2+x,1/2-y,z
loop_
_atom_site_type_symbol
_atom_site_label
_atom_site_fract_x
_atom_site_fract_y
_atom_site_fract_z
Si Si1 0.678532 0.823092 0.662297
Si Si2 0.099953 0.179413 0.423880
Si Si3 0.194732 0.324591 0.852880
Si Si4 0.641527 0.176756 0.990631
Si Si5 0.430238 0.325490 0.704496
Si Si6 0.330050 0.822199 0.818444
O O1 0.526492 0.750333 0.598595
O O2 0.769800 0.806844 0.651583
O O3 0.776094 0.738171 0.743411
O O4 0.668331 0.000000 0.669063
O O5 0.250000 0.250000 0.500000
O O6 0.060203 0.212467 0.349457
O O7 0.104829 0.000000 0.431592
O O8 0.193687 0.500000 0.861422
O O9 0.310170 0.248948 0.937243
O O10 0.242937 0.275458 0.819503
O O11 0.037258 0.262369 0.785656
O O12 0.658417 0.000000 0.002099
O O13 0.750000 0.250000 0.000000
O O14 0.489596 0.202548 0.902840
O O15 0.465318 0.500000 0.725343
O O16 0.303560 0.000000 0.811188
#
# Coordination Sequence:
#
# PCOD9225776 Si02
#       6
#     8   8   8   8   8   8
#     4  11  23  41  67  98 128 167 215 264 317 383
#     4  11  24  44  69  96 131 171 209 263 322 383
#     4  12  24  38  62  92 124 166 217 267 317 377
#     4  11  24  40  59  86 124 167 215 268 320 379
#     4  10  23  43  67  94 131 173 212 260 324 384
#     4  11  23  40  61  88 124 168 213 262 322 378
#
# _framework density 10.243449
#
# number of rings (size 3 to 8) (size 9 to 14) (size 15 to 20)
#    0.000    1.000    1.667    5.000    0.000   10.000 
#    0.000    3.333    0.000    0.000    0.000    0.000 
#    0.000    0.000    0.000    0.000    0.000    0.000 
#
# Total GULP energy -134045.419177 kJ/mol
# GULP energy per Si atom -5585.225799 kJ/mol
# Density = 1.022013 g / cm^3
# Si number density = 10.243449 Si / 1000 Ang^3
#
#
#
# Elastic Constant Matrix: (Units=GPa)
#
#
# Indices 1 2 3 4 5 6 
#
# 1 60.6498 16.9379 7.7098 0.0000 30.0082 0.0000
# 2 16.9379 108.0982 52.8445 0.0000 29.3510 0.0000
# 3 7.7098 52.8445 96.6500 0.0000 37.6712 0.0000
# 4 0.0000 0.0000 0.0000 42.6574 0.0000 6.3096
# 5 30.0082 29.3510 37.6712 0.0000 41.0300 0.0000
# 6 0.0000 0.0000 0.0000 6.3096 0.0000 25.8084
#
#
#
# Elastic Compliance Matrix: (Units=1/GPa)
#
#
# Indices 1 2 3 4 5 6 
#
# 1 0.031080 -0.001528 0.010574 0.000000 -0.031347 0.000000
# 2 -0.001528 0.013182 -0.005989 0.000000 -0.002814 0.000000
# 3 0.010574 -0.005989 0.021992 0.000000 -0.023641 0.000000
# 4 0.000000 0.000000 0.000000 0.024322 0.000000 -0.005946
# 5 -0.031347 -0.002814 -0.023641 0.000000 0.071018 0.000000
# 6 0.000000 0.000000 0.000000 -0.005946 0.000000 0.040201
#
#
# Mechanical properties :
#
#
# Convention : Reuss Voigt Hill
#
# Bulk Modulus (GPa) = 13.81797 46.70917 30.26357
# Shear Modulus (GPa) = 22.74762 34.42621 28.58691
#
# Velocity S-wave (km/s) = 3.33581 4.10372 3.73952
# Velocity P-wave (km/s) = 4.64717 6.73075 5.78356
#
# Compressibility (1/GPa) = 0.07236951
#
# Stress axis : x y z
#
# Youngs Moduli (GPa) = 32.17464 75.86159 45.47058
#
# Poissons Ratio (x) = 0.11591 -0.48081
# Poissons Ratio (y) = 0.04916 0.27231
# Poissons Ratio (z) = -0.34022 0.45432
#
# Static dielectric constant tensor:
#      x y z
#    x 1.944610 0.000000 -0.125100 
#    y 0.000000 1.686580 0.000000 
#    z -0.125100 0.000000 1.841680 
# 
# From -- ./inp_files/360329.got.cif
#   From: 2010.05.17/outbox.ucp.g08.bks.cvg/sg12_181_cif.got.tgz:360329.got - 2010.06.11 11:47:21.
