data_PCOD9225881
_publ_section_title
;
Structure prediction by ZEFSAII (Michael W. Deem and Ramdas Pophale) SiO2 
 PCOD9225881
Probable space group: C 2/M
;
_chemical_formula_sum "Si O2"
_cell_formula_units_Z 28
_cell_length_a 9.000000
_cell_length_b 24.000000
_cell_length_c 15.000000
_cell_angle_alpha 90.000000
_cell_angle_beta 120.000000
_cell_angle_gamma 90.000000
_cell_volume 2805.922308
_symmetry_space_group_name_H-M "C 2/M"
_symmetry_group_IT_number 12
_symmetry_cell_setting 'monoclinic'
loop_
_space_group_symop_operation_xyz
x,y,z
-x,y,-z
-x,-y,-z
x,-y,z
1/2+x,1/2+y,z
1/2-x,1/2+y,-z
1/2-x,1/2-y,-z
1/2+x,1/2-y,z
loop_
_atom_site_type_symbol
_atom_site_label
_atom_site_fract_x
_atom_site_fract_y
_atom_site_fract_z
Si Si1 0.021883 0.316187 0.106614
Si Si2 0.606026 0.563786 0.365072
Si Si3 0.891495 0.436966 0.592258
Si Si4 0.798901 0.000000 0.929684
Si Si5 0.687598 0.000000 0.096355
Si Si6 0.830942 0.197987 0.896278
Si Si7 0.748373 0.907024 0.262030
Si Si8 0.762254 0.592517 0.233339
O O1 0.128330 0.259531 0.125838
O O2 0.123351 0.356463 0.202796
O O3 0.835518 0.303139 0.090766
O O4 0.000000 0.340558 0.000000
O O5 0.559201 0.500000 0.377520
O O6 0.767000 0.579220 0.474933
O O7 0.449043 0.605446 0.330475
O O8 0.646189 0.563612 0.272640
O O9 0.952971 0.500000 0.592523
O O10 0.796250 0.435707 0.658158
O O11 0.057485 0.401212 0.662549
O O12 0.728981 0.053240 0.852176
O O13 0.000000 0.000000 0.000000
O O14 0.772417 0.000000 0.026684
O O15 0.725430 0.948160 0.171570
O O16 0.500000 0.000000 0.000000
O O17 0.804235 0.152549 0.812766
O O18 0.000000 0.179998 0.000000
#
# Coordination Sequence:
#
# PCOD9225881 Si02
#       8
#     8   8   8   4   4   8   8   8
#     4  11  25  43  67  93 126 168 215 259 309 380
#     4  11  23  39  64  95 128 168 217 263 311 377
#     4  11  21  41  64  92 128 166 215 265 314 380
#     4  12  24  38  55  92 135 164 202 250 316 387
#     4  12  24  36  57  90 131 168 196 250 318 379
#     4  11  25  44  67  94 125 168 215 259 310 377
#     4  12  23  40  63  93 128 166 212 256 323 372
#     4  12  23  40  63  92 129 169 209 260 320 378
#
# _framework density 9.9788940000000004
#
# number of rings (size 3 to 8) (size 9 to 14) (size 15 to 20)
#    0.000    0.571    4.286    5.143    6.000    2.286 
#    0.000    0.000    0.000    5.143    0.000    0.000 
#    0.000    0.000    0.000    0.000    0.000    0.000 
#
# Total GULP energy -156232.598710 kJ/mol
# GULP energy per Si atom -5579.735668 kJ/mol
# Density = 0.995618 g / cm^3
# Si number density = 9.978894 Si / 1000 Ang^3
#
#
#
# Elastic Constant Matrix: (Units=GPa)
#
#
# Indices 1 2 3 4 5 6 
#
# 1 104.0422 23.5347 23.5973 0.0000 -9.6008 0.0000
# 2 23.5347 40.1752 40.9643 0.0000 5.8775 0.0000
# 3 23.5973 40.9643 96.2978 0.0000 -15.6892 0.0000
# 4 0.0000 0.0000 0.0000 110.6848 0.0000 36.4153
# 5 -9.6008 5.8775 -15.6892 0.0000 29.0490 0.0000
# 6 0.0000 0.0000 0.0000 36.4153 0.0000 28.6818
#
#
#
# Elastic Compliance Matrix: (Units=1/GPa)
#
#
# Indices 1 2 3 4 5 6 
#
# 1 0.012293 -0.011870 0.003388 0.000000 0.008295 0.000000
# 2 -0.011870 0.070975 -0.033182 0.000000 -0.036205 0.000000
# 3 0.003388 -0.033182 0.027353 0.000000 0.022607 0.000000
# 4 0.000000 0.000000 0.000000 0.015516 0.000000 -0.019699
# 5 0.008295 -0.036205 0.022607 0.000000 0.056701 0.000000
# 6 0.000000 0.000000 0.000000 -0.019699 0.000000 0.059876
#
#
# Mechanical properties :
#
#
# Convention : Reuss Voigt Hill
#
# Bulk Modulus (GPa) = 36.63848 46.30086 41.46967
# Shear Modulus (GPa) = 14.91916 43.84439 29.38177
#
# Velocity S-wave (km/s) = 2.73708 4.69215 3.84108
# Velocity P-wave (km/s) = 5.32791 7.25291 6.36362
#
# Compressibility (1/GPa) = 0.02729371
#
# Stress axis : x y z
#
# Youngs Moduli (GPa) = 81.34439 14.08946 36.55933
#
# Poissons Ratio (x) = 0.16724 -0.12387
# Poissons Ratio (y) = 0.96554 1.21312
# Poissons Ratio (z) = -0.27562 0.46752
#
# Static dielectric constant tensor:
#      x y z
#    x 1.798320 0.000000 0.008510 
#    y 0.000000 1.667380 0.000000 
#    z 0.008510 0.000000 1.659940 
# 
# From -- ./inp_files/199000.got.cif
#   From: 2010.05.17/outbox.ucp.g08.bks.cvg/sg12_100_cif.got.tgz:199000.got - 2010.06.11 11:47:21.
