data_PCOD9225868
_publ_section_title
;
Structure prediction by ZEFSAII (Michael W. Deem and Ramdas Pophale) SiO2 
 PCOD9225868
Probable space group: C 2/M
;
_chemical_formula_sum "Si O2"
_cell_formula_units_Z 28
_cell_length_a 9.000000
_cell_length_b 30.000000
_cell_length_c 21.000000
_cell_angle_alpha 90.000000
_cell_angle_beta 150.000000
_cell_angle_gamma 90.000000
_cell_volume 2835.000000
_symmetry_space_group_name_H-M "C 2/M"
_symmetry_group_IT_number 12
_symmetry_cell_setting 'monoclinic'
loop_
_space_group_symop_operation_xyz
x,y,z
-x,y,-z
-x,-y,-z
x,-y,z
1/2+x,1/2+y,z
1/2-x,1/2+y,-z
1/2-x,1/2-y,-z
1/2+x,1/2-y,z
loop_
_atom_site_type_symbol
_atom_site_label
_atom_site_fract_x
_atom_site_fract_y
_atom_site_fract_z
Si Si1 0.822661 0.348991 0.758509
Si Si2 0.755604 0.275345 0.146882
Si Si3 0.345257 0.000000 0.057726
Si Si4 0.672294 0.088957 0.357135
Si Si5 0.855470 0.401280 0.012809
Si Si6 0.329764 0.696111 0.646929
Si Si7 0.634420 0.000000 0.789161
Si Si8 0.295879 0.651068 0.769353
O O1 0.817272 0.390259 0.708968
O O2 0.499556 0.330696 0.655021
O O3 0.017273 0.308604 0.803780
O O4 0.994480 0.368065 0.882430
O O5 0.639996 0.305597 0.162962
O O6 0.950256 0.235931 0.249644
O O7 0.500000 0.262895 0.000000
O O8 0.420311 0.952687 0.053848
O O9 0.467016 0.000000 0.174711
O O10 0.987965 0.000000 0.924464
O O11 0.528026 0.129618 0.342524
O O12 0.000000 0.078078 0.500000
O O13 0.482457 0.044194 0.287615
O O14 0.513644 0.387119 0.877692
O O15 0.000000 0.391180 0.000000
O O16 0.322272 0.664776 0.706263
O O17 0.000000 0.709388 0.500000
#
# Coordination Sequence:
#
# PCOD9225868 Si02
#       8
#     8   8   4   8   8   8   4   8
#     4  11  24  41  67  93 124 167 219 262 318 380
#     4  11  25  40  67  97 127 163 219 272 320 379
#     4  11  23  38  66  98 131 153 208 266 322 374
#     4  11  23  41  63  90 128 172 211 255 316 386
#     4  12  22  41  67  97 128 168 207 263 323 377
#     4  12  27  45  63  91 132 173 218 270 325 380
#     4  11  21  36  64  94 125 165 202 262 316 383
#     4  11  24  41  67  93 124 167 219 262 318 380
#
# _framework density 9.8765429999999999
#
# number of rings (size 3 to 8) (size 9 to 14) (size 15 to 20)
#    0.000    0.714    5.714    2.143    2.000    5.714 
#    0.000    0.000    0.000    0.000    0.000    6.000 
#    0.000    0.000    0.000    0.000    0.000    0.000 
#
# Total GULP energy -156251.519211 kJ/mol
# GULP energy per Si atom -5580.411400 kJ/mol
# Density = 0.985406 g / cm^3
# Si number density = 9.876543 Si / 1000 Ang^3
#
#
#
# Elastic Constant Matrix: (Units=GPa)
#
#
# Indices 1 2 3 4 5 6 
#
# 1 41.4994 -4.7395 -16.0499 -0.0010 1.0672 -0.0053
# 2 -4.7395 74.5922 3.9784 -0.0005 2.3059 -0.0052
# 3 -16.0499 3.9784 57.2409 -0.0138 18.6799 -0.0102
# 4 -0.0010 -0.0005 -0.0138 9.3255 0.0028 6.7212
# 5 1.0672 2.3059 18.6799 0.0028 16.7346 0.0023
# 6 -0.0053 -0.0052 -0.0102 6.7212 0.0023 21.7685
#
#
#
# Elastic Compliance Matrix: (Units=1/GPa)
#
#
# Indices 1 2 3 4 5 6 
#
# 1 0.030282 0.001722 0.014281 0.000023 -0.018110 0.000009
# 2 0.001722 0.013571 0.000292 -0.000001 -0.002306 0.000004
# 3 0.014281 0.000292 0.034236 0.000061 -0.039166 0.000005
# 4 0.000023 -0.000001 0.000061 0.137927 -0.000086 -0.042586
# 5 -0.018110 -0.002306 -0.039166 -0.000086 0.104948 -0.000008
# 6 0.000009 0.000004 0.000005 -0.042586 -0.000008 0.059087
#
#
# Mechanical properties :
#
#
# Convention : Reuss Voigt Hill
#
# Bulk Modulus (GPa) = 9.03502 15.52339 12.27920
# Shear Modulus (GPa) = 13.00885 22.24195 17.62540
#
# Velocity S-wave (km/s) = 2.56905 3.35923 2.99036
# Velocity P-wave (km/s) = 3.65841 4.78766 4.26061
#
# Compressibility (1/GPa) = 0.11068048
#
# Stress axis : x y z
#
# Youngs Moduli (GPa) = 33.02249 73.68454 29.20945
#
# Poissons Ratio (x) = -0.12690 -0.41715
# Poissons Ratio (y) = -0.05687 -0.00853
# Poissons Ratio (z) = -0.47160 -0.02153
#
# Static dielectric constant tensor:
#      x y z
#    x 1.739430 0.000000 0.034050 
#    y 0.000000 1.669590 0.000000 
#    z 0.034050 0.000000 1.664750 
# 
# From -- ./inp_files/303036.got.cif
#   From: 2010.05.17/outbox.ucp.g08.bks.cvg/sg12_152_cif.got.tgz:303036.got - 2010.06.11 11:47:21.
