data_PCOD9225629
_publ_section_title
;
Structure prediction by ZEFSAII (Michael W. Deem and Ramdas Pophale) SiO2 
 PCOD9225629
Probable space group: C 2/M
;
_chemical_formula_sum "Si O2"
_cell_formula_units_Z 32
_cell_length_a 30.000000
_cell_length_b 9.000000
_cell_length_c 18.000000
_cell_angle_alpha 90.000000
_cell_angle_beta 40.000000
_cell_angle_gamma 90.000000
_cell_volume 3123.947783
_symmetry_space_group_name_H-M "C 2/M"
_symmetry_group_IT_number 12
_symmetry_cell_setting 'monoclinic'
loop_
_space_group_symop_operation_xyz
x,y,z
-x,y,-z
-x,-y,-z
x,-y,z
1/2+x,1/2+y,z
1/2-x,1/2+y,-z
1/2-x,1/2-y,-z
1/2+x,1/2-y,z
loop_
_atom_site_type_symbol
_atom_site_label
_atom_site_fract_x
_atom_site_fract_y
_atom_site_fract_z
Si Si1 0.697272 0.820995 0.227144
Si Si2 0.585914 0.322233 0.975417
Si Si3 0.085204 0.820941 0.275907
Si Si4 0.952401 0.678395 0.384708
Si Si5 0.306843 0.678180 0.610530
Si Si6 0.457995 0.823231 0.206419
Si Si7 0.334864 0.320715 0.975304
Si Si8 0.662960 0.176793 0.738278
O O1 0.624526 0.755638 0.293491
O O2 0.715749 0.743590 0.280905
O O3 0.696215 0.000000 0.236087
O O4 0.755351 0.778296 0.091722
O O5 0.586010 0.500000 0.971160
O O6 0.624722 0.256798 0.855174
O O7 0.508857 0.261333 0.085861
O O8 0.624706 0.274853 0.001923
O O9 0.127276 0.771255 0.147695
O O10 0.008288 0.759504 0.364562
O O11 0.086454 0.000000 0.279984
O O12 0.955234 0.500000 0.389249
O O13 0.876727 0.739669 0.499003
O O14 0.969659 0.717555 0.276966
O O15 0.316687 0.500000 0.602083
O O16 0.243793 0.713324 0.635509
O O17 0.379603 0.790272 0.281657
O O18 0.469908 0.000000 0.183919
O O19 0.336724 0.500000 0.970645
O O20 0.657692 0.000000 0.758642
#
# Coordination Sequence:
#
# PCOD9225629 Si02
#       8
#     8   8   8   8   8   8   8   8
#     4  11  22  40  63  91 124 158 196 243 295 354
#     4  11  20  35  60  92 124 158 198 242 295 351
#     4  11  22  40  63  91 124 158 196 243 295 354
#     4  11  24  42  63  87 116 157 203 250 300 352
#     4  11  24  42  63  87 116 157 203 250 300 352
#     4  10  22  40  61  88 123 160 198 243 298 357
#     4   9  19  35  59  89 124 157 189 237 295 349
#     4  10  22  40  61  88 123 160 198 243 298 357
#
# _framework density 10.243449
#
# number of rings (size 3 to 8) (size 9 to 14) (size 15 to 20)
#    0.000    1.500    2.500    2.625    0.000    4.000 
#    0.000    4.375    0.000    0.000    0.000    0.000 
#    0.000    0.000    0.000    0.000    0.000    0.000 
#
# Total GULP energy -178790.650037 kJ/mol
# GULP energy per Si atom -5587.207814 kJ/mol
# Density = 1.022013 g / cm^3
# Si number density = 10.243449 Si / 1000 Ang^3
#
#
#
# Elastic Constant Matrix: (Units=GPa)
#
#
# Indices 1 2 3 4 5 6 
#
# 1 89.1510 13.7915 -8.1105 0.0008 -31.6360 -0.0008
# 2 13.7915 29.4055 3.7401 0.0054 -12.1228 0.0008
# 3 -8.1105 3.7401 48.6384 -0.0013 -26.2927 0.0003
# 4 0.0008 0.0054 -0.0013 27.3327 0.0020 1.7950
# 5 -31.6360 -12.1228 -26.2927 0.0020 31.0689 -0.0011
# 6 -0.0008 0.0008 0.0003 1.7950 -0.0011 18.9625
#
#
#
# Elastic Compliance Matrix: (Units=1/GPa)
#
#
# Indices 1 2 3 4 5 6 
#
# 1 0.116352 0.036172 0.162748 -0.000024 0.270319 0.000019
# 2 0.036172 0.054601 0.061306 -0.000018 0.110019 0.000006
# 3 0.162748 0.061306 0.268187 -0.000037 0.416599 0.000028
# 4 -0.000024 -0.000018 -0.000037 0.036815 -0.000065 -0.003485
# 5 0.270319 0.110019 0.416599 -0.000065 0.702924 0.000047
# 6 0.000019 0.000006 0.000028 -0.003485 0.000047 0.053066
#
#
# Mechanical properties :
#
#
# Convention : Reuss Voigt Hill
#
# Bulk Modulus (GPa) = 1.04211 20.67081 10.85646
# Shear Modulus (GPa) = 4.84798 25.99105 15.41952
#
# Velocity S-wave (km/s) = 1.53997 3.56570 2.74643
# Velocity P-wave (km/s) = 1.91619 5.20230 3.92019
#
# Compressibility (1/GPa) = 0.95959132
#
# Stress axis : x y z
#
# Youngs Moduli (GPa) = 8.59461 18.31461 3.72874
#
# Poissons Ratio (x) = -0.66247 -0.60684
# Poissons Ratio (y) = -0.31088 -0.22860
# Poissons Ratio (z) = -1.39875 -1.12280
#
# Static dielectric constant tensor:
#      x y z
#    x 1.777540 0.000000 -0.025550 
#    y 0.000000 1.666670 0.000000 
#    z -0.025550 0.000000 1.726920 
# 
# From -- ./inp_files/260365.got.cif
#   From: 2010.05.17/outbox.ucp.g08.bks.cvg/sg12_131_cif.got.tgz:260365.got - 2010.06.11 11:47:21.
