data_PCOD9225187
_publ_section_title
;
Structure prediction by ZEFSAII (Michael W. Deem and Ramdas Pophale) SiO2 
 PCOD9225187
Probable space group: C 2/M
;
_chemical_formula_sum "Si O2"
_cell_formula_units_Z 20
_cell_length_a 27.000000
_cell_length_b 9.000000
_cell_length_c 18.000000
_cell_angle_alpha 90.000000
_cell_angle_beta 30.000000
_cell_angle_gamma 90.000000
_cell_volume 2187.000000
_symmetry_space_group_name_H-M "C 2/M"
_symmetry_group_IT_number 12
_symmetry_cell_setting 'monoclinic'
loop_
_space_group_symop_operation_xyz
x,y,z
-x,y,-z
-x,-y,-z
x,-y,z
1/2+x,1/2+y,z
1/2-x,1/2+y,-z
1/2-x,1/2-y,-z
1/2+x,1/2-y,z
loop_
_atom_site_type_symbol
_atom_site_label
_atom_site_fract_x
_atom_site_fract_y
_atom_site_fract_z
Si Si1 0.658390 0.320761 0.747213
Si Si2 0.016417 0.675075 0.814715
Si Si3 0.100902 0.678704 0.414572
Si Si4 0.199149 0.675311 0.853305
Si Si5 0.634684 0.678322 0.531734
O O1 0.654435 0.500000 0.749334
O O2 0.567675 0.247176 0.820863
O O3 0.666529 0.260870 0.820671
O O4 0.761404 0.256288 0.581099
O O5 0.043555 0.500000 0.775731
O O6 0.057337 0.767598 0.692910
O O7 0.897783 0.684103 0.970462
O O8 0.111041 0.500000 0.409976
O O9 0.200530 0.747196 0.248584
O O10 0.102398 0.757185 0.493416
O O11 0.000000 0.707773 0.500000
O O12 0.217789 0.500000 0.813135
O O13 0.644758 0.500000 0.516894
#
# Coordination Sequence:
#
# PCOD9225187 Si02
#       5
#     8   8   8   8   8
#     4  11  21  34  54  79 111 149 185 219 260 315
#     4  11  22  36  53  78 114 147 179 221 267 313
#     4  10  21  39  62  83 105 136 175 221 271 323
#     4  10  21  36  56  81 109 143 181 222 266 315
#     4  11  22  36  56  81 109 142 182 223 265 316
#
# _framework density 9.1449470000000002
#
# number of rings (size 3 to 8) (size 9 to 14) (size 15 to 20)
#    0.000    1.400    0.000    9.000    0.000    7.200 
#    0.000    1.000    0.000    0.000    0.000    0.000 
#    0.000    0.000    0.000    0.000    0.000    0.000 
#
# Total GULP energy -111678.170729 kJ/mol
# GULP energy per Si atom -5583.908536 kJ/mol
# Density = 0.912413 g / cm^3
# Si number density = 9.144947 Si / 1000 Ang^3
#
#
#
# Elastic Constant Matrix: (Units=GPa)
#
#
# Indices 1 2 3 4 5 6 
#
# 1 50.9804 18.5578 17.6298 0.0006 -34.8134 -0.0002
# 2 18.5578 149.0231 34.9284 -0.0015 -21.7668 0.0008
# 3 17.6298 34.9284 98.4678 -0.0010 -21.6678 0.0004
# 4 0.0006 -0.0015 -0.0010 31.7947 0.0004 -3.7595
# 5 -34.8134 -21.7668 -21.6678 0.0004 28.4699 0.0000
# 6 -0.0002 0.0008 0.0004 -3.7595 0.0000 31.3455
#
#
#
# Elastic Compliance Matrix: (Units=1/GPa)
#
#
# Indices 1 2 3 4 5 6 
#
# 1 0.139589 0.006609 0.013616 -0.000004 0.186107 0.000000
# 2 0.006609 0.008109 -0.001102 0.000000 0.013443 0.000000
# 3 0.013616 -0.001102 0.013918 0.000000 0.026400 0.000000
# 4 -0.000004 0.000000 0.000000 0.031904 -0.000006 0.003826
# 5 0.186107 0.013443 0.026400 -0.000006 0.293069 0.000000
# 6 0.000000 0.000000 0.000000 0.003826 0.000000 0.032361
#
#
# Mechanical properties :
#
#
# Convention : Reuss Voigt Hill
#
# Bulk Modulus (GPa) = 5.00342 48.96703 26.98523
# Shear Modulus (GPa) = 9.13535 33.47905 21.30720
#
# Velocity S-wave (km/s) = 2.23732 4.28304 3.41687
# Velocity P-wave (km/s) = 3.06850 7.16171 5.50934
#
# Compressibility (1/GPa) = 0.19986315
#
# Stress axis : x y z
#
# Youngs Moduli (GPa) = 7.16389 123.31872 71.84993
#
# Poissons Ratio (x) = -0.81501 -0.97832
# Poissons Ratio (y) = -0.04735 0.07915
# Poissons Ratio (z) = -0.09754 0.13585
#
# Static dielectric constant tensor:
#      x y z
#    x 1.601140 0.000000 0.020670 
#    y 0.000000 1.605730 0.000000 
#    z 0.020670 0.000000 1.701480 
# 
# From -- ./inp_files/220595.got.cif
#   From: 2010.05.17/outbox.ucp.g08.bks.cvg/sg12_111_cif.got.tgz:220595.got - 2010.06.11 11:47:21.
