data_PCOD9225429
_publ_section_title
;
Structure prediction by ZEFSAII (Michael W. Deem and Ramdas Pophale) SiO2 
 PCOD9225429
Probable space group: C 2/M
;
_chemical_formula_sum "Si O2"
_cell_formula_units_Z 32
_cell_length_a 21.000000
_cell_length_b 9.000000
_cell_length_c 21.000000
_cell_angle_alpha 90.000000
_cell_angle_beta 60.000000
_cell_angle_gamma 90.000000
_cell_volume 3437.254828
_symmetry_space_group_name_H-M "C 2/M"
_symmetry_group_IT_number 12
_symmetry_cell_setting 'monoclinic'
loop_
_space_group_symop_operation_xyz
x,y,z
-x,y,-z
-x,-y,-z
x,-y,z
1/2+x,1/2+y,z
1/2-x,1/2+y,-z
1/2-x,1/2-y,-z
1/2+x,1/2-y,z
loop_
_atom_site_type_symbol
_atom_site_label
_atom_site_fract_x
_atom_site_fract_y
_atom_site_fract_z
Si Si1 0.472157 0.819349 0.709027
Si Si2 0.314300 0.178157 0.007119
Si Si3 0.831805 0.679117 0.696623
Si Si4 0.037614 0.324591 0.910609
Si Si5 0.560099 0.324413 0.137886
Si Si6 0.640416 0.178471 0.588496
Si Si7 0.279804 0.820458 0.582955
Si Si8 0.310855 0.678873 0.146443
O O1 0.409614 0.774746 0.688729
O O2 0.453563 0.738370 0.784750
O O3 0.555548 0.782838 0.645523
O O4 0.468102 0.000000 0.719488
O O5 0.382951 0.220990 0.928951
O O6 0.310937 0.000000 0.019566
O O7 0.250000 0.250000 0.000000
O O8 0.309366 0.272305 0.074001
O O9 0.835780 0.500000 0.690435
O O10 0.811617 0.731280 0.635282
O O11 0.764540 0.712225 0.778394
O O12 0.024693 0.500000 0.902668
O O13 0.123355 0.285955 0.865094
O O14 0.008453 0.208088 0.873376
O O15 0.000000 0.299414 0.000000
O O16 0.579426 0.500000 0.129310
O O17 0.666642 0.217379 0.503395
O O18 0.699928 0.253565 0.605658
O O19 0.646781 0.000000 0.591541
O O20 0.273343 0.000000 0.588106
O O21 0.325049 0.500000 0.145166
#
# Coordination Sequence:
#
# PCOD9225429 Si02
#       8
#     8   8   8   8   8   8   8   8
#     4  10  21  39  60  86 122 157 198 247 299 359
#     4  12  24  40  60  83 113 155 200 246 300 355
#     4   9  20  37  59  87 118 156 196 244 296 349
#     4  11  23  40  61  85 113 151 196 248 307 359
#     4  12  25  40  60  86 116 153 197 246 301 361
#     4   9  19  35  59  90 119 155 198 243 295 352
#     4   9  18  36  60  87 120 156 198 243 292 352
#     4  11  22  37  58  86 117 153 199 247 300 359
#
# _framework density 9.3097549999999991
#
# number of rings (size 3 to 8) (size 9 to 14) (size 15 to 20)
#    0.000    1.625    1.250    3.750    1.750    2.500 
#    0.000    4.375    0.000    0.000    0.000    4.375 
#    0.000    0.000    0.000    0.000    0.000    0.000 
#
# Total GULP energy -178372.483766 kJ/mol
# GULP energy per Si atom -5574.140118 kJ/mol
# Density = 0.928857 g / cm^3
# Si number density = 9.309755 Si / 1000 Ang^3
#
#
#
# Elastic Constant Matrix: (Units=GPa)
#
#
# Indices 1 2 3 4 5 6 
#
# 1 115.5417 14.3677 75.5094 -0.0001 -28.4328 0.0000
# 2 14.3677 71.3429 36.3051 -0.0002 -30.8071 0.0004
# 3 75.5094 36.3051 138.7580 0.0000 -36.7735 0.0000
# 4 -0.0001 -0.0002 0.0000 25.1859 0.0001 -1.0606
# 5 -28.4328 -30.8071 -36.7735 0.0001 125.1740 -0.0002
# 6 0.0000 0.0004 0.0000 -1.0606 -0.0002 28.8222
#
#
#
# Elastic Compliance Matrix: (Units=1/GPa)
#
#
# Indices 1 2 3 4 5 6 
#
# 1 0.013697 0.001639 -0.007538 0.000000 0.001300 0.000000
# 2 0.001639 0.017451 -0.004577 0.000000 0.003322 0.000000
# 3 -0.007538 -0.004577 0.012747 0.000000 0.000906 0.000000
# 4 0.000000 0.000000 0.000000 0.039766 0.000000 0.001463
# 5 0.001300 0.003322 0.000906 0.000000 0.009368 0.000000
# 6 0.000000 0.000000 0.000000 0.001463 0.000000 0.034749
#
#
# Mechanical properties :
#
#
# Convention : Reuss Voigt Hill
#
# Bulk Modulus (GPa) = 43.58850 64.22301 53.90576
# Shear Modulus (GPa) = 31.97374 49.13379 40.55377
#
# Velocity S-wave (km/s) = 4.14843 5.14253 4.67200
# Velocity P-wave (km/s) = 6.81226 8.35632 7.62348
#
# Compressibility (1/GPa) = 0.02294183
#
# Stress axis : x y z
#
# Youngs Moduli (GPa) = 73.00683 57.30431 78.45264
#
# Poissons Ratio (x) = -0.09392 0.59138
# Poissons Ratio (y) = -0.11965 0.35909
# Poissons Ratio (z) = 0.55033 0.26229
#
# Static dielectric constant tensor:
#      x y z
#    x 1.441970 0.000000 0.022790 
#    y 0.000000 1.606710 0.000000 
#    z 0.022790 0.000000 1.603490 
# 
# From -- ./inp_files/319836.got.cif
#   From: 2010.05.17/outbox.ucp.g08.bks.cvg/sg12_160_cif.got.tgz:319836.got - 2010.06.11 11:47:21.
