data_PCOD9225840
_publ_section_title
;
Structure prediction by ZEFSAII (Michael W. Deem and Ramdas Pophale) SiO2 
 PCOD9225840
Probable space group: C 2/M
;
_chemical_formula_sum "Si O2"
_cell_formula_units_Z 28
_cell_length_a 21.000000
_cell_length_b 18.000000
_cell_length_c 21.000000
_cell_angle_alpha 90.000000
_cell_angle_beta 20.000000
_cell_angle_gamma 90.000000
_cell_volume 2714.955898
_symmetry_space_group_name_H-M "C 2/M"
_symmetry_group_IT_number 12
_symmetry_cell_setting 'monoclinic'
loop_
_space_group_symop_operation_xyz
x,y,z
-x,y,-z
-x,-y,-z
x,-y,z
1/2+x,1/2+y,z
1/2-x,1/2+y,-z
1/2-x,1/2-y,-z
1/2+x,1/2-y,z
loop_
_atom_site_type_symbol
_atom_site_label
_atom_site_fract_x
_atom_site_fract_y
_atom_site_fract_z
Si Si1 0.584111 0.585109 0.109704
Si Si2 0.803157 0.190594 0.211766
Si Si3 0.656314 0.182647 0.212558
Si Si4 0.942505 0.348685 0.126092
Si Si5 0.433284 0.413783 0.493769
Si Si6 0.325888 0.658929 0.841856
Si Si7 0.677680 0.085300 0.440797
O O1 0.644324 0.500000 0.044164
O O2 0.651616 0.615436 0.113924
O O3 0.362698 0.587536 0.309567
O O4 0.666343 0.637770 0.978242
O O5 0.684403 0.207109 0.259750
O O6 0.850899 0.266826 0.203889
O O7 0.714807 0.130607 0.341093
O O8 0.000000 0.162019 0.000000
O O9 0.630727 0.254075 0.192779
O O10 0.485993 0.126948 0.369559
O O11 0.786900 0.402375 0.299894
O O12 0.000000 0.370824 0.000000
O O13 0.121673 0.346238 0.002432
O O14 0.500000 0.384667 0.500000
O O15 0.485002 0.500000 0.441590
O O16 0.532002 0.372668 0.343716
O O17 0.631567 0.000000 0.470120
#
# Coordination Sequence:
#
# PCOD9225840 Si02
#       7
#     8   8   8   8   8   8   8
#     4  11  26  45  62  90 132 173 215 264 314 377
#     4  11  20  40  67  99 127 162 210 264 321 374
#     4  12  23  41  70  96 125 168 217 262 318 382
#     4  11  21  41  65  96 127 165 207 264 321 374
#     4  11  23  37  59  92 127 166 211 261 318 375
#     4  12  24  42  68  94 128 168 216 263 315 378
#     4  11  25  42  64  95 133 170 210 262 321 379
#
# _framework density 10.313243
#
# number of rings (size 3 to 8) (size 9 to 14) (size 15 to 20)
#    0.000    0.714    5.714    2.571    0.000    5.143 
#    0.000    0.000    0.000    0.000    0.000    0.000 
#    0.000    0.000    0.000    0.000    0.000    0.000 
#
# Total GULP energy -156552.464930 kJ/mol
# GULP energy per Si atom -5591.159462 kJ/mol
# Density = 1.028977 g / cm^3
# Si number density = 10.313243 Si / 1000 Ang^3
#
#
#
# Elastic Constant Matrix: (Units=GPa)
#
#
# Indices 1 2 3 4 5 6 
#
# 1 65.1969 21.3433 -10.2971 0.0146 5.4247 0.0365
# 2 21.3433 27.6620 22.1120 -0.0674 0.6165 -0.1034
# 3 -10.2971 22.1120 52.6924 0.0424 -10.3070 0.1345
# 4 0.0146 -0.0674 0.0424 20.8460 0.0110 -29.0330
# 5 5.4247 0.6165 -10.3070 0.0110 7.8499 0.0087
# 6 0.0365 -0.1034 0.1345 -29.0330 0.0087 -53.1385
#
#
#
# Elastic Compliance Matrix: (Units=1/GPa)
#
#
# Indices 1 2 3 4 5 6 
#
# 1 0.040559 -0.065064 0.041371 0.000016 0.031402 0.000255
# 2 -0.065064 0.174809 -0.107595 -0.000030 -0.110039 -0.000659
# 3 0.041371 -0.107595 0.091868 0.000035 0.100484 0.000468
# 4 0.000016 -0.000030 0.000035 0.027242 0.000015 -0.014884
# 5 0.031402 -0.110039 0.100484 0.000015 0.246269 0.000522
# 6 0.000255 -0.000659 0.000468 -0.014884 0.000522 -0.010684
#
#
# Mechanical properties :
#
#
# Convention : Reuss Voigt Hill
#
# Bulk Modulus (GPa) = 22.39032 23.54084 22.96558
# Shear Modulus (GPa) = 5.89954 2.60436 4.25195
#
# Velocity S-wave (km/s) = 1.69304 1.12489 1.43732
# Velocity P-wave (km/s) = 3.83413 3.62282 3.72997
#
# Compressibility (1/GPa) = 0.04466215
#
# Stress axis : x y z
#
# Youngs Moduli (GPa) = 24.65546 5.72052 10.88515
#
# Poissons Ratio (x) = 0.37220 -0.45033
# Poissons Ratio (y) = 1.60418 1.17118
# Poissons Ratio (z) = -1.02003 0.61550
#
# Static dielectric constant tensor:
#      x y z
#    x 1.708610 -0.000010 -0.025290 
#    y -0.000010 1.717750 0.000010 
#    z -0.025290 0.000010 1.725580 
# 
# From -- ./inp_files/322679.got.cif
#   From: 2010.05.17/outbox.ucp.g08.bks.cvg/sg12_162_cif.got.tgz:322679.got - 2010.06.11 11:47:21.
