data_PCOD9225232
_publ_section_title
;
Structure prediction by ZEFSAII (Michael W. Deem and Ramdas Pophale) SiO2 
 PCOD9225232
Probable space group: C 2/M
;
_chemical_formula_sum "Si O2"
_cell_formula_units_Z 28
_cell_length_a 15.000000
_cell_length_b 9.000000
_cell_length_c 24.000000
_cell_angle_alpha 90.000000
_cell_angle_beta 110.000000
_cell_angle_gamma 90.000000
_cell_volume 3044.604091
_symmetry_space_group_name_H-M "C 2/M"
_symmetry_group_IT_number 12
_symmetry_cell_setting 'monoclinic'
loop_
_space_group_symop_operation_xyz
x,y,z
-x,y,-z
-x,-y,-z
x,-y,z
1/2+x,1/2+y,z
1/2-x,1/2+y,-z
1/2-x,1/2-y,-z
1/2+x,1/2-y,z
loop_
_atom_site_type_symbol
_atom_site_label
_atom_site_fract_x
_atom_site_fract_y
_atom_site_fract_z
Si Si1 0.641344 0.680867 0.549063
Si Si2 0.141965 0.677603 0.250542
Si Si3 0.476949 0.180666 0.578967
Si Si4 0.237686 0.677504 0.152726
Si Si5 0.951323 0.177779 0.932686
Si Si6 0.952227 0.178887 0.164177
Si Si7 0.334395 0.678737 0.627919
O O1 0.638976 0.500000 0.546576
O O2 0.590729 0.753081 0.484378
O O3 0.578637 0.746227 0.586734
O O4 0.746673 0.745115 0.576897
O O5 0.143140 0.500000 0.261852
O O6 0.208656 0.706538 0.210962
O O7 0.176115 0.771285 0.310581
O O8 0.035238 0.733176 0.214024
O O9 0.430119 0.245849 0.624631
O O10 0.479791 0.000000 0.578101
O O11 0.232775 0.500000 0.143498
O O12 0.151803 0.751582 0.100083
O O13 0.344868 0.722614 0.158478
O O14 0.020769 0.206426 0.894865
O O15 0.938801 0.000000 0.933198
O O16 0.000000 0.230191 0.000000
O O17 0.961796 0.000000 0.176179
O O18 0.335132 0.500000 0.621242
#
# Coordination Sequence:
#
# PCOD9225232 Si02
#       7
#     8   8   8   8   8   8   8
#     4  11  22  39  60  85 115 148 184 226 276 333
#     4  10  21  37  54  77 105 135 178 229 274 322
#     4  11  22  39  60  85 114 146 184 228 277 332
#     4   9  19  35  55  76 103 140 179 219 266 319
#     4   9  18  32  51  78 111 142 176 219 264 315
#     4   9  18  35  55  75 104 143 180 217 269 326
#     4  12  24  39  58  82 111 147 186 228 280 334
#
# _framework density 9.1965979999999998
#
# number of rings (size 3 to 8) (size 9 to 14) (size 15 to 20)
#    0.000    1.857    0.000    5.571    0.000    3.143 
#    0.000    4.286    0.000    0.000    0.000    0.000 
#    0.000    0.000    0.000    0.000    0.000    0.000 
#
# Total GULP energy -156303.072106 kJ/mol
# GULP energy per Si atom -5582.252575 kJ/mol
# Density = 0.917567 g / cm^3
# Si number density = 9.196598 Si / 1000 Ang^3
#
#
#
# Elastic Constant Matrix: (Units=GPa)
#
#
# Indices 1 2 3 4 5 6 
#
# 1 123.8471 27.3249 6.0425 0.0000 -3.3202 0.0000
# 2 27.3249 116.7636 16.0188 0.0000 -5.7497 0.0000
# 3 6.0425 16.0188 42.8282 0.0000 -4.0161 0.0000
# 4 0.0000 0.0000 0.0000 29.8904 0.0000 3.6476
# 5 -3.3202 -5.7497 -4.0161 0.0000 13.7552 0.0000
# 6 0.0000 0.0000 0.0000 3.6476 0.0000 34.3260
#
#
#
# Elastic Compliance Matrix: (Units=1/GPa)
#
#
# Indices 1 2 3 4 5 6 
#
# 1 0.008541 -0.001888 -0.000390 0.000000 0.001158 0.000000
# 2 -0.001888 0.009556 -0.003060 0.000000 0.002645 0.000000
# 3 -0.000390 -0.003060 0.025107 0.000000 0.005957 0.000000
# 4 0.000000 0.000000 0.000000 0.033895 0.000000 -0.003602
# 5 0.001158 0.002645 0.005957 0.000000 0.075824 0.000000
# 6 0.000000 0.000000 0.000000 -0.003602 0.000000 0.029515
#
#
# Mechanical properties :
#
#
# Convention : Reuss Voigt Hill
#
# Bulk Modulus (GPa) = 30.74255 42.46793 36.60524
# Shear Modulus (GPa) = 24.51481 31.19785 27.85633
#
# Velocity S-wave (km/s) = 3.65474 4.12292 3.89587
# Velocity P-wave (km/s) = 5.87876 6.76784 6.33891
#
# Compressibility (1/GPa) = 0.03252821
#
# Stress axis : x y z
#
# Youngs Moduli (GPa) = 117.07994 104.64374 39.82918
#
# Poissons Ratio (x) = 0.19759 0.01554
# Poissons Ratio (y) = 0.22107 0.12187
# Poissons Ratio (z) = 0.04568 0.32019
#
# Static dielectric constant tensor:
#      x y z
#    x 1.642480 0.000000 -0.030060 
#    y 0.000000 1.607850 0.000000 
#    z -0.030060 0.000000 1.667510 
# 
# From -- ./inp_files/338170.got.cif
#   From: 2010.05.17/outbox.ucp.g08.bks.cvg/sg12_170_cif.got.tgz:338170.got - 2010.06.11 11:47:21.
