data_PCOD9225330
_publ_section_title
;
Structure prediction by ZEFSAII (Michael W. Deem and Ramdas Pophale) SiO2 
 PCOD9225330
Probable space group: C 2/M
;
_chemical_formula_sum "Si O2"
_cell_formula_units_Z 32
_cell_length_a 30.000000
_cell_length_b 9.000000
_cell_length_c 18.000000
_cell_angle_alpha 90.000000
_cell_angle_beta 40.000000
_cell_angle_gamma 90.000000
_cell_volume 3123.947783
_symmetry_space_group_name_H-M "C 2/M"
_symmetry_group_IT_number 12
_symmetry_cell_setting 'monoclinic'
loop_
_space_group_symop_operation_xyz
x,y,z
-x,y,-z
-x,-y,-z
x,-y,z
1/2+x,1/2+y,z
1/2-x,1/2+y,-z
1/2-x,1/2-y,-z
1/2+x,1/2-y,z
loop_
_atom_site_type_symbol
_atom_site_label
_atom_site_fract_x
_atom_site_fract_y
_atom_site_fract_z
Si Si1 0.838564 0.677587 0.039881
Si Si2 0.705724 0.828378 0.201275
Si Si3 0.636519 0.321221 0.148444
Si Si4 0.299821 0.179514 0.332869
Si Si5 0.435146 0.837008 0.527465
Si Si6 0.154779 0.819652 0.569654
Si Si7 0.021184 0.827104 0.661527
Si Si8 0.425098 0.180508 0.065724
O O1 0.838681 0.500000 0.029271
O O2 0.764924 0.731813 0.165885
O O3 0.903406 0.719415 0.009290
O O4 0.839569 0.765969 0.961999
O O5 0.681995 0.753979 0.154208
O O6 0.635983 0.830151 0.338050
O O7 0.727816 0.000000 0.162461
O O8 0.639555 0.500000 0.152619
O O9 0.556130 0.267066 0.251800
O O10 0.217755 0.218829 0.432009
O O11 0.323929 0.248510 0.379916
O O12 0.358214 0.228120 0.199487
O O13 0.302737 0.000000 0.331806
O O14 0.500000 0.829752 0.500000
O O15 0.441100 0.701554 0.464124
O O16 0.439336 0.000000 0.483677
O O17 0.077664 0.765660 0.646963
O O18 0.153147 0.000000 0.576687
O O19 0.012090 0.000000 0.690269
O O20 0.427182 0.000000 0.066019
O O21 0.500000 0.233682 0.000000
#
# Coordination Sequence:
#
# PCOD9225330 Si02
#       8
#     8   8   8   8   8   8   8   8
#     4  11  24  40  63  89 114 153 200 246 294 344
#     4  11  23  41  63  87 120 156 193 242 294 348
#     4  11  23  40  60  86 120 156 199 244 292 347
#     4   9  18  35  59  82 110 148 188 233 282 338
#     4  10  21  38  58  84 117 151 188 232 283 338
#     4   9  19  35  55  84 116 147 184 230 285 340
#     4  10  22  36  57  85 117 155 191 235 287 346
#     4   9  20  38  59  86 116 149 192 239 288 344
#
# _framework density 10.243449
#
# number of rings (size 3 to 8) (size 9 to 14) (size 15 to 20)
#    0.000    2.000    1.250    1.500    3.500    2.250 
#    0.000    1.250    0.000    1.875    0.000    0.000 
#    0.000    0.000    0.000    0.000    0.000    0.000 
#
# Total GULP energy -178358.486836 kJ/mol
# GULP energy per Si atom -5573.702714 kJ/mol
# Density = 1.022013 g / cm^3
# Si number density = 10.243449 Si / 1000 Ang^3
#
#
#
# Elastic Constant Matrix: (Units=GPa)
#
#
# Indices 1 2 3 4 5 6 
#
# 1 90.9367 0.6398 14.7552 -0.0072 -33.8233 0.0052
# 2 0.6398 10.1624 -0.7581 -0.0087 -6.7283 0.0070
# 3 14.7552 -0.7581 57.3922 -0.0066 -12.7196 0.0046
# 4 -0.0072 -0.0087 -0.0066 17.5794 0.0007 2.6933
# 5 -33.8233 -6.7283 -12.7196 0.0007 20.6503 -0.0001
# 6 0.0052 0.0070 0.0046 2.6933 -0.0001 15.6926
#
#
#
# Elastic Compliance Matrix: (Units=1/GPa)
#
#
# Indices 1 2 3 4 5 6 
#
# 1 0.053534 0.078544 0.014336 0.000072 0.122106 -0.000068
# 2 0.078544 0.248834 0.034249 0.000185 0.230819 -0.000177
# 3 0.014336 0.034249 0.025325 0.000035 0.050239 -0.000033
# 4 0.000072 0.000185 0.000035 0.058421 0.000197 -0.010027
# 5 0.122106 0.230819 0.050239 0.000197 0.354574 -0.000190
# 6 -0.000068 -0.000177 -0.000033 -0.010027 -0.000190 0.065445
#
#
# Mechanical properties :
#
#
# Convention : Reuss Voigt Hill
#
# Bulk Modulus (GPa) = 1.71836 20.86279 11.29057
# Shear Modulus (GPa) = 6.70367 20.37475 13.53921
#
# Velocity S-wave (km/s) = 1.81088 3.15703 2.57353
# Velocity P-wave (km/s) = 2.28319 4.84713 3.78865
#
# Compressibility (1/GPa) = 0.58195053
#
# Stress axis : x y z
#
# Youngs Moduli (GPa) = 18.67955 4.01874 39.48691
#
# Poissons Ratio (x) = -0.31565 -0.56608
# Poissons Ratio (y) = -1.46716 -1.35239
# Poissons Ratio (z) = -0.26779 -0.13764
#
# Static dielectric constant tensor:
#      x y z
#    x 1.749800 0.000000 -0.027610 
#    y 0.000000 1.706860 0.000000 
#    z -0.027610 0.000000 1.837350 
# 
# From -- ./inp_files/295649.got.cif
#   From: 2010.05.17/outbox.ucp.g08.bks.cvg/sg12_148_cif.got.tgz:295649.got - 2010.06.11 11:47:21.
