data_PCOD9225116
_publ_section_title
;
Structure prediction by ZEFSAII (Michael W. Deem and Ramdas Pophale) SiO2 
 PCOD9225116
Probable space group: C 2/M
;
_chemical_formula_sum "Si O2"
_cell_formula_units_Z 32
_cell_length_a 18.000000
_cell_length_b 21.000000
_cell_length_c 27.000000
_cell_angle_alpha 90.000000
_cell_angle_beta 160.000000
_cell_angle_gamma 90.000000
_cell_volume 3490.657583
_symmetry_space_group_name_H-M "C 2/M"
_symmetry_group_IT_number 12
_symmetry_cell_setting 'monoclinic'
loop_
_space_group_symop_operation_xyz
x,y,z
-x,y,-z
-x,-y,-z
x,-y,z
1/2+x,1/2+y,z
1/2-x,1/2+y,-z
1/2-x,1/2-y,-z
1/2+x,1/2-y,z
loop_
_atom_site_type_symbol
_atom_site_label
_atom_site_fract_x
_atom_site_fract_y
_atom_site_fract_z
Si Si1 0.470931 0.572477 0.423046
Si Si2 0.071071 0.370369 0.316308
Si Si3 0.067808 0.340001 0.148923
Si Si4 0.588308 0.310831 0.191647
Si Si5 0.214738 0.711679 0.144007
Si Si6 0.221830 0.420802 0.956696
Si Si7 0.586105 0.719044 0.305321
Si Si8 0.017365 0.316202 0.634018
O O1 0.500000 0.567480 0.500000
O O2 0.409727 0.500000 0.367524
O O3 0.695351 0.595622 0.539172
O O4 0.297762 0.629154 0.308533
O O5 0.087793 0.296524 0.308052
O O6 0.920386 0.407608 0.182283
O O7 0.991223 0.362797 0.323427
O O8 0.030542 0.264259 0.139963
O O9 0.100805 0.338648 0.109754
O O10 0.903821 0.388257 0.074617
O O11 0.615058 0.304646 0.267535
O O12 0.806947 0.329053 0.298828
O O13 0.422479 0.369748 0.077327
O O14 0.353944 0.696247 0.182455
O O15 0.393949 0.749721 0.287795
O O16 0.000000 0.755468 0.000000
O O17 0.253591 0.500000 0.981593
O O18 0.781907 0.693693 0.462268
#
# Coordination Sequence:
#
# PCOD9225116 Si02
#       8
#     8   8   8   8   8   8   8   8
#     4  11  20  34  57  91 127 165 202 248 316 391
#     4  11  21  36  60  90 136 168 208 252 324 388
#     4  11  21  37  62  90 127 164 212 263 327 381
#     4  11  23  39  66  90 123 164 224 267 316 364
#     4  10  21  33  58  93 131 159 198 264 331 371
#     4  12  25  40  61  93 132 173 211 262 325 394
#     4  11  20  39  63  95 127 162 217 275 316 369
#     4  10  23  36  61  93 127 166 216 267 312 366
#
# _framework density 9.1673270000000002
#
# number of rings (size 3 to 8) (size 9 to 14) (size 15 to 20)
#    0.000    1.125    2.500    6.000    7.000    0.000 
#    0.000    1.875    0.000   12.750    0.000    0.000 
#    0.000    0.000    0.000    0.000    0.000    0.000 
#
# Total GULP energy -178188.869305 kJ/mol
# GULP energy per Si atom -5568.402166 kJ/mol
# Density = 0.914646 g / cm^3
# Si number density = 9.167327 Si / 1000 Ang^3
#
#
#
# Elastic Constant Matrix: (Units=GPa)
#
#
# Indices 1 2 3 4 5 6 
#
# 1 162.3442 30.9541 39.1227 0.0075 16.1868 0.0042
# 2 30.9541 120.5584 33.5263 0.0396 6.7008 0.0159
# 3 39.1227 33.5263 88.6983 0.0757 17.0227 0.0256
# 4 0.0075 0.0396 0.0757 14.9410 -0.0094 -12.9834
# 5 16.1868 6.7008 17.0227 -0.0094 39.3041 -0.0072
# 6 0.0042 0.0159 0.0256 -12.9834 -0.0072 16.5323
#
#
#
# Elastic Compliance Matrix: (Units=1/GPa)
#
#
# Indices 1 2 3 4 5 6 
#
# 1 0.007113 -0.001062 -0.002409 0.000039 -0.001705 0.000033
# 2 -0.001062 0.009428 -0.003131 -0.000037 0.000186 -0.000033
# 3 -0.002409 -0.003131 0.014427 -0.000266 -0.004723 -0.000230
# 4 0.000039 -0.000037 -0.000266 0.210766 0.000187 0.165522
# 5 -0.001705 0.000186 -0.004723 0.000187 0.028159 0.000166
# 6 0.000033 -0.000033 -0.000230 0.165522 0.000166 0.190478
#
#
# Mechanical properties :
#
#
# Convention : Reuss Voigt Hill
#
# Bulk Modulus (GPa) = 56.29211 64.31190 60.30201
# Shear Modulus (GPa) = 10.42767 32.02202 21.22484
#
# Velocity S-wave (km/s) = 2.38742 4.18368 3.40610
# Velocity P-wave (km/s) = 6.19426 7.64791 6.95914
#
# Compressibility (1/GPa) = 0.01776448
#
# Stress axis : x y z
#
# Youngs Moduli (GPa) = 140.59466 106.07089 69.31610
#
# Poissons Ratio (x) = 0.11261 0.16697
# Poissons Ratio (y) = 0.14926 0.21702
# Poissons Ratio (z) = 0.33866 0.33209
#
# Static dielectric constant tensor:
#      x y z
#    x 1.706290 0.000000 -0.036770 
#    y 0.000000 1.637030 -0.000020 
#    z -0.036770 -0.000020 1.751080 
# 
# From -- ./inp_files/364784.got.cif
#   From: 2010.05.17/outbox.ucp.g08.bks.cvg/sg12_183_cif.got.tgz:364784.got - 2010.06.11 11:47:21.
