data_PCOD9225957
_publ_section_title
;
Structure prediction by ZEFSAII (Michael W. Deem and Ramdas Pophale) SiO2 
 PCOD9225957
Probable space group: C 2/M
;
_chemical_formula_sum "Si O2"
_cell_formula_units_Z 24
_cell_length_a 18.000000
_cell_length_b 15.000000
_cell_length_c 18.000000
_cell_angle_alpha 90.000000
_cell_angle_beta 150.000000
_cell_angle_gamma 90.000000
_cell_volume 2430.000000
_symmetry_space_group_name_H-M "C 2/M"
_symmetry_group_IT_number 12
_symmetry_cell_setting 'monoclinic'
loop_
_space_group_symop_operation_xyz
x,y,z
-x,y,-z
-x,-y,-z
x,-y,z
1/2+x,1/2+y,z
1/2-x,1/2+y,-z
1/2-x,1/2-y,-z
1/2+x,1/2-y,z
loop_
_atom_site_type_symbol
_atom_site_label
_atom_site_fract_x
_atom_site_fract_y
_atom_site_fract_z
Si Si1 0.011553 0.000000 0.322601
Si Si2 0.946873 0.174957 0.872400
Si Si3 0.603587 0.500000 0.945880
Si Si4 0.867229 0.500000 0.645283
Si Si5 0.359377 0.179890 0.330705
Si Si6 0.585165 0.000000 0.712072
Si Si7 0.457287 0.821593 0.159076
Si Si8 0.851586 0.186044 0.192317
O O1 0.965287 0.000000 0.195547
O O2 0.941025 0.905003 0.287484
O O3 0.188417 0.000000 0.492024
O O4 0.774220 0.154592 0.730485
O O5 0.968505 0.254606 0.834585
O O6 0.042134 0.088989 0.931633
O O7 0.000000 0.201330 0.000000
O O8 0.782056 0.500000 0.110889
O O9 0.925026 0.500000 0.610829
O O10 0.944646 0.410236 0.745018
O O11 0.500000 0.209194 0.500000
O O12 0.315464 0.258433 0.235398
O O13 0.394999 0.089633 0.317132
O O14 0.435740 0.760569 0.214273
O O15 0.293869 0.840360 0.982391
#
# Coordination Sequence:
#
# PCOD9225957 Si02
#       8
#     4   8   4   4   8   4   8   8
#     4  12  28  42  68 102 136 177 228 278 336 389
#     4  12  23  42  68 105 133 176 224 273 340 399
#     4  12  22  41  70 100 140 173 220 282 326 415
#     4  12  28  42  68 103 136 175 228 280 331 398
#     4  12  27  41  68 101 146 175 215 280 345 401
#     4  12  22  44  66 101 140 177 220 272 341 404
#     4  11  23  44  74  95 134 175 234 275 321 405
#     4  11  23  46  70  98 130 184 226 273 330 402
#
# _framework density 9.8765429999999999
#
# number of rings (size 3 to 8) (size 9 to 14) (size 15 to 20)
#    0.000    0.333    6.667    2.500    4.667    0.667 
#    0.000    1.667    0.000    0.000    0.000    0.000 
#    0.000    0.000    0.000    0.000    0.000    0.000 
#
# Total GULP energy -134115.734050 kJ/mol
# GULP energy per Si atom -5588.155585 kJ/mol
# Density = 0.985406 g / cm^3
# Si number density = 9.876543 Si / 1000 Ang^3
#
#
#
# Elastic Constant Matrix: (Units=GPa)
#
#
# Indices 1 2 3 4 5 6 
#
# 1 47.4488 35.2642 3.6715 0.0001 2.1894 0.0001
# 2 35.2642 155.8365 31.6081 0.0004 8.4199 0.0004
# 3 3.6715 31.6081 74.3853 0.0004 6.0175 0.0006
# 4 0.0001 0.0004 0.0004 26.6013 0.0002 10.7568
# 5 2.1894 8.4199 6.0175 0.0002 27.6742 0.0002
# 6 0.0001 0.0004 0.0006 10.7568 0.0002 50.3443
#
#
#
# Elastic Compliance Matrix: (Units=1/GPa)
#
#
# Indices 1 2 3 4 5 6 
#
# 1 0.025458 -0.006006 0.001334 0.000000 -0.000477 0.000000
# 2 -0.006006 0.008502 -0.003202 0.000000 -0.001415 0.000000
# 3 0.001334 -0.003202 0.014931 0.000000 -0.002378 0.000000
# 4 0.000000 0.000000 0.000000 0.041147 0.000000 -0.008792
# 5 -0.000477 -0.001415 -0.002378 0.000000 0.037120 0.000000
# 6 0.000000 0.000000 0.000000 -0.008792 0.000000 0.021742
#
#
# Mechanical properties :
#
#
# Convention : Reuss Voigt Hill
#
# Bulk Modulus (GPa) = 30.17206 46.52870 38.35038
# Shear Modulus (GPa) = 28.45865 34.73240 31.59552
#
# Velocity S-wave (km/s) = 3.79980 4.19779 4.00374
# Velocity P-wave (km/s) = 5.87870 6.86306 6.38986
#
# Compressibility (1/GPa) = 0.03314324
#
# Stress axis : x y z
#
# Youngs Moduli (GPa) = 39.28110 117.62137 66.97683
#
# Poissons Ratio (x) = 0.70638 -0.08934
# Poissons Ratio (y) = 0.23591 0.21444
# Poissons Ratio (z) = -0.05240 0.37659
#
# Static dielectric constant tensor:
#      x y z
#    x 1.726670 0.000000 0.015870 
#    y 0.000000 1.602990 0.000000 
#    z 0.015870 0.000000 1.714350 
# 
# From -- ./inp_files/278304.got.cif
#   From: 2010.05.17/outbox.ucp.g08.bks.cvg/sg12_140_cif.got.tgz:278304.got - 2010.06.11 11:47:21.
