data_PCOD9225004
_publ_section_title
;
Structure prediction by ZEFSAII (Michael W. Deem and Ramdas Pophale) SiO2 
 PCOD9225004
Probable space group: C 2/M
;
_chemical_formula_sum "Si O2"
_cell_formula_units_Z 32
_cell_length_a 12.000000
_cell_length_b 24.000000
_cell_length_c 12.000000
_cell_angle_alpha 90.000000
_cell_angle_beta 70.000000
_cell_angle_gamma 90.000000
_cell_volume 3247.577697
_symmetry_space_group_name_H-M "C 2/M"
_symmetry_group_IT_number 12
_symmetry_cell_setting 'monoclinic'
loop_
_space_group_symop_operation_xyz
x,y,z
-x,y,-z
-x,-y,-z
x,-y,z
1/2+x,1/2+y,z
1/2-x,1/2+y,-z
1/2-x,1/2-y,-z
1/2+x,1/2-y,z
loop_
_atom_site_type_symbol
_atom_site_label
_atom_site_fract_x
_atom_site_fract_y
_atom_site_fract_z
Si Si1 0.991980 0.778739 0.669796
Si Si2 0.075960 0.065447 0.733166
Si Si3 0.410544 0.157402 0.623986
Si Si4 0.303322 0.651703 0.467805
Si Si5 0.600145 0.263251 0.872191
Si Si6 0.260704 0.375895 0.139853
Si Si7 0.796604 0.066124 0.888899
Si Si8 0.745590 0.842988 0.736187
O O1 0.099937 0.799599 0.556538
O O2 0.037877 0.784005 0.780485
O O3 0.962255 0.715613 0.649141
O O4 0.877812 0.817660 0.700867
O O5 0.122085 0.099643 0.608884
O O6 0.149105 0.089892 0.812290
O O7 0.937222 0.071331 0.811331
O O8 0.100330 0.000000 0.709726
O O9 0.500000 0.132375 0.500000
O O10 0.290952 0.167830 0.594347
O O11 0.364223 0.124632 0.749499
O O12 0.235940 0.644430 0.607588
O O13 0.691555 0.311714 0.880401
O O14 0.663425 0.205892 0.814207
O O15 0.500000 0.254956 0.000000
O O16 0.265396 0.403972 0.016897
O O17 0.733508 0.101419 0.813191
O O18 0.769316 0.000000 0.901756
#
# Coordination Sequence:
#
# PCOD9225004 Si02
#       8
#     8   8   8   8   8   8   8   8
#     4  12  21  38  62  92 131 165 199 250 307 379
#     4  10  20  38  64  92 121 160 207 260 312 366
#     4  11  23  38  62  92 127 165 208 249 307 376
#     4  11  23  41  59  93 128 166 205 255 312 371
#     4  12  25  38  61  96 130 165 205 248 317 380
#     4  11  21  40  61  93 128 159 202 260 312 372
#     4  11  24  40  63  92 122 165 211 253 314 372
#     4  12  24  39  61  92 131 166 202 258 310 371
#
# _framework density 9.8534980000000001
#
# number of rings (size 3 to 8) (size 9 to 14) (size 15 to 20)
#    0.000    0.750    5.000    4.125    1.750    4.000 
#    0.000    1.250    0.000    9.750    0.000    0.000 
#    0.000    0.000    0.000    0.000    0.000    0.000 
#
# Total GULP energy -178872.545251 kJ/mol
# GULP energy per Si atom -5589.767039 kJ/mol
# Density = 0.983107 g / cm^3
# Si number density = 9.853498 Si / 1000 Ang^3
#
#
#
# Elastic Constant Matrix: (Units=GPa)
#
#
# Indices 1 2 3 4 5 6 
#
# 1 35.5832 11.8927 19.4092 0.0000 -8.2585 0.0000
# 2 11.8927 109.8406 64.2278 0.0000 0.2106 0.0000
# 3 19.4092 64.2278 173.9610 0.0000 -7.7530 0.0000
# 4 0.0000 0.0000 0.0000 28.6134 0.0000 -2.2732
# 5 -8.2585 0.2106 -7.7530 0.0000 36.8081 0.0000
# 6 0.0000 0.0000 0.0000 -2.2732 0.0000 25.5762
#
#
#
# Elastic Compliance Matrix: (Units=1/GPa)
#
#
# Indices 1 2 3 4 5 6 
#
# 1 0.031660 -0.001973 -0.002511 0.000000 0.006586 0.000000
# 2 -0.001973 0.011769 -0.004187 0.000000 -0.001392 0.000000
# 3 -0.002511 -0.004187 0.007622 0.000000 0.001066 0.000000
# 4 0.000000 0.000000 0.000000 0.035197 0.000000 0.003128
# 5 0.006586 -0.001392 0.001066 0.000000 0.028878 0.000000
# 6 0.000000 0.000000 0.000000 0.003128 0.000000 0.039377
#
#
# Mechanical properties :
#
#
# Convention : Reuss Voigt Hill
#
# Bulk Modulus (GPa) = 29.66425 56.71603 43.19014
# Shear Modulus (GPa) = 27.31041 33.12321 30.21681
#
# Velocity S-wave (km/s) = 3.72670 4.10418 3.91999
# Velocity P-wave (km/s) = 5.79682 7.16249 6.51553
#
# Compressibility (1/GPa) = 0.03371061
#
# Stress axis : x y z
#
# Youngs Moduli (GPa) = 31.58519 84.97149 131.20027
#
# Poissons Ratio (x) = 0.16761 0.32940
# Poissons Ratio (y) = 0.06230 0.54934
# Poissons Ratio (z) = 0.07930 0.35578
#
# Static dielectric constant tensor:
#      x y z
#    x 1.715570 0.000000 -0.001680 
#    y 0.000000 1.680630 0.000000 
#    z -0.001680 0.000000 1.710650 
# 
# From -- ./inp_files/135939.got.cif
#   From: 2010.05.17/outbox.ucp.g08.bks.cvg/sg12_68_cif.got.tgz:135939.got - 2010.06.11 11:47:21.
