data_PCOD9225537
_publ_section_title
;
Structure prediction by ZEFSAII (Michael W. Deem and Ramdas Pophale) SiO2 
 PCOD9225537
Probable space group: C 2/M
;
_chemical_formula_sum "Si O2"
_cell_formula_units_Z 28
_cell_length_a 21.000000
_cell_length_b 15.000000
_cell_length_c 18.000000
_cell_angle_alpha 90.000000
_cell_angle_beta 30.000000
_cell_angle_gamma 90.000000
_cell_volume 2835.000000
_symmetry_space_group_name_H-M "C 2/M"
_symmetry_group_IT_number 12
_symmetry_cell_setting 'monoclinic'
loop_
_space_group_symop_operation_xyz
x,y,z
-x,y,-z
-x,-y,-z
x,-y,z
1/2+x,1/2+y,z
1/2-x,1/2+y,-z
1/2-x,1/2-y,-z
1/2+x,1/2-y,z
loop_
_atom_site_type_symbol
_atom_site_label
_atom_site_fract_x
_atom_site_fract_y
_atom_site_fract_z
Si Si1 0.062415 0.392845 0.777630
Si Si2 0.125483 0.749248 0.322915
Si Si3 0.481606 0.778857 0.325600
Si Si4 0.609698 0.605070 0.122837
Si Si5 0.776667 0.602923 0.087201
Si Si6 0.271471 0.257223 0.323102
Si Si7 0.484136 0.604627 0.102827
O O1 0.083569 0.500000 0.753328
O O2 0.048250 0.349838 0.709345
O O3 0.163156 0.338095 0.725417
O O4 0.922881 0.374931 0.953159
O O5 0.182292 0.838750 0.230698
O O6 0.228787 0.721861 0.281168
O O7 0.000000 0.762735 0.500000
O O8 0.081408 0.696604 0.292170
O O9 0.526634 0.685204 0.242579
O O10 0.351323 0.762562 0.501089
O O11 0.569992 0.500000 0.176251
O O12 0.741453 0.615216 0.035180
O O13 0.601180 0.617535 0.042432
O O14 0.757234 0.500000 0.123994
O O15 0.372316 0.332327 0.244398
O O16 0.450349 0.500000 0.140409
O O17 0.500000 0.626434 0.000000
#
# Coordination Sequence:
#
# PCOD9225537 Si02
#       7
#     8   8   8   8   8   8   8
#     4  11  24  38  58  90 123 157 196 242 299 357
#     4   9  21  38  61  85 117 155 199 241 288 351
#     4  10  21  41  60  87 114 158 204 238 290 353
#     4   9  18  36  62  86 112 146 196 249 286 339
#     4   9  20  37  57  85 116 152 197 238 290 352
#     4  11  23  39  59  88 121 155 195 244 299 354
#     4  10  22  37  57  87 116 148 193 243 296 343
#
# _framework density 9.8765429999999999
#
# number of rings (size 3 to 8) (size 9 to 14) (size 15 to 20)
#    0.000    2.143    1.429    0.429    2.000    5.429 
#    0.000    6.429    0.000    2.571    0.000    0.000 
#    0.000    0.000    0.000    0.000    0.000    0.000 
#
# Total GULP energy -155968.772779 kJ/mol
# GULP energy per Si atom -5570.313314 kJ/mol
# Density = 0.985406 g / cm^3
# Si number density = 9.876543 Si / 1000 Ang^3
#
#
#
# Elastic Constant Matrix: (Units=GPa)
#
#
# Indices 1 2 3 4 5 6 
#
# 1 81.7469 -2.5067 9.7749 -0.0001 -3.2978 0.0000
# 2 -2.5067 33.4296 20.1580 -0.0001 -6.4102 0.0000
# 3 9.7749 20.1580 20.9983 -0.0001 -3.4402 0.0000
# 4 -0.0001 -0.0001 -0.0001 43.8244 0.0001 7.0205
# 5 -3.2978 -6.4102 -3.4402 0.0001 32.4511 0.0000
# 6 0.0000 0.0000 0.0000 7.0205 0.0000 30.1316
#
#
#
# Elastic Compliance Matrix: (Units=1/GPa)
#
#
# Indices 1 2 3 4 5 6 
#
# 1 0.015025 0.013149 -0.019277 0.000000 0.002081 0.000000
# 2 0.013149 0.084102 -0.085400 0.000000 0.008896 0.000000
# 3 -0.019277 -0.085400 0.137889 0.000000 -0.004211 0.000000
# 4 0.000000 0.000000 0.000000 0.023703 0.000000 -0.005523
# 5 0.002081 0.008896 -0.004211 0.000000 0.032338 0.000000
# 6 0.000000 0.000000 0.000000 -0.005523 0.000000 0.034474
#
#
# Mechanical properties :
#
#
# Convention : Reuss Voigt Hill
#
# Bulk Modulus (GPa) = 18.53173 21.22524 19.87848
# Shear Modulus (GPa) = 9.45942 28.53132 18.99537
#
# Velocity S-wave (km/s) = 2.19071 3.80465 3.10440
# Velocity P-wave (km/s) = 3.97505 5.48353 4.78905
#
# Compressibility (1/GPa) = 0.05396150
#
# Stress axis : x y z
#
# Youngs Moduli (GPa) = 66.55554 11.89035 7.25220
#
# Poissons Ratio (x) = -0.15635 0.13980
# Poissons Ratio (y) = -0.87517 0.61934
# Poissons Ratio (z) = 1.28297 1.01544
#
# Static dielectric constant tensor:
#      x y z
#    x 1.759860 0.000000 -0.009610 
#    y 0.000000 1.667290 0.000000 
#    z -0.009610 0.000000 1.683720 
# 
# From -- ./inp_files/284474.got.cif
#   From: 2010.05.17/outbox.ucp.g08.bks.cvg/sg12_143_cif.got.tgz:284474.got - 2010.06.11 11:47:21.
