data_PCOD9225434
_publ_section_title
;
Structure prediction by ZEFSAII (Michael W. Deem and Ramdas Pophale) SiO2 
 PCOD9225434
Probable space group: C 2/M
;
_chemical_formula_sum "Si O2"
_cell_formula_units_Z 32
_cell_length_a 18.000000
_cell_length_b 9.000000
_cell_length_c 30.000000
_cell_angle_alpha 90.000000
_cell_angle_beta 140.000000
_cell_angle_gamma 90.000000
_cell_volume 3123.947783
_symmetry_space_group_name_H-M "C 2/M"
_symmetry_group_IT_number 12
_symmetry_cell_setting 'monoclinic'
loop_
_space_group_symop_operation_xyz
x,y,z
-x,y,-z
-x,-y,-z
x,-y,z
1/2+x,1/2+y,z
1/2-x,1/2+y,-z
1/2-x,1/2-y,-z
1/2+x,1/2-y,z
loop_
_atom_site_type_symbol
_atom_site_label
_atom_site_fract_x
_atom_site_fract_y
_atom_site_fract_z
Si Si1 0.531451 0.175764 0.426802
Si Si2 0.598879 0.667485 0.377625
Si Si3 0.171740 0.669254 0.574060
Si Si4 0.792084 0.822887 0.317346
Si Si5 0.155278 0.323854 0.170642
Si Si6 0.114234 0.176810 0.781404
Si Si7 0.820029 0.322796 0.096749
Si Si8 0.919430 0.176965 0.053078
O O1 0.616311 0.229153 0.427753
O O2 0.572428 0.224748 0.494656
O O3 0.411300 0.248305 0.356864
O O4 0.525559 0.000000 0.424628
O O5 0.566125 0.500000 0.377369
O O6 0.716294 0.658156 0.404942
O O7 0.497734 0.722535 0.298327
O O8 0.143117 0.500000 0.576236
O O9 0.209988 0.768223 0.633013
O O10 0.688853 0.777161 0.236734
O O11 0.800187 0.000000 0.318310
O O12 0.130145 0.500000 0.159512
O O13 0.270501 0.299944 0.194765
O O14 0.045701 0.238984 0.100948
O O15 0.128038 0.261316 0.833972
O O16 0.103411 0.000000 0.784967
O O17 0.833170 0.500000 0.100227
O O18 0.880957 0.249215 0.082186
O O19 0.683129 0.286498 0.028807
O O20 0.923211 0.000000 0.059291
#
# Coordination Sequence:
#
# PCOD9225434 Si02
#       8
#     8   8   8   8   8   8   8   8
#     4  11  22  38  60  86 118 154 196 244 296 351
#     4  10  21  40  61  84 118 155 196 243 292 350
#     4  10  23  39  58  87 119 153 195 246 298 350
#     4  11  23  40  60  85 117 155 199 245 294 349
#     4  10  22  40  60  86 119 154 197 245 290 343
#     4  10  21  39  61  86 118 157 198 240 292 348
#     4  10  22  40  62  91 124 154 193 241 284 340
#     4  10  22  40  63  90 121 158 194 234 290 345
#
# _framework density 10.243449
#
# number of rings (size 3 to 8) (size 9 to 14) (size 15 to 20)
#    0.000    1.750    1.250    2.250    1.750    7.000 
#    0.000    2.500    0.000    0.000    0.000    0.000 
#    0.000    0.000    0.000    0.000    0.000    0.000 
#
# Total GULP energy -178654.648540 kJ/mol
# GULP energy per Si atom -5582.957767 kJ/mol
# Density = 1.022013 g / cm^3
# Si number density = 10.243449 Si / 1000 Ang^3
#
#
#
# Elastic Constant Matrix: (Units=GPa)
#
#
# Indices 1 2 3 4 5 6 
#
# 1 48.5606 25.6936 22.5589 0.0000 -6.4941 0.0000
# 2 25.6936 29.5908 15.5890 0.0000 -4.6124 0.0000
# 3 22.5589 15.5890 65.1189 0.0000 1.3272 0.0000
# 4 0.0000 0.0000 0.0000 28.3768 0.0000 -0.1790
# 5 -6.4941 -4.6124 1.3272 0.0000 32.1443 0.0000
# 6 0.0000 0.0000 0.0000 -0.1790 0.0000 25.7982
#
#
#
# Elastic Compliance Matrix: (Units=1/GPa)
#
#
# Indices 1 2 3 4 5 6 
#
# 1 0.040791 -0.031242 -0.006734 0.000000 0.004036 0.000000
# 2 -0.031242 0.063766 -0.004504 0.000000 0.003024 0.000000
# 3 -0.006734 -0.004504 0.018824 0.000000 -0.002784 0.000000
# 4 0.000000 0.000000 0.000000 0.035242 0.000000 0.000244
# 5 0.004036 0.003024 -0.002784 0.000000 0.032474 0.000000
# 6 0.000000 0.000000 0.000000 0.000244 0.000000 0.038764
#
#
# Mechanical properties :
#
#
# Convention : Reuss Voigt Hill
#
# Bulk Modulus (GPa) = 26.02720 30.10591 28.06655
# Shear Modulus (GPa) = 15.26122 22.55912 18.91017
#
# Velocity S-wave (km/s) = 2.73229 3.32196 3.04145
# Velocity P-wave (km/s) = 4.76296 5.42595 5.10523
#
# Compressibility (1/GPa) = 0.03842135
#
# Stress axis : x y z
#
# Youngs Moduli (GPa) = 24.51506 15.68244 53.12272
#
# Poissons Ratio (x) = 0.48995 0.35775
# Poissons Ratio (y) = 0.76590 0.23924
# Poissons Ratio (z) = 0.16509 0.07063
#
# Static dielectric constant tensor:
#      x y z
#    x 1.816760 0.000000 0.017860 
#    y 0.000000 1.700010 0.000000 
#    z 0.017860 0.000000 1.702800 
# 
# From -- ./inp_files/378204.got.cif
#   From: 2010.05.17/outbox.ucp.g08.bks.cvg/sg12_190_cif.got.tgz:378204.got - 2010.06.11 11:47:21.
