data_PCOD9225879
_publ_section_title
;
Structure prediction by ZEFSAII (Michael W. Deem and Ramdas Pophale) SiO2 
 PCOD9225879
Probable space group: C 2/M
;
_chemical_formula_sum "Si O2"
_cell_formula_units_Z 29
_cell_length_a 9.000000
_cell_length_b 18.000000
_cell_length_c 21.000000
_cell_angle_alpha 90.000000
_cell_angle_beta 120.000000
_cell_angle_gamma 90.000000
_cell_volume 2946.218424
_symmetry_space_group_name_H-M "C 2/M"
_symmetry_group_IT_number 12
_symmetry_cell_setting 'monoclinic'
loop_
_space_group_symop_operation_xyz
x,y,z
-x,y,-z
-x,-y,-z
x,-y,z
1/2+x,1/2+y,z
1/2-x,1/2+y,-z
1/2-x,1/2-y,-z
1/2+x,1/2-y,z
loop_
_atom_site_type_symbol
_atom_site_label
_atom_site_fract_x
_atom_site_fract_y
_atom_site_fract_z
Si Si1 0.846030 0.809234 0.700440
Si Si2 0.456770 0.420059 0.622039
Si Si3 0.715832 0.681208 0.845952
Si Si4 0.682873 0.661605 0.073589
Si Si5 0.803946 0.583137 0.979413
Si Si6 0.689421 0.913324 0.773800
Si Si7 0.000000 0.000000 0.500000
Si Si8 0.680917 0.144153 0.267889
O O1 0.739834 0.860512 0.726011
O O2 0.788315 0.723551 0.690483
O O3 0.859720 0.851730 0.635636
O O4 0.034405 0.806016 0.772909
O O5 0.398824 0.500000 0.638327
O O6 0.454661 0.435883 0.545782
O O7 0.654997 0.406595 0.683235
O O8 0.776725 0.756049 0.893179
O O9 0.706415 0.619546 0.898757
O O10 0.833105 0.659791 0.810809
O O11 0.705186 0.610299 0.140392
O O12 0.500000 0.659233 0.000000
O O13 0.800816 0.633247 0.041476
O O14 0.739621 0.500000 0.979962
O O15 0.000000 0.578867 0.000000
O O16 0.491570 0.894942 0.746536
O O17 0.714378 0.000000 0.765503
#
# Coordination Sequence:
#
# PCOD9225879 Si02
#       8
#     8   8   8   8   8   8   2   8
#     4  11  21  39  62  94 125 159 210 259 305 365
#     4   9  20  40  70  93 129 168 204 235 286 373
#     4  11  23  39  60  81 113 164 221 263 324 384
#     4  12  24  40  56  80 118 167 214 276 335 390
#     4  11  25  39  54  78 113 158 218 278 337 398
#     4  12  24  37  59  91 127 157 209 274 326 362
#     4   8  20  44  72 102 128 172 208 226 286 384
#     4  11  21  40  63  94 125 162 211 258 309 370
#
# _framework density 9.8431259999999998
#
# number of rings (size 3 to 8) (size 9 to 14) (size 15 to 20)
#    0.414    0.690    2.759    4.552    0.000    6.621 
#    0.000    0.690    0.000    1.655    0.000    0.000 
#    0.000    0.000    0.000    0.000    0.000    0.000 
#
# Total GULP energy -161663.439397 kJ/mol
# GULP energy per Si atom -5574.601359 kJ/mol
# Density = 0.982072 g / cm^3
# Si number density = 9.843126 Si / 1000 Ang^3
#
#
#
# Elastic Constant Matrix: (Units=GPa)
#
#
# Indices 1 2 3 4 5 6 
#
# 1 55.4353 -15.6838 8.5123 0.0000 -11.9343 0.0000
# 2 -15.6838 48.1985 8.9379 0.0000 -1.2861 0.0000
# 3 8.5123 8.9379 45.7919 0.0000 -32.5977 0.0000
# 4 0.0000 0.0000 0.0000 24.8484 0.0000 -10.1710
# 5 -11.9343 -1.2861 -32.5977 0.0000 28.7554 0.0000
# 6 0.0000 0.0000 0.0000 -10.1710 0.0000 39.7269
#
#
#
# Elastic Compliance Matrix: (Units=1/GPa)
#
#
# Indices 1 2 3 4 5 6 
#
# 1 0.022621 0.006477 0.007358 0.000000 0.018019 0.000000
# 2 0.006477 0.025772 -0.018134 0.000000 -0.016717 0.000000
# 3 0.007358 -0.018134 0.132664 0.000000 0.152634 0.000000
# 4 0.000000 0.000000 0.000000 0.044955 0.000000 0.011510
# 5 0.018019 -0.016717 0.152634 0.000000 0.214535 0.000000
# 6 0.000000 0.000000 0.000000 0.011510 0.000000 0.028119
#
#
# Mechanical properties :
#
#
# Convention : Reuss Voigt Hill
#
# Bulk Modulus (GPa) = 5.79850 16.99540 11.39695
# Shear Modulus (GPa) = 9.35014 28.51011 18.93012
#
# Velocity S-wave (km/s) = 2.18172 3.80968 3.10432
# Velocity P-wave (km/s) = 3.04932 5.29183 4.31867
#
# Compressibility (1/GPa) = 0.17245837
#
# Stress axis : x y z
#
# Youngs Moduli (GPa) = 44.20688 38.80175 7.53782
#
# Poissons Ratio (x) = -0.25133 -0.05546
# Poissons Ratio (y) = -0.28634 0.13669
# Poissons Ratio (z) = -0.32526 0.70364
#
# Static dielectric constant tensor:
#      x y z
#    x 1.773600 0.000000 0.007230 
#    y 0.000000 1.703980 0.000000 
#    z 0.007230 0.000000 1.648300 
# 
# From -- ./inp_files/301142.got.cif
#   From: 2010.05.17/outbox.ucp.g08.bks.cvg/sg12_151_cif.got.tgz:301142.got - 2010.06.11 11:47:21.
