data_PCOD9225017
_publ_section_title
;
Structure prediction by ZEFSAII (Michael W. Deem and Ramdas Pophale) SiO2 
 PCOD9225017
Probable space group: C 2/M
;
_chemical_formula_sum "Si O2"
_cell_formula_units_Z 22
_cell_length_a 9.000000
_cell_length_b 30.000000
_cell_length_c 18.000000
_cell_angle_alpha 90.000000
_cell_angle_beta 150.000000
_cell_angle_gamma 90.000000
_cell_volume 2430.000000
_symmetry_space_group_name_H-M "C 2/M"
_symmetry_group_IT_number 12
_symmetry_cell_setting 'monoclinic'
loop_
_space_group_symop_operation_xyz
x,y,z
-x,y,-z
-x,-y,-z
x,-y,z
1/2+x,1/2+y,z
1/2-x,1/2+y,-z
1/2-x,1/2-y,-z
1/2+x,1/2-y,z
loop_
_atom_site_type_symbol
_atom_site_label
_atom_site_fract_x
_atom_site_fract_y
_atom_site_fract_z
Si Si1 0.278344 0.104221 0.571029
Si Si2 0.644092 0.946516 0.854858
Si Si3 0.836255 0.949440 0.619370
Si Si4 0.572334 0.315322 0.397872
Si Si5 0.000000 0.252243 0.500000
Si Si6 0.657787 0.112383 0.144802
O O1 0.513281 0.081173 0.727566
O O2 0.166022 0.065869 0.466775
O O3 0.316059 0.148953 0.537217
O O4 0.000000 0.118009 0.500000
O O5 0.527952 0.919317 0.877918
O O6 0.557767 0.000000 0.818807
O O7 0.000000 0.945502 0.000000
O O8 0.500000 0.944390 0.500000
O O9 0.060170 0.917392 0.757760
O O10 0.929109 0.000000 0.668759
O O11 0.466237 0.280771 0.415113
O O12 0.303076 0.345789 0.250950
O O13 0.727565 0.285062 0.402311
O O14 0.500000 0.125284 0.000000
#
# Coordination Sequence:
#
# PCOD9225017 Si02
#       6
#     8   8   8   8   4   8
#     4  11  20  38  61  84 120 151 204 244 292 343
#     4  11  24  38  56  84 120 166 208 243 284 331
#     4  10  22  36  57  87 118 159 208 249 288 334
#     4  10  21  39  63  93 114 148 190 240 302 363
#     4  10  20  38  68  92 114 138 190 246 300 366
#     4  11  24  40  58  84 125 158 196 240 302 349
#
# _framework density 9.0534979999999994
#
# number of rings (size 3 to 8) (size 9 to 14) (size 15 to 20)
#    0.000    1.455    4.545    1.091    7.636    2.182 
#    0.000    0.909    0.000    4.364    0.000    0.000 
#    0.000    0.000    0.000    0.000    0.000    0.000 
#
# Total GULP energy -122569.754736 kJ/mol
# GULP energy per Si atom -5571.352488 kJ/mol
# Density = 0.903289 g / cm^3
# Si number density = 9.053498 Si / 1000 Ang^3
#
#
#
# Elastic Constant Matrix: (Units=GPa)
#
#
# Indices 1 2 3 4 5 6 
#
# 1 61.8978 47.9624 28.1707 0.0000 -7.9915 0.0000
# 2 47.9624 132.3641 54.4096 0.0000 4.2421 0.0000
# 3 28.1707 54.4096 95.2327 0.0000 -16.2890 0.0000
# 4 0.0000 0.0000 0.0000 20.4945 0.0000 12.7073
# 5 -7.9915 4.2421 -16.2890 0.0000 21.9249 0.0000
# 6 0.0000 0.0000 0.0000 12.7073 0.0000 21.5803
#
#
#
# Elastic Compliance Matrix: (Units=1/GPa)
#
#
# Indices 1 2 3 4 5 6 
#
# 1 0.024786 -0.009222 -0.000244 0.000000 0.010638 0.000000
# 2 -0.009222 0.014338 -0.007461 0.000000 -0.011679 0.000000
# 3 -0.000244 -0.007461 0.017261 0.000000 0.014179 0.000000
# 4 0.000000 0.000000 0.000000 0.076853 0.000000 -0.045254
# 5 0.010638 -0.011679 0.014179 0.000000 0.062281 0.000000
# 6 0.000000 0.000000 0.000000 -0.045254 0.000000 0.072986
#
#
# Mechanical properties :
#
#
# Convention : Reuss Voigt Hill
#
# Bulk Modulus (GPa) = 44.38411 61.17554 52.77983
# Shear Modulus (GPa) = 16.13592 23.39673 19.76632
#
# Velocity S-wave (km/s) = 2.98844 3.59853 3.30758
# Velocity P-wave (km/s) = 6.03929 7.15016 6.61808
#
# Compressibility (1/GPa) = 0.02253059
#
# Stress axis : x y z
#
# Youngs Moduli (GPa) = 40.34593 69.74535 57.93496
#
# Poissons Ratio (x) = 0.64319 0.01411
# Poissons Ratio (y) = 0.37207 0.43227
# Poissons Ratio (z) = 0.00982 0.52040
#
# Static dielectric constant tensor:
#      x y z
#    x -0.978410 0.000000 0.314850 
#    y 0.000000 1.619660 0.000000 
#    z 0.314850 0.000000 1.590710 
# 
# From -- ./inp_files/260197.got.cif
#   From: 2010.05.17/outbox.ucp.g08.bks.cvg/sg12_131_cif.got.tgz:260197.got - 2010.06.11 11:47:21.
