data_PCOD9225628
_publ_section_title
;
Structure prediction by ZEFSAII (Michael W. Deem and Ramdas Pophale) SiO2 
 PCOD9225628
Probable space group: C 2/M
;
_chemical_formula_sum "Si O2"
_cell_formula_units_Z 28
_cell_length_a 21.000000
_cell_length_b 9.000000
_cell_length_c 18.000000
_cell_angle_alpha 90.000000
_cell_angle_beta 60.000000
_cell_angle_gamma 90.000000
_cell_volume 2946.218424
_symmetry_space_group_name_H-M "C 2/M"
_symmetry_group_IT_number 12
_symmetry_cell_setting 'monoclinic'
loop_
_space_group_symop_operation_xyz
x,y,z
-x,y,-z
-x,-y,-z
x,-y,z
1/2+x,1/2+y,z
1/2-x,1/2+y,-z
1/2-x,1/2-y,-z
1/2+x,1/2-y,z
loop_
_atom_site_type_symbol
_atom_site_label
_atom_site_fract_x
_atom_site_fract_y
_atom_site_fract_z
Si Si1 0.101471 0.821370 0.237616
Si Si2 0.338244 0.324203 0.100368
Si Si3 0.934176 0.831059 0.304987
Si Si4 0.224650 0.179104 0.280227
Si Si5 0.017149 0.168481 0.891248
Si Si6 0.629416 0.174771 0.065466
Si Si7 0.717946 0.823533 0.591955
O O1 0.147112 0.782972 0.285183
O O2 0.134811 0.743908 0.144624
O O3 0.014325 0.785734 0.289649
O O4 0.105868 0.000000 0.223784
O O5 0.325175 0.500000 0.106854
O O6 0.286028 0.246756 0.190423
O O7 0.422277 0.301544 0.081188
O O8 0.325756 0.255667 0.026141
O O9 0.941545 0.837602 0.211620
O O10 0.867448 0.722092 0.358257
O O11 0.918156 0.000000 0.340674
O O12 0.241882 0.227453 0.354730
O O13 0.230466 0.000000 0.275784
O O14 0.953942 0.287895 0.913094
O O15 0.985563 0.000000 0.919895
O O16 0.643564 0.000000 0.058581
O O17 0.750000 0.750000 0.500000
O O18 0.725968 0.000000 0.583787
#
# Coordination Sequence:
#
# PCOD9225628 Si02
#       7
#     8   8   8   8   8   8   8
#     4   9  20  40  61  81 114 157 196 233 281 341
#     4  11  21  34  54  79 113 155 196 239 289 339
#     4   9  17  35  61  86 112 148 189 231 281 339
#     4  10  22  40  61  86 114 148 192 241 286 333
#     4   9  18  33  53  78 111 152 195 236 285 341
#     4  11  22  33  50  80 115 153 198 244 283 328
#     4  11  23  39  63  92 119 145 180 230 286 343
#
# _framework density 9.5037079999999996
#
# number of rings (size 3 to 8) (size 9 to 14) (size 15 to 20)
#    0.000    2.000    1.429    3.429    0.000    6.857 
#    0.000    0.714    0.000    4.286    0.000    0.000 
#    0.000    0.000    0.000    0.000    0.000    0.000 
#
# Total GULP energy -156267.149977 kJ/mol
# GULP energy per Si atom -5580.969642 kJ/mol
# Density = 0.948208 g / cm^3
# Si number density = 9.503708 Si / 1000 Ang^3
#
#
#
# Elastic Constant Matrix: (Units=GPa)
#
#
# Indices 1 2 3 4 5 6 
#
# 1 120.8538 34.5513 56.8628 0.0000 23.8126 0.0000
# 2 34.5513 42.5039 37.2051 0.0000 11.7080 0.0000
# 3 56.8628 37.2051 114.1150 0.0000 21.5469 0.0000
# 4 0.0000 0.0000 0.0000 30.3802 0.0000 -2.2599
# 5 23.8126 11.7080 21.5469 0.0000 19.7969 0.0000
# 6 0.0000 0.0000 0.0000 -2.2599 0.0000 25.0775
#
#
#
# Elastic Compliance Matrix: (Units=1/GPa)
#
#
# Indices 1 2 3 4 5 6 
#
# 1 0.013058 -0.005461 -0.002984 0.000000 -0.009230 0.000000
# 2 -0.005461 0.036791 -0.008063 0.000000 -0.006414 0.000000
# 3 -0.002984 -0.008063 0.014224 0.000000 -0.007124 0.000000
# 4 0.000000 0.000000 0.000000 0.033138 0.000000 0.002986
# 5 -0.009230 -0.006414 -0.007124 0.000000 0.073162 0.000000
# 6 0.000000 0.000000 0.000000 0.002986 0.000000 0.040145
#
#
# Mechanical properties :
#
#
# Convention : Reuss Voigt Hill
#
# Bulk Modulus (GPa) = 32.19761 59.41235 45.80498
# Shear Modulus (GPa) = 19.69392 24.97448 22.33420
#
# Velocity S-wave (km/s) = 3.22237 3.62875 3.43158
# Velocity P-wave (km/s) = 5.55168 6.99160 6.31283
#
# Compressibility (1/GPa) = 0.03105821
#
# Stress axis : x y z
#
# Youngs Moduli (GPa) = 76.58068 27.18070 70.30564
#
# Poissons Ratio (x) = 0.14843 0.20977
# Poissons Ratio (y) = 0.41819 0.56686
# Poissons Ratio (z) = 0.22849 0.21915
#
# Static dielectric constant tensor:
#      x y z
#    x 1.683340 0.000000 -0.027360 
#    y 0.000000 1.642480 0.000000 
#    z -0.027360 0.000000 1.681060 
# 
# From -- ./inp_files/280977.got.cif
#   From: 2010.05.17/outbox.ucp.g08.bks.cvg/sg12_141_cif.got.tgz:280977.got - 2010.06.11 11:47:21.
