data_PCOD9225811
_publ_section_title
;
Structure prediction by ZEFSAII (Michael W. Deem and Ramdas Pophale) SiO2 
 PCOD9225811
Probable space group: C 2/M
;
_chemical_formula_sum "Si O2"
_cell_formula_units_Z 30
_cell_length_a 21.000000
_cell_length_b 24.000000
_cell_length_c 21.000000
_cell_angle_alpha 90.000000
_cell_angle_beta 20.000000
_cell_angle_gamma 90.000000
_cell_volume 3619.941197
_symmetry_space_group_name_H-M "C 2/M"
_symmetry_group_IT_number 12
_symmetry_cell_setting 'monoclinic'
loop_
_space_group_symop_operation_xyz
x,y,z
-x,y,-z
-x,-y,-z
x,-y,z
1/2+x,1/2+y,z
1/2-x,1/2+y,-z
1/2-x,1/2-y,-z
1/2+x,1/2-y,z
loop_
_atom_site_type_symbol
_atom_site_label
_atom_site_fract_x
_atom_site_fract_y
_atom_site_fract_z
Si Si1 0.512274 0.851938 0.736480
Si Si2 0.942800 0.834165 0.334703
Si Si3 0.642665 0.819696 0.807001
Si Si4 0.035761 0.439145 0.890747
Si Si5 0.500000 0.742820 0.500000
Si Si6 0.036876 0.247483 0.131236
Si Si7 0.744060 0.434000 0.054946
Si Si8 0.066482 0.273989 0.298629
O O1 0.420341 0.800803 0.863533
O O2 0.397828 0.907100 0.862081
O O3 0.503018 0.828120 0.673901
O O4 0.731431 0.853510 0.544857
O O5 0.964154 0.801125 0.246545
O O6 0.987943 0.784408 0.342751
O O7 0.077062 0.888367 0.211587
O O8 0.596403 0.774882 0.795884
O O9 0.829554 0.798966 0.661299
O O10 0.500000 0.819394 0.000000
O O11 0.647192 0.882142 0.774689
O O12 0.117425 0.500000 0.795992
O O13 0.847218 0.432852 0.026792
O O14 0.000000 0.440827 0.000000
O O15 0.516259 0.776985 0.419624
O O16 0.215728 0.228848 0.923472
O O17 0.700783 0.500000 0.082563
#
# Coordination Sequence:
#
# PCOD9225811 Si02
#       8
#     8   8   8   8   4   8   8   8
#     4  11  20  36  57  79 110 142 179 225 281 332
#     4  11  21  35  58  78 109 142 180 224 281 332
#     4  11  20  33  51  75 107 142 178 220 268 315
#     4   9  19  35  51  67 100 147 189 225 262 304
#     4  12  24  32  51  84 113 138 184 224 266 334
#     4  11  18  37  56  79 108 145 176 222 285 335
#     4  11  22  37  56  80 107 144 192 233 267 315
#     4  11  20  35  56  81 111 145 174 224 282 332
#
# _framework density 8.2874269999999992
#
# number of rings (size 3 to 8) (size 9 to 14) (size 15 to 20)
#    0.000    1.200    5.333    4.000    1.867    0.533 
#    0.000    0.333    0.000    0.000    0.000    0.467 
#    0.000    6.400    0.000    0.133    0.000    0.000 
#
# Total GULP energy -167171.110917 kJ/mol
# GULP energy per Si atom -5572.370364 kJ/mol
# Density = 0.826856 g / cm^3
# Si number density = 8.287427 Si / 1000 Ang^3
#
#
#
# Elastic Constant Matrix: (Units=GPa)
#
#
# Indices 1 2 3 4 5 6 
#
# 1 84.0464 44.5987 31.8163 -0.0220 16.3142 0.0096
# 2 44.5987 100.7587 18.4684 -0.0282 2.3411 0.0159
# 3 31.8163 18.4684 66.6849 -0.0879 15.6411 0.0416
# 4 -0.0220 -0.0282 -0.0879 17.4531 0.0307 -7.0315
# 5 16.3142 2.3411 15.6411 0.0307 22.9062 -0.0137
# 6 0.0096 0.0159 0.0416 -7.0315 -0.0137 26.5952
#
#
#
# Elastic Compliance Matrix: (Units=1/GPa)
#
#
# Indices 1 2 3 4 5 6 
#
# 1 0.019732 -0.007589 -0.004999 0.000005 -0.009865 0.000002
# 2 -0.007589 0.013396 -0.001234 -0.000003 0.004878 -0.000002
# 3 -0.004999 -0.001234 0.020073 0.000108 -0.010020 -0.000005
# 4 0.000005 -0.000003 0.000108 0.064128 -0.000153 0.016954
# 5 -0.009865 0.004878 -0.010020 -0.000153 0.057026 0.000005
# 6 0.000002 -0.000002 -0.000005 0.016954 0.000005 0.042083
#
#
# Mechanical properties :
#
#
# Convention : Reuss Voigt Hill
#
# Bulk Modulus (GPa) = 39.12501 49.02854 44.07677
# Shear Modulus (GPa) = 19.79404 23.83134 21.81269
#
# Velocity S-wave (km/s) = 3.45950 3.79595 3.63162
# Velocity P-wave (km/s) = 6.29395 6.98975 6.65095
#
# Compressibility (1/GPa) = 0.02555910
#
# Stress axis : x y z
#
# Youngs Moduli (GPa) = 50.67845 74.64693 49.81782
#
# Poissons Ratio (x) = 0.56646 0.24904
# Poissons Ratio (y) = 0.38458 0.06146
# Poissons Ratio (z) = 0.25335 0.09209
#
# Static dielectric constant tensor:
#      x y z
#    x 1.587790 -0.000010 -0.032090 
#    y -0.000010 1.545810 0.000040 
#    z -0.032090 0.000040 1.594580 
# 
# From -- ./inp_files/323108.got.cif
#   From: 2010.05.17/outbox.ucp.g08.bks.cvg/sg12_162_cif.got.tgz:323108.got - 2010.06.11 11:47:21.
