data_PCOD9225505
_publ_section_title
;
Structure prediction by ZEFSAII (Michael W. Deem and Ramdas Pophale) SiO2 
 PCOD9225505
Probable space group: C 2/M
;
_chemical_formula_sum "Si O2"
_cell_formula_units_Z 28
_cell_length_a 21.000000
_cell_length_b 18.000000
_cell_length_c 21.000000
_cell_angle_alpha 90.000000
_cell_angle_beta 160.000000
_cell_angle_gamma 90.000000
_cell_volume 2714.955898
_symmetry_space_group_name_H-M "C 2/M"
_symmetry_group_IT_number 12
_symmetry_cell_setting 'monoclinic'
loop_
_space_group_symop_operation_xyz
x,y,z
-x,y,-z
-x,-y,-z
x,-y,z
1/2+x,1/2+y,z
1/2-x,1/2+y,-z
1/2-x,1/2-y,-z
1/2+x,1/2-y,z
loop_
_atom_site_type_symbol
_atom_site_label
_atom_site_fract_x
_atom_site_fract_y
_atom_site_fract_z
Si Si1 0.940884 0.880908 0.877780
Si Si2 0.530943 0.169685 0.333785
Si Si3 0.303649 0.783305 0.791808
Si Si4 0.129144 0.915240 0.409527
Si Si5 0.806986 0.913288 0.001981
Si Si6 0.525735 0.311320 0.417133
Si Si7 0.547068 0.081283 0.476902
O O1 0.865261 0.799183 0.825857
O O2 0.768554 0.922240 0.684894
O O3 0.104369 0.884120 0.980792
O O4 0.000000 0.915398 0.000000
O O5 0.707554 0.139337 0.461486
O O6 0.548049 0.250435 0.381321
O O7 0.499432 0.121167 0.368001
O O8 0.349227 0.145944 0.123776
O O9 0.193075 0.812286 0.625986
O O10 0.157716 0.789845 0.713671
O O11 0.500000 0.817913 0.000000
O O12 0.038247 0.887828 0.390141
O O13 0.970667 0.913129 0.207157
O O14 0.200294 0.000000 0.480878
O O15 0.743513 0.000000 0.936456
O O16 0.500000 0.119832 0.500000
O O17 0.459216 0.000000 0.396536
#
# Coordination Sequence:
#
# PCOD9225505 Si02
#       7
#     8   8   8   8   8   8   8
#     4  11  20  33  55  82 123 163 201 245 292 353
#     4  12  22  38  62  88 124 164 209 250 297 357
#     4  10  21  40  64  95 124 154 200 263 315 369
#     4  11  25  44  62  88 125 164 208 259 311 368
#     4  11  23  38  58  88 128 171 207 246 300 363
#     4  11  23  40  68  93 120 161 206 254 314 372
#     4  11  20  30  48  78 117 159 200 240 285 343
#
# _framework density 10.313243
#
# number of rings (size 3 to 8) (size 9 to 14) (size 15 to 20)
#    0.000    1.000    2.857    5.571    0.000    4.000 
#    0.000    1.429    0.000    0.857    0.000    0.000 
#    0.000    0.000    0.000    0.000    0.000    0.000 
#
# Total GULP energy -156168.639700 kJ/mol
# GULP energy per Si atom -5577.451418 kJ/mol
# Density = 1.028977 g / cm^3
# Si number density = 10.313243 Si / 1000 Ang^3
#
#
#
# Elastic Constant Matrix: (Units=GPa)
#
#
# Indices 1 2 3 4 5 6 
#
# 1 88.5128 38.8526 26.1065 -0.0502 8.7061 0.0402
# 2 38.8526 41.4284 15.7667 0.0451 6.2181 -0.0446
# 3 26.1065 15.7667 113.0757 -0.0825 15.0769 0.0490
# 4 -0.0502 0.0451 -0.0825 109.0392 -0.0675 -62.3785
# 5 8.7061 6.2181 15.0769 -0.0675 16.7080 0.0731
# 6 0.0402 -0.0446 0.0490 -62.3785 0.0731 56.5006
#
#
#
# Elastic Compliance Matrix: (Units=1/GPa)
#
#
# Indices 1 2 3 4 5 6 
#
# 1 0.019718 -0.017477 -0.001833 0.000000 -0.002116 -0.000023
# 2 -0.017477 0.041753 -0.001056 0.000003 -0.005479 0.000057
# 3 -0.001833 -0.001056 0.010497 0.000010 -0.008124 0.000013
# 4 0.000000 0.000003 0.000010 0.024893 -0.000030 0.027483
# 5 -0.002116 -0.005479 -0.008124 -0.000030 0.070325 -0.000119
# 6 -0.000023 0.000057 0.000013 0.027483 -0.000119 0.048042
#
#
# Mechanical properties :
#
#
# Convention : Reuss Voigt Hill
#
# Bulk Modulus (GPa) = 32.01520 44.94093 38.47807
# Shear Modulus (GPa) = 18.77069 47.26897 33.01983
#
# Velocity S-wave (km/s) = 3.01994 4.79233 4.00540
# Velocity P-wave (km/s) = 5.26452 7.24273 6.33136
#
# Compressibility (1/GPa) = 0.03123516
#
# Stress axis : x y z
#
# Youngs Moduli (GPa) = 50.71475 23.95055 95.26129
#
# Poissons Ratio (x) = 0.41858 0.17466
# Poissons Ratio (y) = 0.88633 0.10062
# Poissons Ratio (z) = 0.09298 0.02530
#
# Static dielectric constant tensor:
#      x y z
#    x 1.743680 -0.000010 -0.013750 
#    y -0.000010 1.764530 -0.000020 
#    z -0.013750 -0.000020 1.897740 
# 
# From -- ./inp_files/322735.got.cif
#   From: 2010.05.17/outbox.ucp.g08.bks.cvg/sg12_162_cif.got.tgz:322735.got - 2010.06.11 11:47:21.
