data_PCOD9225769
_publ_section_title
;
Structure prediction by ZEFSAII (Michael W. Deem and Ramdas Pophale) SiO2 
 PCOD9225769
Probable space group: C 2/M
;
_chemical_formula_sum "Si O2"
_cell_formula_units_Z 32
_cell_length_a 9.000000
_cell_length_b 21.000000
_cell_length_c 24.000000
_cell_angle_alpha 90.000000
_cell_angle_beta 130.000000
_cell_angle_gamma 90.000000
_cell_volume 3474.777594
_symmetry_space_group_name_H-M "C 2/M"
_symmetry_group_IT_number 12
_symmetry_cell_setting 'monoclinic'
loop_
_space_group_symop_operation_xyz
x,y,z
-x,y,-z
-x,-y,-z
x,-y,z
1/2+x,1/2+y,z
1/2-x,1/2+y,-z
1/2-x,1/2-y,-z
1/2+x,1/2-y,z
loop_
_atom_site_type_symbol
_atom_site_label
_atom_site_fract_x
_atom_site_fract_y
_atom_site_fract_z
Si Si1 0.343406 0.707268 0.715693
Si Si2 0.967019 0.424656 0.841658
Si Si3 0.503726 0.189182 0.439508
Si Si4 0.925896 0.314401 0.919070
Si Si5 0.011027 0.809875 0.867117
Si Si6 0.087875 0.071804 0.083217
Si Si7 0.557782 0.661025 0.458641
Si Si8 0.837546 0.839262 0.296229
O O1 0.348933 0.684543 0.780817
O O2 0.301459 0.782920 0.713401
O O3 0.524117 0.691827 0.718256
O O4 0.164947 0.671990 0.642660
O O5 0.935133 0.500000 0.845157
O O6 0.971106 0.379488 0.897353
O O7 0.798310 0.393457 0.763125
O O8 0.180125 0.418832 0.865366
O O9 0.500000 0.160915 0.500000
O O10 0.480841 0.265710 0.438992
O O11 0.717875 0.172570 0.474295
O O12 0.698625 0.305915 0.873534
O O13 0.999239 0.253857 0.901318
O O14 0.000000 0.314622 0.000000
O O15 0.006457 0.871957 0.904129
O O16 0.049536 0.000000 0.095394
O O17 0.000000 0.075032 0.000000
O O18 0.500000 0.623607 0.500000
O O19 0.478066 0.637035 0.380328
#
# Coordination Sequence:
#
# PCOD9225769 Si02
#       8
#     8   8   8   8   8   8   8   8
#     4  11  21  33  55  84 119 158 187 244 294 356
#     4  11  24  42  62  84 116 159 204 251 305 363
#     4   9  16  28  45  74 115 150 183 226 288 344
#     4  12  24  39  61  89 120 155 197 247 302 361
#     4  12  22  38  59  90 122 155 195 243 297 359
#     4  10  23  43  64  86 117 157 200 250 301 353
#     4   9  18  29  49  80 117 153 188 234 287 357
#     4  11  22  37  55  86 122 155 192 240 306 351
#
# _framework density 9.2092220000000005
#
# number of rings (size 3 to 8) (size 9 to 14) (size 15 to 20)
#    0.000    1.375    3.750    2.250    7.000    0.750 
#    0.000    0.000    0.000    0.375    0.000    2.625 
#    0.000    0.000    0.000    0.000    0.000    0.000 
#
# Total GULP energy -178141.822262 kJ/mol
# GULP energy per Si atom -5566.931946 kJ/mol
# Density = 0.918826 g / cm^3
# Si number density = 9.209222 Si / 1000 Ang^3
#
#
#
# Elastic Constant Matrix: (Units=GPa)
#
#
# Indices 1 2 3 4 5 6 
#
# 1 52.6527 12.1957 -19.1153 0.0000 22.6593 0.0000
# 2 12.1957 70.8846 3.8689 0.0000 -7.2879 0.0000
# 3 -19.1153 3.8689 114.8206 0.0000 -28.8895 0.0000
# 4 0.0000 0.0000 0.0000 17.1043 0.0000 -6.2075
# 5 22.6593 -7.2879 -28.8895 0.0000 66.1472 0.0000
# 6 0.0000 0.0000 0.0000 -6.2075 0.0000 15.9280
#
#
#
# Elastic Compliance Matrix: (Units=1/GPa)
#
#
# Indices 1 2 3 4 5 6 
#
# 1 0.024418 -0.005141 0.002237 0.000000 -0.007954 0.000000
# 2 -0.005141 0.015352 -0.000567 0.000000 0.003205 0.000000
# 3 0.002237 -0.000567 0.009990 0.000000 0.003534 0.000000
# 4 0.000000 0.000000 0.000000 0.068096 0.000000 0.026539
# 5 -0.007954 0.003205 0.003534 0.000000 0.019739 0.000000
# 6 0.000000 0.000000 0.000000 0.026539 0.000000 0.073126
#
#
# Mechanical properties :
#
#
# Convention : Reuss Voigt Hill
#
# Bulk Modulus (GPa) = 23.35393 25.80629 24.58011
# Shear Modulus (GPa) = 21.55763 35.92981 28.74372
#
# Velocity S-wave (km/s) = 3.42488 4.42152 3.95472
# Velocity P-wave (km/s) = 5.32418 6.33309 5.85042
#
# Compressibility (1/GPa) = 0.04281934
#
# Stress axis : x y z
#
# Youngs Moduli (GPa) = 40.95265 65.13632 100.09987
#
# Poissons Ratio (x) = 0.33487 -0.22393
# Poissons Ratio (y) = 0.21054 0.05674
# Poissons Ratio (z) = -0.09162 0.03692
#
# Static dielectric constant tensor:
#      x y z
#    x 1.637280 0.000000 0.023240 
#    y 0.000000 1.602280 0.000000 
#    z 0.023240 0.000000 1.792340 
# 
# From -- ./inp_files/333770.got.cif
#   From: 2010.05.17/outbox.ucp.g08.bks.cvg/sg12_167_cif.got.tgz:333770.got - 2010.06.11 11:47:21.
