data_PCOD9225406
_publ_section_title
;
Structure prediction by ZEFSAII (Michael W. Deem and Ramdas Pophale) SiO2 
 PCOD9225406
Probable space group: C 2/M
;
_chemical_formula_sum "Si O2"
_cell_formula_units_Z 24
_cell_length_a 12.000000
_cell_length_b 18.000000
_cell_length_c 12.000000
_cell_angle_alpha 90.000000
_cell_angle_beta 70.000000
_cell_angle_gamma 90.000000
_cell_volume 2435.683273
_symmetry_space_group_name_H-M "C 2/M"
_symmetry_group_IT_number 12
_symmetry_cell_setting 'monoclinic'
loop_
_space_group_symop_operation_xyz
x,y,z
-x,y,-z
-x,-y,-z
x,-y,z
1/2+x,1/2+y,z
1/2-x,1/2+y,-z
1/2-x,1/2-y,-z
1/2+x,1/2-y,z
loop_
_atom_site_type_symbol
_atom_site_label
_atom_site_fract_x
_atom_site_fract_y
_atom_site_fract_z
Si Si1 0.279862 0.416726 0.505852
Si Si2 0.539992 0.584850 0.758359
Si Si3 0.317398 0.655147 0.727000
Si Si4 0.272812 0.910952 0.817471
Si Si5 0.358082 0.911498 0.039751
Si Si6 0.128338 0.312011 0.403973
O O1 0.225129 0.500000 0.518652
O O2 0.389751 0.417878 0.382945
O O3 0.315743 0.399130 0.619960
O O4 0.200146 0.351053 0.480566
O O5 0.500177 0.500000 0.798768
O O6 0.429589 0.637786 0.769368
O O7 0.639058 0.607512 0.817362
O O8 0.205334 0.636569 0.843019
O O9 0.322418 0.736543 0.669035
O O10 0.361979 0.871266 0.700538
O O11 0.282673 0.000000 0.801916
O O12 0.305983 0.892766 0.934053
O O13 0.333886 0.000000 0.066168
O O14 0.500000 0.901584 0.000000
O O15 0.000000 0.296575 0.500000
#
# Coordination Sequence:
#
# PCOD9225406 Si02
#       6
#     8   8   8   8   8   8
#     4  10  21  38  62  93 127 167 215 263 311 374
#     4   9  18  36  62  92 124 161 206 260 314 371
#     4  12  23  37  62  96 132 165 206 257 326 379
#     4   9  21  43  66  90 126 168 219 265 302 368
#     4  10  23  43  66  94 126 168 217 263 309 370
#     4  11  24  39  62  93 131 170 207 255 323 385
#
# _framework density 9.8534980000000001
#
# number of rings (size 3 to 8) (size 9 to 14) (size 15 to 20)
#    0.000    1.833    0.000    5.000    2.333    5.333 
#    0.000    2.500    0.000    0.000    0.000    0.000 
#    0.000    0.000    0.000    0.000    0.000    0.000 
#
# Total GULP energy -133949.809706 kJ/mol
# GULP energy per Si atom -5581.242071 kJ/mol
# Density = 0.983107 g / cm^3
# Si number density = 9.853498 Si / 1000 Ang^3
#
#
#
# Elastic Constant Matrix: (Units=GPa)
#
#
# Indices 1 2 3 4 5 6 
#
# 1 105.7180 48.7420 64.5702 0.0000 9.8313 0.0000
# 2 48.7420 89.2814 38.0550 0.0000 -1.8146 0.0000
# 3 64.5702 38.0550 79.5636 0.0000 11.0021 0.0000
# 4 0.0000 0.0000 0.0000 12.9574 0.0000 -11.5944
# 5 9.8313 -1.8146 11.0021 0.0000 38.2241 0.0000
# 6 0.0000 0.0000 0.0000 -11.5944 0.0000 18.1922
#
#
#
# Elastic Compliance Matrix: (Units=1/GPa)
#
#
# Indices 1 2 3 4 5 6 
#
# 1 0.020564 -0.005319 -0.013933 0.000000 -0.001531 0.000000
# 2 -0.005319 0.015720 -0.003639 0.000000 0.003162 0.000000
# 3 -0.013933 -0.003639 0.026187 0.000000 -0.004127 0.000000
# 4 0.000000 0.000000 0.000000 0.179597 0.000000 0.114462
# 5 -0.001531 0.003162 -0.004127 0.000000 0.027893 0.000000
# 6 0.000000 0.000000 0.000000 0.114462 0.000000 0.127919
#
#
# Mechanical properties :
#
#
# Convention : Reuss Voigt Hill
#
# Bulk Modulus (GPa) = 59.92154 64.14414 62.03284
# Shear Modulus (GPa) = 11.13028 22.08779 16.60904
#
# Velocity S-wave (km/s) = 2.37911 3.35148 2.90625
# Velocity P-wave (km/s) = 6.16596 6.89900 6.54275
#
# Compressibility (1/GPa) = 0.01668849
#
# Stress axis : x y z
#
# Youngs Moduli (GPa) = 48.62930 63.61393 38.18661
#
# Poissons Ratio (x) = 0.33836 0.53205
# Poissons Ratio (y) = 0.25866 0.13897
# Poissons Ratio (z) = 0.67754 0.23151
#
# Static dielectric constant tensor:
#      x y z
#    x 1.728280 0.000000 -0.008070 
#    y 0.000000 1.716670 0.000000 
#    z -0.008070 0.000000 1.662200 
# 
# From -- ./inp_files/131635.got.cif
#   From: 2010.05.17/outbox.ucp.g08.bks.cvg/sg12_66_cif.got.tgz:131635.got - 2010.06.11 11:47:21.
