data_PCOD9225029
_publ_section_title
;
Structure prediction by ZEFSAII (Michael W. Deem and Ramdas Pophale) SiO2 
 PCOD9225029
Probable space group: C 2/M
;
_chemical_formula_sum "Si O2"
_cell_formula_units_Z 29
_cell_length_a 21.000000
_cell_length_b 15.000000
_cell_length_c 27.000000
_cell_angle_alpha 90.000000
_cell_angle_beta 20.000000
_cell_angle_gamma 90.000000
_cell_volume 2908.881319
_symmetry_space_group_name_H-M "C 2/M"
_symmetry_group_IT_number 12
_symmetry_cell_setting 'monoclinic'
loop_
_space_group_symop_operation_xyz
x,y,z
-x,y,-z
-x,-y,-z
x,-y,z
1/2+x,1/2+y,z
1/2-x,1/2+y,-z
1/2-x,1/2-y,-z
1/2+x,1/2-y,z
loop_
_atom_site_type_symbol
_atom_site_label
_atom_site_fract_x
_atom_site_fract_y
_atom_site_fract_z
Si Si1 0.417861 0.730263 0.660042
Si Si2 0.913805 0.649817 0.146257
Si Si3 0.197653 0.900633 0.401819
Si Si4 0.531240 0.895586 0.637944
Si Si5 0.918967 0.355297 0.827972
Si Si6 0.700613 0.656201 0.079436
Si Si7 0.532161 0.400850 0.661838
Si Si8 0.000000 0.500000 0.000000
O O1 0.211529 0.724916 0.788441
O O2 0.561139 0.678519 0.518718
O O3 0.476601 0.828334 0.634187
O O4 0.434629 0.669690 0.697338
O O5 0.778146 0.611129 0.288015
O O6 0.104395 0.676145 0.034660
O O7 0.963920 0.577129 0.068766
O O8 0.382630 0.893814 0.300347
O O9 0.115676 0.000000 0.467055
O O10 0.410632 0.875019 0.775721
O O11 0.750039 0.879086 0.490769
O O12 0.513441 0.000000 0.638799
O O13 0.909980 0.249128 0.844141
O O14 0.760586 0.385866 0.982920
O O15 0.573343 0.599370 0.208872
O O16 0.513990 0.500000 0.653246
#
# Coordination Sequence:
#
# PCOD9225029 Si02
#       8
#     8   8   8   8   8   8   8   2
#     4  12  23  38  63  87 128 162 205 252 305 370
#     4  11  26  38  59  89 132 168 201 238 304 376
#     4  11  22  39  62  94 125 162 202 248 310 376
#     4  11  23  42  65  91 117 159 215 266 316 352
#     4  10  20  39  61  86 122 162 206 259 301 361
#     4  10  22  38  59  89 126 165 206 245 306 368
#     4  11  22  35  59  93 121 157 201 250 308 365
#     4  12  24  40  54  88 134 172 196 238 288 390
#
# _framework density 9.9694680000000009
#
# number of rings (size 3 to 8) (size 9 to 14) (size 15 to 20)
#    0.000    1.103    3.448    3.310    4.828    1.655 
#    0.000    0.000    0.000    4.138    0.000    1.931 
#    0.000    0.000    0.000    0.000    0.000    0.000 
#
# Total GULP energy -161742.092324 kJ/mol
# GULP energy per Si atom -5577.313528 kJ/mol
# Density = 0.994678 g / cm^3
# Si number density = 9.969468 Si / 1000 Ang^3
#
#
#
# Elastic Constant Matrix: (Units=GPa)
#
#
# Indices 1 2 3 4 5 6 
#
# 1 80.4985 43.2226 37.2339 0.0006 19.6157 -0.0054
# 2 43.2226 89.6530 24.3699 -0.0123 -6.7272 0.0009
# 3 37.2339 24.3699 86.2203 -0.0179 24.9065 0.0041
# 4 0.0006 -0.0123 -0.0179 15.7701 -0.0078 16.1974
# 5 19.6157 -6.7272 24.9065 -0.0078 35.6740 0.0121
# 6 -0.0054 0.0009 0.0041 16.1974 0.0121 -8.1895
#
#
#
# Elastic Compliance Matrix: (Units=1/GPa)
#
#
# Indices 1 2 3 4 5 6 
#
# 1 0.022887 -0.011120 -0.003131 0.000006 -0.012496 -0.000025
# 2 -0.011120 0.018542 -0.004027 -0.000003 0.012423 0.000019
# 3 -0.003131 -0.004027 0.017300 0.000006 -0.011116 0.000005
# 4 0.000006 -0.000003 0.000006 0.020918 -0.000017 0.041372
# 5 -0.012496 0.012423 -0.011116 -0.000017 0.045006 0.000036
# 6 -0.000025 0.000019 0.000005 0.041372 0.000036 -0.040281
#
#
# Mechanical properties :
#
#
# Convention : Reuss Voigt Hill
#
# Bulk Modulus (GPa) = 45.10265 51.78050 48.44157
# Shear Modulus (GPa) = 38.96545 18.75396 28.85970
#
# Velocity S-wave (km/s) = 4.42547 3.07020 3.80860
# Velocity P-wave (km/s) = 6.98445 6.21241 6.60971
#
# Compressibility (1/GPa) = 0.02217165
#
# Stress axis : x y z
#
# Youngs Moduli (GPa) = 43.69380 53.93090 57.80513
#
# Poissons Ratio (x) = 0.59974 0.18097
# Poissons Ratio (y) = 0.48589 0.23279
# Poissons Ratio (z) = 0.13679 0.21719
#
# Static dielectric constant tensor:
#      x y z
#    x 1.740310 0.000000 0.020790 
#    y 0.000000 1.695430 0.000020 
#    z 0.020790 0.000020 1.725910 
# 
# From -- ./inp_files/366507.got.cif
#   From: 2010.05.17/outbox.ucp.g08.bks.cvg/sg12_184_cif.got.tgz:366507.got - 2010.06.11 11:47:21.
