data_PCOD9225166
_publ_section_title
;
Structure prediction by ZEFSAII (Michael W. Deem and Ramdas Pophale) SiO2 
 PCOD9225166
Probable space group: C 2/M
;
_chemical_formula_sum "Si O2"
_cell_formula_units_Z 24
_cell_length_a 18.000000
_cell_length_b 9.000000
_cell_length_c 30.000000
_cell_angle_alpha 90.000000
_cell_angle_beta 150.000000
_cell_angle_gamma 90.000000
_cell_volume 2430.000000
_symmetry_space_group_name_H-M "C 2/M"
_symmetry_group_IT_number 12
_symmetry_cell_setting 'monoclinic'
loop_
_space_group_symop_operation_xyz
x,y,z
-x,y,-z
-x,-y,-z
x,-y,z
1/2+x,1/2+y,z
1/2-x,1/2+y,-z
1/2-x,1/2-y,-z
1/2+x,1/2-y,z
loop_
_atom_site_type_symbol
_atom_site_label
_atom_site_fract_x
_atom_site_fract_y
_atom_site_fract_z
Si Si1 0.587241 0.168725 0.282091
Si Si2 0.189613 0.665516 0.234924
Si Si3 0.473196 0.677778 0.919773
Si Si4 0.249538 0.819686 0.119631
Si Si5 0.001763 0.323928 0.623724
Si Si6 0.292308 0.328383 0.581803
O O1 0.642843 0.156115 0.261266
O O2 0.417715 0.224717 0.198528
O O3 0.695286 0.285997 0.361008
O O4 0.596510 0.000000 0.306203
O O5 0.196290 0.500000 0.218999
O O6 0.060436 0.758928 0.145107
O O7 0.347047 0.743519 0.309490
O O8 0.475470 0.500000 0.921707
O O9 0.331303 0.723804 0.876413
O O10 0.628784 0.730347 0.020617
O O11 0.252015 0.000000 0.120180
O O12 0.026251 0.500000 0.638674
O O13 0.869470 0.288445 0.520410
O O14 0.925016 0.265656 0.628773
O O15 0.316750 0.500000 0.584196
#
# Coordination Sequence:
#
# PCOD9225166 Si02
#       6
#     8   8   8   8   8   8
#     4  10  21  36  53  76 112 152 181 214 267 323
#     4  11  23  35  50  78 113 146 183 224 264 312
#     4   9  17  33  58  80 100 135 183 229 272 321
#     4   8  16  33  56  79 101 134 182 225 267 324
#     4  10  21  38  59  80 106 141 177 218 271 324
#     4  10  21  37  59  85 107 132 176 227 268 317
#
# _framework density 9.8765429999999999
#
# number of rings (size 3 to 8) (size 9 to 14) (size 15 to 20)
#    0.000    2.333    0.000    3.500    0.000    6.000 
#    0.000    5.833    0.000    0.000    0.000    0.000 
#    0.000    0.000    0.000    0.000    0.000    0.000 
#
# Total GULP energy -133675.653432 kJ/mol
# GULP energy per Si atom -5569.818893 kJ/mol
# Density = 0.985406 g / cm^3
# Si number density = 9.876543 Si / 1000 Ang^3
#
#
#
# Elastic Constant Matrix: (Units=GPa)
#
#
# Indices 1 2 3 4 5 6 
#
# 1 -21.8654 13.6832 44.7879 0.0000 -33.3643 0.0000
# 2 13.6832 4.2479 29.6671 0.0000 1.1964 0.0000
# 3 44.7879 29.6671 57.0046 0.0001 -3.5427 0.0000
# 4 0.0000 0.0000 0.0001 4.9250 0.0000 -8.6264
# 5 -33.3643 1.1964 -3.5427 0.0000 3.2805 0.0000
# 6 0.0000 0.0000 0.0000 -8.6264 0.0000 28.4394
#
#
#
# Elastic Compliance Matrix: (Units=1/GPa)
#
#
# Indices 1 2 3 4 5 6 
#
# 1 -0.003009 -0.004394 0.003054 0.000000 -0.025703 0.000000
# 2 -0.004394 -0.076780 0.045423 -0.000001 0.032366 0.000000
# 3 0.003054 0.045423 -0.008142 0.000000 0.005698 0.000000
# 4 0.000000 -0.000001 0.000000 0.433193 -0.000001 0.131399
# 5 -0.025703 0.032366 0.005698 -0.000001 0.037767 0.000000
# 6 0.000000 0.000000 0.000000 0.131399 0.000000 0.075019
#
#
# Mechanical properties :
#
#
# Convention : Reuss Voigt Hill
#
# Bulk Modulus (GPa) = 4287.17900 23.96259 2155.57079
# Shear Modulus (GPa) = 13.51490 4.07892 8.79691
#
# Velocity S-wave (km/s) = 2.61854 1.43855 2.11261
# Velocity P-wave (km/s) = 46.73584 3.86221 33.15988
#
# Compressibility (1/GPa) = 0.00023325
#
# Stress axis : x y z
#
# Youngs Moduli (GPa) = -332.33381 -13.02424 -122.82061
#
# Poissons Ratio (x) = -0.05723 0.37504
# Poissons Ratio (y) = -1.46027 5.57882
# Poissons Ratio (z) = 1.01480 0.59159
#
# Static dielectric constant tensor:
#      x y z
#    x 1.708950 0.000000 -0.070500 
#    y 0.000000 1.661790 0.000000 
#    z -0.070500 0.000000 1.713860 
# 
# From -- ./inp_files/274049.got.cif
#   From: 2010.05.17/outbox.ucp.g08.bks.cvg/sg12_138_cif.got.tgz:274049.got - 2010.06.11 11:47:21.
