data_PCOD9225090
_publ_section_title
;
Structure prediction by ZEFSAII (Michael W. Deem and Ramdas Pophale) SiO2 
 PCOD9225090
Probable space group: C 2/M
;
_chemical_formula_sum "Si O2"
_cell_formula_units_Z 32
_cell_length_a 18.000000
_cell_length_b 21.000000
_cell_length_c 24.000000
_cell_angle_alpha 90.000000
_cell_angle_beta 160.000000
_cell_angle_gamma 90.000000
_cell_volume 3102.806740
_symmetry_space_group_name_H-M "C 2/M"
_symmetry_group_IT_number 12
_symmetry_cell_setting 'monoclinic'
loop_
_space_group_symop_operation_xyz
x,y,z
-x,y,-z
-x,-y,-z
x,-y,z
1/2+x,1/2+y,z
1/2-x,1/2+y,-z
1/2-x,1/2-y,-z
1/2+x,1/2-y,z
loop_
_atom_site_type_symbol
_atom_site_label
_atom_site_fract_x
_atom_site_fract_y
_atom_site_fract_z
Si Si1 0.709970 0.178424 0.949409
Si Si2 0.707406 0.671527 0.714532
Si Si3 0.517778 0.926045 0.886082
Si Si4 0.189513 0.073289 0.803444
Si Si5 0.739006 0.786542 0.414041
Si Si6 0.422114 0.075529 0.380567
Si Si7 0.212631 0.145739 0.431407
Si Si8 0.924375 0.189020 0.882722
O O1 0.698642 0.116769 0.981383
O O2 0.467992 0.180836 0.756852
O O3 0.750000 0.250000 0.000000
O O4 0.877137 0.172187 0.017318
O O5 0.717730 0.629719 0.778618
O O6 0.459455 0.695489 0.537622
O O7 0.840221 0.738596 0.809689
O O8 0.805105 0.619344 0.740613
O O9 0.488556 0.000000 0.845962
O O10 0.607411 0.930471 0.012148
O O11 0.990010 0.099898 0.699765
O O12 0.149645 0.000000 0.754465
O O13 0.747342 0.818013 0.481517
O O14 0.697913 0.709963 0.383267
O O15 0.500000 0.079093 0.500000
O O16 0.607915 0.099996 0.469105
O O17 0.243094 0.131010 0.245140
O O18 0.365426 0.000000 0.330443
O O19 0.000000 0.190398 0.000000
#
# Coordination Sequence:
#
# PCOD9225090 Si02
#       8
#     8   8   8   8   8   8   8   8
#     4  12  26  42  65  98 131 175 220 269 329 393
#     4  11  22  41  67  99 131 168 218 270 331 396
#     4  11  24  42  64  96 136 174 213 268 331 395
#     4  10  21  37  66  99 133 170 211 268 332 398
#     4  10  23  40  67  96 128 167 224 267 322 394
#     4  11  26  44  66  98 132 173 225 282 337 390
#     4  10  20  40  66  95 126 170 214 277 322 388
#     4  12  26  44  70  99 135 179 225 274 333 402
#
# _framework density 10.313243
#
# number of rings (size 3 to 8) (size 9 to 14) (size 15 to 20)
#    0.000    1.125    2.500    3.375    7.000    2.250 
#    0.000    5.625    0.000    0.000    0.000    0.000 
#    0.000    0.000    0.000    0.000    0.000    0.000 
#
# Total GULP energy -178382.316313 kJ/mol
# GULP energy per Si atom -5574.447385 kJ/mol
# Density = 1.028977 g / cm^3
# Si number density = 10.313243 Si / 1000 Ang^3
#
#
#
# Elastic Constant Matrix: (Units=GPa)
#
#
# Indices 1 2 3 4 5 6 
#
# 1 107.9423 45.8112 37.3514 -0.0452 41.9832 0.0042
# 2 45.8112 193.8787 36.5381 0.0498 15.0207 0.0088
# 3 37.3514 36.5381 68.0730 -0.1663 15.4832 0.0289
# 4 -0.0452 0.0498 -0.1663 25.0167 0.0059 2.4218
# 5 41.9832 15.0207 15.4832 0.0059 25.1174 0.0196
# 6 0.0042 0.0088 0.0289 2.4218 0.0196 32.2545
#
#
#
# Elastic Compliance Matrix: (Units=1/GPa)
#
#
# Indices 1 2 3 4 5 6 
#
# 1 0.029283 -0.002612 -0.004522 0.000036 -0.044596 0.000025
# 2 -0.002612 0.006041 -0.002304 -0.000033 0.002173 0.000002
# 3 -0.004522 -0.002304 0.019046 0.000126 -0.002805 -0.000024
# 4 0.000036 -0.000033 0.000126 0.040267 -0.000126 -0.003023
# 5 -0.044596 0.002173 -0.002805 -0.000126 0.114784 -0.000053
# 6 0.000025 0.000002 -0.000024 -0.003023 -0.000053 0.031230
#
#
# Mechanical properties :
#
#
# Convention : Reuss Voigt Hill
#
# Bulk Modulus (GPa) = 28.17329 67.69947 47.93638
# Shear Modulus (GPa) = 18.42587 33.15726 25.79156
#
# Velocity S-wave (km/s) = 2.99207 4.01372 3.53995
# Velocity P-wave (km/s) = 5.06213 7.37380 6.32448
#
# Compressibility (1/GPa) = 0.03549461
#
# Stress axis : x y z
#
# Youngs Moduli (GPa) = 34.14978 165.54093 52.50444
#
# Poissons Ratio (x) = 0.43238 0.23742
# Poissons Ratio (y) = 0.08920 0.12095
# Poissons Ratio (z) = 0.15442 0.38135
#
# Static dielectric constant tensor:
#      x y z
#    x 1.760980 -0.000500 -0.024700 
#    y -0.000500 1.717310 0.000160 
#    z -0.024700 0.000160 1.809090 
# 
# From -- ./inp_files/344919.got.cif
#   From: 2010.05.17/outbox.ucp.g08.bks.cvg/sg12_173_cif.got.tgz:344919.got - 2010.06.11 11:47:21.
