data_PCOD9225397
_publ_section_title
;
Structure prediction by ZEFSAII (Michael W. Deem and Ramdas Pophale) SiO2 
 PCOD9225397
Probable space group: C 2/M
;
_chemical_formula_sum "Si O2"
_cell_formula_units_Z 32
_cell_length_a 24.000000
_cell_length_b 9.000000
_cell_length_c 30.000000
_cell_angle_alpha 90.000000
_cell_angle_beta 150.000000
_cell_angle_gamma 90.000000
_cell_volume 3240.000000
_symmetry_space_group_name_H-M "C 2/M"
_symmetry_group_IT_number 12
_symmetry_cell_setting 'monoclinic'
loop_
_space_group_symop_operation_xyz
x,y,z
-x,y,-z
-x,-y,-z
x,-y,z
1/2+x,1/2+y,z
1/2-x,1/2+y,-z
1/2-x,1/2-y,-z
1/2+x,1/2-y,z
loop_
_atom_site_type_symbol
_atom_site_label
_atom_site_fract_x
_atom_site_fract_y
_atom_site_fract_z
Si Si1 0.164090 0.677221 0.495622
Si Si2 0.925003 0.322564 0.177726
Si Si3 0.532706 0.830191 0.574032
Si Si4 0.907859 0.824618 0.645591
Si Si5 0.233587 0.674841 0.257397
Si Si6 0.684018 0.678247 0.037659
Si Si7 0.628605 0.823465 0.088223
Si Si8 0.466599 0.677993 0.832464
O O1 0.157120 0.500000 0.480145
O O2 0.126974 0.774209 0.427816
O O3 0.294676 0.705283 0.595639
O O4 0.077182 0.710376 0.474306
O O5 0.930434 0.500000 0.176620
O O6 0.795311 0.275724 0.088431
O O7 0.992865 0.241836 0.186148
O O8 0.987751 0.270190 0.265720
O O9 0.500000 0.827809 0.500000
O O10 0.639840 0.728768 0.654858
O O11 0.563132 0.000000 0.607619
O O12 0.932464 0.000000 0.664805
O O13 0.226960 0.500000 0.262142
O O14 0.183568 0.703062 0.173791
O O15 0.152319 0.760485 0.234815
O O16 0.683445 0.500000 0.038058
O O17 0.690878 0.740554 0.091948
O O18 0.566308 0.726953 0.935124
O O19 0.629833 0.000000 0.080048
O O20 0.500000 0.773768 0.000000
O O21 0.463136 0.500000 0.828918
#
# Coordination Sequence:
#
# PCOD9225397 Si02
#       8
#     8   8   8   8   8   8   8   8
#     4   9  20  40  62  86 120 156 197 250 304 356
#     4  11  24  40  60  90 124 158 199 251 307 361
#     4  10  23  42  65  91 122 163 205 254 310 366
#     4  10  21  38  62  90 117 156 203 248 300 361
#     4  11  24  41  62  93 126 163 206 255 310 366
#     4  10  23  40  61  89 122 160 205 250 299 357
#     4  10  21  39  62  89 125 164 203 249 305 362
#     4  11  23  41  63  88 119 162 208 250 299 362
#
# _framework density 9.8765429999999999
#
# number of rings (size 3 to 8) (size 9 to 14) (size 15 to 20)
#    0.000    1.750    1.250    1.875    3.500    4.000 
#    0.000    0.000    0.000    0.000    0.000    0.000 
#    0.000    0.000    0.000    0.000    0.000    0.000 
#
# Total GULP energy -178708.592328 kJ/mol
# GULP energy per Si atom -5584.643510 kJ/mol
# Density = 0.985406 g / cm^3
# Si number density = 9.876543 Si / 1000 Ang^3
#
#
#
# Elastic Constant Matrix: (Units=GPa)
#
#
# Indices 1 2 3 4 5 6 
#
# 1 90.0947 21.9151 13.3304 0.0001 18.0986 0.0000
# 2 21.9151 -2.5647 14.4850 0.0002 -11.6666 0.0002
# 3 13.3304 14.4850 51.1653 0.0001 13.5296 0.0000
# 4 0.0001 0.0002 0.0001 38.6297 0.0001 2.4750
# 5 18.0986 -11.6666 13.5296 0.0001 11.6660 0.0001
# 6 0.0000 0.0002 0.0000 2.4750 0.0001 30.0833
#
#
#
# Elastic Compliance Matrix: (Units=1/GPa)
#
#
# Indices 1 2 3 4 5 6 
#
# 1 0.008423 0.010672 -0.006609 0.000000 0.005270 0.000000
# 2 0.010672 -0.013984 0.013348 0.000000 -0.046022 0.000000
# 3 -0.006609 0.013348 0.016221 0.000000 0.004790 0.000000
# 4 0.000000 0.000000 0.000000 0.026024 0.000000 -0.002141
# 5 0.005270 -0.046022 0.004790 0.000000 0.025964 0.000000
# 6 0.000000 0.000000 0.000000 -0.002141 0.000000 0.033417
#
#
# Mechanical properties :
#
#
# Convention : Reuss Voigt Hill
#
# Bulk Modulus (GPa) = 21.98736 26.46180 24.22458
# Shear Modulus (GPa) = 65.44224 22.00680 43.72452
#
# Velocity S-wave (km/s) = 5.76212 3.34143 4.70995
# Velocity P-wave (km/s) = 7.44478 5.32092 6.47058
#
# Compressibility (1/GPa) = 0.04548068
#
# Stress axis : x y z
#
# Youngs Moduli (GPa) = 118.72504 -71.50834 61.64895
#
# Poissons Ratio (x) = 0.76311 0.40745
# Poissons Ratio (y) = -1.26700 -0.82290
# Poissons Ratio (z) = 0.78468 0.95451
#
# Static dielectric constant tensor:
#      x y z
#    x 1.684320 0.000000 -0.025050 
#    y 0.000000 1.666790 0.000000 
#    z -0.025050 0.000000 1.687080 
# 
# From -- ./inp_files/382548.got.cif
#   From: 2010.05.17/outbox.ucp.g08.bks.cvg/sg12_192_cif.got.tgz:382548.got - 2010.06.11 11:47:21.
