data_PCOD9225920
_publ_section_title
;
Structure prediction by ZEFSAII (Michael W. Deem and Ramdas Pophale) SiO2 
 PCOD9225920
Probable space group: C 2/M
;
_chemical_formula_sum "Si O2"
_cell_formula_units_Z 32
_cell_length_a 9.000000
_cell_length_b 30.000000
_cell_length_c 18.000000
_cell_angle_alpha 90.000000
_cell_angle_beta 140.000000
_cell_angle_gamma 90.000000
_cell_volume 3123.947783
_symmetry_space_group_name_H-M "C 2/M"
_symmetry_group_IT_number 12
_symmetry_cell_setting 'monoclinic'
loop_
_space_group_symop_operation_xyz
x,y,z
-x,y,-z
-x,-y,-z
x,-y,z
1/2+x,1/2+y,z
1/2-x,1/2+y,-z
1/2-x,1/2-y,-z
1/2+x,1/2-y,z
loop_
_atom_site_type_symbol
_atom_site_label
_atom_site_fract_x
_atom_site_fract_y
_atom_site_fract_z
Si Si1 0.748699 0.446386 0.366956
Si Si2 0.746427 0.320671 0.893426
Si Si3 0.165691 0.449417 0.920441
Si Si4 0.202590 0.894250 0.759974
Si Si5 0.846620 0.918064 0.838314
Si Si6 0.592712 0.318285 0.114185
Si Si7 0.629921 0.686879 0.620623
Si Si8 0.976068 0.250866 0.296414
O O1 0.713958 0.500000 0.355872
O O2 0.539990 0.420708 0.329091
O O3 0.733516 0.430107 0.275221
O O4 0.000000 0.436769 0.500000
O O5 0.738497 0.367713 0.850081
O O6 0.642320 0.325559 0.933070
O O7 0.591508 0.287089 0.787692
O O8 0.000000 0.302648 0.000000
O O9 0.153893 0.500000 0.942164
O O10 0.230324 0.447497 0.857877
O O11 0.920519 0.425992 0.834646
O O12 0.379278 0.426304 0.044961
O O13 0.203745 0.854348 0.699972
O O14 0.790008 0.866920 0.839032
O O15 0.753279 0.282705 0.216012
O O16 0.500000 0.303084 0.000000
O O17 0.500000 0.668070 0.500000
O O18 0.482336 0.722287 0.613238
O O19 0.831812 0.717270 0.663995
#
# Coordination Sequence:
#
# PCOD9225920 Si02
#       8
#     8   8   8   8   8   8   8   8
#     4  11  25  46  70  96 133 180 231 282 338 413
#     4  11  24  41  60  95 136 171 218 271 332 404
#     4  11  22  40  68 100 138 174 218 284 349 417
#     4  11  25  43  65 101 133 173 226 283 343 402
#     4  11  22  41  64 103 137 176 226 270 346 410
#     4  12  23  38  66  96 131 175 210 275 329 401
#     4  11  25  46  66  94 130 178 226 283 326 395
#     4  11  24  42  65  94 130 173 229 269 335 389
#
# _framework density 10.243449
#
# number of rings (size 3 to 8) (size 9 to 14) (size 15 to 20)
#    0.000    0.875    3.750    4.125    3.500    3.000 
#    0.000    3.125    0.000    3.000    0.000    0.000 
#    0.000    0.000    0.000    0.000    0.000    0.000 
#
# Total GULP energy -178615.292858 kJ/mol
# GULP energy per Si atom -5581.727902 kJ/mol
# Density = 1.022013 g / cm^3
# Si number density = 10.243449 Si / 1000 Ang^3
#
#
#
# Elastic Constant Matrix: (Units=GPa)
#
#
# Indices 1 2 3 4 5 6 
#
# 1 90.7297 21.1571 45.8159 0.0000 6.2262 0.0000
# 2 21.1571 93.3127 13.6304 0.0000 2.5885 0.0000
# 3 45.8159 13.6304 92.2873 0.0000 -6.7514 0.0000
# 4 0.0000 0.0000 0.0000 29.8886 0.0000 4.5221
# 5 6.2262 2.5885 -6.7514 0.0000 25.3405 0.0000
# 6 0.0000 0.0000 0.0000 4.5221 0.0000 30.7429
#
#
#
# Elastic Compliance Matrix: (Units=1/GPa)
#
#
# Indices 1 2 3 4 5 6 
#
# 1 0.016018 -0.002295 -0.008041 0.000000 -0.005844 0.000000
# 2 -0.002295 0.011344 -0.000591 0.000000 -0.000752 0.000000
# 3 -0.008041 -0.000591 0.015363 0.000000 0.006129 0.000000
# 4 0.000000 0.000000 0.000000 0.034219 0.000000 -0.005033
# 5 -0.005844 -0.000752 0.006129 0.000000 0.042608 0.000000
# 6 0.000000 0.000000 0.000000 -0.005033 0.000000 0.033268
#
#
# Mechanical properties :
#
#
# Convention : Reuss Voigt Hill
#
# Bulk Modulus (GPa) = 47.91183 48.61518 48.26351
# Shear Modulus (GPa) = 27.52808 30.24283 28.88546
#
# Velocity S-wave (km/s) = 3.66962 3.84631 3.75900
# Velocity P-wave (km/s) = 6.43367 6.59597 6.51533
#
# Compressibility (1/GPa) = 0.02087167
#
# Stress axis : x y z
#
# Youngs Moduli (GPa) = 62.42837 88.15022 65.09043
#
# Poissons Ratio (x) = 0.20233 0.52338
# Poissons Ratio (y) = 0.14329 0.03847
# Poissons Ratio (z) = 0.50197 0.05210
#
# Static dielectric constant tensor:
#      x y z
#    x 1.766750 0.000000 0.003090 
#    y 0.000000 1.724050 0.000000 
#    z 0.003090 0.000000 1.663400 
# 
# From -- ./inp_files/260359.got.cif
#   From: 2010.05.17/outbox.ucp.g08.bks.cvg/sg12_131_cif.got.tgz:260359.got - 2010.06.11 11:47:21.
