data_PCOD9225292
_publ_section_title
;
Structure prediction by ZEFSAII (Michael W. Deem and Ramdas Pophale) SiO2 
 PCOD9225292
Probable space group: C 2/M
;
_chemical_formula_sum "Si O2"
_cell_formula_units_Z 28
_cell_length_a 18.000000
_cell_length_b 9.000000
_cell_length_c 27.000000
_cell_angle_alpha 90.000000
_cell_angle_beta 40.000000
_cell_angle_gamma 90.000000
_cell_volume 2811.553005
_symmetry_space_group_name_H-M "C 2/M"
_symmetry_group_IT_number 12
_symmetry_cell_setting 'monoclinic'
loop_
_space_group_symop_operation_xyz
x,y,z
-x,y,-z
-x,-y,-z
x,-y,z
1/2+x,1/2+y,z
1/2-x,1/2+y,-z
1/2-x,1/2-y,-z
1/2+x,1/2-y,z
loop_
_atom_site_type_symbol
_atom_site_label
_atom_site_fract_x
_atom_site_fract_y
_atom_site_fract_z
Si Si1 0.202487 0.822821 0.213730
Si Si2 0.870681 0.169225 0.931265
Si Si3 0.884237 0.672629 0.528403
Si Si4 0.424709 0.833859 0.809189
Si Si5 0.057493 0.172110 0.921212
Si Si6 0.464385 0.675182 0.388705
Si Si7 0.663858 0.166565 0.630393
O O1 0.157782 0.760767 0.184102
O O2 0.328491 0.753240 0.157243
O O3 0.095569 0.783333 0.305147
O O4 0.210318 0.000000 0.209195
O O5 0.935258 0.255583 0.855525
O O6 0.953146 0.171864 0.936076
O O7 0.849162 0.000000 0.927649
O O8 0.750000 0.250000 0.000000
O O9 0.851686 0.500000 0.546660
O O10 0.777411 0.774201 0.599231
O O11 0.000000 0.694457 0.500000
O O12 0.919661 0.726359 0.456128
O O13 0.551561 0.841965 0.721580
O O14 0.376528 0.000000 0.838254
O O15 0.090927 0.000000 0.914467
O O16 0.000000 0.238669 0.000000
O O17 0.462623 0.500000 0.400632
O O18 0.375152 0.714725 0.390633
O O19 0.684482 0.000000 0.599345
#
# Coordination Sequence:
#
# PCOD9225292 Si02
#       7
#     8   8   8   8   8   8   8
#     4  10  21  37  60  88 114 145 187 234 281 332
#     4  11  23  38  59  86 116 151 190 234 282 333
#     4  11  24  39  56  81 114 151 190 234 283 334
#     4  10  21  38  60  85 115 150 187 230 282 338
#     4  10  22  39  58  82 114 151 188 229 280 335
#     4  10  21  38  60  85 114 147 186 232 281 337
#     4  10  21  38  61  85 111 148 190 232 280 335
#
# _framework density 9.9589090000000002
#
# number of rings (size 3 to 8) (size 9 to 14) (size 15 to 20)
#    0.000    1.714    0.000    3.857    0.000    8.286 
#    0.000    5.714    0.000    0.000    0.000    0.000 
#    0.000    0.000    0.000    0.000    0.000    0.000 
#
# Total GULP energy -156224.104852 kJ/mol
# GULP energy per Si atom -5579.432316 kJ/mol
# Density = 0.993624 g / cm^3
# Si number density = 9.958909 Si / 1000 Ang^3
#
#
#
# Elastic Constant Matrix: (Units=GPa)
#
#
# Indices 1 2 3 4 5 6 
#
# 1 37.7140 27.6034 27.4974 0.0001 -13.7333 0.0001
# 2 27.6034 26.5628 15.1613 0.0001 -30.1564 0.0002
# 3 27.4974 15.1613 18.1405 0.0000 -19.5308 0.0000
# 4 0.0001 0.0001 0.0000 47.0270 0.0000 -18.8401
# 5 -13.7333 -30.1564 -19.5308 0.0000 30.5894 0.0000
# 6 0.0001 0.0002 0.0000 -18.8401 0.0000 37.3989
#
#
#
# Elastic Compliance Matrix: (Units=1/GPa)
#
#
# Indices 1 2 3 4 5 6 
#
# 1 0.010640 0.047946 -0.000535 0.000000 0.051703 0.000000
# 2 0.047946 0.052690 -0.120331 0.000000 -0.003360 -0.000001
# 3 -0.000535 -0.120331 0.091263 0.000001 -0.060598 0.000001
# 4 0.000000 0.000000 0.000001 0.026641 0.000000 0.013421
# 5 0.051703 -0.003360 -0.060598 0.000000 0.013901 0.000000
# 6 0.000000 -0.000001 0.000001 0.013421 0.000000 0.033500
#
#
# Mechanical properties :
#
#
# Convention : Reuss Voigt Hill
#
# Bulk Modulus (GPa) = 114.23825 24.77128 69.50477
# Shear Modulus (GPa) = 13.24887 23.81342 18.53115
#
# Velocity S-wave (km/s) = 2.58190 3.46147 3.05352
# Velocity P-wave (km/s) = 8.14663 5.33287 6.88502
#
# Compressibility (1/GPa) = 0.00875364
#
# Stress axis : x y z
#
# Youngs Moduli (GPa) = 93.98540 18.97908 10.95733
#
# Poissons Ratio (x) = -0.90998 0.00586
# Poissons Ratio (y) = -4.50626 1.31851
# Poissons Ratio (z) = 0.05025 2.28378
#
# Static dielectric constant tensor:
#      x y z
#    x 1.700430 0.000000 0.014990 
#    y 0.000000 1.692610 0.000000 
#    z 0.014990 0.000000 1.701890 
# 
# From -- ./inp_files/275220.got.cif
#   From: 2010.05.17/outbox.ucp.g08.bks.cvg/sg12_138_cif.got.tgz:275220.got - 2010.06.11 11:47:21.
