data_PCOD9225388
_publ_section_title
;
Structure prediction by ZEFSAII (Michael W. Deem and Ramdas Pophale) SiO2 
 PCOD9225388
Probable space group: C 2/M
;
_chemical_formula_sum "Si O2"
_cell_formula_units_Z 28
_cell_length_a 15.000000
_cell_length_b 24.000000
_cell_length_c 9.000000
_cell_angle_alpha 90.000000
_cell_angle_beta 120.000000
_cell_angle_gamma 90.000000
_cell_volume 2805.922308
_symmetry_space_group_name_H-M "C 2/M"
_symmetry_group_IT_number 12
_symmetry_cell_setting 'monoclinic'
loop_
_space_group_symop_operation_xyz
x,y,z
-x,y,-z
-x,-y,-z
x,-y,z
1/2+x,1/2+y,z
1/2-x,1/2+y,-z
1/2-x,1/2-y,-z
1/2+x,1/2-y,z
loop_
_atom_site_type_symbol
_atom_site_label
_atom_site_fract_x
_atom_site_fract_y
_atom_site_fract_z
Si Si1 0.261917 0.933719 0.964065
Si Si2 0.517673 0.564726 0.836388
Si Si3 0.389757 0.245029 0.993974
Si Si4 0.423082 0.331160 0.576688
Si Si5 0.589407 0.198558 0.452449
Si Si6 0.706268 0.175902 0.831851
Si Si7 0.195246 0.646674 0.272933
O O1 0.137441 0.932339 0.883365
O O2 0.300030 0.905685 0.838694
O O3 0.291124 0.000000 0.000800
O O4 0.301487 0.888259 0.120143
O O5 0.483279 0.500000 0.765429
O O6 0.462925 0.620049 0.721445
O O7 0.500000 0.567731 0.000000
O O8 0.322165 0.300846 0.958941
O O9 0.324036 0.201724 0.841134
O O10 0.500000 0.251760 0.000000
O O11 0.377040 0.213051 0.142688
O O12 0.500000 0.333900 0.500000
O O13 0.418305 0.263796 0.608071
O O14 0.307988 0.348299 0.436465
O O15 0.500000 0.186275 0.500000
O O16 0.687083 0.188609 0.643057
O O17 0.609078 0.155917 0.331167
#
# Coordination Sequence:
#
# PCOD9225388 Si02
#       7
#     8   8   8   8   8   8   8
#     4  10  23  43  64  90 128 171 221 266 313 386
#     4  10  23  41  63  96 134 177 219 256 311 388
#     4  10  21  38  61  91 129 174 208 257 318 386
#     4  11  22  38  63  95 140 175 202 259 323 394
#     4  11  24  40  62  95 133 163 212 276 330 382
#     4  10  22  39  61  94 128 164 217 261 321 386
#     4  11  22  40  62  93 130 171 216 256 323 390
#
# _framework density 9.9788940000000004
#
# number of rings (size 3 to 8) (size 9 to 14) (size 15 to 20)
#    0.000    1.571    2.857    1.286    2.000    2.571 
#    0.000    3.571    0.000   16.286    0.000    0.000 
#    0.000    0.000    0.000    0.000    0.000    0.000 
#
# Total GULP energy -156138.255213 kJ/mol
# GULP energy per Si atom -5576.366258 kJ/mol
# Density = 0.995618 g / cm^3
# Si number density = 9.978894 Si / 1000 Ang^3
#
#
#
# Elastic Constant Matrix: (Units=GPa)
#
#
# Indices 1 2 3 4 5 6 
#
# 1 105.9906 38.1390 14.9279 0.0000 -17.7597 0.0000
# 2 38.1390 172.6732 46.0850 0.0000 -10.6465 0.0000
# 3 14.9279 46.0850 74.6727 0.0000 -19.4148 0.0000
# 4 0.0000 0.0000 0.0000 35.3886 0.0000 -4.7256
# 5 -17.7597 -10.6465 -19.4148 0.0000 36.2464 0.0000
# 6 0.0000 0.0000 0.0000 -4.7256 0.0000 37.3936
#
#
#
# Elastic Compliance Matrix: (Units=1/GPa)
#
#
# Indices 1 2 3 4 5 6 
#
# 1 0.011015 -0.002255 0.000489 0.000000 0.004996 0.000000
# 2 -0.002255 0.007398 -0.004458 0.000000 -0.001320 0.000000
# 3 0.000489 -0.004458 0.018318 0.000000 0.008742 0.000000
# 4 0.000000 0.000000 0.000000 0.028743 0.000000 0.003632
# 5 0.004996 -0.001320 0.008742 0.000000 0.034332 0.000000
# 6 0.000000 0.000000 0.000000 0.003632 0.000000 0.027202
#
#
# Mechanical properties :
#
#
# Convention : Reuss Voigt Hill
#
# Bulk Modulus (GPa) = 41.18260 61.29336 51.23798
# Shear Modulus (GPa) = 33.88696 38.75138 36.31917
#
# Velocity S-wave (km/s) = 4.12507 4.41122 4.27054
# Velocity P-wave (km/s) = 6.58543 7.53149 7.07429
#
# Compressibility (1/GPa) = 0.02428210
#
# Stress axis : x y z
#
# Youngs Moduli (GPa) = 90.78832 135.17483 54.59044
#
# Poissons Ratio (x) = 0.30486 -0.02669
# Poissons Ratio (y) = 0.20475 0.24336
# Poissons Ratio (z) = -0.04439 0.60260
#
# Static dielectric constant tensor:
#      x y z
#    x 1.725770 0.000000 0.018390 
#    y 0.000000 1.687960 0.000000 
#    z 0.018390 0.000000 1.829520 
# 
# From -- ./inp_files/65984.got.cif
#   From: 2010.05.17/outbox.ucp.g08.bks.cvg/sg12_33_cif.got.tgz:65984.got - 2010.06.11 11:47:21.
