data_PCOD9225596
_publ_section_title
;
Structure prediction by ZEFSAII (Michael W. Deem and Ramdas Pophale) SiO2 
 PCOD9225596
Probable space group: C 2/M
;
_chemical_formula_sum "Si O2"
_cell_formula_units_Z 18
_cell_length_a 9.000000
_cell_length_b 30.000000
_cell_length_c 9.000000
_cell_angle_alpha 90.000000
_cell_angle_beta 130.000000
_cell_angle_gamma 90.000000
_cell_volume 1861.487997
_symmetry_space_group_name_H-M "C 2/M"
_symmetry_group_IT_number 12
_symmetry_cell_setting 'monoclinic'
loop_
_space_group_symop_operation_xyz
x,y,z
-x,y,-z
-x,-y,-z
x,-y,z
1/2+x,1/2+y,z
1/2-x,1/2+y,-z
1/2-x,1/2-y,-z
1/2+x,1/2-y,z
loop_
_atom_site_type_symbol
_atom_site_label
_atom_site_fract_x
_atom_site_fract_y
_atom_site_fract_z
Si Si1 0.160207 0.812963 0.357932
Si Si2 0.950288 0.387941 0.640442
Si Si3 0.124233 0.110779 0.943178
Si Si4 0.000000 0.746377 0.500000
Si Si5 0.713020 0.051135 0.212839
O O1 0.310431 0.844885 0.543855
O O2 0.052350 0.778160 0.395713
O O3 0.309685 0.784545 0.351961
O O4 0.002292 0.845530 0.181374
O O5 0.830485 0.424518 0.658330
O O6 0.000000 0.399800 0.500000
O O7 0.158019 0.379883 0.854788
O O8 0.154427 0.079956 0.816008
O O9 0.000000 0.089592 0.000000
O O10 0.780434 0.000000 0.272419
O O11 0.500000 0.049698 0.000000
#
# Coordination Sequence:
#
# PCOD9225596 Si02
#       5
#     8   8   8   4   8
#     4  11  21  41  59  91 119 156 199 252 296 368
#     4  11  21  40  65  85 123 165 200 243 298 360
#     4  11  21  39  65  88 120 165 200 242 303 357
#     4  10  22  38  64  86 126 150 196 262 304 336
#     4   9  21  39  61  93 125 157 202 249 297 351
#
# _framework density 9.6696840000000002
#
# number of rings (size 3 to 8) (size 9 to 14) (size 15 to 20)
#    0.000    1.556    3.333    1.333    0.000    0.889 
#    0.000   14.444    0.000    0.000    0.000    0.000 
#    0.000    0.000    0.000    0.000    0.000    0.000 
#
# Total GULP energy -100467.331087 kJ/mol
# GULP energy per Si atom -5581.518394 kJ/mol
# Density = 0.964767 g / cm^3
# Si number density = 9.669684 Si / 1000 Ang^3
#
#
#
# Elastic Constant Matrix: (Units=GPa)
#
#
# Indices 1 2 3 4 5 6 
#
# 1 170.7523 92.1574 47.0734 0.0000 -9.6807 0.0000
# 2 92.1574 142.0311 52.8226 0.0000 -10.7981 0.0000
# 3 47.0734 52.8226 88.6273 0.0000 14.5087 0.0000
# 4 0.0000 0.0000 0.0000 22.4926 0.0000 -0.4742
# 5 -9.6807 -10.7981 14.5087 0.0000 34.6190 0.0000
# 6 0.0000 0.0000 0.0000 -0.4742 0.0000 29.6325
#
#
#
# Elastic Compliance Matrix: (Units=1/GPa)
#
#
# Indices 1 2 3 4 5 6 
#
# 1 0.009321 -0.005057 -0.002260 0.000000 0.001976 0.000000
# 2 -0.005057 0.012863 -0.005804 0.000000 0.005030 0.000000
# 3 -0.002260 -0.005804 0.017547 0.000000 -0.009796 0.000000
# 4 0.000000 0.000000 0.000000 0.044474 0.000000 0.000712
# 5 0.001976 0.005030 -0.009796 0.000000 0.035113 0.000000
# 6 0.000000 0.000000 0.000000 0.000712 0.000000 0.033758
#
#
# Mechanical properties :
#
#
# Convention : Reuss Voigt Hill
#
# Bulk Modulus (GPa) = 74.13970 87.27972 80.70971
# Shear Modulus (GPa) = 27.20139 31.30599 29.25369
#
# Velocity S-wave (km/s) = 3.75444 4.02776 3.89350
# Velocity P-wave (km/s) = 7.56398 8.17674 7.87632
#
# Compressibility (1/GPa) = 0.01348805
#
# Stress axis : x y z
#
# Youngs Moduli (GPa) = 107.28506 77.74225 56.99134
#
# Poissons Ratio (x) = 0.39315 0.12881
# Poissons Ratio (y) = 0.54255 0.33077
# Poissons Ratio (z) = 0.24248 0.45121
#
# Static dielectric constant tensor:
#      x y z
#    x 1.682900 0.000000 -0.010140 
#    y 0.000000 1.682530 0.000000 
#    z -0.010140 0.000000 1.694300 
# 
# From -- ./inp_files/41298.got.cif
#   From: 2010.05.17/outbox.ucp.g08.bks.cvg/sg12_21_cif.got.tgz:41298.got - 2010.06.11 11:47:21.
