data_PCOD9225857
_publ_section_title
;
Structure prediction by ZEFSAII (Michael W. Deem and Ramdas Pophale) SiO2 
 PCOD9225857
Probable space group: C 2/M
;
_chemical_formula_sum "Si O2"
_cell_formula_units_Z 28
_cell_length_a 27.000000
_cell_length_b 9.000000
_cell_length_c 18.000000
_cell_angle_alpha 90.000000
_cell_angle_beta 140.000000
_cell_angle_gamma 90.000000
_cell_volume 2811.553005
_symmetry_space_group_name_H-M "C 2/M"
_symmetry_group_IT_number 12
_symmetry_cell_setting 'monoclinic'
loop_
_space_group_symop_operation_xyz
x,y,z
-x,y,-z
-x,-y,-z
x,-y,z
1/2+x,1/2+y,z
1/2-x,1/2+y,-z
1/2-x,1/2-y,-z
1/2+x,1/2-y,z
loop_
_atom_site_type_symbol
_atom_site_label
_atom_site_fract_x
_atom_site_fract_y
_atom_site_fract_z
Si Si1 0.794880 0.324335 0.733039
Si Si2 0.644758 0.835276 0.747608
Si Si3 0.631304 0.176950 0.576500
Si Si4 0.959909 0.674187 0.675774
Si Si5 0.322374 0.330652 0.909918
Si Si6 0.671976 0.678098 0.379375
Si Si7 0.881217 0.174121 0.132461
O O1 0.799598 0.500000 0.724146
O O2 0.705336 0.273631 0.637858
O O3 0.835579 0.276078 0.856128
O O4 0.830575 0.225442 0.709109
O O5 0.601860 0.779494 0.624670
O O6 0.730957 0.844904 0.815242
O O7 0.648985 0.741208 0.826139
O O8 0.615847 0.000000 0.734115
O O9 0.567783 0.188784 0.440659
O O10 0.652472 0.000000 0.602690
O O11 0.975938 0.500000 0.709201
O O12 0.893854 0.736738 0.652260
O O13 0.030523 0.782695 0.767303
O O14 0.352632 0.500000 0.933233
O O15 0.349172 0.264791 0.018604
O O16 0.670594 0.500000 0.387348
O O17 0.750000 0.750000 0.500000
O O18 0.865386 0.000000 0.113650
#
# Coordination Sequence:
#
# PCOD9225857 Si02
#       7
#     8   8   8   8   8   8   8
#     4  11  21  34  59  91 117 145 187 240 289 335
#     4   9  18  35  59  84 110 148 197 242 288 342
#     4   9  19  36  57  82 115 152 190 236 289 342
#     4  11  23  39  59  83 116 156 194 236 287 344
#     4   9  20  39  60  82 114 154 195 239 290 341
#     4  12  23  38  61  89 119 150 188 232 282 341
#     4  11  23  38  56  82 117 156 194 240 292 341
#
# _framework density 9.9589090000000002
#
# number of rings (size 3 to 8) (size 9 to 14) (size 15 to 20)
#    0.000    1.714    1.429    4.714    0.000    4.571 
#    0.000    3.571    0.000    4.286    0.000    0.000 
#    0.000    0.000    0.000    0.000    0.000    0.000 
#
# Total GULP energy -156104.232844 kJ/mol
# GULP energy per Si atom -5575.151173 kJ/mol
# Density = 0.993624 g / cm^3
# Si number density = 9.958909 Si / 1000 Ang^3
#
#
#
# Elastic Constant Matrix: (Units=GPa)
#
#
# Indices 1 2 3 4 5 6 
#
# 1 51.5564 -12.3352 24.7602 0.0000 -19.0021 0.0000
# 2 -12.3352 1.8390 -16.4808 0.0000 -19.4470 0.0000
# 3 24.7602 -16.4808 62.1320 0.0000 -39.0958 0.0000
# 4 0.0000 0.0000 0.0000 21.4558 0.0000 -4.6002
# 5 -19.0021 -19.4470 -39.0958 0.0000 34.8860 0.0000
# 6 0.0000 0.0000 0.0000 -4.6002 0.0000 26.9644
#
#
#
# Elastic Compliance Matrix: (Units=1/GPa)
#
#
# Indices 1 2 3 4 5 6 
#
# 1 0.023086 -0.004071 -0.012872 0.000000 -0.004120 0.000000
# 2 -0.004071 -0.010522 -0.021214 0.000000 -0.031857 0.000000
# 3 -0.012872 -0.021214 0.012700 0.000000 -0.004604 0.000000
# 4 0.000000 0.000000 0.000000 0.048377 0.000000 0.008253
# 5 -0.004120 -0.031857 -0.004604 0.000000 0.003503 0.000000
# 6 0.000000 0.000000 0.000000 0.008253 0.000000 0.038494
#
#
# Mechanical properties :
#
#
# Convention : Reuss Voigt Hill
#
# Bulk Modulus (GPa) = -19.58898 11.93509 -3.82694
# Shear Modulus (GPa) = 28.58215 24.63344 26.60780
#
# Velocity S-wave (km/s) = 3.79225 3.52057 3.65893
# Velocity P-wave (km/s) = 3.05265 4.74669 3.99060
#
# Compressibility (1/GPa) = -0.05104910
#
# Stress axis : x y z
#
# Youngs Moduli (GPa) = 43.31686 -95.04160 78.74040
#
# Poissons Ratio (x) = -0.38687 1.01353
# Poissons Ratio (y) = 0.17632 1.67041
# Poissons Ratio (z) = 0.55757 -2.01622
#
# Static dielectric constant tensor:
#      x y z
#    x 1.548690 0.000000 -0.272730 
#    y 0.000000 1.666340 0.000000 
#    z -0.272730 0.000000 1.395230 
# 
# From -- ./inp_files/292583.got.cif
#   From: 2010.05.17/outbox.ucp.g08.bks.cvg/sg12_147_cif.got.tgz:292583.got - 2010.06.11 11:47:21.
