data_PCOD9225416
_publ_section_title
;
Structure prediction by ZEFSAII (Michael W. Deem and Ramdas Pophale) SiO2 
 PCOD9225416
Probable space group: C 2/M
;
_chemical_formula_sum "Si O2"
_cell_formula_units_Z 32
_cell_length_a 30.000000
_cell_length_b 9.000000
_cell_length_c 15.000000
_cell_angle_alpha 90.000000
_cell_angle_beta 50.000000
_cell_angle_gamma 90.000000
_cell_volume 3102.479995
_symmetry_space_group_name_H-M "C 2/M"
_symmetry_group_IT_number 12
_symmetry_cell_setting 'monoclinic'
loop_
_space_group_symop_operation_xyz
x,y,z
-x,y,-z
-x,-y,-z
x,-y,z
1/2+x,1/2+y,z
1/2-x,1/2+y,-z
1/2-x,1/2-y,-z
1/2+x,1/2-y,z
loop_
_atom_site_type_symbol
_atom_site_label
_atom_site_fract_x
_atom_site_fract_y
_atom_site_fract_z
Si Si1 0.394288 0.176316 0.565109
Si Si2 0.359765 0.177215 0.088411
Si Si3 0.303545 0.822093 0.982939
Si Si4 0.006431 0.675794 0.096062
Si Si5 0.596366 0.328447 0.256466
Si Si6 0.471943 0.328763 0.317880
Si Si7 0.675393 0.822037 0.676843
Si Si8 0.700076 0.821084 0.452490
O O1 0.407905 0.266449 0.637232
O O2 0.436124 0.225340 0.431008
O O3 0.331608 0.208073 0.600235
O O4 0.398927 0.000000 0.576184
O O5 0.357544 0.236286 0.192834
O O6 0.349171 0.000000 0.108286
O O7 0.315452 0.233154 0.069464
O O8 0.425327 0.194286 0.970422
O O9 0.359335 0.774957 0.853853
O O10 0.297305 0.000000 0.993061
O O11 0.250000 0.750000 0.000000
O O12 0.990607 0.500000 0.122135
O O13 0.973809 0.766390 0.214717
O O14 0.000000 0.718281 0.000000
O O15 0.617044 0.500000 0.232898
O O16 0.536064 0.327648 0.280091
O O17 0.451046 0.500000 0.346012
O O18 0.663640 0.778306 0.589111
O O19 0.741044 0.770618 0.613038
O O20 0.669495 0.000000 0.684421
O O21 0.710721 0.000000 0.443741
#
# Coordination Sequence:
#
# PCOD9225416 Si02
#       8
#     8   8   8   8   8   8   8   8
#     4  11  24  39  62  91 118 152 198 251 303 360
#     4   9  19  36  60  90 118 154 199 243 296 356
#     4  11  23  40  62  91 125 161 205 251 302 362
#     4  10  21  38  65  93 121 160 205 249 299 362
#     4  11  24  43  63  86 119 159 201 248 305 361
#     4  11  24  42  62  87 122 158 197 248 303 361
#     4   9  18  35  59  82 116 156 190 233 289 350
#     4   9  20  37  56  85 118 149 191 241 290 346
#
# _framework density 10.314329000000001
#
# number of rings (size 3 to 8) (size 9 to 14) (size 15 to 20)
#    0.000    1.875    1.250    1.875    3.500    4.250 
#    0.000    1.250    0.000    0.000    0.000    0.000 
#    0.000    0.000    0.000    0.000    0.000    0.000 
#
# Total GULP energy -178543.600509 kJ/mol
# GULP energy per Si atom -5579.487516 kJ/mol
# Density = 1.029085 g / cm^3
# Si number density = 10.314329 Si / 1000 Ang^3
#
#
#
# Elastic Constant Matrix: (Units=GPa)
#
#
# Indices 1 2 3 4 5 6 
#
# 1 71.7123 10.6765 2.7696 0.0000 20.3501 0.0000
# 2 10.6765 33.5609 -2.0386 0.0000 8.0802 -0.0001
# 3 2.7696 -2.0386 69.3238 0.0000 21.6524 0.0000
# 4 0.0000 0.0000 0.0000 25.4788 0.0000 4.0166
# 5 20.3501 8.0802 21.6524 0.0000 36.2977 0.0000
# 6 0.0000 -0.0001 0.0000 4.0166 0.0000 25.9557
#
#
#
# Elastic Compliance Matrix: (Units=1/GPa)
#
#
# Indices 1 2 3 4 5 6 
#
# 1 0.017260 -0.002794 0.002527 0.000000 -0.010562 0.000000
# 2 -0.002794 0.032785 0.003522 0.000000 -0.007833 0.000000
# 3 0.002527 0.003522 0.018576 0.000000 -0.013282 0.000000
# 4 0.000000 0.000000 0.000000 0.040230 0.000000 -0.006225
# 5 -0.010562 -0.007833 -0.013282 0.000000 0.043139 0.000000
# 6 0.000000 0.000000 0.000000 -0.006225 0.000000 0.039491
#
#
# Mechanical properties :
#
#
# Convention : Reuss Voigt Hill
#
# Bulk Modulus (GPa) = 13.30988 21.93468 17.62228
# Shear Modulus (GPa) = 23.80789 28.42574 26.11681
#
# Velocity S-wave (km/s) = 3.40092 3.71613 3.56201
# Velocity P-wave (km/s) = 4.67844 5.39157 5.04761
#
# Compressibility (1/GPa) = 0.07513214
#
# Stress axis : x y z
#
# Youngs Moduli (GPa) = 57.93616 30.50146 53.83241
#
# Poissons Ratio (x) = 0.08523 -0.13605
# Poissons Ratio (y) = 0.16190 -0.18961
# Poissons Ratio (z) = -0.14642 -0.10743
#
# Static dielectric constant tensor:
#      x y z
#    x 1.760690 0.000000 -0.024060 
#    y 0.000000 1.695120 0.000000 
#    z -0.024060 0.000000 1.788990 
# 
# From -- ./inp_files/249714.got.cif
#   From: 2010.05.17/outbox.ucp.g08.bks.cvg/sg12_125_cif.got.tgz:249714.got - 2010.06.11 11:47:21.
