data_PCOD9225136
_publ_section_title
;
Structure prediction by ZEFSAII (Michael W. Deem and Ramdas Pophale) SiO2 
 PCOD9225136
Probable space group: C 2/M
;
_chemical_formula_sum "Si O2"
_cell_formula_units_Z 18
_cell_length_a 9.000000
_cell_length_b 24.000000
_cell_length_c 9.000000
_cell_angle_alpha 90.000000
_cell_angle_beta 110.000000
_cell_angle_gamma 90.000000
_cell_volume 1826.762455
_symmetry_space_group_name_H-M "C 2/M"
_symmetry_group_IT_number 12
_symmetry_cell_setting 'monoclinic'
loop_
_space_group_symop_operation_xyz
x,y,z
-x,y,-z
-x,-y,-z
x,-y,z
1/2+x,1/2+y,z
1/2-x,1/2+y,-z
1/2-x,1/2-y,-z
1/2+x,1/2-y,z
loop_
_atom_site_type_symbol
_atom_site_label
_atom_site_fract_x
_atom_site_fract_y
_atom_site_fract_z
Si Si1 0.176681 0.128853 0.002055
Si Si2 0.578688 0.678644 0.677665
Si Si3 0.500000 0.124183 0.500000
Si Si4 0.254446 0.293145 0.718765
Si Si5 0.532781 0.934802 0.835462
O O1 0.168241 0.137520 0.821653
O O2 0.247293 0.183266 0.112437
O O3 0.280537 0.078166 0.097854
O O4 0.000000 0.121981 0.000000
O O5 0.500000 0.655232 0.500000
O O6 0.432770 0.703141 0.722736
O O7 0.689154 0.731155 0.679421
O O8 0.351672 0.164526 0.414848
O O9 0.523126 0.092018 0.345719
O O10 0.491925 0.000000 0.816954
O O11 0.500000 0.915070 0.000000
#
# Coordination Sequence:
#
# PCOD9225136 Si02
#       5
#     8   8   4   8   8
#     4   9  21  38  54  80 111 148 186 229 284 333
#     4  11  21  32  53  78 114 147 187 222 268 329
#     4  10  21  38  60  84 118 144 191 230 286 334
#     4  10  21  35  52  80 112 153 185 223 274 331
#     4  10  22  39  63  86 109 144 189 240 289 336
#
# _framework density 9.8534980000000001
#
# number of rings (size 3 to 8) (size 9 to 14) (size 15 to 20)
#    0.000    2.000    1.111    1.667    3.111    2.222 
#    0.000    1.111    0.000    0.667    0.000    0.000 
#    0.000    0.000    0.000    0.000    0.000    0.000 
#
# Total GULP energy -100203.909298 kJ/mol
# GULP energy per Si atom -5566.883850 kJ/mol
# Density = 0.983107 g / cm^3
# Si number density = 9.853498 Si / 1000 Ang^3
#
#
#
# Elastic Constant Matrix: (Units=GPa)
#
#
# Indices 1 2 3 4 5 6 
#
# 1 39.8035 -0.1673 4.3572 0.0000 9.1975 0.0000
# 2 -0.1673 7.4033 2.5603 0.0000 -1.2587 0.0000
# 3 4.3572 2.5603 161.9652 0.0000 -6.0719 0.0000
# 4 0.0000 0.0000 0.0000 31.9593 0.0000 1.5221
# 5 9.1975 -1.2587 -6.0719 0.0000 35.1278 0.0000
# 6 0.0000 0.0000 0.0000 1.5221 0.0000 11.3615
#
#
#
# Elastic Compliance Matrix: (Units=1/GPa)
#
#
# Indices 1 2 3 4 5 6 
#
# 1 0.026900 -0.000278 -0.000990 0.000000 -0.007224 0.000000
# 2 -0.000278 0.136538 -0.001978 0.000000 0.004623 0.000000
# 3 -0.000990 -0.001978 0.006280 0.000000 0.001274 0.000000
# 4 0.000000 0.000000 0.000000 0.031491 0.000000 -0.004219
# 5 -0.007224 0.004623 0.001274 0.000000 0.030745 0.000000
# 6 0.000000 0.000000 0.000000 -0.004219 0.000000 0.088582
#
#
# Mechanical properties :
#
#
# Convention : Reuss Voigt Hill
#
# Bulk Modulus (GPa) = 6.12645 24.74139 15.43392
# Shear Modulus (GPa) = 13.10837 29.18451 21.14644
#
# Velocity S-wave (km/s) = 2.58187 3.85245 3.27929
# Velocity P-wave (km/s) = 3.46462 5.68950 4.71031
#
# Compressibility (1/GPa) = 0.16322663
#
# Stress axis : x y z
#
# Youngs Moduli (GPa) = 37.17480 7.32396 159.24035
#
# Poissons Ratio (x) = 0.00204 0.15766
# Poissons Ratio (y) = 0.01033 0.31491
# Poissons Ratio (z) = 0.03681 0.01448
#
# Static dielectric constant tensor:
#      x y z
#    x 1.742180 0.000000 -0.032040 
#    y 0.000000 1.675720 0.000000 
#    z -0.032040 0.000000 1.755950 
# 
# From -- ./inp_files/38893.got.cif
#   From: 2010.05.17/outbox.ucp.g08.bks.cvg/sg12_20_cif.got.tgz:38893.got - 2010.06.11 11:47:21.
