data_PCOD9225473
_publ_section_title
;
Structure prediction by ZEFSAII (Michael W. Deem and Ramdas Pophale) SiO2 
 PCOD9225473
Probable space group: C 2/M
;
_chemical_formula_sum "Si O2"
_cell_formula_units_Z 20
_cell_length_a 9.000000
_cell_length_b 24.000000
_cell_length_c 18.000000
_cell_angle_alpha 90.000000
_cell_angle_beta 150.000000
_cell_angle_gamma 90.000000
_cell_volume 1944.000000
_symmetry_space_group_name_H-M "C 2/M"
_symmetry_group_IT_number 12
_symmetry_cell_setting 'monoclinic'
loop_
_space_group_symop_operation_xyz
x,y,z
-x,y,-z
-x,-y,-z
x,-y,z
1/2+x,1/2+y,z
1/2-x,1/2+y,-z
1/2-x,1/2-y,-z
1/2+x,1/2-y,z
loop_
_atom_site_type_symbol
_atom_site_label
_atom_site_fract_x
_atom_site_fract_y
_atom_site_fract_z
Si Si1 0.786505 0.900678 0.848472
Si Si2 0.997723 0.803268 0.676326
Si Si3 0.629247 0.500000 0.917497
Si Si4 0.673439 0.595766 0.653260
Si Si5 0.846660 0.000000 0.245424
Si Si6 0.834722 0.307762 0.319700
O O1 0.501728 0.922179 0.770116
O O2 0.670630 0.860905 0.734459
O O3 0.981482 0.947809 0.894208
O O4 0.000000 0.870617 0.000000
O O5 0.659158 0.803292 0.498251
O O6 0.928950 0.811461 0.733791
O O7 0.167216 0.848141 0.698943
O O8 0.167634 0.746220 0.733550
O O9 0.549855 0.500000 0.795165
O O10 0.986033 0.500000 0.081271
O O11 0.500000 0.601078 0.500000
O O12 0.551947 0.551686 0.660247
#
# Coordination Sequence:
#
# PCOD9225473 Si02
#       6
#     8   8   4   8   4   8
#     4  12  23  42  66  94 129 167 213 258 315 380
#     4  10  21  39  64  93 127 166 210 259 317 367
#     4  11  24  44  66  90 130 173 206 254 327 381
#     4  12  23  41  65  97 128 163 215 263 313 372
#     4  11  24  43  66  93 128 169 210 260 317 381
#     4  10  21  39  64  92 128 168 210 257 313 375
#
# _framework density 10.288066000000001
#
# number of rings (size 3 to 8) (size 9 to 14) (size 15 to 20)
#    0.000    1.000    4.000    3.600    2.800    0.000 
#    0.000    5.000    0.000    0.000    0.000    0.000 
#    0.000    0.000    0.000    0.000    0.000    0.000 
#
# Total GULP energy -111552.744072 kJ/mol
# GULP energy per Si atom -5577.637204 kJ/mol
# Density = 1.026465 g / cm^3
# Si number density = 10.288066 Si / 1000 Ang^3
#
#
#
# Elastic Constant Matrix: (Units=GPa)
#
#
# Indices 1 2 3 4 5 6 
#
# 1 148.1081 23.8484 20.9506 0.0065 -13.3333 -0.0156
# 2 23.8484 74.6341 -1.6962 0.0065 -5.4175 -0.0143
# 3 20.9506 -1.6962 20.1105 0.0480 -0.6753 -0.0402
# 4 0.0065 0.0065 0.0480 1.6563 0.0036 -19.2904
# 5 -13.3333 -5.4175 -0.6753 0.0036 27.8738 0.0026
# 6 -0.0156 -0.0143 -0.0402 -19.2904 0.0026 35.8242
#
#
#
# Elastic Compliance Matrix: (Units=1/GPa)
#
#
# Indices 1 2 3 4 5 6 
#
# 1 0.008829 -0.002782 -0.009316 -0.000028 0.003457 -0.000023
# 2 -0.002782 0.014498 0.004174 0.000012 0.001588 0.000016
# 3 -0.009316 0.004174 0.059709 0.000180 -0.002198 0.000162
# 4 -0.000028 0.000012 0.000180 -0.114532 0.000014 -0.061673
# 5 0.003457 0.001588 -0.002198 0.000014 0.037785 0.000004
# 6 -0.000023 0.000016 0.000162 -0.061673 0.000004 -0.005295
#
#
# Mechanical properties :
#
#
# Convention : Reuss Voigt Hill
#
# Bulk Modulus (GPa) = 14.88368 36.56202 25.72285
# Shear Modulus (GPa) = 127.43403 26.38753 76.91078
#
# Velocity S-wave (km/s) = 7.87829 3.58499 6.12044
# Velocity P-wave (km/s) = 9.48713 5.91134 7.90410
#
# Compressibility (1/GPa) = 0.06718769
#
# Stress axis : x y z
#
# Youngs Moduli (GPa) = 113.26600 68.97602 16.74801
#
# Poissons Ratio (x) = 0.19189 0.15603
# Poissons Ratio (y) = 0.31510 -0.06991
# Poissons Ratio (z) = 1.05520 -0.28793
#
# Static dielectric constant tensor:
#      x y z
#    x 1.701240 0.000000 -0.001790 
#    y 0.000000 1.877110 0.000010 
#    z -0.001790 0.000010 1.757810 
# 
# From -- ./inp_files/39254.got.cif
#   From: 2010.05.17/outbox.ucp.g08.bks.cvg/sg12_20_cif.got.tgz:39254.got - 2010.06.11 11:47:21.
