data_PCOD9225023
_publ_section_title
;
Structure prediction by ZEFSAII (Michael W. Deem and Ramdas Pophale) SiO2 
 PCOD9225023
Probable space group: C 2/M
;
_chemical_formula_sum "Si O2"
_cell_formula_units_Z 24
_cell_length_a 30.000000
_cell_length_b 9.000000
_cell_length_c 18.000000
_cell_angle_alpha 90.000000
_cell_angle_beta 30.000000
_cell_angle_gamma 90.000000
_cell_volume 2430.000000
_symmetry_space_group_name_H-M "C 2/M"
_symmetry_group_IT_number 12
_symmetry_cell_setting 'monoclinic'
loop_
_space_group_symop_operation_xyz
x,y,z
-x,y,-z
-x,-y,-z
x,-y,z
1/2+x,1/2+y,z
1/2-x,1/2+y,-z
1/2-x,1/2-y,-z
1/2+x,1/2-y,z
loop_
_atom_site_type_symbol
_atom_site_label
_atom_site_fract_x
_atom_site_fract_y
_atom_site_fract_z
Si Si1 0.340804 0.171451 0.348150
Si Si2 0.526774 0.323272 0.732259
Si Si3 0.013278 0.819779 0.593046
Si Si4 0.671380 0.673913 0.941184
Si Si5 0.648546 0.678089 0.264549
Si Si6 0.105663 0.829690 0.867522
O O1 0.250000 0.250000 0.500000
O O2 0.422052 0.242269 0.276471
O O3 0.353867 0.205958 0.243301
O O4 0.336114 0.000000 0.371392
O O5 0.541629 0.500000 0.720993
O O6 0.555088 0.269921 0.610211
O O7 0.421128 0.298221 0.883481
O O8 0.913155 0.768884 0.715637
O O9 0.083137 0.786309 0.427766
O O10 0.007220 0.000000 0.606369
O O11 0.692975 0.500000 0.915261
O O12 0.754858 0.758579 0.855573
O O13 0.639915 0.700466 0.901281
O O14 0.656604 0.500000 0.246940
O O15 0.133722 0.000000 0.808571
O O16 0.000000 0.826650 0.000000
#
# Coordination Sequence:
#
# PCOD9225023 Si02
#       6
#     8   8   8   8   8   8
#     4  12  26  41  59  86 117 151 192 238 287 341
#     4  10  20  39  60  81 112 154 194 231 283 341
#     4   8  17  35  59  81 109 148 190 235 282 335
#     4  10  21  35  56  84 115 149 187 232 286 338
#     4   9  18  35  57  84 112 144 190 238 281 335
#     4  10  20  40  62  82 115 156 191 232 283 340
#
# _framework density 9.8765429999999999
#
# number of rings (size 3 to 8) (size 9 to 14) (size 15 to 20)
#    0.000    2.167    1.667    2.500    2.333    2.333 
#    0.000    2.500    0.000    0.000    0.000    0.000 
#    0.000    0.000    0.000    0.000    0.000    0.000 
#
# Total GULP energy -133671.202121 kJ/mol
# GULP energy per Si atom -5569.633422 kJ/mol
# Density = 0.985406 g / cm^3
# Si number density = 9.876543 Si / 1000 Ang^3
#
#
#
# Elastic Constant Matrix: (Units=GPa)
#
#
# Indices 1 2 3 4 5 6 
#
# 1 30.0021 19.8448 -4.4984 -0.0009 14.5243 0.0003
# 2 19.8448 45.3610 40.5482 -0.0004 -9.4994 -0.0006
# 3 -4.4984 40.5482 -8.0850 -0.0022 15.3518 0.0003
# 4 -0.0009 -0.0004 -0.0022 23.8340 0.0008 -13.0577
# 5 14.5243 -9.4994 15.3518 0.0008 11.7687 -0.0001
# 6 0.0003 -0.0006 0.0003 -13.0577 -0.0001 24.6966
#
#
#
# Elastic Compliance Matrix: (Units=1/GPa)
#
#
# Indices 1 2 3 4 5 6 
#
# 1 0.032811 0.003005 -0.021705 -0.000001 -0.009754 0.000000
# 2 0.003005 0.007554 0.011719 0.000002 -0.012899 0.000001
# 3 -0.021705 0.011719 0.004599 -0.000001 0.030248 0.000000
# 4 -0.000001 0.000002 -0.000001 0.059066 0.000001 0.031230
# 5 -0.009754 -0.012899 0.030248 0.000001 0.047141 0.000000
# 6 0.000000 0.000001 0.000000 0.031230 0.000000 0.057003
#
#
# Mechanical properties :
#
#
# Convention : Reuss Voigt Hill
#
# Bulk Modulus (GPa) = 32.25615 19.89637 26.07626
# Shear Modulus (GPa) = 21.50814 12.81877 17.16346
#
# Velocity S-wave (km/s) = 3.30335 2.55021 2.95091
# Velocity P-wave (km/s) = 5.56009 4.33196 4.98400
#
# Compressibility (1/GPa) = 0.03100184
#
# Stress axis : x y z
#
# Youngs Moduli (GPa) = 30.47761 132.38575 217.44351
#
# Poissons Ratio (x) = -0.39785 4.71965
# Poissons Ratio (y) = -0.09159 -2.54825
# Poissons Ratio (z) = 0.66152 -1.55145
#
# Static dielectric constant tensor:
#      x y z
#    x 1.626560 -0.000010 -0.037240 
#    y -0.000010 1.755350 -0.000020 
#    z -0.037240 -0.000020 1.606390 
# 
# From -- ./inp_files/244898.got.cif
#   From: 2010.05.17/outbox.ucp.g08.bks.cvg/sg12_123_cif.got.tgz:244898.got - 2010.06.11 11:47:21.
