data_PCOD9225059
_publ_section_title
;
Structure prediction by ZEFSAII (Michael W. Deem and Ramdas Pophale) SiO2 
 PCOD9225059
Probable space group: C 2/M
;
_chemical_formula_sum "Si O2"
_cell_formula_units_Z 24
_cell_length_a 21.000000
_cell_length_b 9.000000
_cell_length_c 15.000000
_cell_angle_alpha 90.000000
_cell_angle_beta 70.000000
_cell_angle_gamma 90.000000
_cell_volume 2664.028580
_symmetry_space_group_name_H-M "C 2/M"
_symmetry_group_IT_number 12
_symmetry_cell_setting 'monoclinic'
loop_
_space_group_symop_operation_xyz
x,y,z
-x,y,-z
-x,-y,-z
x,-y,z
1/2+x,1/2+y,z
1/2-x,1/2+y,-z
1/2-x,1/2-y,-z
1/2+x,1/2-y,z
loop_
_atom_site_type_symbol
_atom_site_label
_atom_site_fract_x
_atom_site_fract_y
_atom_site_fract_z
Si Si1 0.805337 0.678219 0.537768
Si Si2 0.295438 0.324327 0.055552
Si Si3 0.939626 0.321899 0.959521
Si Si4 0.461560 0.822697 0.424979
Si Si5 0.687760 0.824099 0.260174
Si Si6 0.944061 0.822913 0.764337
O O1 0.797711 0.500000 0.537724
O O2 0.750000 0.750000 0.500000
O O3 0.882339 0.713498 0.472296
O O4 0.798815 0.722980 0.644709
O O5 0.303532 0.500000 0.032716
O O6 0.253542 0.308363 0.166948
O O7 0.250000 0.250000 0.000000
O O8 0.368097 0.246285 0.024827
O O9 0.933392 0.500000 0.954263
O O10 0.953398 0.251612 0.856241
O O11 0.000000 0.289146 0.000000
O O12 0.500000 0.793199 0.500000
O O13 0.497421 0.731767 0.330142
O O14 0.468315 0.000000 0.404641
O O15 0.626266 0.735445 0.244779
O O16 0.668696 0.000000 0.270735
O O17 0.942792 0.000000 0.773020
#
# Coordination Sequence:
#
# PCOD9225059 Si02
#       6
#     8   8   8   8   8   8
#     4  10  22  40  62  89 122 163 200 248 303 357
#     4  11  22  37  64  95 124 161 205 255 306 366
#     4  11  25  44  64  88 125 167 207 256 312 370
#     4  10  20  39  65  88 120 165 208 245 297 367
#     4  10  21  40  63  87 121 164 205 243 301 372
#     4  12  24  37  62  95 124 156 203 261 310 362
#
# _framework density 9.0089120000000005
#
# number of rings (size 3 to 8) (size 9 to 14) (size 15 to 20)
#    0.000    1.333    3.333    2.500    0.000    5.000 
#    0.000    3.333    0.000    0.000    0.000    0.000 
#    0.000    0.000    0.000    0.000    0.000    0.000 
#
# Total GULP energy -134156.798006 kJ/mol
# GULP energy per Si atom -5589.866584 kJ/mol
# Density = 0.898841 g / cm^3
# Si number density = 9.008912 Si / 1000 Ang^3
#
#
#
# Elastic Constant Matrix: (Units=GPa)
#
#
# Indices 1 2 3 4 5 6 
#
# 1 182.9357 89.5825 96.2725 0.0000 11.3088 0.0000
# 2 89.5825 103.8346 84.8531 0.0000 4.1103 0.0000
# 3 96.2725 84.8531 154.1425 0.0000 9.5853 0.0000
# 4 0.0000 0.0000 0.0000 29.7766 0.0000 -2.6178
# 5 11.3088 4.1103 9.5853 0.0000 30.6343 0.0000
# 6 0.0000 0.0000 0.0000 -2.6178 0.0000 34.1649
#
#
#
# Elastic Compliance Matrix: (Units=1/GPa)
#
#
# Indices 1 2 3 4 5 6 
#
# 1 0.010189 -0.006568 -0.002620 0.000000 -0.002060 0.000000
# 2 -0.006568 0.021753 -0.007998 0.000000 0.002008 0.000000
# 3 -0.002620 -0.007998 0.012646 0.000000 -0.001916 0.000000
# 4 0.000000 0.000000 0.000000 0.033811 0.000000 0.002591
# 5 -0.002060 0.002008 -0.001916 0.000000 0.033734 0.000000
# 6 0.000000 0.000000 0.000000 0.002591 0.000000 0.029468
#
#
# Mechanical properties :
#
#
# Convention : Reuss Voigt Hill
#
# Bulk Modulus (GPa) = 97.87854 109.14767 103.51310
# Shear Modulus (GPa) = 27.87428 30.26216 29.06822
#
# Velocity S-wave (km/s) = 3.93751 4.10270 4.02095
# Velocity P-wave (km/s) = 8.66678 9.11877 8.89565
#
# Compressibility (1/GPa) = 0.01021674
#
# Stress axis : x y z
#
# Youngs Moduli (GPa) = 98.14785 45.97077 79.07834
#
# Poissons Ratio (x) = 0.30192 0.20719
# Poissons Ratio (y) = 0.64459 0.63244
# Poissons Ratio (z) = 0.25716 0.36766
#
# Static dielectric constant tensor:
#      x y z
#    x 1.580030 0.000000 -0.014240 
#    y 0.000000 1.605860 0.000000 
#    z -0.014240 0.000000 1.612660 
# 
# From -- ./inp_files/229818.got.cif
#   From: 2010.05.17/outbox.ucp.g08.bks.cvg/sg12_115_cif.got.tgz:229818.got - 2010.06.11 11:47:21.
