data_PCOD9225111
_publ_section_title
;
Structure prediction by ZEFSAII (Michael W. Deem and Ramdas Pophale) SiO2 
 PCOD9225111
Probable space group: C 2/M
;
_chemical_formula_sum "Si O2"
_cell_formula_units_Z 32
_cell_length_a 18.000000
_cell_length_b 9.000000
_cell_length_c 30.000000
_cell_angle_alpha 90.000000
_cell_angle_beta 40.000000
_cell_angle_gamma 90.000000
_cell_volume 3123.947783
_symmetry_space_group_name_H-M "C 2/M"
_symmetry_group_IT_number 12
_symmetry_cell_setting 'monoclinic'
loop_
_space_group_symop_operation_xyz
x,y,z
-x,y,-z
-x,-y,-z
x,-y,z
1/2+x,1/2+y,z
1/2-x,1/2+y,-z
1/2-x,1/2-y,-z
1/2+x,1/2-y,z
loop_
_atom_site_type_symbol
_atom_site_label
_atom_site_fract_x
_atom_site_fract_y
_atom_site_fract_z
Si Si1 0.130957 0.335386 0.058880
Si Si2 0.013092 0.173170 0.289630
Si Si3 0.114290 0.335277 0.475267
Si Si4 0.193752 0.824269 0.682499
Si Si5 0.880538 0.679394 0.193596
Si Si6 0.626152 0.325400 0.556538
Si Si7 0.749243 0.325868 0.830107
Si Si8 0.882238 0.331627 0.039348
O O1 0.151521 0.500000 0.068252
O O2 0.015789 0.271731 0.134532
O O3 0.250000 0.250000 0.000000
O O4 0.103094 0.346489 0.019528
O O5 0.119372 0.282838 0.238894
O O6 0.928654 0.187932 0.286369
O O7 0.941669 0.205587 0.367177
O O8 0.052247 0.000000 0.273656
O O9 0.157460 0.500000 0.469937
O O10 0.212316 0.271755 0.397293
O O11 0.074680 0.240962 0.535470
O O12 0.000000 0.353319 0.500000
O O13 0.187646 0.738288 0.731855
O O14 0.217455 0.000000 0.679877
O O15 0.879336 0.500000 0.192283
O O16 0.826451 0.744505 0.173170
O O17 0.636720 0.500000 0.547537
O O18 0.750000 0.250000 0.500000
O O19 0.728374 0.500000 0.837525
O O20 0.719452 0.261644 0.892639
O O21 0.873952 0.500000 0.061797
O O22 0.000000 0.255787 0.000000
#
# Coordination Sequence:
#
# PCOD9225111 Si02
#       8
#     8   8   8   8   8   8   8   8
#     4  10  23  41  64  91 122 161 202 249 306 366
#     4  10  23  43  64  89 126 167 205 251 309 373
#     4  10  22  41  64  92 128 164 203 255 312 366
#     4  10  22  42  63  90 126 166 207 248 308 369
#     4  11  24  44  64  89 127 166 206 252 309 369
#     4  11  22  40  66  93 122 159 209 259 310 368
#     4  12  26  41  63  95 125 160 210 260 308 363
#     4  10  20  42  68  88 119 163 205 250 310 368
#
# _framework density 10.243449
#
# number of rings (size 3 to 8) (size 9 to 14) (size 15 to 20)
#    0.000    1.500    2.500    1.875    3.500    4.000 
#    0.000    0.000    0.000    0.000    0.000    0.000 
#    0.000    0.000    0.000    0.000    0.000    0.000 
#
# Total GULP energy -178450.804722 kJ/mol
# GULP energy per Si atom -5576.587648 kJ/mol
# Density = 1.022013 g / cm^3
# Si number density = 10.243449 Si / 1000 Ang^3
#
#
#
# Elastic Constant Matrix: (Units=GPa)
#
#
# Indices 1 2 3 4 5 6 
#
# 1 30.0792 2.9482 -3.2575 0.0001 0.8933 0.0006
# 2 2.9482 37.9675 44.5739 0.0004 -0.8300 0.0011
# 3 -3.2575 44.5739 41.0138 -0.0001 22.1741 -0.0002
# 4 0.0001 0.0004 -0.0001 22.0419 0.0000 -1.3428
# 5 0.8933 -0.8300 22.1741 0.0000 27.7081 0.0001
# 6 0.0006 0.0011 -0.0002 -1.3428 0.0001 -10.4159
#
#
#
# Elastic Compliance Matrix: (Units=1/GPa)
#
#
# Indices 1 2 3 4 5 6 
#
# 1 0.031585 0.006757 -0.007744 0.000000 0.005382 0.000003
# 2 0.006757 -0.018551 0.037221 0.000000 -0.030560 -0.000003
# 3 -0.007744 0.037221 -0.030709 0.000000 0.025940 0.000004
# 4 0.000000 0.000000 0.000000 0.045015 0.000000 -0.005803
# 5 0.005382 -0.030560 0.025940 0.000000 0.014242 -0.000003
# 6 0.000003 -0.000003 0.000004 -0.005803 -0.000003 -0.095259
#
#
# Mechanical properties :
#
#
# Convention : Reuss Voigt Hill
#
# Bulk Modulus (GPa) = 18.25122 21.95442 20.10282
# Shear Modulus (GPa) = -46.34775 12.18655 -17.08060
#
# Velocity S-wave (km/s) = -4.76154 2.44159 -2.89058
# Velocity P-wave (km/s) = 4.61536 4.32297 1.14313
#
# Compressibility (1/GPa) = 0.05479085
#
# Stress axis : x y z
#
# Youngs Moduli (GPa) = 31.66081 -53.90431 -32.56385
#
# Poissons Ratio (x) = 0.36421 -0.25218
# Poissons Ratio (y) = -0.21392 1.21205
# Poissons Ratio (z) = 0.24519 2.00635
#
# Static dielectric constant tensor:
#      x y z
#    x 1.291310 0.000000 -0.491960 
#    y 0.000000 1.754130 0.000000 
#    z -0.491960 0.000000 1.269510 
# 
# From -- ./inp_files/378124.got.cif
#   From: 2010.05.17/outbox.ucp.g08.bks.cvg/sg12_190_cif.got.tgz:378124.got - 2010.06.11 11:47:21.
