data_PCOD9225551
_publ_section_title
;
Structure prediction by ZEFSAII (Michael W. Deem and Ramdas Pophale) SiO2 
 PCOD9225551
Probable space group: C 2/M
;
_chemical_formula_sum "Si O2"
_cell_formula_units_Z 28
_cell_length_a 9.000000
_cell_length_b 24.000000
_cell_length_c 15.000000
_cell_angle_alpha 90.000000
_cell_angle_beta 120.000000
_cell_angle_gamma 90.000000
_cell_volume 2805.922308
_symmetry_space_group_name_H-M "C 2/M"
_symmetry_group_IT_number 12
_symmetry_cell_setting 'monoclinic'
loop_
_space_group_symop_operation_xyz
x,y,z
-x,y,-z
-x,-y,-z
x,-y,z
1/2+x,1/2+y,z
1/2-x,1/2+y,-z
1/2-x,1/2-y,-z
1/2+x,1/2-y,z
loop_
_atom_site_type_symbol
_atom_site_label
_atom_site_fract_x
_atom_site_fract_y
_atom_site_fract_z
Si Si1 0.059818 0.844727 0.747554
Si Si2 0.266399 0.434130 0.653775
Si Si3 0.552441 0.149774 0.117095
Si Si4 0.509589 0.132020 0.707122
Si Si5 0.441490 0.273180 0.073824
Si Si6 0.298219 0.435036 0.453755
Si Si7 0.552622 0.245649 0.415319
O O1 0.253111 0.866185 0.806162
O O2 0.040066 0.809831 0.833342
O O3 0.937015 0.897596 0.713831
O O4 0.014657 0.802299 0.652608
O O5 0.280696 0.500000 0.678310
O O6 0.132121 0.404484 0.679894
O O7 0.234510 0.430167 0.537402
O O8 0.446322 0.132159 0.173777
O O9 0.552154 0.217202 0.117491
O O10 0.500000 0.133155 0.000000
O O11 0.321923 0.105360 0.637926
O O12 0.499724 0.194901 0.665624
O O13 0.500000 0.302450 0.000000
O O14 0.250000 0.250000 0.000000
O O15 0.500000 0.421847 0.500000
O O16 0.276856 0.500000 0.421383
O O17 0.500000 0.232787 0.500000
O O18 0.750000 0.250000 0.500000
#
# Coordination Sequence:
#
# PCOD9225551 Si02
#       7
#     8   8   8   8   8   8   8
#     4  12  24  41  67  92 135 177 218 279 339 409
#     4  11  26  44  67  98 130 179 238 280 328 399
#     4  11  24  41  64 100 130 171 226 273 339 411
#     4  12  23  39  66  94 136 176 220 278 343 401
#     4  11  22  39  65  99 133 170 223 275 340 411
#     4  10  21  41  66  92 126 174 229 277 323 396
#     4  12  25  37  56  95 139 169 204 257 343 414
#
# _framework density 9.9788940000000004
#
# number of rings (size 3 to 8) (size 9 to 14) (size 15 to 20)
#    0.000    0.714    4.286    5.143    4.000    2.286 
#    0.000    0.714    0.000    6.857    0.000    0.000 
#    0.000    0.000    0.000    0.000    0.000    0.000 
#
# Total GULP energy -156315.974822 kJ/mol
# GULP energy per Si atom -5582.713387 kJ/mol
# Density = 0.995618 g / cm^3
# Si number density = 9.978894 Si / 1000 Ang^3
#
#
#
# Elastic Constant Matrix: (Units=GPa)
#
#
# Indices 1 2 3 4 5 6 
#
# 1 77.1595 39.2468 41.3888 0.0000 -9.5467 0.0000
# 2 39.2468 93.4065 41.3514 0.0000 -2.9512 0.0000
# 3 41.3888 41.3514 120.4804 0.0000 -25.3214 0.0000
# 4 0.0000 0.0000 0.0000 17.7675 0.0000 -4.3315
# 5 -9.5467 -2.9512 -25.3214 0.0000 43.5970 0.0000
# 6 0.0000 0.0000 0.0000 -4.3315 0.0000 32.8550
#
#
#
# Elastic Compliance Matrix: (Units=1/GPa)
#
#
# Indices 1 2 3 4 5 6 
#
# 1 0.018236 -0.005858 -0.003985 0.000000 0.001282 0.000000
# 2 -0.005858 0.014644 -0.003503 0.000000 -0.002326 0.000000
# 3 -0.003985 -0.003503 0.012117 0.000000 0.005928 0.000000
# 4 0.000000 0.000000 0.000000 0.058151 0.000000 0.007666
# 5 0.001282 -0.002326 0.005928 0.000000 0.026504 0.000000
# 6 0.000000 0.000000 0.000000 0.007666 0.000000 0.031447
#
#
# Mechanical properties :
#
#
# Convention : Reuss Voigt Hill
#
# Bulk Modulus (GPa) = 54.62349 59.44669 57.03509
# Shear Modulus (GPa) = 25.78757 30.11453 27.95105
#
# Velocity S-wave (km/s) = 3.59849 3.88868 3.74640
# Velocity P-wave (km/s) = 6.68539 7.07201 6.88142
#
# Compressibility (1/GPa) = 0.01830714
#
# Stress axis : x y z
#
# Youngs Moduli (GPa) = 54.83779 68.28593 82.52850
#
# Poissons Ratio (x) = 0.39999 0.32884
# Poissons Ratio (y) = 0.32122 0.28908
# Poissons Ratio (z) = 0.21850 0.23919
#
# Static dielectric constant tensor:
#      x y z
#    x 1.848650 0.000000 0.040960 
#    y 0.000000 1.758660 0.000000 
#    z 0.040960 0.000000 1.721220 
# 
# From -- ./inp_files/198962.got.cif
#   From: 2010.05.17/outbox.ucp.g08.bks.cvg/sg12_100_cif.got.tgz:198962.got - 2010.06.11 11:47:21.
