data_PCOD9225577
_publ_section_title
;
Structure prediction by ZEFSAII (Michael W. Deem and Ramdas Pophale) SiO2 
 PCOD9225577
Probable space group: C 2/M
;
_chemical_formula_sum "Si O2"
_cell_formula_units_Z 32
_cell_length_a 18.000000
_cell_length_b 24.000000
_cell_length_c 15.000000
_cell_angle_alpha 90.000000
_cell_angle_beta 30.000000
_cell_angle_gamma 90.000000
_cell_volume 3240.000000
_symmetry_space_group_name_H-M "C 2/M"
_symmetry_group_IT_number 12
_symmetry_cell_setting 'monoclinic'
loop_
_space_group_symop_operation_xyz
x,y,z
-x,y,-z
-x,-y,-z
x,-y,z
1/2+x,1/2+y,z
1/2-x,1/2+y,-z
1/2-x,1/2-y,-z
1/2+x,1/2-y,z
loop_
_atom_site_type_symbol
_atom_site_label
_atom_site_fract_x
_atom_site_fract_y
_atom_site_fract_z
Si Si1 0.152432 0.860365 0.010187
Si Si2 0.412195 0.562956 0.186459
Si Si3 0.839310 0.627473 0.637445
Si Si4 0.182769 0.256304 0.436870
Si Si5 0.506583 0.240877 0.182460
Si Si6 0.743750 0.139552 0.919981
Si Si7 0.820913 0.565558 0.184100
Si Si8 0.424754 0.637356 0.489486
O O1 0.264515 0.880641 0.970026
O O2 0.004293 0.897285 0.155849
O O3 0.105645 0.796415 0.073350
O O4 0.237153 0.865885 0.829796
O O5 0.407847 0.500000 0.223954
O O6 0.250008 0.587554 0.336494
O O7 0.500000 0.562720 0.000000
O O8 0.848440 0.688596 0.585831
O O9 0.000000 0.606882 0.500000
O O10 0.359837 0.249310 0.272767
O O11 0.078248 0.262595 0.633659
O O12 0.137617 0.199578 0.434525
O O13 0.623336 0.190555 0.039515
O O14 0.712617 0.096123 0.874658
O O15 0.926318 0.147101 0.724969
O O16 0.781949 0.500000 0.225644
O O17 0.722613 0.597881 0.363031
O O18 0.000000 0.570013 0.000000
O O19 0.500000 0.614270 0.500000
#
# Coordination Sequence:
#
# PCOD9225577 Si02
#       8
#     8   8   8   8   8   8   8   8
#     4  11  22  40  60  91 125 164 211 258 321 384
#     4   9  20  41  61  83 117 160 207 256 308 375
#     4  11  23  36  62  93 124 165 214 265 319 384
#     4  11  22  38  58  89 132 165 214 262 327 393
#     4  11  23  37  59  88 130 170 205 271 328 384
#     4  11  23  38  62  92 128 166 211 264 332 383
#     4  10  23  45  68  93 128 173 223 270 317 385
#     4  10  22  36  58  89 121 163 205 254 312 385
#
# _framework density 9.8765429999999999
#
# number of rings (size 3 to 8) (size 9 to 14) (size 15 to 20)
#    0.000    1.500    2.500    2.250    5.250    3.000 
#    0.000    0.000    0.000    5.250    0.000    0.000 
#    0.000    0.000    0.000    0.000    0.000    0.000 
#
# Total GULP energy -178145.312386 kJ/mol
# GULP energy per Si atom -5567.041012 kJ/mol
# Density = 0.985406 g / cm^3
# Si number density = 9.876543 Si / 1000 Ang^3
#
#
#
# Elastic Constant Matrix: (Units=GPa)
#
#
# Indices 1 2 3 4 5 6 
#
# 1 61.4498 20.0627 6.4475 -0.0036 -17.5259 0.0106
# 2 20.0627 97.6047 24.2537 0.0023 -12.7488 0.0007
# 3 6.4475 24.2537 85.2070 -0.0195 -19.9645 0.0296
# 4 -0.0036 0.0023 -0.0195 10.4543 0.0162 0.8752
# 5 -17.5259 -12.7488 -19.9645 0.0162 26.9663 -0.0248
# 6 0.0106 0.0007 0.0296 0.8752 -0.0248 -22.6006
#
#
#
# Elastic Compliance Matrix: (Units=1/GPa)
#
#
# Indices 1 2 3 4 5 6 
#
# 1 0.021053 -0.003130 0.002610 -0.000009 0.014135 -0.000003
# 2 -0.003130 0.011770 -0.002766 -0.000011 0.001482 -0.000007
# 3 0.002610 -0.002766 0.015023 0.000011 0.011511 0.000009
# 4 -0.000009 -0.000011 0.000011 0.095345 -0.000056 0.003692
# 5 0.014135 0.001482 0.011511 -0.000056 0.055493 -0.000041
# 6 -0.000003 -0.000007 0.000009 0.003692 -0.000041 -0.044104
#
#
# Mechanical properties :
#
#
# Convention : Reuss Voigt Hill
#
# Bulk Modulus (GPa) = 24.22850 38.42104 31.32477
# Shear Modulus (GPa) = 28.58616 15.86384 22.22500
#
# Velocity S-wave (km/s) = 3.80830 2.83699 3.35795
# Velocity P-wave (km/s) = 5.62404 5.49766 5.56121
#
# Compressibility (1/GPa) = 0.04127371
#
# Stress axis : x y z
#
# Youngs Moduli (GPa) = 47.49949 84.96419 66.56457
#
# Poissons Ratio (x) = 0.26591 -0.17372
# Poissons Ratio (y) = 0.14866 0.18412
# Poissons Ratio (z) = -0.12396 0.23501
#
# Static dielectric constant tensor:
#      x y z
#    x 1.786490 0.000000 0.016710 
#    y 0.000000 1.659490 0.000010 
#    z 0.016710 0.000010 1.755860 
# 
# From -- ./inp_files/228119.got.cif
#   From: 2010.05.17/outbox.ucp.g08.bks.cvg/sg12_115_cif.got.tgz:228119.got - 2010.06.11 11:47:21.
