data_PCOD9225621
_publ_section_title
;
Structure prediction by ZEFSAII (Michael W. Deem and Ramdas Pophale) SiO2 
 PCOD9225621
Probable space group: C 2/M
;
_chemical_formula_sum "Si O2"
_cell_formula_units_Z 22
_cell_length_a 9.000000
_cell_length_b 21.000000
_cell_length_c 12.000000
_cell_angle_alpha 90.000000
_cell_angle_beta 80.000000
_cell_angle_gamma 90.000000
_cell_volume 2233.543984
_symmetry_space_group_name_H-M "C 2/M"
_symmetry_group_IT_number 12
_symmetry_cell_setting 'monoclinic'
loop_
_space_group_symop_operation_xyz
x,y,z
-x,y,-z
-x,-y,-z
x,-y,z
1/2+x,1/2+y,z
1/2-x,1/2+y,-z
1/2-x,1/2-y,-z
1/2+x,1/2-y,z
loop_
_atom_site_type_symbol
_atom_site_label
_atom_site_fract_x
_atom_site_fract_y
_atom_site_fract_z
Si Si1 0.242039 0.796641 0.895723
Si Si2 0.000000 0.897717 0.000000
Si Si3 0.169314 0.068747 0.436933
Si Si4 0.088260 0.316473 0.803056
Si Si5 0.716024 0.569612 0.168002
Si Si6 0.658503 0.813799 0.537449
O O1 0.161820 0.751854 0.816686
O O2 0.411114 0.815807 0.846327
O O3 0.250000 0.750000 0.000000
O O4 0.132322 0.854540 0.932553
O O5 0.082281 0.929855 0.094759
O O6 0.162655 0.078073 0.303280
O O7 0.246193 0.123414 0.499963
O O8 0.000000 0.066081 0.500000
O O9 0.245055 0.000000 0.444554
O O10 0.170826 0.371320 0.863620
O O11 0.121077 0.326132 0.670543
O O12 0.790912 0.500000 0.151068
O O13 0.500000 0.809240 0.500000
O O14 0.750000 0.750000 0.500000
#
# Coordination Sequence:
#
# PCOD9225621 Si02
#       6
#     8   4   8   8   8   8
#     4  12  21  37  60  85 112 150 200 239 291 346
#     4  12  23  36  62  86 119 150 198 250 286 358
#     4   9  20  40  64  84 115 160 201 242 295 358
#     4  11  22  39  61  85 119 155 193 243 292 353
#     4  10  22  40  59  86 120 157 195 241 296 350
#     4  11  23  37  58  90 124 152 192 246 302 350
#
# _framework density 9.8498169999999998
#
# number of rings (size 3 to 8) (size 9 to 14) (size 15 to 20)
#    0.000    1.273    3.636    1.909    0.000    6.182 
#    0.000    2.727    0.000    0.000    0.000    0.000 
#    0.000    0.000    0.000    0.000    0.000    0.000 
#
# Total GULP energy -122545.670739 kJ/mol
# GULP energy per Si atom -5570.257761 kJ/mol
# Density = 0.982740 g / cm^3
# Si number density = 9.849817 Si / 1000 Ang^3
#
#
#
# Elastic Constant Matrix: (Units=GPa)
#
#
# Indices 1 2 3 4 5 6 
#
# 1 138.0504 81.1385 30.2175 0.0000 -1.6139 0.0000
# 2 81.1385 139.4435 28.0043 0.0000 2.7099 0.0000
# 3 30.2175 28.0043 26.1741 0.0000 3.0161 0.0000
# 4 0.0000 0.0000 0.0000 19.7579 0.0000 9.7952
# 5 -1.6139 2.7099 3.0161 0.0000 33.1748 0.0000
# 6 0.0000 0.0000 0.0000 9.7952 0.0000 31.4421
#
#
#
# Elastic Compliance Matrix: (Units=1/GPa)
#
#
# Indices 1 2 3 4 5 6 
#
# 1 0.012394 -0.005517 -0.008618 0.000000 0.001837 0.000000
# 2 -0.005517 0.011590 -0.005954 0.000000 -0.000674 0.000000
# 3 -0.008618 -0.005954 0.055095 0.000000 -0.004942 0.000000
# 4 0.000000 0.000000 0.000000 0.059857 0.000000 -0.018647
# 5 0.001837 -0.000674 -0.004942 0.000000 0.030737 0.000000
# 6 0.000000 0.000000 0.000000 -0.018647 0.000000 0.037614
#
#
# Mechanical properties :
#
#
# Convention : Reuss Voigt Hill
#
# Bulk Modulus (GPa) = 25.70584 64.70983 45.20784
# Shear Modulus (GPa) = 19.19892 27.82882 23.51387
#
# Velocity S-wave (km/s) = 3.12522 3.76261 3.45863
# Velocity P-wave (km/s) = 5.10880 7.19693 6.24082
#
# Compressibility (1/GPa) = 0.03890166
#
# Stress axis : x y z
#
# Youngs Moduli (GPa) = 80.68449 86.27952 18.15057
#
# Poissons Ratio (x) = 0.47598 0.15642
# Poissons Ratio (y) = 0.44511 0.10807
# Poissons Ratio (z) = 0.69532 0.51372
#
# Static dielectric constant tensor:
#      x y z
#    x 1.633200 0.000000 -0.008760 
#    y 0.000000 1.959610 0.000000 
#    z -0.008760 0.000000 1.700710 
# 
# From -- ./inp_files/120694.got.cif
#   From: 2010.05.17/outbox.ucp.g08.bks.cvg/sg12_61_cif.got.tgz:120694.got - 2010.06.11 11:47:21.
