data_PCOD9225655
_publ_section_title
;
Structure prediction by ZEFSAII (Michael W. Deem and Ramdas Pophale) SiO2 
 PCOD9225655
Probable space group: C 2/M
;
_chemical_formula_sum "Si O2"
_cell_formula_units_Z 22
_cell_length_a 18.000000
_cell_length_b 12.000000
_cell_length_c 12.000000
_cell_angle_alpha 90.000000
_cell_angle_beta 120.000000
_cell_angle_gamma 90.000000
_cell_volume 2244.737847
_symmetry_space_group_name_H-M "C 2/M"
_symmetry_group_IT_number 12
_symmetry_cell_setting 'monoclinic'
loop_
_space_group_symop_operation_xyz
x,y,z
-x,y,-z
-x,-y,-z
x,-y,z
1/2+x,1/2+y,z
1/2-x,1/2+y,-z
1/2-x,1/2-y,-z
1/2+x,1/2-y,z
loop_
_atom_site_type_symbol
_atom_site_label
_atom_site_fract_x
_atom_site_fract_y
_atom_site_fract_z
Si Si1 0.206338 0.137439 0.138993
Si Si2 0.127426 0.500000 0.230801
Si Si3 0.042246 0.500000 0.762829
Si Si4 0.162889 0.195838 0.868594
Si Si5 0.499507 0.241264 0.633012
Si Si6 0.673102 0.758395 0.353483
Si Si7 0.800547 0.500000 0.955577
O O1 0.294670 0.195837 0.161101
O O2 0.184851 0.184291 0.247806
O O3 0.206159 0.000000 0.138473
O O4 0.147439 0.186448 0.991873
O O5 0.167572 0.386759 0.309495
O O6 0.142747 0.500000 0.111732
O O7 0.028823 0.500000 0.192998
O O8 0.024097 0.612131 0.679336
O O9 0.133617 0.500000 0.892646
O O10 0.073523 0.181604 0.740639
O O11 0.235755 0.103648 0.905132
O O12 0.500000 0.255078 0.500000
O O13 0.412494 0.265268 0.637199
O O14 0.750000 0.750000 0.500000
#
# Coordination Sequence:
#
# PCOD9225655 Si02
#       7
#     8   4   4   8   8   8   4
#     4  11  23  42  70  99 131 180 224 276 337 405
#     4  10  23  41  66 100 132 177 225 284 341 401
#     4  10  22  40  70 101 131 166 229 292 336 386
#     4  11  24  42  68 103 137 175 222 271 344 400
#     4  11  25  44  66 100 135 176 229 281 336 400
#     4  11  25  45  67  96 135 184 230 282 338 404
#     4  12  21  43  69 101 140 176 214 274 340 416
#
# _framework density 9.8006989999999998
#
# number of rings (size 3 to 8) (size 9 to 14) (size 15 to 20)
#    0.000    1.091    2.727    3.818    2.545    0.727 
#    4.909    1.364    0.000    0.000    0.000    0.000 
#    0.000    0.000    0.000    0.000    0.000    0.000 
#
# Total GULP energy -122620.842578 kJ/mol
# GULP energy per Si atom -5573.674663 kJ/mol
# Density = 0.977839 g / cm^3
# Si number density = 9.800699 Si / 1000 Ang^3
#
#
#
# Elastic Constant Matrix: (Units=GPa)
#
#
# Indices 1 2 3 4 5 6 
#
# 1 123.6975 58.5084 104.5478 0.0000 -16.4968 0.0000
# 2 58.5084 113.8052 48.6530 0.0000 -4.3218 0.0000
# 3 104.5478 48.6530 194.6453 0.0000 -15.5531 0.0000
# 4 0.0000 0.0000 0.0000 22.3158 0.0000 -6.7293
# 5 -16.4968 -4.3218 -15.5531 0.0000 50.5376 0.0000
# 6 0.0000 0.0000 0.0000 -6.7293 0.0000 35.5529
#
#
#
# Elastic Compliance Matrix: (Units=1/GPa)
#
#
# Indices 1 2 3 4 5 6 
#
# 1 0.017879 -0.005683 -0.007951 0.000000 0.002903 0.000000
# 2 -0.005683 0.011645 0.000075 0.000000 -0.000836 0.000000
# 3 -0.007951 0.000075 0.009414 0.000000 0.000308 0.000000
# 4 0.000000 0.000000 0.000000 0.047524 0.000000 0.008995
# 5 0.002903 -0.000836 0.000308 0.000000 0.020758 0.000000
# 6 0.000000 0.000000 0.000000 0.008995 0.000000 0.029830
#
#
# Mechanical properties :
#
#
# Convention : Reuss Voigt Hill
#
# Bulk Modulus (GPa) = 84.59821 95.06294 89.83058
# Shear Modulus (GPa) = 29.74285 36.37719 33.06002
#
# Velocity S-wave (km/s) = 3.89959 4.31263 4.11130
# Velocity P-wave (km/s) = 7.97049 8.56748 8.27437
#
# Compressibility (1/GPa) = 0.01182058
#
# Stress axis : x y z
#
# Youngs Moduli (GPa) = 55.93049 85.87593 106.22355
#
# Poissons Ratio (x) = 0.48800 0.84458
# Poissons Ratio (y) = 0.31783 -0.00794
# Poissons Ratio (z) = 0.44470 -0.00642
#
# Static dielectric constant tensor:
#      x y z
#    x 1.691560 0.000000 0.010100 
#    y 0.000000 1.737110 0.000000 
#    z 0.010100 0.000000 1.695130 
# 
# From -- ./inp_files/154437.got.cif
#   From: 2010.05.17/outbox.ucp.g08.bks.cvg/sg12_78_cif.got.tgz:154437.got - 2010.06.11 11:47:21.
