data_PCOD9225146
_publ_section_title
;
Structure prediction by ZEFSAII (Michael W. Deem and Ramdas Pophale) SiO2 
 PCOD9225146
Probable space group: C 2/M
;
_chemical_formula_sum "Si O2"
_cell_formula_units_Z 28
_cell_length_a 18.000000
_cell_length_b 24.000000
_cell_length_c 21.000000
_cell_angle_alpha 90.000000
_cell_angle_beta 20.000000
_cell_angle_gamma 90.000000
_cell_volume 3102.806740
_symmetry_space_group_name_H-M "C 2/M"
_symmetry_group_IT_number 12
_symmetry_cell_setting 'monoclinic'
loop_
_space_group_symop_operation_xyz
x,y,z
-x,y,-z
-x,-y,-z
x,-y,z
1/2+x,1/2+y,z
1/2-x,1/2+y,-z
1/2-x,1/2-y,-z
1/2+x,1/2-y,z
loop_
_atom_site_type_symbol
_atom_site_label
_atom_site_fract_x
_atom_site_fract_y
_atom_site_fract_z
Si Si1 0.527461 0.334438 0.381091
Si Si2 0.396091 0.375021 0.889402
Si Si3 0.941199 0.931806 0.367267
Si Si4 0.687410 0.219679 0.735600
Si Si5 0.336222 0.731485 0.851618
Si Si6 0.501823 0.144007 0.701790
Si Si7 0.643675 0.842391 0.442286
O O1 0.549766 0.398850 0.340324
O O2 0.704938 0.307077 0.286793
O O3 0.288094 0.323793 0.603477
O O4 0.551974 0.298401 0.298041
O O5 0.418824 0.415209 0.809051
O O6 0.374650 0.311693 0.878419
O O7 0.630384 0.375191 0.733828
O O8 0.202226 0.384253 0.096195
O O9 0.712853 0.896065 0.544649
O O10 0.919997 0.000000 0.389738
O O11 0.791777 0.278790 0.629838
O O12 0.427110 0.229407 0.948310
O O13 0.458788 0.791022 0.758566
O O14 0.518533 0.152479 0.610974
O O15 0.500000 0.864123 0.500000
#
# Coordination Sequence:
#
# PCOD9225146 Si02
#       7
#     8   8   8   8   8   8   8
#     4  10  21  35  56  84 125 165 190 234 297 348
#     4  10  23  36  57  85 116 152 194 248 308 350
#     4  10  24  42  60  82 115 161 218 256 276 323
#     4  11  19  32  53  86 127 159 186 225 297 367
#     4  11  20  32  55  87 122 148 191 242 302 372
#     4  11  21  35  60  86 113 154 196 244 305 356
#     4  11  21  33  52  86 129 151 175 224 298 378
#
# _framework density 9.0240880000000008
#
# number of rings (size 3 to 8) (size 9 to 14) (size 15 to 20)
#    0.000    1.429    4.286    1.714    2.000    2.857 
#    0.000    1.429    0.000   13.714    0.000    8.000 
#    0.000    0.000    0.000    0.000    0.000    0.000 
#
# Total GULP energy -155904.655686 kJ/mol
# GULP energy per Si atom -5568.023417 kJ/mol
# Density = 0.900355 g / cm^3
# Si number density = 9.024088 Si / 1000 Ang^3
#
#
#
# Elastic Constant Matrix: (Units=GPa)
#
#
# Indices 1 2 3 4 5 6 
#
# 1 94.1416 22.7664 33.4791 -0.0549 6.3524 0.0416
# 2 22.7664 103.8342 17.0170 -0.0482 1.8718 0.0589
# 3 33.4791 17.0170 114.8780 0.0289 14.3083 0.0611
# 4 -0.0549 -0.0482 0.0289 21.4922 0.0595 1.9109
# 5 6.3524 1.8718 14.3083 0.0595 37.1164 -0.0481
# 6 0.0416 0.0589 0.0611 1.9109 -0.0481 22.9379
#
#
#
# Elastic Compliance Matrix: (Units=1/GPa)
#
#
# Indices 1 2 3 4 5 6 
#
# 1 0.012328 -0.002169 -0.003175 0.000034 -0.000777 -0.000013
# 2 -0.002169 0.010252 -0.000912 0.000020 0.000206 -0.000021
# 3 -0.003175 -0.000912 0.010181 -0.000012 -0.003335 -0.000025
# 4 0.000034 0.000020 -0.000012 0.046876 -0.000082 -0.003905
# 5 -0.000777 0.000206 -0.003335 -0.000082 0.028351 0.000076
# 6 -0.000013 -0.000021 -0.000025 -0.003905 0.000076 0.043922
#
#
# Mechanical properties :
#
#
# Convention : Reuss Voigt Hill
#
# Bulk Modulus (GPa) = 49.38415 51.04207 50.21311
# Shear Modulus (GPa) = 29.21056 32.28205 30.74630
#
# Velocity S-wave (km/s) = 4.02739 4.23384 4.13191
# Velocity P-wave (km/s) = 7.00345 7.22793 7.11658
#
# Compressibility (1/GPa) = 0.02024941
#
# Stress axis : x y z
#
# Youngs Moduli (GPa) = 81.11445 97.54132 98.22510
#
# Poissons Ratio (x) = 0.21154 0.31185
# Poissons Ratio (y) = 0.17592 0.08960
# Poissons Ratio (z) = 0.25753 0.08898
#
# Static dielectric constant tensor:
#      x y z
#    x 1.713190 0.000000 -0.012170 
#    y 0.000000 1.612490 0.000070 
#    z -0.012170 0.000070 1.654890 
# 
# From -- ./inp_files/318262.got.cif
#   From: 2010.05.17/outbox.ucp.g08.bks.cvg/sg12_160_cif.got.tgz:318262.got - 2010.06.11 11:47:21.
