data_PCOD9225459
_publ_section_title
;
Structure prediction by ZEFSAII (Michael W. Deem and Ramdas Pophale) SiO2 
 PCOD9225459
Probable space group: C 2/M
;
_chemical_formula_sum "Si O2"
_cell_formula_units_Z 20
_cell_length_a 21.000000
_cell_length_b 9.000000
_cell_length_c 30.000000
_cell_angle_alpha 90.000000
_cell_angle_beta 160.000000
_cell_angle_gamma 90.000000
_cell_volume 1939.254213
_symmetry_space_group_name_H-M "C 2/M"
_symmetry_group_IT_number 12
_symmetry_cell_setting 'monoclinic'
loop_
_space_group_symop_operation_xyz
x,y,z
-x,y,-z
-x,-y,-z
x,-y,z
1/2+x,1/2+y,z
1/2-x,1/2+y,-z
1/2-x,1/2-y,-z
1/2+x,1/2-y,z
loop_
_atom_site_type_symbol
_atom_site_label
_atom_site_fract_x
_atom_site_fract_y
_atom_site_fract_z
Si Si1 0.476059 0.173929 0.792309
Si Si2 0.109309 0.326486 0.528558
Si Si3 0.690913 0.171714 0.839607
Si Si4 0.509011 0.172682 0.094381
Si Si5 0.082095 0.174117 0.676934
O O1 0.319228 0.293958 0.679496
O O2 0.601130 0.184842 0.830157
O O3 0.537878 0.204024 0.884267
O O4 0.410306 0.000000 0.750360
O O5 0.065034 0.500000 0.495297
O O6 0.000000 0.264880 0.500000
O O7 0.066096 0.249646 0.453207
O O8 0.601206 0.259077 0.739081
O O9 0.688684 0.000000 0.825655
O O10 0.896014 0.231041 0.984826
O O11 0.725231 0.192640 0.224302
O O12 0.460767 0.000000 0.055194
O O13 0.043412 0.000000 0.655446
#
# Coordination Sequence:
#
# PCOD9225459 Si02
#       5
#     8   8   8   8   8
#     4  10  22  41  63  88 120 161 201 241 294 357
#     4  11  23  39  63  93 120 149 195 252 302 350
#     4  11  24  39  59  90 126 158 196 248 300 347
#     4  10  21  39  63  88 117 159 207 243 288 356
#     4  11  23  40  64  88 119 162 201 242 294 356
#
# _framework density 10.313243
#
# number of rings (size 3 to 8) (size 9 to 14) (size 15 to 20)
#    0.000    1.400    2.000    3.000    0.000    8.000 
#    0.000    0.000    0.000    0.000    0.000    0.000 
#    0.000    0.000    0.000    0.000    0.000    0.000 
#
# Total GULP energy -111558.002624 kJ/mol
# GULP energy per Si atom -5577.900131 kJ/mol
# Density = 1.028977 g / cm^3
# Si number density = 10.313243 Si / 1000 Ang^3
#
#
#
# Elastic Constant Matrix: (Units=GPa)
#
#
# Indices 1 2 3 4 5 6 
#
# 1 93.0844 41.9093 3.9849 0.0026 -31.4179 -0.0017
# 2 41.9093 40.2861 26.8633 0.0050 -15.5376 -0.0004
# 3 3.9849 26.8633 21.2360 0.0044 -22.9561 -0.0056
# 4 0.0026 0.0050 0.0044 31.2826 -0.0030 -12.9914
# 5 -31.4179 -15.5376 -22.9561 -0.0030 34.1664 0.0005
# 6 -0.0017 -0.0004 -0.0056 -12.9914 0.0005 36.3007
#
#
#
# Elastic Compliance Matrix: (Units=1/GPa)
#
#
# Indices 1 2 3 4 5 6 
#
# 1 0.002213 0.012756 -0.029524 -0.000001 -0.012000 -0.000005
# 2 0.012756 -0.002306 0.044098 0.000000 0.040310 0.000007
# 3 -0.029524 0.044098 -0.039544 -0.000006 -0.033664 -0.000009
# 4 -0.000001 0.000000 -0.000006 0.037547 -0.000002 0.013438
# 5 -0.012000 0.040310 -0.033664 -0.000002 0.013947 -0.000006
# 6 -0.000005 0.000007 -0.000009 0.013438 -0.000006 0.032357
#
#
# Mechanical properties :
#
#
# Convention : Reuss Voigt Hill
#
# Bulk Modulus (GPa) = 66.55753 33.34684 49.95219
# Shear Modulus (GPa) = -919.45996 25.80653 -446.82672
#
# Velocity S-wave (km/s) = -21.13609 3.54098 -14.73424
# Velocity P-wave (km/s) = 23.73411 5.73761 16.28477
#
# Compressibility (1/GPa) = 0.01502460
#
# Stress axis : x y z
#
# Youngs Moduli (GPa) = 451.77950 -433.73483 -25.28821
#
# Poissons Ratio (x) = 5.53262 -0.74660
# Poissons Ratio (y) = -5.76279 1.11516
# Poissons Ratio (z) = 13.33814 19.12693
#
# Static dielectric constant tensor:
#      x y z
#    x 1.768270 0.000000 0.066430 
#    y 0.000000 1.715400 0.000000 
#    z 0.066430 0.000000 1.763320 
# 
# From -- ./inp_files/151715.got.cif
#   From: 2010.05.17/outbox.ucp.g08.bks.cvg/sg12_76_cif.got.tgz:151715.got - 2010.06.11 11:47:21.
