data_PCOD9225334
_publ_section_title
;
Structure prediction by ZEFSAII (Michael W. Deem and Ramdas Pophale) SiO2 
 PCOD9225334
Probable space group: C 2/M
;
_chemical_formula_sum "Si O2"
_cell_formula_units_Z 32
_cell_length_a 18.000000
_cell_length_b 9.000000
_cell_length_c 30.000000
_cell_angle_alpha 90.000000
_cell_angle_beta 40.000000
_cell_angle_gamma 90.000000
_cell_volume 3123.947783
_symmetry_space_group_name_H-M "C 2/M"
_symmetry_group_IT_number 12
_symmetry_cell_setting 'monoclinic'
loop_
_space_group_symop_operation_xyz
x,y,z
-x,y,-z
-x,-y,-z
x,-y,z
1/2+x,1/2+y,z
1/2-x,1/2+y,-z
1/2-x,1/2-y,-z
1/2+x,1/2-y,z
loop_
_atom_site_type_symbol
_atom_site_label
_atom_site_fract_x
_atom_site_fract_y
_atom_site_fract_z
Si Si1 0.398331 0.176247 0.210495
Si Si2 0.930420 0.677464 0.785972
Si Si3 0.747085 0.828690 0.573093
Si Si4 0.507386 0.321302 0.921778
Si Si5 0.271536 0.171731 0.652608
Si Si6 0.678689 0.679285 0.925618
Si Si7 0.468120 0.331637 0.346672
Si Si8 0.985826 0.166686 0.573933
O O1 0.483480 0.206533 0.212852
O O2 0.455329 0.236365 0.139397
O O3 0.283958 0.266176 0.276630
O O4 0.376121 0.000000 0.218047
O O5 0.922805 0.500000 0.784372
O O6 0.805607 0.737867 0.857905
O O7 0.971105 0.741301 0.720237
O O8 0.727103 0.771411 0.632338
O O9 0.659701 0.730538 0.585181
O O10 0.880820 0.814736 0.499641
O O11 0.714205 0.000000 0.584199
O O12 0.504915 0.500000 0.915001
O O13 0.599764 0.292769 0.918706
O O14 0.386430 0.271171 0.999629
O O15 0.407276 0.205344 0.590455
O O16 0.245051 0.000000 0.658431
O O17 0.685025 0.500000 0.926769
O O18 0.458619 0.500000 0.335538
O O19 0.529232 0.328911 0.366086
O O20 0.949276 0.000000 0.575139
#
# Coordination Sequence:
#
# PCOD9225334 Si02
#       8
#     8   8   8   8   8   8   8   8
#     4  11  23  38  57  83 120 159 196 243 296 352
#     4  10  21  38  59  82 115 162 203 237 290 355
#     4  11  22  41  65  86 118 160 194 240 304 361
#     4   9  18  36  62  89 118 151 193 247 292 342
#     4  12  25  40  61  88 118 155 203 251 295 352
#     4   8  17  36  61  88 117 152 196 241 292 348
#     4  11  23  39  60  89 121 154 199 250 292 347
#     4  10  24  42  61  88 121 155 195 245 304 358
#
# _framework density 10.243449
#
# number of rings (size 3 to 8) (size 9 to 14) (size 15 to 20)
#    0.000    1.750    1.250    3.750    1.750    4.500 
#    0.000    1.875    0.000    0.000    0.000    0.000 
#    0.000    0.000    0.000    0.000    0.000    0.000 
#
# Total GULP energy -178630.267096 kJ/mol
# GULP energy per Si atom -5582.195847 kJ/mol
# Density = 1.022013 g / cm^3
# Si number density = 10.243449 Si / 1000 Ang^3
#
#
#
# Elastic Constant Matrix: (Units=GPa)
#
#
# Indices 1 2 3 4 5 6 
#
# 1 28.2732 21.0154 25.6129 0.0000 3.7617 -0.0003
# 2 21.0154 -10.9947 15.2947 -0.0001 -2.3024 -0.0013
# 3 25.6129 15.2947 112.5597 0.0000 7.4421 0.0002
# 4 0.0000 -0.0001 0.0000 25.2069 0.0000 4.1693
# 5 3.7617 -2.3024 7.4421 0.0000 36.5793 0.0000
# 6 -0.0003 -0.0013 0.0002 4.1693 0.0000 13.7309
#
#
#
# Elastic Compliance Matrix: (Units=1/GPa)
#
#
# Indices 1 2 3 4 5 6 
#
# 1 0.021828 0.028923 -0.008990 0.000000 0.001405 0.000003
# 2 0.028923 -0.036431 -0.001300 0.000000 -0.005003 -0.000003
# 3 -0.008990 -0.001300 0.011201 0.000000 -0.001436 0.000000
# 4 0.000000 0.000000 0.000000 0.041769 0.000000 -0.012683
# 5 0.001405 -0.005003 -0.001436 0.000000 0.027171 0.000000
# 6 0.000003 -0.000003 0.000000 -0.012683 0.000000 0.076679
#
#
# Mechanical properties :
#
#
# Convention : Reuss Voigt Hill
#
# Bulk Modulus (GPa) = 29.53024 28.18712 28.85868
# Shear Modulus (GPa) = 43.01414 19.63111 31.32263
#
# Velocity S-wave (km/s) = 4.58710 3.09888 3.91437
# Velocity P-wave (km/s) = 6.51927 5.15680 5.87764
#
# Compressibility (1/GPa) = 0.03386360
#
# Stress axis : x y z
#
# Youngs Moduli (GPa) = 45.81236 -27.44913 89.27400
#
# Poissons Ratio (x) = 0.79390 0.80256
# Poissons Ratio (y) = -1.32502 0.11608
# Poissons Ratio (z) = 0.41185 -0.03569
#
# Static dielectric constant tensor:
#      x y z
#    x 1.795490 0.000000 -0.034110 
#    y 0.000000 1.689120 0.000000 
#    z -0.034110 0.000000 1.753390 
# 
# From -- ./inp_files/378140.got.cif
#   From: 2010.05.17/outbox.ucp.g08.bks.cvg/sg12_190_cif.got.tgz:378140.got - 2010.06.11 11:47:21.
