data_PCOD9225694
_publ_section_title
;
Structure prediction by ZEFSAII (Michael W. Deem and Ramdas Pophale) SiO2 
 PCOD9225694
Probable space group: C 2/M
;
_chemical_formula_sum "Si O2"
_cell_formula_units_Z 24
_cell_length_a 18.000000
_cell_length_b 15.000000
_cell_length_c 18.000000
_cell_angle_alpha 90.000000
_cell_angle_beta 30.000000
_cell_angle_gamma 90.000000
_cell_volume 2430.000000
_symmetry_space_group_name_H-M "C 2/M"
_symmetry_group_IT_number 12
_symmetry_cell_setting 'monoclinic'
loop_
_space_group_symop_operation_xyz
x,y,z
-x,y,-z
-x,-y,-z
x,-y,z
1/2+x,1/2+y,z
1/2-x,1/2+y,-z
1/2-x,1/2-y,-z
1/2+x,1/2-y,z
loop_
_atom_site_type_symbol
_atom_site_label
_atom_site_fract_x
_atom_site_fract_y
_atom_site_fract_z
Si Si1 0.178827 0.099121 0.348566
Si Si2 0.139380 0.899896 0.934724
Si Si3 0.817075 0.107187 0.365166
Si Si4 0.918026 0.771400 0.879697
Si Si5 0.822722 0.699082 0.661405
Si Si6 0.622742 0.899281 0.679417
O O1 0.225106 0.197923 0.279044
O O2 0.244727 0.101635 0.374763
O O3 0.000000 0.098532 0.500000
O O4 0.226419 0.000000 0.276589
O O5 0.277285 0.866607 0.766915
O O6 0.161991 0.000000 0.946151
O O7 0.102795 0.823686 0.025165
O O8 0.000000 0.904258 0.000000
O O9 0.755136 0.159325 0.345808
O O10 0.696716 0.116108 0.535050
O O11 0.969536 0.157537 0.257814
O O12 0.838819 0.000000 0.332022
O O13 0.007029 0.678020 0.800511
O O14 0.750000 0.750000 0.000000
O O15 0.000000 0.699297 0.500000
O O16 0.558212 0.000000 0.736529
#
# Coordination Sequence:
#
# PCOD9225694 Si02
#       6
#     8   8   8   8   8   8
#     4   9  18  35  61  92 125 162 209 263 319 381
#     4  11  23  43  67  93 131 175 219 271 332 399
#     4  11  23  42  66  94 131 173 219 275 333 393
#     4  12  26  41  62  92 136 179 217 261 334 397
#     4  11  23  38  67  99 129 166 218 275 332 391
#     4  10  22  41  66  94 126 167 220 271 320 388
#
# _framework density 9.8765429999999999
#
# number of rings (size 3 to 8) (size 9 to 14) (size 15 to 20)
#    0.000    1.333    3.333    1.500    2.333    4.000 
#    0.000    0.833    0.000    3.000    0.000    0.000 
#    0.000    0.000    0.000    0.000    0.000    0.000 
#
# Total GULP energy -133807.564300 kJ/mol
# GULP energy per Si atom -5575.315179 kJ/mol
# Density = 0.985406 g / cm^3
# Si number density = 9.876543 Si / 1000 Ang^3
#
#
#
# Elastic Constant Matrix: (Units=GPa)
#
#
# Indices 1 2 3 4 5 6 
#
# 1 63.7131 51.4174 35.9673 -0.0001 -16.6018 0.0001
# 2 51.4174 199.8351 68.4510 -0.0006 -7.3679 0.0004
# 3 35.9673 68.4510 94.8142 -0.0005 -5.2309 0.0003
# 4 -0.0001 -0.0006 -0.0005 32.8550 0.0003 1.3848
# 5 -16.6018 -7.3679 -5.2309 0.0003 30.3237 -0.0002
# 6 0.0001 0.0004 0.0003 1.3848 -0.0002 25.8959
#
#
#
# Elastic Compliance Matrix: (Units=1/GPa)
#
#
# Indices 1 2 3 4 5 6 
#
# 1 0.025504 -0.004031 -0.006107 0.000000 0.011930 0.000000
# 2 -0.004031 0.007304 -0.003804 0.000000 -0.001088 0.000000
# 3 -0.006107 -0.003804 0.015522 0.000000 -0.001590 0.000000
# 4 0.000000 0.000000 0.000000 0.030506 0.000000 -0.001631
# 5 0.011930 -0.001088 -0.001590 0.000000 0.038971 0.000000
# 6 0.000000 0.000000 0.000000 -0.001631 0.000000 0.038703
#
#
# Mechanical properties :
#
#
# Convention : Reuss Voigt Hill
#
# Bulk Modulus (GPa) = 48.90608 74.44821 61.67715
# Shear Modulus (GPa) = 26.14934 31.31670 28.73302
#
# Velocity S-wave (km/s) = 3.64237 3.98604 3.81807
# Velocity P-wave (km/s) = 6.51932 7.67827 7.12241
#
# Compressibility (1/GPa) = 0.02044735
#
# Stress axis : x y z
#
# Youngs Moduli (GPa) = 39.20914 136.90798 64.42324
#
# Poissons Ratio (x) = 0.55181 0.39342
# Poissons Ratio (y) = 0.15803 0.24509
# Poissons Ratio (z) = 0.23945 0.52084
#
# Static dielectric constant tensor:
#      x y z
#    x 1.698220 0.000000 0.007350 
#    y 0.000000 1.733630 0.000000 
#    z 0.007350 0.000000 1.722790 
# 
# From -- ./inp_files/278031.got.cif
#   From: 2010.05.17/outbox.ucp.g08.bks.cvg/sg12_140_cif.got.tgz:278031.got - 2010.06.11 11:47:21.
