data_PCOD9225859
_publ_section_title
;
Structure prediction by ZEFSAII (Michael W. Deem and Ramdas Pophale) SiO2 
 PCOD9225859
Probable space group: C 2/M
;
_chemical_formula_sum "Si O2"
_cell_formula_units_Z 24
_cell_length_a 15.000000
_cell_length_b 15.000000
_cell_length_c 30.000000
_cell_angle_alpha 90.000000
_cell_angle_beta 160.000000
_cell_angle_gamma 90.000000
_cell_volume 2308.635967
_symmetry_space_group_name_H-M "C 2/M"
_symmetry_group_IT_number 12
_symmetry_cell_setting 'monoclinic'
loop_
_space_group_symop_operation_xyz
x,y,z
-x,y,-z
-x,-y,-z
x,-y,z
1/2+x,1/2+y,z
1/2-x,1/2+y,-z
1/2-x,1/2-y,-z
1/2+x,1/2-y,z
loop_
_atom_site_type_symbol
_atom_site_label
_atom_site_fract_x
_atom_site_fract_y
_atom_site_fract_z
Si Si1 0.194173 0.347524 0.955630
Si Si2 0.764850 0.903771 0.806071
Si Si3 0.270398 0.713062 0.613044
Si Si4 0.221581 0.722540 0.871379
Si Si5 0.886256 0.897872 0.294603
Si Si6 0.795579 0.898200 0.467400
O O1 0.186696 0.339278 0.898219
O O2 0.922994 0.379889 0.848354
O O3 0.250000 0.250000 0.000000
O O4 0.464066 0.397573 0.092105
O O5 0.742656 0.834113 0.835750
O O6 0.502468 0.895043 0.654079
O O7 0.755796 0.000000 0.824204
O O8 0.464246 0.719683 0.746011
O O9 0.443204 0.665391 0.656634
O O10 0.198916 0.813183 0.562255
O O11 0.000000 0.668827 0.500000
O O12 0.500000 0.772368 0.000000
O O13 0.996026 0.886350 0.396069
O O14 0.929207 0.000000 0.301365
O O15 0.827773 0.000000 0.464235
#
# Coordination Sequence:
#
# PCOD9225859 Si02
#       6
#     8   8   8   8   8   8
#     4  11  21  35  57  81 109 143 183 231 281 331
#     4   9  18  33  54  81 112 142 172 213 272 339
#     4  11  22  37  57  79 110 151 192 234 282 332
#     4   9  19  34  54  81 109 139 176 224 281 337
#     4  11  23  38  57  83 115 151 193 235 275 327
#     4   9  19  36  58  87 118 144 179 230 286 342
#
# _framework density 10.395749
#
# number of rings (size 3 to 8) (size 9 to 14) (size 15 to 20)
#    0.000    2.000    0.000    5.000    0.000    5.667 
#    0.000    3.333    0.000    5.500    0.000    0.000 
#    0.000    0.000    0.000    0.000    0.000    0.000 
#
# Total GULP energy -133612.631043 kJ/mol
# GULP energy per Si atom -5567.192960 kJ/mol
# Density = 1.037209 g / cm^3
# Si number density = 10.395749 Si / 1000 Ang^3
#
#
#
# Elastic Constant Matrix: (Units=GPa)
#
#
# Indices 1 2 3 4 5 6 
#
# 1 25.3354 12.0871 12.8872 -0.0080 34.4405 -0.0050
# 2 12.0871 64.9806 23.0161 0.0238 3.9833 -0.0214
# 3 12.8872 23.0161 110.3006 -0.0042 39.5570 -0.0216
# 4 -0.0080 0.0238 -0.0042 47.3147 0.0181 -18.3024
# 5 34.4405 3.9833 39.5570 0.0181 34.5639 -0.0079
# 6 -0.0050 -0.0214 -0.0216 -18.3024 -0.0079 0.7598
#
#
#
# Elastic Compliance Matrix: (Units=1/GPa)
#
#
# Indices 1 2 3 4 5 6 
#
# 1 -0.041780 0.011028 -0.020174 -0.000001 0.063449 0.000098
# 2 0.011028 0.013957 0.000537 -0.000016 -0.013212 -0.000041
# 3 -0.020174 0.000537 0.006995 -0.000009 0.012035 -0.000003
# 4 -0.000001 -0.000016 -0.000009 -0.002541 0.000000 -0.061206
# 5 0.063449 -0.013212 0.012035 0.000000 -0.046541 -0.000094
# 6 0.000098 -0.000041 -0.000003 -0.061206 -0.000094 -0.158228
#
#
# Mechanical properties :
#
#
# Convention : Reuss Voigt Hill
#
# Bulk Modulus (GPa) = -26.28406 32.95525 3.33560
# Shear Modulus (GPa) = -22.36121 26.70277 2.17078
#
# Velocity S-wave (km/s) = -3.28304 3.58762 1.02291
# Velocity P-wave (km/s) = 5.20003 5.74857 1.73289
#
# Compressibility (1/GPa) = -0.03804588
#
# Stress axis : x y z
#
# Youngs Moduli (GPa) = -23.93471 71.64630 142.95659
#
# Poissons Ratio (x) = -0.79011 2.88405
# Poissons Ratio (y) = 0.26395 -0.07681
# Poissons Ratio (z) = -0.48287 -0.03849
#
# Static dielectric constant tensor:
#      x y z
#    x 1.744770 0.000010 0.015530 
#    y 0.000010 1.659590 0.000030 
#    z 0.015530 0.000030 1.845520 
# 
# From -- ./inp_files/73587.got.cif
#   From: 2010.05.17/outbox.ucp.g08.bks.cvg/sg12_37_cif.got.tgz:73587.got - 2010.06.11 11:47:21.
