data_PCOD9225362
_publ_section_title
;
Structure prediction by ZEFSAII (Michael W. Deem and Ramdas Pophale) SiO2 
 PCOD9225362
Probable space group: C 2/M
;
_chemical_formula_sum "Si O2"
_cell_formula_units_Z 32
_cell_length_a 15.000000
_cell_length_b 9.000000
_cell_length_c 30.000000
_cell_angle_alpha 90.000000
_cell_angle_beta 50.000000
_cell_angle_gamma 90.000000
_cell_volume 3102.479995
_symmetry_space_group_name_H-M "C 2/M"
_symmetry_group_IT_number 12
_symmetry_cell_setting 'monoclinic'
loop_
_space_group_symop_operation_xyz
x,y,z
-x,y,-z
-x,-y,-z
x,-y,z
1/2+x,1/2+y,z
1/2-x,1/2+y,-z
1/2-x,1/2-y,-z
1/2+x,1/2-y,z
loop_
_atom_site_type_symbol
_atom_site_label
_atom_site_fract_x
_atom_site_fract_y
_atom_site_fract_z
Si Si1 0.187289 0.322229 0.753323
Si Si2 0.362667 0.175282 0.942777
Si Si3 0.612546 0.826032 0.495052
Si Si4 0.789449 0.167987 0.880545
Si Si5 0.391214 0.320369 0.127032
Si Si6 0.507565 0.333105 0.746887
Si Si7 0.872468 0.168556 0.418009
Si Si8 0.921755 0.328984 0.688792
O O1 0.172398 0.500000 0.761183
O O2 0.150935 0.244395 0.811711
O O3 0.110606 0.248813 0.739423
O O4 0.320494 0.276147 0.702935
O O5 0.337057 0.211824 0.899864
O O6 0.476562 0.265469 0.920813
O O7 0.375150 0.000000 0.946938
O O8 0.250000 0.250000 0.000000
O O9 0.500000 0.795944 0.500000
O O10 0.746344 0.822752 0.434496
O O11 0.626714 0.705564 0.529699
O O12 0.598002 0.000000 0.514845
O O13 0.685237 0.240162 0.886141
O O14 0.900419 0.146566 0.814139
O O15 0.759297 0.000000 0.907732
O O16 0.382089 0.500000 0.129149
O O17 0.541415 0.500000 0.720171
O O18 0.453144 0.226591 0.727606
O O19 0.958444 0.294940 0.373934
O O20 0.915454 0.000000 0.397698
O O21 0.886075 0.500000 0.698252
#
# Coordination Sequence:
#
# PCOD9225362 Si02
#       8
#     8   8   8   8   8   8   8   8
#     4  12  24  40  63  92 124 163 210 257 312 374
#     4  12  26  45  68  95 128 164 207 261 316 374
#     4   9  19  38  64  90 120 163 210 256 313 377
#     4  11  23  41  67  95 125 163 207 256 309 373
#     4  12  24  41  66  95 126 163 207 253 310 374
#     4  11  23  40  64  92 125 164 209 256 310 373
#     4  10  21  38  60  89 126 163 206 262 316 371
#     4  12  25  41  62  90 129 170 213 263 316 371
#
# _framework density 10.314329000000001
#
# number of rings (size 3 to 8) (size 9 to 14) (size 15 to 20)
#    0.000    0.875    2.500    5.625    0.000    3.250 
#    0.000    6.250    0.000    0.000    0.000    0.000 
#    0.000    0.000    0.000    0.000    0.000    0.000 
#
# Total GULP energy -178472.403991 kJ/mol
# GULP energy per Si atom -5577.262625 kJ/mol
# Density = 1.029085 g / cm^3
# Si number density = 10.314329 Si / 1000 Ang^3
#
#
#
# Elastic Constant Matrix: (Units=GPa)
#
#
# Indices 1 2 3 4 5 6 
#
# 1 148.7654 25.8277 12.6439 0.0000 -32.1935 0.0000
# 2 25.8277 140.3933 15.2735 0.0000 -10.9736 -0.0001
# 3 12.6439 15.2735 41.6058 0.0000 -12.7768 0.0000
# 4 0.0000 0.0000 0.0000 29.6407 0.0000 -2.5844
# 5 -32.1935 -10.9736 -12.7768 0.0000 22.0866 0.0000
# 6 0.0000 -0.0001 0.0000 -2.5844 0.0000 33.3246
#
#
#
# Elastic Compliance Matrix: (Units=1/GPa)
#
#
# Indices 1 2 3 4 5 6 
#
# 1 0.010018 -0.000861 0.001975 0.000000 0.015318 0.000000
# 2 -0.000861 0.007615 -0.002137 0.000000 0.001293 0.000000
# 3 0.001975 -0.002137 0.030130 0.000000 0.019248 0.000000
# 4 0.000000 0.000000 0.000000 0.033967 0.000000 0.002634
# 5 0.015318 0.001293 0.019248 0.000000 0.079381 0.000000
# 6 0.000000 0.000000 0.000000 0.002634 0.000000 0.030212
#
#
# Mechanical properties :
#
#
# Convention : Reuss Voigt Hill
#
# Bulk Modulus (GPa) = 21.87276 48.69497 35.28386
# Shear Modulus (GPa) = 23.96853 35.47833 29.72343
#
# Velocity S-wave (km/s) = 3.41237 4.15161 3.80001
# Velocity P-wave (km/s) = 5.11388 6.82920 6.03282
#
# Compressibility (1/GPa) = 0.04571898
#
# Stress axis : x y z
#
# Youngs Moduli (GPa) = 99.81618 131.32518 33.18949
#
# Poissons Ratio (x) = 0.11303 -0.06556
# Poissons Ratio (y) = 0.08591 0.07092
# Poissons Ratio (z) = -0.19718 0.28062
#
# Static dielectric constant tensor:
#      x y z
#    x 1.730830 0.000000 0.045700 
#    y 0.000000 1.360850 0.000000 
#    z 0.045700 0.000000 1.918440 
# 
# From -- ./inp_files/375414.got.cif
#   From: 2010.05.17/outbox.ucp.g08.bks.cvg/sg12_188_cif.got.tgz:375414.got - 2010.06.11 11:47:21.
