data_PCOD9225400
_publ_section_title
;
Structure prediction by ZEFSAII (Michael W. Deem and Ramdas Pophale) SiO2 
 PCOD9225400
Probable space group: C 2/M
;
_chemical_formula_sum "Si O2"
_cell_formula_units_Z 28
_cell_length_a 30.000000
_cell_length_b 9.000000
_cell_length_c 12.000000
_cell_angle_alpha 90.000000
_cell_angle_beta 120.000000
_cell_angle_gamma 90.000000
_cell_volume 2805.922308
_symmetry_space_group_name_H-M "C 2/M"
_symmetry_group_IT_number 12
_symmetry_cell_setting 'monoclinic'
loop_
_space_group_symop_operation_xyz
x,y,z
-x,y,-z
-x,-y,-z
x,-y,z
1/2+x,1/2+y,z
1/2-x,1/2+y,-z
1/2-x,1/2-y,-z
1/2+x,1/2-y,z
loop_
_atom_site_type_symbol
_atom_site_label
_atom_site_fract_x
_atom_site_fract_y
_atom_site_fract_z
Si Si1 0.077353 0.674694 0.880202
Si Si2 0.106324 0.677168 0.366590
Si Si3 0.011498 0.320167 0.391639
Si Si4 0.331408 0.667475 0.086451
Si Si5 0.286049 0.325956 0.456497
Si Si6 0.756717 0.331596 0.842084
Si Si7 0.939024 0.823338 0.912370
O O1 0.072943 0.500000 0.896838
O O2 0.123731 0.712996 0.855775
O O3 0.026985 0.731143 0.753084
O O4 0.085681 0.759319 0.005965
O O5 0.108744 0.500000 0.355682
O O6 0.067830 0.713026 0.419104
O O7 0.160239 0.744285 0.466925
O O8 0.084607 0.746605 0.225574
O O9 0.005411 0.500000 0.387605
O O10 0.000000 0.261720 0.500000
O O11 0.351667 0.500000 0.102671
O O12 0.294059 0.676714 0.145201
O O13 0.296081 0.711377 0.937413
O O14 0.292861 0.500000 0.487400
O O15 0.250000 0.250000 0.500000
O O16 0.259689 0.309915 0.303974
O O17 0.778163 0.500000 0.882912
O O18 0.932477 0.000000 0.897096
O O19 0.000000 0.789892 0.000000
#
# Coordination Sequence:
#
# PCOD9225400 Si02
#       7
#     8   8   8   8   8   8   8
#     4  11  22  37  62  91 123 160 201 248 301 363
#     4  11  23  41  66  92 123 163 206 254 309 365
#     4   9  20  38  60  91 127 163 204 247 297 365
#     4  10  21  38  62  91 121 154 200 254 307 361
#     4  11  25  44  64  89 123 162 209 258 309 367
#     4   9  21  42  63  85 119 160 203 252 306 367
#     4  11  23  40  62  87 121 158 201 251 299 356
#
# _framework density 9.9788940000000004
#
# number of rings (size 3 to 8) (size 9 to 14) (size 15 to 20)
#    0.000    1.714    1.429    2.143    4.000    2.286 
#    0.000    0.000    0.000    3.429    0.000    0.000 
#    0.000    0.000    0.000    0.000    0.000    0.000 
#
# Total GULP energy -156338.576792 kJ/mol
# GULP energy per Si atom -5583.520600 kJ/mol
# Density = 0.995618 g / cm^3
# Si number density = 9.978894 Si / 1000 Ang^3
#
#
#
# Elastic Constant Matrix: (Units=GPa)
#
#
# Indices 1 2 3 4 5 6 
#
# 1 58.1209 28.1927 28.8901 0.0000 -8.9193 0.0000
# 2 28.1927 27.9437 4.8132 0.0000 -18.8145 0.0000
# 3 28.8901 4.8132 10.4729 0.0000 -37.0583 0.0000
# 4 0.0000 0.0000 0.0000 138.1311 0.0000 -56.5705
# 5 -8.9193 -18.8145 -37.0583 0.0000 14.5751 0.0000
# 6 0.0000 0.0000 0.0000 -56.5705 0.0000 58.2692
#
#
#
# Elastic Compliance Matrix: (Units=1/GPa)
#
#
# Indices 1 2 3 4 5 6 
#
# 1 0.021710 -0.011368 0.007450 0.000000 0.017554 0.000000
# 2 -0.011368 0.044774 -0.023844 0.000000 -0.009785 0.000000
# 3 0.007450 -0.023844 0.000862 0.000000 -0.024030 0.000000
# 4 0.000000 0.000000 0.000000 0.012018 0.000000 0.011667
# 5 0.017554 -0.009785 -0.024030 0.000000 0.005623 0.000000
# 6 0.000000 0.000000 0.000000 0.011667 0.000000 0.028489
#
#
# Mechanical properties :
#
#
# Convention : Reuss Voigt Hill
#
# Bulk Modulus (GPa) = 84.58857 24.48105 54.53481
# Shear Modulus (GPa) = 28.91177 44.50452 36.70814
#
# Velocity S-wave (km/s) = 3.81024 4.72734 4.29335
# Velocity P-wave (km/s) = 7.86339 6.48768 7.20843
#
# Compressibility (1/GPa) = 0.01182193
#
# Stress axis : x y z
#
# Youngs Moduli (GPa) = 46.06114 22.33449 1160.57206
#
# Poissons Ratio (x) = 0.25389 -8.64651
# Poissons Ratio (y) = 0.52362 27.67299
# Poissons Ratio (z) = -0.34317 0.53255
#
# Static dielectric constant tensor:
#      x y z
#    x 1.709880 0.000000 -0.000860 
#    y 0.000000 1.689000 0.000000 
#    z -0.000860 0.000000 1.666450 
# 
# From -- ./inp_files/187710.got.cif
#   From: 2010.05.17/outbox.ucp.g08.bks.cvg/sg12_94_cif.got.tgz:187710.got - 2010.06.11 11:47:21.
