data_PCOD9225978
_publ_section_title
;
Structure prediction by ZEFSAII (Michael W. Deem and Ramdas Pophale) SiO2 
 PCOD9225978
Probable space group: C 2/M
;
_chemical_formula_sum "Si O2"
_cell_formula_units_Z 18
_cell_length_a 15.000000
_cell_length_b 18.000000
_cell_length_c 21.000000
_cell_angle_alpha 90.000000
_cell_angle_beta 20.000000
_cell_angle_gamma 90.000000
_cell_volume 1939.254213
_symmetry_space_group_name_H-M "C 2/M"
_symmetry_group_IT_number 12
_symmetry_cell_setting 'monoclinic'
loop_
_space_group_symop_operation_xyz
x,y,z
-x,y,-z
-x,-y,-z
x,-y,z
1/2+x,1/2+y,z
1/2-x,1/2+y,-z
1/2-x,1/2-y,-z
1/2+x,1/2-y,z
loop_
_atom_site_type_symbol
_atom_site_label
_atom_site_fract_x
_atom_site_fract_y
_atom_site_fract_z
Si Si1 0.323275 0.090775 0.182601
Si Si2 0.916887 0.088913 0.130113
Si Si3 0.500000 0.171917 0.500000
Si Si4 0.326622 0.706794 0.513512
Si Si5 0.135304 0.334227 0.091659
O O1 0.494778 0.127417 0.124914
O O2 0.068351 0.146736 0.347143
O O3 0.267218 0.000000 0.230270
O O4 0.500000 0.095135 0.000000
O O5 0.667196 0.123846 0.336040
O O6 0.888873 0.000000 0.146536
O O7 0.138682 0.115381 0.030403
O O8 0.000000 0.112183 0.000000
O O9 0.634727 0.229908 0.458294
O O10 0.250000 0.750000 0.500000
O O11 0.075491 0.666247 0.710185
O O12 0.250000 0.250000 0.000000
#
# Coordination Sequence:
#
# PCOD9225978 Si02
#       5
#     8   8   4   8   8
#     4  11  25  44  66 100 140 176 221 286 352 411
#     4  11  25  44  67 100 137 177 227 282 341 409
#     4  12  23  46  67 100 132 180 228 282 345 404
#     4  12  24  42  69  98 131 175 229 276 339 415
#     4  12  22  42  68  96 133 177 224 276 335 406
#
# _framework density 9.2819190000000003
#
# number of rings (size 3 to 8) (size 9 to 14) (size 15 to 20)
#    0.000    0.444    4.444    3.667    0.000    4.444 
#    0.000    1.111    0.000    0.000    0.000    0.000 
#    0.000    0.000    0.000    0.000    0.000    0.000 
#
# Total GULP energy -100214.466735 kJ/mol
# GULP energy per Si atom -5567.470374 kJ/mol
# Density = 0.926079 g / cm^3
# Si number density = 9.281919 Si / 1000 Ang^3
#
#
#
# Elastic Constant Matrix: (Units=GPa)
#
#
# Indices 1 2 3 4 5 6 
#
# 1 115.5245 18.3305 7.7387 -0.1350 6.8397 0.0379
# 2 18.3305 107.8892 31.5486 -0.1102 -2.7695 0.0134
# 3 7.7387 31.5486 114.5154 -0.1695 9.9213 0.0361
# 4 -0.1350 -0.1102 -0.1695 48.7725 -0.0260 4.7657
# 5 6.8397 -2.7695 9.9213 -0.0260 40.1336 -0.0006
# 6 0.0379 0.0134 0.0361 4.7657 -0.0006 42.3257
#
#
#
# Elastic Compliance Matrix: (Units=1/GPa)
#
#
# Indices 1 2 3 4 5 6 
#
# 1 0.009003 -0.001561 -0.000037 0.000021 -0.001633 -0.000010
# 2 -0.001561 0.010430 -0.002916 0.000010 0.001707 -0.000001
# 3 -0.000037 -0.002916 0.009764 0.000027 -0.002609 -0.000010
# 4 0.000021 0.000010 0.000027 0.020732 0.000004 -0.002334
# 5 -0.001633 0.001707 -0.002609 0.000004 0.025958 0.000003
# 6 -0.000010 -0.000001 -0.000010 -0.002334 0.000003 0.023889
#
#
# Mechanical properties :
#
#
# Convention : Reuss Voigt Hill
#
# Bulk Modulus (GPa) = 49.57706 50.35164 49.96435
# Shear Modulus (GPa) = 43.27996 44.93377 44.10687
#
# Velocity S-wave (km/s) = 4.83371 4.92520 4.87967
# Velocity P-wave (km/s) = 7.61034 7.71530 7.66300
#
# Compressibility (1/GPa) = 0.02017062
#
# Stress axis : x y z
#
# Youngs Moduli (GPa) = 111.07423 95.87350 102.41369
#
# Poissons Ratio (x) = 0.14963 0.00378
# Poissons Ratio (y) = 0.17335 0.29863
# Poissons Ratio (z) = 0.00410 0.27956
#
# Static dielectric constant tensor:
#      x y z
#    x 1.643370 0.000040 -0.017640 
#    y 0.000040 1.676000 -0.000110 
#    z -0.017640 -0.000110 1.710680 
# 
# From -- ./inp_files/311448.got.cif
#   From: 2010.05.17/outbox.ucp.g08.bks.cvg/sg12_156_cif.got.tgz:311448.got - 2010.06.11 11:47:21.
