data_PCOD9225237
_publ_section_title
;
Structure prediction by ZEFSAII (Michael W. Deem and Ramdas Pophale) SiO2 
 PCOD9225237
Probable space group: C 2/M
;
_chemical_formula_sum "Si O2"
_cell_formula_units_Z 32
_cell_length_a 30.000000
_cell_length_b 9.000000
_cell_length_c 24.000000
_cell_angle_alpha 90.000000
_cell_angle_beta 150.000000
_cell_angle_gamma 90.000000
_cell_volume 3240.000000
_symmetry_space_group_name_H-M "C 2/M"
_symmetry_group_IT_number 12
_symmetry_cell_setting 'monoclinic'
loop_
_space_group_symop_operation_xyz
x,y,z
-x,y,-z
-x,-y,-z
x,-y,z
1/2+x,1/2+y,z
1/2-x,1/2+y,-z
1/2-x,1/2-y,-z
1/2+x,1/2-y,z
loop_
_atom_site_type_symbol
_atom_site_label
_atom_site_fract_x
_atom_site_fract_y
_atom_site_fract_z
Si Si1 0.390618 0.179031 0.723833
Si Si2 0.514845 0.674985 0.764946
Si Si3 0.653972 0.824417 0.741466
Si Si4 0.553904 0.825337 0.976287
Si Si5 0.483940 0.679375 0.606127
Si Si6 0.173139 0.175201 0.014045
Si Si7 0.222725 0.821370 0.607830
Si Si8 0.702415 0.676828 0.202003
O O1 0.441962 0.247144 0.726134
O O2 0.288961 0.226775 0.628584
O O3 0.391561 0.000000 0.719154
O O4 0.456357 0.215419 0.847410
O O5 0.492087 0.500000 0.741615
O O6 0.512565 0.725531 0.699224
O O7 0.616085 0.688817 0.896562
O O8 0.559320 0.742977 0.645980
O O9 0.719816 0.789321 0.760286
O O10 0.635588 0.000000 0.719247
O O11 0.721979 0.794624 0.866985
O O12 0.603826 0.729599 0.076831
O O13 0.554850 0.000000 0.991239
O O14 0.620035 0.787798 0.996408
O O15 0.485441 0.500000 0.602306
O O16 0.379892 0.728308 0.493789
O O17 0.162114 0.000000 0.021028
O O18 0.272271 0.766504 0.716205
O O19 0.219707 0.000000 0.601061
O O20 0.703324 0.500000 0.211274
#
# Coordination Sequence:
#
# PCOD9225237 Si02
#       8
#     8   8   8   8   8   8   8   8
#     4   9  19  35  55  79 107 139 173 211 257 310
#     4   9  18  34  55  79 108 139 172 213 260 308
#     4   9  19  35  54  76 104 136 169 213 265 314
#     4   9  16  29  52  80 106 133 167 208 257 312
#     4  10  22  37  53  76 105 139 180 221 258 302
#     4   8  15  30  51  76 107 138 167 206 258 313
#     4  10  22  39  54  73 105 141 179 219 258 305
#     4  10  21  37  56  79 106 136 171 213 264 315
#
# _framework density 9.8765429999999999
#
# number of rings (size 3 to 8) (size 9 to 14) (size 15 to 20)
#    0.000    2.750    0.000    1.500    0.000    6.500 
#    0.000    5.000    0.000    0.000    0.000    0.000 
#    0.000    0.000    0.000    0.000    0.000    0.000 
#
# Total GULP energy -178148.597987 kJ/mol
# GULP energy per Si atom -5567.143687 kJ/mol
# Density = 0.985406 g / cm^3
# Si number density = 9.876543 Si / 1000 Ang^3
#
#
#
# Elastic Constant Matrix: (Units=GPa)
#
#
# Indices 1 2 3 4 5 6 
#
# 1 49.6944 0.2877 0.1505 0.0000 21.0785 0.0000
# 2 0.2877 -3.5707 2.3602 0.0000 15.5962 0.0000
# 3 0.1505 2.3602 26.4295 0.0000 20.7968 0.0000
# 4 0.0000 0.0000 0.0000 19.7247 0.0000 7.1947
# 5 21.0785 15.5962 20.7968 0.0000 35.1282 0.0000
# 6 0.0000 0.0000 0.0000 7.1947 0.0000 24.2886
#
#
#
# Elastic Compliance Matrix: (Units=1/GPa)
#
#
# Indices 1 2 3 4 5 6 
#
# 1 0.023422 -0.025507 0.008036 0.000000 -0.007488 0.000000
# 2 -0.025507 -0.044471 -0.043926 0.000000 0.061055 0.000000
# 3 0.008036 -0.043926 0.056468 0.000000 -0.018750 0.000000
# 4 0.000000 0.000000 0.000000 0.056839 0.000000 -0.016837
# 5 -0.007488 0.061055 -0.018750 0.000000 0.016954 0.000000
# 6 0.000000 0.000000 0.000000 -0.016837 0.000000 0.046159
#
#
# Mechanical properties :
#
#
# Convention : Reuss Voigt Hill
#
# Bulk Modulus (GPa) = -11.44515 8.68333 -1.38091
# Shear Modulus (GPa) = 20.07720 20.47863 20.27792
#
# Velocity S-wave (km/s) = 3.19157 3.22332 3.20749
# Velocity P-wave (km/s) = 2.78834 4.27300 3.60787
#
# Compressibility (1/GPa) = -0.08737323
#
# Stress axis : x y z
#
# Youngs Moduli (GPa) = 42.69430 -22.48657 17.70924
#
# Poissons Ratio (x) = -0.57356 -0.14232
# Poissons Ratio (y) = 1.08899 0.77790
# Poissons Ratio (z) = -0.34311 -0.98774
#
# Static dielectric constant tensor:
#      x y z
#    x 1.728110 0.000000 -0.033260 
#    y 0.000000 1.667450 0.000000 
#    z -0.033260 0.000000 1.753470 
# 
# From -- ./inp_files/353506.got.cif
#   From: 2010.05.17/outbox.ucp.g08.bks.cvg/sg12_177_cif.got.tgz:353506.got - 2010.06.11 11:47:21.
