data_PCOD9225283
_publ_section_title
;
Structure prediction by ZEFSAII (Michael W. Deem and Ramdas Pophale) SiO2 
 PCOD9225283
Probable space group: C 2/M
;
_chemical_formula_sum "Si O2"
_cell_formula_units_Z 32
_cell_length_a 30.000000
_cell_length_b 9.000000
_cell_length_c 24.000000
_cell_angle_alpha 90.000000
_cell_angle_beta 30.000000
_cell_angle_gamma 90.000000
_cell_volume 3240.000000
_symmetry_space_group_name_H-M "C 2/M"
_symmetry_group_IT_number 12
_symmetry_cell_setting 'monoclinic'
loop_
_space_group_symop_operation_xyz
x,y,z
-x,y,-z
-x,-y,-z
x,-y,z
1/2+x,1/2+y,z
1/2-x,1/2+y,-z
1/2-x,1/2-y,-z
1/2+x,1/2-y,z
loop_
_atom_site_type_symbol
_atom_site_label
_atom_site_fract_x
_atom_site_fract_y
_atom_site_fract_z
Si Si1 0.257336 0.176490 0.233137
Si Si2 0.570511 0.672711 0.761895
Si Si3 0.738894 0.326044 0.651198
Si Si4 0.452109 0.831870 0.720695
Si Si5 0.861564 0.668260 0.422939
Si Si6 0.430145 0.677852 0.624266
Si Si7 0.880013 0.821498 0.010755
Si Si8 0.667206 0.676403 0.060693
O O1 0.247668 0.244783 0.305144
O O2 0.167526 0.206057 0.295176
O O3 0.337561 0.246534 0.110494
O O4 0.268622 0.000000 0.225479
O O5 0.555947 0.500000 0.761768
O O6 0.637343 0.677347 0.741308
O O7 0.609934 0.751780 0.664634
O O8 0.477544 0.732329 0.886097
O O9 0.765784 0.500000 0.628007
O O10 0.788447 0.260937 0.542877
O O11 0.554924 0.840907 0.625928
O O12 0.440663 0.756563 0.672748
O O13 0.412475 0.743216 0.816327
O O14 0.414379 0.000000 0.760040
O O15 0.832099 0.500000 0.440283
O O16 0.500000 0.723845 0.500000
O O17 0.441342 0.500000 0.620438
O O18 0.882507 0.000000 0.016698
O O19 0.826603 0.789440 0.011593
O O20 0.664505 0.500000 0.068859
O O21 0.750000 0.750000 0.000000
#
# Coordination Sequence:
#
# PCOD9225283 Si02
#       8
#     8   8   8   8   8   8   8   8
#     4  11  24  40  60  87 117 154 199 247 298 350
#     4  10  21  39  63  89 116 155 202 243 294 355
#     4  10  22  40  62  87 118 156 198 245 297 357
#     4  11  22  35  56  87 120 154 191 234 293 356
#     4  10  21  37  59  91 125 154 190 243 302 353
#     4  10  22  40  60  84 116 156 202 248 295 351
#     4  10  22  40  60  83 116 157 197 241 293 350
#     4  11  22  37  58  84 115 152 195 240 291 347
#
# _framework density 9.8765429999999999
#
# number of rings (size 3 to 8) (size 9 to 14) (size 15 to 20)
#    0.000    1.625    1.250    3.000    0.000    6.750 
#    0.000    2.500    0.000    0.000    0.000    0.000 
#    0.000    0.000    0.000    0.000    0.000    0.000 
#
# Total GULP energy -178510.607144 kJ/mol
# GULP energy per Si atom -5578.456473 kJ/mol
# Density = 0.985406 g / cm^3
# Si number density = 9.876543 Si / 1000 Ang^3
#
#
#
# Elastic Constant Matrix: (Units=GPa)
#
#
# Indices 1 2 3 4 5 6 
#
# 1 65.4197 33.6611 19.0256 0.0003 4.5859 0.0033
# 2 33.6611 49.6603 23.3907 0.0017 10.0452 -0.0002
# 3 19.0256 23.3907 90.7176 0.0024 12.1411 0.0033
# 4 0.0003 0.0017 0.0024 24.3369 0.0032 14.1517
# 5 4.5859 10.0452 12.1411 0.0032 24.4076 0.0014
# 6 0.0033 -0.0002 0.0033 14.1517 0.0014 28.4597
#
#
#
# Elastic Compliance Matrix: (Units=1/GPa)
#
#
# Indices 1 2 3 4 5 6 
#
# 1 0.023705 -0.016060 -0.001199 0.000003 0.002752 -0.000004
# 2 -0.016060 0.034959 -0.004418 -0.000003 -0.009173 0.000005
# 3 -0.001199 -0.004418 0.013006 0.000000 -0.004426 -0.000001
# 4 0.000003 -0.000003 0.000000 0.057804 -0.000005 -0.028743
# 5 0.002752 -0.009173 -0.004426 -0.000005 0.046431 0.000000
# 6 -0.000004 0.000005 -0.000001 -0.028743 0.000000 0.049430
#
#
# Mechanical properties :
#
#
# Convention : Reuss Voigt Hill
#
# Bulk Modulus (GPa) = 35.31523 39.77249 37.54386
# Shear Modulus (GPa) = 17.97735 24.08887 21.03311
#
# Velocity S-wave (km/s) = 3.02006 3.49592 3.26667
# Velocity P-wave (km/s) = 5.48436 6.03936 5.76854
#
# Compressibility (1/GPa) = 0.02831639
#
# Stress axis : x y z
#
# Youngs Moduli (GPa) = 42.18484 28.60482 76.88645
#
# Poissons Ratio (x) = 0.45939 0.09218
# Poissons Ratio (y) = 0.67749 0.33969
# Poissons Ratio (z) = 0.05058 0.12638
#
# Static dielectric constant tensor:
#      x y z
#    x 1.676570 0.000000 -0.107610 
#    y 0.000000 1.686440 0.000010 
#    z -0.107610 0.000010 1.898640 
# 
# From -- ./inp_files/353319.got.cif
#   From: 2010.05.17/outbox.ucp.g08.bks.cvg/sg12_177_cif.got.tgz:353319.got - 2010.06.11 11:47:21.
