data_PCOD9225153
_publ_section_title
;
Structure prediction by ZEFSAII (Michael W. Deem and Ramdas Pophale) SiO2 
 PCOD9225153
Probable space group: C 2/M
;
_chemical_formula_sum "Si O2"
_cell_formula_units_Z 28
_cell_length_a 18.000000
_cell_length_b 18.000000
_cell_length_c 27.000000
_cell_angle_alpha 90.000000
_cell_angle_beta 160.000000
_cell_angle_gamma 90.000000
_cell_volume 2991.992214
_symmetry_space_group_name_H-M "C 2/M"
_symmetry_group_IT_number 12
_symmetry_cell_setting 'monoclinic'
loop_
_space_group_symop_operation_xyz
x,y,z
-x,y,-z
-x,-y,-z
x,-y,z
1/2+x,1/2+y,z
1/2-x,1/2+y,-z
1/2-x,1/2-y,-z
1/2+x,1/2-y,z
loop_
_atom_site_type_symbol
_atom_site_label
_atom_site_fract_x
_atom_site_fract_y
_atom_site_fract_z
Si Si1 0.618974 0.583823 0.950243
Si Si2 0.449719 0.836905 0.656936
Si Si3 0.365153 0.913331 0.710240
Si Si4 0.877412 0.187490 0.874751
Si Si5 0.196287 0.659151 0.223105
Si Si6 0.483966 0.657568 0.666046
Si Si7 0.778248 0.089387 0.091399
O O1 0.533169 0.500000 0.900616
O O2 0.526694 0.633926 0.935884
O O3 0.589569 0.612007 0.875529
O O4 0.879008 0.581190 0.117465
O O5 0.374548 0.869367 0.663330
O O6 0.680249 0.857856 0.776811
O O7 0.476976 0.746505 0.674024
O O8 0.263482 0.860109 0.501892
O O9 0.265883 0.869150 0.696249
O O10 0.285021 0.000000 0.656323
O O11 0.813649 0.252632 0.795993
O O12 0.000000 0.220941 0.000000
O O13 0.379267 0.636806 0.297782
O O14 0.961543 0.625501 0.060959
O O15 0.593994 0.616359 0.780575
O O16 0.755519 0.000000 0.076231
#
# Coordination Sequence:
#
# PCOD9225153 Si02
#       7
#     8   8   8   8   8   8   8
#     4   9  20  35  55  87 117 143 184 238 289 333
#     4  10  22  39  56  83 116 151 196 237 278 348
#     4  10  21  37  58  86 118 151 187 236 293 342
#     4  11  20  35  60  89 110 149 197 234 288 338
#     4  10  21  35  58  88 113 143 191 240 285 342
#     4  10  22  39  57  80 118 156 189 234 289 335
#     4  10  21  37  59  86 116 152 191 235 290 346
#
# _framework density 9.3583130000000008
#
# number of rings (size 3 to 8) (size 9 to 14) (size 15 to 20)
#    0.000    2.000    1.429    3.429    2.000    4.857 
#    0.000    1.429    0.000    1.714    0.000    0.000 
#    0.000    0.000    0.000    0.000    0.000    0.000 
#
# Total GULP energy -155939.720778 kJ/mol
# GULP energy per Si atom -5569.275742 kJ/mol
# Density = 0.933701 g / cm^3
# Si number density = 9.358313 Si / 1000 Ang^3
#
#
#
# Elastic Constant Matrix: (Units=GPa)
#
#
# Indices 1 2 3 4 5 6 
#
# 1 129.9921 44.3783 22.2562 -0.0756 0.4006 0.0079
# 2 44.3783 49.7350 1.9560 -0.0434 -0.7521 0.0084
# 3 22.2562 1.9560 55.8480 -0.1801 -6.5515 0.0084
# 4 -0.0756 -0.0434 -0.1801 6.7181 0.0348 -6.6749
# 5 0.4006 -0.7521 -6.5515 0.0348 16.1778 0.0052
# 6 0.0079 0.0084 0.0084 -6.6749 0.0052 32.7755
#
#
#
# Elastic Compliance Matrix: (Units=1/GPa)
#
#
# Indices 1 2 3 4 5 6 
#
# 1 0.012185 -0.010725 -0.004802 -0.000057 -0.002745 -0.000010
# 2 -0.010725 0.029582 0.003602 0.000181 0.003099 0.000030
# 3 -0.004802 0.003602 0.020713 0.000593 0.008673 0.000114
# 4 -0.000057 0.000181 0.000593 0.186634 -0.000164 0.038009
# 5 -0.002745 0.003099 0.008673 -0.000164 0.065538 -0.000046
# 6 -0.000010 0.000030 0.000114 0.038009 -0.000046 0.038251
#
#
# Mechanical properties :
#
#
# Convention : Reuss Voigt Hill
#
# Bulk Modulus (GPa) = 25.88739 41.41733 33.65236
# Shear Modulus (GPa) = 12.83269 22.26659 17.54964
#
# Velocity S-wave (km/s) = 2.62130 3.45290 3.06543
# Velocity P-wave (km/s) = 4.79821 6.17036 5.52703
#
# Compressibility (1/GPa) = 0.03862885
#
# Stress axis : x y z
#
# Youngs Moduli (GPa) = 82.06837 33.80436 48.27935
#
# Poissons Ratio (x) = 0.36256 0.23186
# Poissons Ratio (y) = 0.88020 -0.17392
# Poissons Ratio (z) = 0.39413 -0.12177
#
# Static dielectric constant tensor:
#      x y z
#    x 1.647940 0.000000 -0.004990 
#    y 0.000000 1.658330 -0.000010 
#    z -0.004990 -0.000010 1.678060 
# 
# From -- ./inp_files/364489.got.cif
#   From: 2010.05.17/outbox.ucp.g08.bks.cvg/sg12_183_cif.got.tgz:364489.got - 2010.06.11 11:47:21.
