data_PCOD9225302
_publ_section_title
;
Structure prediction by ZEFSAII (Michael W. Deem and Ramdas Pophale) SiO2 
 PCOD9225302
Probable space group: C 2/M
;
_chemical_formula_sum "Si O2"
_cell_formula_units_Z 28
_cell_length_a 21.000000
_cell_length_b 30.000000
_cell_length_c 9.000000
_cell_angle_alpha 90.000000
_cell_angle_beta 150.000000
_cell_angle_gamma 90.000000
_cell_volume 2835.000000
_symmetry_space_group_name_H-M "C 2/M"
_symmetry_group_IT_number 12
_symmetry_cell_setting 'monoclinic'
loop_
_space_group_symop_operation_xyz
x,y,z
-x,y,-z
-x,-y,-z
x,-y,z
1/2+x,1/2+y,z
1/2-x,1/2+y,-z
1/2-x,1/2-y,-z
1/2+x,1/2-y,z
loop_
_atom_site_type_symbol
_atom_site_label
_atom_site_fract_x
_atom_site_fract_y
_atom_site_fract_z
Si Si1 0.678779 0.449365 0.560178
Si Si2 0.369559 0.804877 0.645438
Si Si3 0.641520 0.053354 0.335340
Si Si4 0.721607 0.119327 0.738781
Si Si5 0.375868 0.700302 0.644466
Si Si6 0.151650 0.450094 0.818371
Si Si7 0.986475 0.129880 0.650346
O O1 0.628835 0.500000 0.441460
O O2 0.742711 0.432767 0.538150
O O3 0.576049 0.416384 0.421906
O O4 0.798813 0.451767 0.913534
O O5 0.356282 0.838348 0.479384
O O6 0.364651 0.753054 0.585883
O O7 0.250753 0.812212 0.518382
O O8 0.500000 0.812100 0.000000
O O9 0.670164 0.076821 0.545769
O O10 0.642873 0.000000 0.344815
O O11 0.500000 0.067054 0.000000
O O12 0.708049 0.096968 0.872929
O O13 0.867749 0.130381 0.000929
O O14 0.404321 0.669164 0.560424
O O15 0.500000 0.695449 0.000000
O O16 0.191229 0.500000 0.836797
O O17 0.000000 0.447998 0.500000
O O18 0.000000 0.133365 0.500000
#
# Coordination Sequence:
#
# PCOD9225302 Si02
#       7
#     8   8   8   8   8   8   8
#     4  10  22  38  58  88 124 166 207 253 305 363
#     4  10  22  40  69 100 119 154 208 264 313 379
#     4  10  21  37  60  91 126 158 202 263 316 359
#     4  12  22  38  62  92 120 162 210 256 311 369
#     4  10  21  43  70  90 125 164 205 250 323 384
#     4  10  21  38  59  85 125 169 208 250 307 371
#     4  12  25  42  61  88 127 170 206 255 311 370
#
# _framework density 9.8765429999999999
#
# number of rings (size 3 to 8) (size 9 to 14) (size 15 to 20)
#    0.000    1.429    2.857    2.571    0.000    4.857 
#    0.000    2.857    0.000    0.000    0.000    0.000 
#    0.000    0.000    0.000    0.000    0.000    0.000 
#
# Total GULP energy -156173.109831 kJ/mol
# GULP energy per Si atom -5577.611065 kJ/mol
# Density = 0.985406 g / cm^3
# Si number density = 9.876543 Si / 1000 Ang^3
#
#
#
# Elastic Constant Matrix: (Units=GPa)
#
#
# Indices 1 2 3 4 5 6 
#
# 1 56.6344 26.3405 -10.0262 0.0000 13.0469 0.0000
# 2 26.3405 75.3402 1.0013 0.0000 10.7754 0.0000
# 3 -10.0262 1.0013 59.4381 0.0000 17.6536 0.0000
# 4 0.0000 0.0000 0.0000 8.4606 0.0000 13.7599
# 5 13.0469 10.7754 17.6536 0.0000 24.9955 0.0000
# 6 0.0000 0.0000 0.0000 13.7599 0.0000 30.7937
#
#
#
# Elastic Compliance Matrix: (Units=1/GPa)
#
#
# Indices 1 2 3 4 5 6 
#
# 1 0.026814 -0.006922 0.010010 0.000000 -0.018082 0.000000
# 2 -0.006922 0.016121 -0.000567 0.000000 -0.002936 0.000000
# 3 0.010010 -0.000567 0.025311 0.000000 -0.022857 0.000000
# 4 0.000000 0.000000 0.000000 0.432508 0.000000 -0.193263
# 5 -0.018082 -0.002936 -0.022857 0.000000 0.066854 0.000000
# 6 0.000000 0.000000 0.000000 -0.193263 0.000000 0.118832
#
#
# Mechanical properties :
#
#
# Convention : Reuss Voigt Hill
#
# Bulk Modulus (GPa) = 13.64470 25.11600 19.38035
# Shear Modulus (GPa) = 7.08389 24.45643 15.77016
#
# Velocity S-wave (km/s) = 1.89579 3.52249 2.82860
# Velocity P-wave (km/s) = 3.42266 5.41170 4.52776
#
# Compressibility (1/GPa) = 0.07328855
#
# Stress axis : x y z
#
# Youngs Moduli (GPa) = 37.29385 62.03268 39.50850
#
# Poissons Ratio (x) = 0.42937 -0.39549
# Poissons Ratio (y) = 0.25813 0.02240
# Poissons Ratio (z) = -0.37332 0.03518
#
# Static dielectric constant tensor:
#      x y z
#    x 1.463060 0.000000 0.145620 
#    y 0.000000 1.705920 0.000000 
#    z 0.145620 0.000000 1.573730 
# 
# From -- ./inp_files/91635.got.cif
#   From: 2010.05.17/outbox.ucp.g08.bks.cvg/sg12_46_cif.got.tgz:91635.got - 2010.06.11 11:47:21.
