data_PCOD9225762
_publ_section_title
;
Structure prediction by ZEFSAII (Michael W. Deem and Ramdas Pophale) SiO2 
 PCOD9225762
Probable space group: C 2/M
;
_chemical_formula_sum "Si O2"
_cell_formula_units_Z 24
_cell_length_a 18.000000
_cell_length_b 30.000000
_cell_length_c 9.000000
_cell_angle_alpha 90.000000
_cell_angle_beta 30.000000
_cell_angle_gamma 90.000000
_cell_volume 2430.000000
_symmetry_space_group_name_H-M "C 2/M"
_symmetry_group_IT_number 12
_symmetry_cell_setting 'monoclinic'
loop_
_space_group_symop_operation_xyz
x,y,z
-x,y,-z
-x,-y,-z
x,-y,z
1/2+x,1/2+y,z
1/2-x,1/2+y,-z
1/2-x,1/2-y,-z
1/2+x,1/2-y,z
loop_
_atom_site_type_symbol
_atom_site_label
_atom_site_fract_x
_atom_site_fract_y
_atom_site_fract_z
Si Si1 0.587954 0.623898 0.196660
Si Si2 0.619756 0.548687 0.920181
Si Si3 0.034837 0.782924 0.617975
Si Si4 0.386266 0.203980 0.056243
Si Si5 0.402033 0.124866 0.801267
Si Si6 0.952267 0.553141 0.249934
O O1 0.500000 0.621056 0.500000
O O2 0.546497 0.671059 0.196432
O O3 0.556961 0.584170 0.141375
O O4 0.752827 0.618648 0.969516
O O5 0.641298 0.500000 0.953692
O O6 0.778078 0.562402 0.577849
O O7 0.500000 0.545032 0.000000
O O8 0.207930 0.785318 0.370708
O O9 0.000000 0.779213 0.500000
O O10 0.956804 0.742221 0.832773
O O11 0.500000 0.200870 0.000000
O O12 0.389344 0.158145 0.960134
O O13 0.500000 0.145172 0.500000
O O14 0.463203 0.079600 0.767160
O O15 0.976909 0.500000 0.219151
O O16 0.000000 0.566499 0.000000
#
# Coordination Sequence:
#
# PCOD9225762 Si02
#       6
#     8   8   8   8   8   8
#     4  11  24  43  65  95 132 169 217 267 327 387
#     4  10  23  42  64  94 130 172 218 268 328 388
#     4  11  24  45  67  94 130 171 212 269 326 390
#     4  12  26  43  67  98 130 167 220 267 327 391
#     4  12  24  42  66  95 126 174 217 270 326 385
#     4  10  23  42  65  94 130 171 216 269 324 384
#
# _framework density 9.8765429999999999
#
# number of rings (size 3 to 8) (size 9 to 14) (size 15 to 20)
#    0.000    1.000    5.000    2.000    4.667    3.333 
#    0.000    0.000    0.000    0.000    0.000    0.000 
#    0.000    0.000    0.000    0.000    0.000    0.000 
#
# Total GULP energy -133757.827778 kJ/mol
# GULP energy per Si atom -5573.242824 kJ/mol
# Density = 0.985406 g / cm^3
# Si number density = 9.876543 Si / 1000 Ang^3
#
#
#
# Elastic Constant Matrix: (Units=GPa)
#
#
# Indices 1 2 3 4 5 6 
#
# 1 69.7159 1.2755 -51.5306 0.0000 -24.9592 0.0000
# 2 1.2755 31.5727 -47.3214 0.0000 5.6142 0.0000
# 3 -51.5306 -47.3214 -94.5877 0.0000 -24.7036 0.0000
# 4 0.0000 0.0000 0.0000 37.7283 0.0000 14.4483
# 5 -24.9592 5.6142 -24.7036 0.0000 38.0738 0.0000
# 6 0.0000 0.0000 0.0000 14.4483 0.0000 37.6710
#
#
#
# Elastic Compliance Matrix: (Units=1/GPa)
#
#
# Indices 1 2 3 4 5 6 
#
# 1 0.013535 -0.008940 -0.004757 0.000000 0.007105 0.000000
# 2 -0.008940 0.026741 -0.005086 0.000000 -0.013103 0.000000
# 3 -0.004757 -0.005086 -0.004120 0.000000 -0.005041 0.000000
# 4 0.000000 0.000000 0.000000 0.031069 0.000000 -0.011916
# 5 0.007105 -0.013103 -0.005041 0.000000 0.029583 0.000000
# 6 0.000000 0.000000 0.000000 -0.011916 0.000000 0.031116
#
#
# Mechanical properties :
#
#
# Convention : Reuss Voigt Hill
#
# Bulk Modulus (GPa) = -710.10571 -20.93914 -365.52243
# Shear Modulus (GPa) = 30.29933 29.64645 29.97289
#
# Velocity S-wave (km/s) = 3.92076 3.87829 3.89958
# Velocity P-wave (km/s) = 18.43299 3.07105 12.85192
#
# Compressibility (1/GPa) = -0.00140824
#
# Stress axis : x y z
#
# Youngs Moduli (GPa) = 73.88246 37.39532 -242.74091
#
# Poissons Ratio (x) = 0.33430 -1.15468
# Poissons Ratio (y) = 0.66049 -1.23456
# Poissons Ratio (z) = 0.35145 0.19019
#
# Static dielectric constant tensor:
#      x y z
#    x 1.669180 0.000000 -0.006140 
#    y 0.000000 1.708030 0.000000 
#    z -0.006140 0.000000 1.697880 
# 
# From -- ./inp_files/80594.got.cif
#   From: 2010.05.17/outbox.ucp.g08.bks.cvg/sg12_41_cif.got.tgz:80594.got - 2010.06.11 11:47:21.
