data_PCOD9225992
_publ_section_title
;
Structure prediction by ZEFSAII (Michael W. Deem and Ramdas Pophale) SiO2 
 PCOD9225992
Probable space group: C 2/M
;
_chemical_formula_sum "Si O2"
_cell_formula_units_Z 28
_cell_length_a 30.000000
_cell_length_b 9.000000
_cell_length_c 18.000000
_cell_angle_alpha 90.000000
_cell_angle_beta 140.000000
_cell_angle_gamma 90.000000
_cell_volume 3123.947783
_symmetry_space_group_name_H-M "C 2/M"
_symmetry_group_IT_number 12
_symmetry_cell_setting 'monoclinic'
loop_
_space_group_symop_operation_xyz
x,y,z
-x,y,-z
-x,-y,-z
x,-y,z
1/2+x,1/2+y,z
1/2-x,1/2+y,-z
1/2-x,1/2-y,-z
1/2+x,1/2-y,z
loop_
_atom_site_type_symbol
_atom_site_label
_atom_site_fract_x
_atom_site_fract_y
_atom_site_fract_z
Si Si1 0.965221 0.821266 0.592287
Si Si2 0.659512 0.318862 0.668638
Si Si3 0.069283 0.681448 0.133418
Si Si4 0.192681 0.318757 0.184760
Si Si5 0.126723 0.821260 0.789479
Si Si6 0.966653 0.675295 0.748087
Si Si7 0.633138 0.825277 0.950976
O O1 0.911357 0.770023 0.461033
O O2 0.943532 0.760860 0.645110
O O3 0.045046 0.778173 0.679371
O O4 0.964019 0.000000 0.591975
O O5 0.658451 0.500000 0.668539
O O6 0.727154 0.273750 0.708390
O O7 0.662694 0.272529 0.758907
O O8 0.068754 0.500000 0.133315
O O9 0.138017 0.730788 0.177238
O O10 0.063753 0.728511 0.212116
O O11 0.000000 0.726402 0.000000
O O12 0.190059 0.500000 0.182289
O O13 0.167698 0.271325 0.070974
O O14 0.153412 0.754607 0.900685
O O15 0.130452 0.000000 0.798635
O O16 0.951542 0.500000 0.720791
O O17 0.050314 0.690428 0.857255
O O18 0.648830 0.000000 0.963069
#
# Coordination Sequence:
#
# PCOD9225992 Si02
#       7
#     8   8   8   8   8   8   8
#     4   9  17  30  47  64  86 117 152 183 212 252
#     4   9  17  29  44  62  85 117 153 184 212 250
#     4   9  14  24  44  68  90 113 142 176 216 261
#     4   9  16  26  43  67  91 113 144 183 218 256
#     4   9  17  29  46  65  86 115 151 184 214 253
#     4   9  16  27  46  70  91 110 140 183 223 257
#     4   9  16  27  44  68  92 112 139 180 225 262
#
# _framework density 8.9630179999999999
#
# number of rings (size 3 to 8) (size 9 to 14) (size 15 to 20)
#    0.000    3.000    1.429    0.429    0.000    2.286 
#    0.000    1.429    0.000    5.571    0.000    0.000 
#    0.000    0.000    0.000    0.000    0.000    0.000 
#
# Total GULP energy -155975.089799 kJ/mol
# GULP energy per Si atom -5570.538921 kJ/mol
# Density = 0.894262 g / cm^3
# Si number density = 8.963018 Si / 1000 Ang^3
#
#
#
# Elastic Constant Matrix: (Units=GPa)
#
#
# Indices 1 2 3 4 5 6 
#
# 1 111.9220 6.9305 3.0888 0.0000 -9.6669 0.0000
# 2 6.9305 -5.8414 2.8487 0.0000 0.5622 0.0000
# 3 3.0888 2.8487 6.9494 0.0000 -7.3779 0.0000
# 4 0.0000 0.0000 0.0000 10.7523 0.0000 -9.8673
# 5 -9.6669 0.5622 -7.3779 0.0000 22.3229 0.0000
# 6 0.0000 0.0000 0.0000 -9.8673 0.0000 19.4307
#
#
#
# Elastic Compliance Matrix: (Units=1/GPa)
#
#
# Indices 1 2 3 4 5 6 
#
# 1 0.008743 0.008021 -0.005190 0.000000 0.001869 0.000000
# 2 0.008021 -0.119272 0.080423 0.000000 0.033058 0.000000
# 3 -0.005190 0.080423 0.167459 0.000000 0.051073 0.000000
# 4 0.000000 0.000000 0.000000 0.174168 0.000000 0.088446
# 5 0.001869 0.033058 0.051073 0.000000 0.061654 0.000000
# 6 0.000000 0.000000 0.000000 0.088446 0.000000 0.096379
#
#
# Mechanical properties :
#
#
# Convention : Reuss Voigt Hill
#
# Bulk Modulus (GPa) = 4.47554 15.41844 9.94699
# Shear Modulus (GPa) = 16.82926 17.17866 17.00396
#
# Velocity S-wave (km/s) = 3.06734 3.09901 3.08322
# Velocity P-wave (km/s) = 3.87902 4.62871 4.27035
#
# Compressibility (1/GPa) = 0.22343694
#
# Stress axis : x y z
#
# Youngs Moduli (GPa) = 114.38076 -8.38417 5.97161
#
# Poissons Ratio (x) = 0.06725 0.03099
# Poissons Ratio (y) = -0.91749 -0.48025
# Poissons Ratio (z) = 0.59366 0.67428
#
# Static dielectric constant tensor:
#      x y z
#    x 1.621040 0.000000 0.011870 
#    y 0.000000 1.599480 0.000000 
#    z 0.011870 0.000000 1.625400 
# 
# From -- ./inp_files/231952.got.cif
#   From: 2010.05.17/outbox.ucp.g08.bks.cvg/sg12_116_cif.got.tgz:231952.got - 2010.06.11 11:47:21.
