data_PCOD9225556
_publ_section_title
;
Structure prediction by ZEFSAII (Michael W. Deem and Ramdas Pophale) SiO2 
 PCOD9225556
Probable space group: C 2/M
;
_chemical_formula_sum "Si O2"
_cell_formula_units_Z 28
_cell_length_a 30.000000
_cell_length_b 15.000000
_cell_length_c 12.000000
_cell_angle_alpha 90.000000
_cell_angle_beta 30.000000
_cell_angle_gamma 90.000000
_cell_volume 2700.000000
_symmetry_space_group_name_H-M "C 2/M"
_symmetry_group_IT_number 12
_symmetry_cell_setting 'monoclinic'
loop_
_space_group_symop_operation_xyz
x,y,z
-x,y,-z
-x,-y,-z
x,-y,z
1/2+x,1/2+y,z
1/2-x,1/2+y,-z
1/2-x,1/2-y,-z
1/2+x,1/2-y,z
loop_
_atom_site_type_symbol
_atom_site_label
_atom_site_fract_x
_atom_site_fract_y
_atom_site_fract_z
Si Si1 0.070333 0.239865 0.251990
Si Si2 0.678899 0.178020 0.694447
Si Si3 0.994013 0.238433 0.186156
Si Si4 0.725654 0.395868 0.937322
Si Si5 0.333815 0.604523 0.513965
Si Si6 0.637331 0.897792 0.548962
Si Si7 0.700301 0.103544 0.985060
O O1 0.022397 0.204404 0.245566
O O2 0.000000 0.258933 0.500000
O O3 0.142118 0.167262 0.133505
O O4 0.125967 0.328901 0.103132
O O5 0.750000 0.250000 0.500000
O O6 0.741393 0.124879 0.646870
O O7 0.655432 0.115948 0.640319
O O8 0.587575 0.230950 0.925563
O O9 0.919247 0.167852 0.301717
O O10 0.940015 0.330146 0.315163
O O11 0.700428 0.500000 0.989530
O O12 0.776579 0.374026 0.712214
O O13 0.790540 0.383266 0.902174
O O14 0.356951 0.500000 0.450199
O O15 0.296763 0.621296 0.719565
O O16 0.614909 0.000000 0.572942
O O17 0.678908 0.000000 0.009025
#
# Coordination Sequence:
#
# PCOD9225556 Si02
#       7
#     8   8   8   8   8   8   8
#     4  12  23  37  63  98 135 175 215 267 335 402
#     4  12  24  45  69  93 137 175 223 279 333 390
#     4  12  25  42  67 101 135 172 222 286 329 395
#     4  10  22  42  65  93 131 172 217 273 328 392
#     4  11  24  45  72 100 134 182 226 272 340 405
#     4  11  24  42  68  96 127 172 224 273 333 397
#     4  10  21  41  67  95 132 173 219 274 328 394
#
# _framework density 10.370369999999999
#
# number of rings (size 3 to 8) (size 9 to 14) (size 15 to 20)
#    0.000    0.857    2.857    4.714    0.000    3.429 
#    0.000    2.143    0.000    0.000    0.000    0.000 
#    0.000    0.000    0.000    0.000    0.000    0.000 
#
# Total GULP energy -156333.584111 kJ/mol
# GULP energy per Si atom -5583.342290 kJ/mol
# Density = 1.034677 g / cm^3
# Si number density = 10.370370 Si / 1000 Ang^3
#
#
#
# Elastic Constant Matrix: (Units=GPa)
#
#
# Indices 1 2 3 4 5 6 
#
# 1 47.5031 8.9186 15.2887 0.0000 2.7429 0.0000
# 2 8.9186 83.9927 60.6847 0.0000 -17.6717 0.0000
# 3 15.2887 60.6847 109.4107 0.0000 -19.7900 0.0000
# 4 0.0000 0.0000 0.0000 8.8687 0.0000 13.3394
# 5 2.7429 -17.6717 -19.7900 0.0000 32.7090 0.0000
# 6 0.0000 0.0000 0.0000 13.3394 0.0000 8.4624
#
#
#
# Elastic Compliance Matrix: (Units=1/GPa)
#
#
# Indices 1 2 3 4 5 6 
#
# 1 0.022591 -0.000789 -0.003525 0.000000 -0.004453 0.000000
# 2 -0.000789 0.020521 -0.010392 0.000000 0.004866 0.000000
# 3 -0.003525 -0.010392 0.016208 0.000000 0.004487 0.000000
# 4 0.000000 0.000000 0.000000 -0.082246 0.000000 0.129647
# 5 -0.004453 0.004866 0.004487 0.000000 0.036290 0.000000
# 6 0.000000 0.000000 0.000000 0.129647 0.000000 -0.086195
#
#
# Mechanical properties :
#
#
# Convention : Reuss Voigt Hill
#
# Bulk Modulus (GPa) = 33.43466 45.63228 39.53347
# Shear Modulus (GPa) = -149.47615 20.40898 -64.53358
#
# Velocity S-wave (km/s) = -8.49855 3.14029 -5.58408
# Velocity P-wave (km/s) = 8.95238 5.93276 4.74065
#
# Compressibility (1/GPa) = 0.02990908
#
# Stress axis : x y z
#
# Youngs Moduli (GPa) = 44.26558 48.72955 61.69844
#
# Poissons Ratio (x) = 0.03846 0.21746
# Poissons Ratio (y) = 0.03494 0.64116
# Poissons Ratio (z) = 0.15601 0.50639
#
# Static dielectric constant tensor:
#      x y z
#    x 1.869770 0.000000 0.042980 
#    y 0.000000 1.740080 0.000000 
#    z 0.042980 0.000000 1.728070 
# 
# From -- ./inp_files/189640.got.cif
#   From: 2010.05.17/outbox.ucp.g08.bks.cvg/sg12_95_cif.got.tgz:189640.got - 2010.06.11 11:47:21.
