data_PCOD9225819
_publ_section_title
;
Structure prediction by ZEFSAII (Michael W. Deem and Ramdas Pophale) SiO2 
 PCOD9225819
Probable space group: C 2/M
;
_chemical_formula_sum "Si O2"
_cell_formula_units_Z 32
_cell_length_a 18.000000
_cell_length_b 30.000000
_cell_length_c 12.000000
_cell_angle_alpha 90.000000
_cell_angle_beta 30.000000
_cell_angle_gamma 90.000000
_cell_volume 3240.000000
_symmetry_space_group_name_H-M "C 2/M"
_symmetry_group_IT_number 12
_symmetry_cell_setting 'monoclinic'
loop_
_space_group_symop_operation_xyz
x,y,z
-x,y,-z
-x,-y,-z
x,-y,z
1/2+x,1/2+y,z
1/2-x,1/2+y,-z
1/2-x,1/2-y,-z
1/2+x,1/2-y,z
loop_
_atom_site_type_symbol
_atom_site_label
_atom_site_fract_x
_atom_site_fract_y
_atom_site_fract_z
Si Si1 0.895892 0.832110 0.394556
Si Si2 0.809951 0.664053 0.972591
Si Si3 0.931202 0.093270 0.700670
Si Si4 0.159655 0.234129 0.333321
Si Si5 0.601611 0.947598 0.534617
Si Si6 0.348383 0.858934 0.451675
Si Si7 0.307146 0.323530 0.125729
Si Si8 0.216888 0.448123 0.144780
O O1 0.878463 0.792001 0.504226
O O2 0.743058 0.838675 0.530050
O O3 0.949361 0.872898 0.402752
O O4 0.022569 0.828633 0.134084
O O5 0.776738 0.666671 0.883037
O O6 0.985305 0.660498 0.761463
O O7 0.714962 0.622127 0.141321
O O8 0.732108 0.704107 0.141484
O O9 0.000000 0.071906 0.500000
O O10 0.865088 0.065764 0.889414
O O11 0.274235 0.273282 0.203145
O O12 0.000000 0.252146 0.500000
O O13 0.647270 0.912509 0.567724
O O14 0.706895 0.941945 0.289762
O O15 0.438040 0.930951 0.706526
O O16 0.599553 0.000000 0.566307
O O17 0.262684 0.850233 0.680213
O O18 0.200582 0.500000 0.148231
#
# Coordination Sequence:
#
# PCOD9225819 Si02
#       8
#     8   8   8   8   8   8   8   8
#     4  11  25  42  57  87 126 160 199 251 305 362
#     4  11  21  39  63  88 112 161 210 249 288 361
#     4  11  19  39  62  82 116 160 202 250 295 355
#     4  12  22  43  65  85 115 165 215 252 297 351
#     4   9  18  35  61  92 122 153 196 249 304 362
#     4  12  24  39  61  94 124 161 197 249 314 362
#     4  11  25  39  64  87 121 159 205 254 302 360
#     4   9  18  32  59  93 119 147 196 255 300 352
#
# _framework density 9.8765429999999999
#
# number of rings (size 3 to 8) (size 9 to 14) (size 15 to 20)
#    0.000    1.250    5.000    4.125    3.500    1.250 
#    2.250    0.625    0.000    3.000    0.000    2.625 
#    0.000    0.000    0.000    0.000    0.000    0.000 
#
# Total GULP energy -178349.108153 kJ/mol
# GULP energy per Si atom -5573.409630 kJ/mol
# Density = 0.985406 g / cm^3
# Si number density = 9.876543 Si / 1000 Ang^3
#
#
#
# Elastic Constant Matrix: (Units=GPa)
#
#
# Indices 1 2 3 4 5 6 
#
# 1 33.5561 11.2783 31.4166 0.0000 -24.5029 0.0002
# 2 11.2783 5.5830 -20.6814 -0.0001 13.9795 -0.0001
# 3 31.4166 -20.6814 76.1158 -0.0006 10.9249 0.0005
# 4 0.0000 -0.0001 -0.0006 5.5418 0.0000 14.4635
# 5 -24.5029 13.9795 10.9249 0.0000 23.3840 0.0000
# 6 0.0002 -0.0001 0.0005 14.4635 0.0000 -15.6444
#
#
#
# Elastic Compliance Matrix: (Units=1/GPa)
#
#
# Indices 1 2 3 4 5 6 
#
# 1 0.008484 0.027215 0.005308 0.000000 -0.009860 0.000000
# 2 0.027215 0.011562 -0.011997 0.000000 0.027211 0.000000
# 3 0.005308 -0.011997 0.006281 0.000000 0.009800 0.000000
# 4 0.000000 0.000000 0.000000 0.052872 0.000000 0.048881
# 5 -0.009860 0.027211 0.009800 0.000000 0.011587 0.000000
# 6 0.000000 0.000000 0.000000 0.048881 0.000000 -0.018729
#
#
# Mechanical properties :
#
#
# Convention : Reuss Voigt Hill
#
# Bulk Modulus (GPa) = 14.84131 17.69800 16.26965
# Shear Modulus (GPa) = 93.52358 8.87238 51.19798
#
# Velocity S-wave (km/s) = 6.88833 2.12165 5.09659
# Velocity P-wave (km/s) = 8.41399 3.87052 6.54890
#
# Compressibility (1/GPa) = 0.06737952
#
# Stress axis : x y z
#
# Youngs Moduli (GPa) = 117.87236 86.49022 159.22163
#
# Poissons Ratio (x) = -2.35387 -0.84519
# Poissons Ratio (y) = -3.20795 1.91020
# Poissons Ratio (z) = -0.62570 1.03763
#
# Static dielectric constant tensor:
#      x y z
#    x 1.671020 0.000000 -0.081420 
#    y 0.000000 1.804450 0.000000 
#    z -0.081420 0.000000 1.398510 
# 
# From -- ./inp_files/161177.got.cif
#   From: 2010.05.17/outbox.ucp.g08.bks.cvg/sg12_81_cif.got.tgz:161177.got - 2010.06.11 11:47:21.
