data_PCOD9225854
_publ_section_title
;
Structure prediction by ZEFSAII (Michael W. Deem and Ramdas Pophale) SiO2 
 PCOD9225854
Probable space group: C 2/M
;
_chemical_formula_sum "Si O2"
_cell_formula_units_Z 32
_cell_length_a 24.000000
_cell_length_b 9.000000
_cell_length_c 30.000000
_cell_angle_alpha 90.000000
_cell_angle_beta 30.000000
_cell_angle_gamma 90.000000
_cell_volume 3240.000000
_symmetry_space_group_name_H-M "C 2/M"
_symmetry_group_IT_number 12
_symmetry_cell_setting 'monoclinic'
loop_
_space_group_symop_operation_xyz
x,y,z
-x,y,-z
-x,-y,-z
x,-y,z
1/2+x,1/2+y,z
1/2-x,1/2+y,-z
1/2-x,1/2-y,-z
1/2+x,1/2-y,z
loop_
_atom_site_type_symbol
_atom_site_label
_atom_site_fract_x
_atom_site_fract_y
_atom_site_fract_z
Si Si1 0.563352 0.325813 0.527322
Si Si2 0.998720 0.673033 0.758977
Si Si3 0.503231 0.179844 0.337848
Si Si4 0.130796 0.176485 0.827553
Si Si5 0.172339 0.824244 0.361069
Si Si6 0.229028 0.173030 0.948592
Si Si7 0.967231 0.322704 0.875128
Si Si8 0.761927 0.180501 0.156757
O O1 0.579323 0.500000 0.525690
O O2 0.563680 0.238564 0.573371
O O3 0.648930 0.283823 0.428775
O O4 0.442627 0.310147 0.587043
O O5 0.033761 0.500000 0.734557
O O6 0.032477 0.733646 0.687052
O O7 0.863300 0.676937 0.854676
O O8 0.025989 0.736054 0.788875
O O9 0.633268 0.226398 0.253603
O O10 0.501064 0.000000 0.338822
O O11 0.237831 0.220745 0.724086
O O12 0.159450 0.227952 0.857625
O O13 0.030104 0.258309 0.873848
O O14 0.112701 0.000000 0.840438
O O15 0.204440 0.000000 0.337234
O O16 0.199554 0.225105 0.918866
O O17 0.197526 0.000000 0.976678
O O18 0.159673 0.270492 0.030981
O O19 0.971382 0.500000 0.870819
O O20 0.760077 0.000000 0.157867
#
# Coordination Sequence:
#
# PCOD9225854 Si02
#       8
#     8   8   8   8   8   8   8   8
#     4   9  17  29  48  76 107 133 156 189 244 299
#     4   8  17  33  54  74  97 128 165 206 251 293
#     4   9  15  29  52  76  98 126 164 205 242 286
#     4  11  21  34  51  72  98 133 172 205 236 287
#     4   9  18  32  48  71 106 139 159 187 239 299
#     4   9  17  34  56  74  93 123 164 211 250 291
#     4  11  22  35  49  71 100 133 166 203 251 297
#     4   8  16  30  49  72  98 126 159 200 249 289
#
# _framework density 9.8765429999999999
#
# number of rings (size 3 to 8) (size 9 to 14) (size 15 to 20)
#    0.000    2.750    1.250    3.375    0.000    1.000 
#    0.000    9.375    0.000    0.750    0.000    0.000 
#    0.000    0.000    0.000    0.000    0.000    0.000 
#
# Total GULP energy -178311.073256 kJ/mol
# GULP energy per Si atom -5572.221039 kJ/mol
# Density = 0.985406 g / cm^3
# Si number density = 9.876543 Si / 1000 Ang^3
#
#
#
# Elastic Constant Matrix: (Units=GPa)
#
#
# Indices 1 2 3 4 5 6 
#
# 1 63.9656 8.5770 6.9821 -0.0009 23.7573 0.0014
# 2 8.5770 21.9894 5.1906 -0.0019 6.9267 0.0032
# 3 6.9821 5.1906 22.9187 -0.0001 22.2069 0.0003
# 4 -0.0009 -0.0019 -0.0001 24.7197 0.0003 8.4097
# 5 23.7573 6.9267 22.2069 0.0003 34.9753 -0.0004
# 6 0.0014 0.0032 0.0003 8.4097 -0.0004 12.9417
#
#
#
# Elastic Compliance Matrix: (Units=1/GPa)
#
#
# Indices 1 2 3 4 5 6 
#
# 1 0.025410 -0.005689 0.023856 0.000002 -0.031280 -0.000004
# 2 -0.005689 0.049944 -0.009716 0.000010 0.000142 -0.000018
# 3 0.023856 -0.009716 0.136182 0.000005 -0.100746 -0.000010
# 4 0.000002 0.000010 0.000005 0.051935 -0.000008 -0.033748
# 5 -0.031280 0.000142 -0.100746 -0.000008 0.113777 0.000014
# 6 -0.000004 -0.000018 -0.000010 -0.033748 0.000014 0.099200
#
#
# Mechanical properties :
#
#
# Convention : Reuss Voigt Hill
#
# Bulk Modulus (GPa) = 4.37756 16.70812 10.54284
# Shear Modulus (GPa) = 9.33371 20.40227 14.86799
#
# Velocity S-wave (km/s) = 2.17611 3.21731 2.74650
# Velocity P-wave (km/s) = 2.92145 4.71999 3.92512
#
# Compressibility (1/GPa) = 0.22843779
#
# Stress axis : x y z
#
# Youngs Moduli (GPa) = 39.35481 20.02234 7.34311
#
# Poissons Ratio (x) = 0.11391 -0.17518
# Poissons Ratio (y) = 0.22389 0.07134
# Poissons Ratio (z) = -0.93884 0.19453
#
# Static dielectric constant tensor:
#      x y z
#    x 1.783380 0.000000 -0.016180 
#    y 0.000000 1.656000 0.000000 
#    z -0.016180 0.000000 1.715670 
# 
# From -- ./inp_files/382348.got.cif
#   From: 2010.05.17/outbox.ucp.g08.bks.cvg/sg12_192_cif.got.tgz:382348.got - 2010.06.11 11:47:21.
