data_PCOD9225210
_publ_section_title
;
Structure prediction by ZEFSAII (Michael W. Deem and Ramdas Pophale) SiO2 
 PCOD9225210
Probable space group: C 2/M
;
_chemical_formula_sum "Si O2"
_cell_formula_units_Z 24
_cell_length_a 21.000000
_cell_length_b 9.000000
_cell_length_c 21.000000
_cell_angle_alpha 90.000000
_cell_angle_beta 40.000000
_cell_angle_gamma 90.000000
_cell_volume 2551.224023
_symmetry_space_group_name_H-M "C 2/M"
_symmetry_group_IT_number 12
_symmetry_cell_setting 'monoclinic'
loop_
_space_group_symop_operation_xyz
x,y,z
-x,y,-z
-x,-y,-z
x,-y,z
1/2+x,1/2+y,z
1/2-x,1/2+y,-z
1/2-x,1/2-y,-z
1/2+x,1/2-y,z
loop_
_atom_site_type_symbol
_atom_site_label
_atom_site_fract_x
_atom_site_fract_y
_atom_site_fract_z
Si Si1 0.684245 0.818407 0.489098
Si Si2 0.314056 0.675008 0.858562
Si Si3 0.112393 0.825119 0.052482
Si Si4 0.714599 0.680790 0.325968
Si Si5 0.060519 0.321403 0.888374
Si Si6 0.945392 0.678431 0.648752
O O1 0.750000 0.750000 0.500000
O O2 0.720751 0.749775 0.393006
O O3 0.562813 0.787231 0.575909
O O4 0.694881 0.000000 0.482989
O O5 0.310558 0.500000 0.843823
O O6 0.362521 0.688249 0.891687
O O7 0.380537 0.765809 0.758287
O O8 0.202573 0.739335 0.948396
O O9 0.006866 0.755847 0.114187
O O10 0.114751 0.000000 0.034351
O O11 0.705659 0.500000 0.335690
O O12 0.821326 0.715401 0.208901
O O13 0.617218 0.746589 0.362783
O O14 0.054629 0.500000 0.886373
O O15 0.000000 0.282355 0.000000
O O16 0.940729 0.500000 0.643448
#
# Coordination Sequence:
#
# PCOD9225210 Si02
#       6
#     8   8   8   8   8   8
#     4  11  26  46  68  96 130 168 216 270 327 385
#     4  10  21  37  59  89 124 165 209 259 320 383
#     4  10  21  36  57  88 123 164 212 262 316 376
#     4  11  24  42  67  98 131 172 217 264 324 386
#     4  10  22  39  60  88 126 168 211 259 313 377
#     4  11  24  42  66  94 126 166 213 267 322 381
#
# _framework density 9.4072490000000002
#
# number of rings (size 3 to 8) (size 9 to 14) (size 15 to 20)
#    0.000    1.500    0.000    4.000    2.333    9.667 
#    0.000    0.000    0.000    0.000    0.000    0.000 
#    0.000    0.000    0.000    0.000    0.000    0.000 
#
# Total GULP energy -133897.141215 kJ/mol
# GULP energy per Si atom -5579.047551 kJ/mol
# Density = 0.938584 g / cm^3
# Si number density = 9.407249 Si / 1000 Ang^3
#
#
#
# Elastic Constant Matrix: (Units=GPa)
#
#
# Indices 1 2 3 4 5 6 
#
# 1 149.0634 52.2704 50.4981 0.0000 -18.7290 0.0000
# 2 52.2704 97.5090 37.8217 0.0000 -5.2795 0.0000
# 3 50.4981 37.8217 112.9744 0.0000 -9.3075 0.0000
# 4 0.0000 0.0000 0.0000 35.4695 0.0000 -2.9682
# 5 -18.7290 -5.2795 -9.3075 0.0000 39.6816 0.0000
# 6 0.0000 0.0000 0.0000 -2.9682 0.0000 47.1946
#
#
#
# Elastic Compliance Matrix: (Units=1/GPa)
#
#
# Indices 1 2 3 4 5 6 
#
# 1 0.009351 -0.003814 -0.002632 0.000000 0.003289 0.000000
# 2 -0.003814 0.013358 -0.002824 0.000000 -0.000685 0.000000
# 3 -0.002632 -0.002824 0.011054 0.000000 0.000975 0.000000
# 4 0.000000 0.000000 0.000000 0.028342 0.000000 0.001783
# 5 0.003289 -0.000685 0.000975 0.000000 0.026890 0.000000
# 6 0.000000 0.000000 0.000000 0.001783 0.000000 0.021301
#
#
# Mechanical properties :
#
#
# Convention : Reuss Voigt Hill
#
# Bulk Modulus (GPa) = 65.68746 71.19189 68.43967
# Shear Modulus (GPa) = 37.33878 39.06626 38.20252
#
# Velocity S-wave (km/s) = 4.45969 4.56169 4.51098
# Velocity P-wave (km/s) = 7.84267 8.10347 7.97414
#
# Compressibility (1/GPa) = 0.01522361
#
# Stress axis : x y z
#
# Youngs Moduli (GPa) = 106.94463 74.86182 90.46748
#
# Poissons Ratio (x) = 0.28549 0.23811
# Poissons Ratio (y) = 0.40784 0.25546
# Poissons Ratio (z) = 0.28148 0.21140
#
# Static dielectric constant tensor:
#      x y z
#    x 1.672300 0.000000 0.015900 
#    y 0.000000 1.638860 0.000000 
#    z 0.015900 0.000000 1.672340 
# 
# From -- ./inp_files/319543.got.cif
#   From: 2010.05.17/outbox.ucp.g08.bks.cvg/sg12_160_cif.got.tgz:319543.got - 2010.06.11 11:47:21.
