data_PCOD9225095
_publ_section_title
;
Structure prediction by ZEFSAII (Michael W. Deem and Ramdas Pophale) SiO2 
 PCOD9225095
Probable space group: C 2/M
;
_chemical_formula_sum "Si O2"
_cell_formula_units_Z 29
_cell_length_a 21.000000
_cell_length_b 18.000000
_cell_length_c 9.000000
_cell_angle_alpha 90.000000
_cell_angle_beta 60.000000
_cell_angle_gamma 90.000000
_cell_volume 2946.218424
_symmetry_space_group_name_H-M "C 2/M"
_symmetry_group_IT_number 12
_symmetry_cell_setting 'monoclinic'
loop_
_space_group_symop_operation_xyz
x,y,z
-x,y,-z
-x,-y,-z
x,-y,z
1/2+x,1/2+y,z
1/2-x,1/2+y,-z
1/2-x,1/2-y,-z
1/2+x,1/2-y,z
loop_
_atom_site_type_symbol
_atom_site_label
_atom_site_fract_x
_atom_site_fract_y
_atom_site_fract_z
Si Si1 0.966484 0.150073 0.700389
Si Si2 0.000000 0.500000 0.000000
Si Si3 0.835843 0.087436 0.046999
Si Si4 0.753392 0.349382 0.372932
Si Si5 0.867127 0.419021 0.011103
Si Si6 0.568849 0.181276 0.327781
Si Si7 0.785143 0.317114 0.663404
Si Si8 0.393495 0.587511 0.317166
O O1 0.955929 0.238459 0.703211
O O2 0.000000 0.125722 0.500000
O O3 0.030451 0.127684 0.738804
O O4 0.890456 0.115196 0.852575
O O5 0.062680 0.436718 0.966810
O O6 0.763058 0.137000 0.160206
O O7 0.873689 0.095669 0.166141
O O8 0.819960 0.000000 0.044587
O O9 0.800731 0.389860 0.191233
O O10 0.788270 0.356192 0.497861
O O11 0.750219 0.263250 0.328139
O O12 0.671032 0.379372 0.502266
O O13 0.845585 0.500000 0.971634
O O14 0.897074 0.366869 0.845233
O O15 0.500000 0.147398 0.500000
O O16 0.634192 0.194071 0.367735
O O17 0.400297 0.500000 0.340260
#
# Coordination Sequence:
#
# PCOD9225095 Si02
#       8
#     8   2   8   8   8   8   8   8
#     4  11  23  39  59  89 123 160 194 244 301 361
#     4   8  24  44  58  96 120 156 216 260 296 372
#     4  10  22  41  61  87 119 160 199 246 296 355
#     4  10  20  40  68  92 120 161 202 255 301 357
#     4  10  23  42  62  90 120 161 207 253 306 352
#     4  11  25  42  60  89 125 160 200 255 311 361
#     4  10  23  40  64  93 122 159 208 246 303 373
#     4  10  21  39  62  93 122 154 198 243 299 365
#
# _framework density 9.8431259999999998
#
# number of rings (size 3 to 8) (size 9 to 14) (size 15 to 20)
#    0.414    1.379    0.000    3.724    1.931    6.897 
#    2.483    0.000    0.000    0.000    0.000    0.000 
#    0.000    0.000    0.000    0.000    0.000    0.000 
#
# Total GULP energy -161577.257288 kJ/mol
# GULP energy per Si atom -5571.629562 kJ/mol
# Density = 0.982072 g / cm^3
# Si number density = 9.843126 Si / 1000 Ang^3
#
#
#
# Elastic Constant Matrix: (Units=GPa)
#
#
# Indices 1 2 3 4 5 6 
#
# 1 44.0214 10.2880 1.5698 0.0000 -10.2004 0.0000
# 2 10.2880 89.0474 51.5774 0.0000 -9.6543 0.0000
# 3 1.5698 51.5774 149.9043 0.0000 -24.4774 0.0000
# 4 0.0000 0.0000 0.0000 41.1124 0.0000 -27.4740
# 5 -10.2004 -9.6543 -24.4774 0.0000 17.5581 0.0000
# 6 0.0000 0.0000 0.0000 -27.4740 0.0000 48.7637
#
#
#
# Elastic Compliance Matrix: (Units=1/GPa)
#
#
# Indices 1 2 3 4 5 6 
#
# 1 0.028078 -0.003488 0.004216 0.000000 0.020272 0.000000
# 2 -0.003488 0.014480 -0.005149 0.000000 -0.001242 0.000000
# 3 0.004216 -0.005149 0.010793 0.000000 0.014665 0.000000
# 4 0.000000 0.000000 0.000000 0.039012 0.000000 0.021980
# 5 0.020272 -0.001242 0.014665 0.000000 0.088492 0.000000
# 6 0.000000 0.000000 0.000000 0.021980 0.000000 0.032891
#
#
# Mechanical properties :
#
#
# Convention : Reuss Voigt Hill
#
# Bulk Modulus (GPa) = 22.46651 45.53816 34.00234
# Shear Modulus (GPa) = 21.05943 36.12272 28.59108
#
# Velocity S-wave (km/s) = 3.27426 4.28824 3.81509
# Velocity P-wave (km/s) = 5.07261 6.90658 6.05939
#
# Compressibility (1/GPa) = 0.04451069
#
# Stress axis : x y z
#
# Youngs Moduli (GPa) = 35.61445 69.05874 92.65488
#
# Poissons Ratio (x) = 0.24090 -0.39067
# Poissons Ratio (y) = 0.12423 0.47704
# Poissons Ratio (z) = -0.15016 0.35555
#
# Static dielectric constant tensor:
#      x y z
#    x 1.712000 0.000000 0.021520 
#    y 0.000000 1.691920 0.000000 
#    z 0.021520 0.000000 1.670640 
# 
# From -- ./inp_files/88433.got.cif
#   From: 2010.05.17/outbox.ucp.g08.bks.cvg/sg12_45_cif.got.tgz:88433.got - 2010.06.11 11:47:21.
