data_PCOD9225411
_publ_section_title
;
Structure prediction by ZEFSAII (Michael W. Deem and Ramdas Pophale) SiO2 
 PCOD9225411
Probable space group: C 2/M
;
_chemical_formula_sum "Si O2"
_cell_formula_units_Z 20
_cell_length_a 15.000000
_cell_length_b 18.000000
_cell_length_c 15.000000
_cell_angle_alpha 90.000000
_cell_angle_beta 30.000000
_cell_angle_gamma 90.000000
_cell_volume 2025.000000
_symmetry_space_group_name_H-M "C 2/M"
_symmetry_group_IT_number 12
_symmetry_cell_setting 'monoclinic'
loop_
_space_group_symop_operation_xyz
x,y,z
-x,y,-z
-x,-y,-z
x,-y,z
1/2+x,1/2+y,z
1/2-x,1/2+y,-z
1/2-x,1/2-y,-z
1/2+x,1/2-y,z
loop_
_atom_site_type_symbol
_atom_site_label
_atom_site_fract_x
_atom_site_fract_y
_atom_site_fract_z
Si Si1 0.204956 0.690022 0.359633
Si Si2 0.252409 0.414261 0.476521
Si Si3 0.545107 0.785269 0.737949
Si Si4 0.246647 0.732634 0.858074
Si Si5 0.919182 0.082692 0.669747
O O1 0.253740 0.615740 0.372945
O O2 0.275625 0.746751 0.376360
O O3 0.294469 0.712462 0.188323
O O4 0.000000 0.692128 0.500000
O O5 0.207186 0.500000 0.515293
O O6 0.105407 0.366471 0.656095
O O7 0.434105 0.406318 0.377992
O O8 0.424385 0.755780 0.759842
O O9 0.411115 0.774979 0.935575
O O10 0.284886 0.650763 0.787963
O O11 0.000000 0.084009 0.500000
O O12 0.842516 0.000000 0.749683
#
# Coordination Sequence:
#
# PCOD9225411 Si02
#       5
#     8   8   8   8   8
#     4  12  22  39  65  90 122 163 208 257 299 366
#     4  11  23  40  62  92 127 161 206 256 303 369
#     4  11  23  39  60  92 121 158 209 247 306 363
#     4  11  22  38  63  88 124 160 199 257 301 367
#     4  10  21  38  63  92 122 159 204 254 310 362
#
# _framework density 9.8765429999999999
#
# number of rings (size 3 to 8) (size 9 to 14) (size 15 to 20)
#    0.000    1.000    4.000    4.200    0.000    1.200 
#    0.000    0.000    0.000    8.400    0.000    0.000 
#    0.000    0.000    0.000    0.000    0.000    0.000 
#
# Total GULP energy -111363.774861 kJ/mol
# GULP energy per Si atom -5568.188743 kJ/mol
# Density = 0.985406 g / cm^3
# Si number density = 9.876543 Si / 1000 Ang^3
#
#
#
# Elastic Constant Matrix: (Units=GPa)
#
#
# Indices 1 2 3 4 5 6 
#
# 1 130.7446 34.2595 14.7617 0.0075 15.3879 -0.0015
# 2 34.2595 119.6893 27.1988 0.0057 -0.2339 -0.0021
# 3 14.7617 27.1988 61.8670 0.0155 -0.9357 -0.0063
# 4 0.0075 0.0057 0.0155 -5.8918 -0.0117 6.9543
# 5 15.3879 -0.2339 -0.9357 -0.0117 31.1977 0.0054
# 6 -0.0015 -0.0021 -0.0063 6.9543 0.0054 32.8110
#
#
#
# Elastic Compliance Matrix: (Units=1/GPa)
#
#
# Indices 1 2 3 4 5 6 
#
# 1 0.008905 -0.002288 -0.001186 0.000013 -0.004445 -0.000002
# 2 -0.002288 0.009870 -0.003777 -0.000005 0.001089 0.000001
# 3 -0.001186 -0.003777 0.018124 0.000035 0.001100 -0.000004
# 4 0.000013 -0.000005 0.000035 -0.135763 -0.000061 0.028775
# 5 -0.004445 0.001089 0.001100 -0.000061 0.034287 0.000007
# 6 -0.000002 0.000001 -0.000004 0.028775 0.000007 0.024379
#
#
# Mechanical properties :
#
#
# Convention : Reuss Voigt Hill
#
# Bulk Modulus (GPa) = 44.64880 51.63790 48.14335
# Shear Modulus (GPa) = -274.27565 27.36210 -123.45677
#
# Velocity S-wave (km/s) = -11.79633 3.72587 -7.91427
# Velocity P-wave (km/s) = 12.76266 6.68640 7.68692
#
# Compressibility (1/GPa) = 0.02239702
#
# Stress axis : x y z
#
# Youngs Moduli (GPa) = 112.29463 101.31375 55.17608
#
# Poissons Ratio (x) = 0.23182 0.06544
# Poissons Ratio (y) = 0.25695 0.20839
# Poissons Ratio (z) = 0.13319 0.38265
#
# Static dielectric constant tensor:
#      x y z
#    x 1.697730 0.000000 -0.003170 
#    y 0.000000 1.718030 0.000000 
#    z -0.003170 0.000000 1.781600 
# 
# From -- ./inp_files/47158.got.cif
#   From: 2010.05.17/outbox.ucp.g08.bks.cvg/sg12_24_cif.got.tgz:47158.got - 2010.06.11 11:47:21.
