data_PCOD9225980
_publ_section_title
;
Structure prediction by ZEFSAII (Michael W. Deem and Ramdas Pophale) SiO2 
 PCOD9225980
Probable space group: C 2/M
;
_chemical_formula_sum "Si O2"
_cell_formula_units_Z 22
_cell_length_a 9.000000
_cell_length_b 18.000000
_cell_length_c 18.000000
_cell_angle_alpha 90.000000
_cell_angle_beta 50.000000
_cell_angle_gamma 90.000000
_cell_volume 2233.785596
_symmetry_space_group_name_H-M "C 2/M"
_symmetry_group_IT_number 12
_symmetry_cell_setting 'monoclinic'
loop_
_space_group_symop_operation_xyz
x,y,z
-x,y,-z
-x,-y,-z
x,-y,z
1/2+x,1/2+y,z
1/2-x,1/2+y,-z
1/2-x,1/2-y,-z
1/2+x,1/2-y,z
loop_
_atom_site_type_symbol
_atom_site_label
_atom_site_fract_x
_atom_site_fract_y
_atom_site_fract_z
Si Si1 0.871467 0.089104 0.465841
Si Si2 0.500307 0.000000 0.855449
Si Si3 0.444624 0.150658 0.641882
Si Si4 0.810983 0.371716 0.107654
Si Si5 0.540287 0.301945 0.693674
Si Si6 0.175053 0.500000 0.238592
Si Si7 0.125817 0.000000 0.069079
O O1 0.649480 0.121005 0.541182
O O2 0.971307 0.137152 0.368804
O O3 0.000000 0.099019 0.500000
O O4 0.864643 0.000000 0.452765
O O5 0.599848 0.073167 0.858132
O O6 0.491997 0.000000 0.770250
O O7 0.274805 0.000000 0.952896
O O8 0.514807 0.218328 0.671813
O O9 0.257629 0.184653 0.657473
O O10 0.356520 0.076048 0.706523
O O11 0.646891 0.317349 0.193123
O O12 0.692358 0.427520 0.092985
O O13 0.000000 0.342460 0.000000
O O14 0.395412 0.500000 0.137395
#
# Coordination Sequence:
#
# PCOD9225980 Si02
#       7
#     8   4   8   8   8   4   4
#     4  11  26  45  73 105 135 172 227 277 333 405
#     4   9  21  33  68  94 139 170 230 282 336 383
#     4  12  27  45  67 101 138 175 229 273 337 402
#     4   9  20  40  66  98 135 180 227 270 335 404
#     4  12  26  44  71  94 142 183 217 281 342 392
#     4  12  23  40  68  98 137 172 235 277 333 402
#     4   9  17  41  60 100 125 181 228 283 323 401
#
# _framework density 9.8487519999999993
#
# number of rings (size 3 to 8) (size 9 to 14) (size 15 to 20)
#    0.000    1.273    2.727    3.545    8.909    0.727 
#    0.000    2.727    0.000    0.000    0.000    0.000 
#    0.000    0.000    0.000    0.000    0.000    0.000 
#
# Total GULP energy -122711.224042 kJ/mol
# GULP energy per Si atom -5577.782911 kJ/mol
# Density = 0.982634 g / cm^3
# Si number density = 9.848752 Si / 1000 Ang^3
#
#
#
# Elastic Constant Matrix: (Units=GPa)
#
#
# Indices 1 2 3 4 5 6 
#
# 1 120.0129 32.8579 26.6526 0.0000 -9.4902 0.0000
# 2 32.8579 129.2115 34.4495 0.0000 2.7177 0.0000
# 3 26.6526 34.4495 67.9193 0.0000 -25.7755 0.0000
# 4 0.0000 0.0000 0.0000 11.2420 0.0000 -1.7981
# 5 -9.4902 2.7177 -25.7755 0.0000 35.8746 0.0000
# 6 0.0000 0.0000 0.0000 -1.7981 0.0000 19.1515
#
#
#
# Elastic Compliance Matrix: (Units=1/GPa)
#
#
# Indices 1 2 3 4 5 6 
#
# 1 0.009432 -0.001750 -0.002497 0.000000 0.000834 0.000000
# 2 -0.001750 0.010111 -0.006748 0.000000 -0.006077 0.000000
# 3 -0.002497 -0.006748 0.026218 0.000000 0.018688 0.000000
# 4 0.000000 0.000000 0.000000 0.090308 0.000000 0.008479
# 5 0.000834 -0.006077 0.018688 0.000000 0.041983 0.000000
# 6 0.000000 0.000000 0.000000 0.008479 0.000000 0.053011
#
#
# Mechanical properties :
#
#
# Convention : Reuss Voigt Hill
#
# Bulk Modulus (GPa) = 42.06924 56.11818 49.09371
# Shear Modulus (GPa) = 19.15861 28.13252 23.64557
#
# Velocity S-wave (km/s) = 3.12210 3.78329 3.46849
# Velocity P-wave (km/s) = 5.86521 6.90190 6.40457
#
# Compressibility (1/GPa) = 0.02377034
#
# Stress axis : x y z
#
# Youngs Moduli (GPa) = 106.02047 98.89913 38.14137
#
# Poissons Ratio (x) = 0.17310 0.09525
# Poissons Ratio (y) = 0.18557 0.25738
# Poissons Ratio (z) = 0.26476 0.66739
#
# Static dielectric constant tensor:
#      x y z
#    x 1.694810 0.000000 0.035630 
#    y 0.000000 1.654050 0.000000 
#    z 0.035630 0.000000 1.749140 
# 
# From -- ./inp_files/256888.got.cif
#   From: 2010.05.17/outbox.ucp.g08.bks.cvg/sg12_129_cif.got.tgz:256888.got - 2010.06.11 11:47:21.
