data_PCOD9225710
_publ_section_title
;
Structure prediction by ZEFSAII (Michael W. Deem and Ramdas Pophale) SiO2 
 PCOD9225710
Probable space group: C 2/M
;
_chemical_formula_sum "Si O2"
_cell_formula_units_Z 20
_cell_length_a 9.000000
_cell_length_b 27.000000
_cell_length_c 12.000000
_cell_angle_alpha 90.000000
_cell_angle_beta 50.000000
_cell_angle_gamma 90.000000
_cell_volume 2233.785596
_symmetry_space_group_name_H-M "C 2/M"
_symmetry_group_IT_number 12
_symmetry_cell_setting 'monoclinic'
loop_
_space_group_symop_operation_xyz
x,y,z
-x,y,-z
-x,-y,-z
x,-y,z
1/2+x,1/2+y,z
1/2-x,1/2+y,-z
1/2-x,1/2-y,-z
1/2+x,1/2-y,z
loop_
_atom_site_type_symbol
_atom_site_label
_atom_site_fract_x
_atom_site_fract_y
_atom_site_fract_z
Si Si1 0.731271 0.220710 0.860860
Si Si2 0.269512 0.359424 0.646529
Si Si3 0.016102 0.140966 0.126797
Si Si4 0.271926 0.939608 0.145249
Si Si5 0.585018 0.819230 0.337722
O O1 0.741179 0.184322 0.749964
O O2 0.853960 0.189079 0.895556
O O3 0.839628 0.271856 0.772283
O O4 0.500000 0.227268 0.000000
O O5 0.500000 0.357432 0.500000
O O6 0.243895 0.411328 0.727222
O O7 0.093253 0.348274 0.641526
O O8 0.127356 0.093718 0.133426
O O9 0.786821 0.150333 0.266461
O O10 0.000000 0.135682 0.000000
O O11 0.230558 0.000000 0.166292
O O12 0.500000 0.934137 0.000000
O O13 0.500000 0.803635 0.500000
#
# Coordination Sequence:
#
# PCOD9225710 Si02
#       5
#     8   8   8   8   8
#     4  11  23  39  59  86 123 164 199 234 287 351
#     4  11  23  41  62  85 119 159 198 240 292 356
#     4  11  22  38  61  89 120 152 196 247 289 340
#     4  10  22  42  66  89 116 153 194 239 298 360
#     4  12  24  38  58  87 121 158 200 245 289 337
#
# _framework density 8.9534109999999991
#
# number of rings (size 3 to 8) (size 9 to 14) (size 15 to 20)
#    0.000    1.000    0.000    9.600    0.000    5.600 
#    0.000    4.000    0.000    2.400    0.000    0.000 
#    0.000    0.000    0.000    0.000    0.000    0.000 
#
# Total GULP energy -111546.719371 kJ/mol
# GULP energy per Si atom -5577.335969 kJ/mol
# Density = 0.893303 g / cm^3
# Si number density = 8.953411 Si / 1000 Ang^3
#
#
#
# Elastic Constant Matrix: (Units=GPa)
#
#
# Indices 1 2 3 4 5 6 
#
# 1 184.1171 66.6608 55.3777 0.0000 -10.9732 0.0000
# 2 66.6608 146.3802 52.5226 0.0000 -5.5976 0.0000
# 3 55.3777 52.5226 146.0106 0.0000 -21.8718 0.0000
# 4 0.0000 0.0000 0.0000 32.1564 0.0000 -4.3803
# 5 -10.9732 -5.5976 -21.8718 0.0000 48.9214 0.0000
# 6 0.0000 0.0000 0.0000 -4.3803 0.0000 40.2211
#
#
#
# Elastic Compliance Matrix: (Units=1/GPa)
#
#
# Indices 1 2 3 4 5 6 
#
# 1 0.006863 -0.002526 -0.001615 0.000000 0.000528 0.000000
# 2 -0.002526 0.008780 -0.002288 0.000000 -0.000585 0.000000
# 3 -0.001615 -0.002288 0.008779 0.000000 0.003301 0.000000
# 4 0.000000 0.000000 0.000000 0.031566 0.000000 0.003438
# 5 0.000528 -0.000585 0.003301 0.000000 0.021968 0.000000
# 6 0.000000 0.000000 0.000000 0.003438 0.000000 0.025237
#
#
# Mechanical properties :
#
#
# Convention : Reuss Voigt Hill
#
# Bulk Modulus (GPa) = 86.47375 91.73667 89.10521
# Shear Modulus (GPa) = 41.69903 44.38956 43.04430
#
# Velocity S-wave (km/s) = 4.83086 4.98428 4.90817
# Velocity P-wave (km/s) = 8.91696 9.19050 9.05476
#
# Compressibility (1/GPa) = 0.01156420
#
# Stress axis : x y z
#
# Youngs Moduli (GPa) = 145.70729 113.89110 113.90812
#
# Poissons Ratio (x) = 0.28764 0.18400
# Poissons Ratio (y) = 0.36800 0.26064
# Poissons Ratio (z) = 0.23537 0.26060
#
# Static dielectric constant tensor:
#      x y z
#    x 1.643180 0.000000 0.016870 
#    y 0.000000 1.627000 0.000000 
#    z 0.016870 0.000000 1.667120 
# 
# From -- ./inp_files/40505.got.cif
#   From: 2010.05.17/outbox.ucp.g08.bks.cvg/sg12_21_cif.got.tgz:40505.got - 2010.06.11 11:47:21.
