data_PCOD9225354
_publ_section_title
;
Structure prediction by ZEFSAII (Michael W. Deem and Ramdas Pophale) SiO2 
 PCOD9225354
Probable space group: C 2/M
;
_chemical_formula_sum "Si O2"
_cell_formula_units_Z 32
_cell_length_a 30.000000
_cell_length_b 9.000000
_cell_length_c 12.000000
_cell_angle_alpha 90.000000
_cell_angle_beta 90.000000
_cell_angle_gamma 90.000000
_cell_volume 3240.000000
_symmetry_space_group_name_H-M "C 2/M"
_symmetry_group_IT_number 12
_symmetry_cell_setting 'monoclinic'
loop_
_space_group_symop_operation_xyz
x,y,z
-x,y,-z
-x,-y,-z
x,-y,z
1/2+x,1/2+y,z
1/2-x,1/2+y,-z
1/2-x,1/2-y,-z
1/2+x,1/2-y,z
loop_
_atom_site_type_symbol
_atom_site_label
_atom_site_fract_x
_atom_site_fract_y
_atom_site_fract_z
Si Si1 0.255284 0.822594 0.839335
Si Si2 0.441841 0.172864 0.826269
Si Si3 0.276842 0.178195 0.598297
Si Si4 0.050784 0.824634 0.524233
Si Si5 0.177928 0.822266 0.005829
Si Si6 0.575482 0.675078 0.956999
Si Si7 0.622073 0.178780 0.363550
Si Si8 0.538772 0.829418 0.742440
O O1 0.251343 0.784072 0.711502
O O2 0.212223 0.774587 0.908697
O O3 0.259221 0.000000 0.849737
O O4 0.300372 0.753112 0.887205
O O5 0.398161 0.217266 0.757133
O O6 0.485135 0.181146 0.748199
O O7 0.438003 0.000000 0.863029
O O8 0.448510 0.282132 0.928565
O O9 0.250000 0.250000 0.500000
O O10 0.327950 0.229379 0.611652
O O11 0.277862 0.000000 0.586327
O O12 0.087262 0.743873 0.450635
O O13 0.058318 0.780901 0.651618
O O14 0.000000 0.775203 0.500000
O O15 0.053234 0.000000 0.504913
O O16 0.127392 0.786442 0.977378
O O17 0.180523 0.000000 0.017904
O O18 0.571319 0.500000 0.931864
O O19 0.556511 0.778005 0.861034
O O20 0.621231 0.000000 0.368846
O O21 0.550381 0.000000 0.717340
#
# Coordination Sequence:
#
# PCOD9225354 Si02
#       8
#     8   8   8   8   8   8   8   8
#     4   9  18  36  60  81 108 146 189 235 281 333
#     4  10  21  38  60  83 111 150 197 240 283 341
#     4  10  22  38  58  85 117 153 194 241 292 345
#     4  11  23  39  61  88 117 148 190 241 295 352
#     4   9  19  35  56  84 113 146 184 229 287 342
#     4  11  23  36  53  83 123 155 187 235 290 346
#     4  10  21  39  62  87 115 153 200 244 292 350
#     4  11  23  39  60  83 112 153 195 238 287 341
#
# _framework density 9.8765429999999999
#
# number of rings (size 3 to 8) (size 9 to 14) (size 15 to 20)
#    0.000    1.875    1.250    2.250    0.000    7.500 
#    0.000    1.250    0.000    0.000    0.000    0.000 
#    0.000    0.000    0.000    0.000    0.000    0.000 
#
# Total GULP energy -178589.649937 kJ/mol
# GULP energy per Si atom -5580.926561 kJ/mol
# Density = 0.985406 g / cm^3
# Si number density = 9.876543 Si / 1000 Ang^3
#
#
#
# Elastic Constant Matrix: (Units=GPa)
#
#
# Indices 1 2 3 4 5 6 
#
# 1 14.1730 2.6525 18.7164 0.0000 6.7976 0.0000
# 2 2.6525 -22.3051 9.5750 0.0000 6.5809 0.0000
# 3 18.7164 9.5750 85.1934 0.0000 10.6103 0.0000
# 4 0.0000 0.0000 0.0000 -7.9306 0.0000 8.6706
# 5 6.7976 6.5809 10.6103 0.0000 20.7366 0.0000
# 6 0.0000 0.0000 0.0000 8.6706 0.0000 28.9325
#
#
#
# Elastic Compliance Matrix: (Units=1/GPa)
#
#
# Indices 1 2 3 4 5 6 
#
# 1 0.110464 -0.003067 -0.020864 0.000000 -0.024562 0.000000
# 2 -0.003067 -0.040113 0.003708 0.000000 0.011838 0.000000
# 3 -0.020864 0.003708 0.016234 0.000000 -0.002644 0.000000
# 4 0.000000 0.000000 0.000000 -0.094975 0.000000 0.028463
# 5 -0.024562 0.011838 -0.002644 0.000000 0.053871 0.000000
# 6 0.000000 0.000000 0.000000 0.028463 0.000000 0.026033
#
#
# Mechanical properties :
#
#
# Convention : Reuss Voigt Hill
#
# Bulk Modulus (GPa) = 21.67432 15.43878 18.55655
# Shear Modulus (GPa) = 39.26481 11.42220 25.34351
#
# Velocity S-wave (km/s) = 4.46329 2.40729 3.58581
# Velocity P-wave (km/s) = 6.12844 3.94456 5.15351
#
# Compressibility (1/GPa) = 0.04613755
#
# Stress axis : x y z
#
# Youngs Moduli (GPa) = 9.05276 -24.92950 61.59789
#
# Poissons Ratio (x) = -0.07646 1.28520
# Poissons Ratio (y) = 0.02776 -0.22839
# Poissons Ratio (z) = 0.18888 0.09243
#
# Static dielectric constant tensor:
#      x y z
#    x 1.693690 0.000000 -0.013390 
#    y 0.000000 1.655520 0.000000 
#    z -0.013390 0.000000 1.716710 
# 
# From -- ./inp_files/187494.got.cif
#   From: 2010.05.17/outbox.ucp.g08.bks.cvg/sg12_94_cif.got.tgz:187494.got - 2010.06.11 11:47:21.
