data_PCOD9225695
_publ_section_title
;
Structure prediction by ZEFSAII (Michael W. Deem and Ramdas Pophale) SiO2 
 PCOD9225695
Probable space group: C 2/M
;
_chemical_formula_sum "Si O2"
_cell_formula_units_Z 32
_cell_length_a 18.000000
_cell_length_b 24.000000
_cell_length_c 21.000000
_cell_angle_alpha 90.000000
_cell_angle_beta 160.000000
_cell_angle_gamma 90.000000
_cell_volume 3102.806740
_symmetry_space_group_name_H-M "C 2/M"
_symmetry_group_IT_number 12
_symmetry_cell_setting 'monoclinic'
loop_
_space_group_symop_operation_xyz
x,y,z
-x,y,-z
-x,-y,-z
x,-y,z
1/2+x,1/2+y,z
1/2-x,1/2+y,-z
1/2-x,1/2-y,-z
1/2+x,1/2-y,z
loop_
_atom_site_type_symbol
_atom_site_label
_atom_site_fract_x
_atom_site_fract_y
_atom_site_fract_z
Si Si1 0.233987 0.563426 0.884111
Si Si2 0.251040 0.936782 0.532123
Si Si3 0.907662 0.734840 0.494989
Si Si4 0.904955 0.916072 0.159583
Si Si5 0.086148 0.200966 0.883333
Si Si6 0.294475 0.674954 0.876271
Si Si7 0.008204 0.563266 0.929967
Si Si8 0.832406 0.866703 0.417653
O O1 0.228643 0.500000 0.856545
O O2 0.272353 0.607788 0.859104
O O3 0.000108 0.579065 0.725151
O O4 0.377992 0.565335 0.064598
O O5 0.140407 0.897129 0.493767
O O6 0.139399 0.931888 0.374335
O O7 0.240240 0.000000 0.546886
O O8 0.669285 0.713596 0.320815
O O9 0.874172 0.801560 0.463288
O O10 0.000000 0.716979 0.500000
O O11 0.084606 0.709873 0.685994
O O12 0.877259 0.849831 0.134753
O O13 0.739467 0.938986 0.079688
O O14 0.250000 0.250000 0.000000
O O15 0.149817 0.184708 0.005835
O O16 0.500000 0.692646 0.000000
O O17 0.914444 0.500000 0.847181
O O18 0.888338 0.611502 0.792926
O O19 0.000000 0.574826 0.000000
O O20 0.000000 0.886696 0.500000
#
# Coordination Sequence:
#
# PCOD9225695 Si02
#       8
#     8   8   8   8   8   8   8   8
#     4  10  22  41  66  97 130 164 211 270 329 396
#     4  11  22  38  62  90 129 172 210 265 327 384
#     4  11  24  46  67  95 135 175 221 275 329 395
#     4  11  22  39  62  94 128 167 216 265 324 391
#     4  11  25  42  68 100 129 173 222 273 331 395
#     4  11  24  45  72  96 130 175 217 271 337 392
#     4  11  22  39  63  91 133 178 219 271 326 390
#     4  11  24  39  57  91 125 170 221 270 320 383
#
# _framework density 10.313243
#
# number of rings (size 3 to 8) (size 9 to 14) (size 15 to 20)
#    0.000    1.125    2.500    3.750    3.500    2.750 
#    4.500    0.000    0.000    0.375    0.000    0.000 
#    0.000    0.000    0.000    0.000    0.000    0.000 
#
# Total GULP energy -178454.509331 kJ/mol
# GULP energy per Si atom -5576.703417 kJ/mol
# Density = 1.028977 g / cm^3
# Si number density = 10.313243 Si / 1000 Ang^3
#
#
#
# Elastic Constant Matrix: (Units=GPa)
#
#
# Indices 1 2 3 4 5 6 
#
# 1 54.8346 42.5575 36.2314 0.0845 -5.3069 -0.0892
# 2 42.5575 50.6228 30.5330 -0.5310 30.0483 1.2482
# 3 36.2314 30.5330 111.9959 -0.1599 -3.1344 0.4055
# 4 0.0845 -0.5310 -0.1599 15.5760 0.1788 13.6702
# 5 -5.3069 30.0483 -3.1344 0.1788 22.5369 -0.0984
# 6 -0.0892 1.2482 0.4055 13.6702 -0.0984 10.2205
#
#
#
# Elastic Compliance Matrix: (Units=1/GPa)
#
#
# Indices 1 2 3 4 5 6 
#
# 1 -0.001258 0.027583 -0.008316 -0.024695 -0.037904 0.029616
# 2 0.027583 -0.030608 0.000922 0.032094 0.047010 -0.038532
# 3 -0.008316 0.000922 0.011298 -0.004483 -0.001557 0.005348
# 4 -0.024695 0.032094 -0.004483 -0.401042 -0.043725 0.532023
# 5 -0.037904 0.047010 -0.001557 -0.043725 -0.026873 0.052215
# 6 0.029616 -0.038532 0.005348 0.532023 0.052215 -0.608494
#
#
# Mechanical properties :
#
#
# Convention : Reuss Voigt Hill
#
# Bulk Modulus (GPa) = 50.47756 48.45522 49.46639
# Shear Modulus (GPa) = -4.58400 16.87545 6.14573
#
# Velocity S-wave (km/s) = -1.49238 2.86343 1.72800
# Velocity P-wave (km/s) = 4.64281 5.87154 5.29296
#
# Compressibility (1/GPa) = 0.01981078
#
# Stress axis : x y z
#
# Youngs Moduli (GPa) = -794.76285 -32.67146 88.50747
#
# Poissons Ratio (x) = 0.90118 0.73604
# Poissons Ratio (y) = 21.92208 -0.08161
# Poissons Ratio (z) = -6.60933 0.03013
#
# Static dielectric constant tensor:
#      x y z
#    x 1.729600 0.000060 0.027780 
#    y 0.000060 1.821250 0.000020 
#    z 0.027780 0.000020 1.809590 
# 
# From -- ./inp_files/286447.got.cif
#   From: 2010.05.17/outbox.ucp.g08.bks.cvg/sg12_144_cif.got.tgz:286447.got - 2010.06.11 11:47:21.
