data_PCOD9225611
_publ_section_title
;
Structure prediction by ZEFSAII (Michael W. Deem and Ramdas Pophale) SiO2 
 PCOD9225611
Probable space group: C 2/M
;
_chemical_formula_sum "Si O2"
_cell_formula_units_Z 32
_cell_length_a 30.000000
_cell_length_b 9.000000
_cell_length_c 18.000000
_cell_angle_alpha 90.000000
_cell_angle_beta 140.000000
_cell_angle_gamma 90.000000
_cell_volume 3123.947783
_symmetry_space_group_name_H-M "C 2/M"
_symmetry_group_IT_number 12
_symmetry_cell_setting 'monoclinic'
loop_
_space_group_symop_operation_xyz
x,y,z
-x,y,-z
-x,-y,-z
x,-y,z
1/2+x,1/2+y,z
1/2-x,1/2+y,-z
1/2-x,1/2-y,-z
1/2+x,1/2-y,z
loop_
_atom_site_type_symbol
_atom_site_label
_atom_site_fract_x
_atom_site_fract_y
_atom_site_fract_z
Si Si1 0.822372 0.176278 0.789034
Si Si2 0.076107 0.173603 0.627106
Si Si3 0.324649 0.175856 0.118036
Si Si4 0.036222 0.827603 0.956032
Si Si5 0.562165 0.669739 0.815293
Si Si6 0.604733 0.824515 0.242133
Si Si7 0.812626 0.830356 0.360860
Si Si8 0.588782 0.677440 0.380022
O O1 0.890027 0.226862 0.920621
O O2 0.831803 0.251649 0.721043
O O3 0.751943 0.226143 0.737347
O O4 0.824638 0.000000 0.784815
O O5 0.124870 0.254380 0.752012
O O6 0.127195 0.175724 0.622472
O O7 0.000000 0.228536 0.500000
O O8 0.065306 0.000000 0.635658
O O9 0.376708 0.214384 0.117566
O O10 0.314696 0.000000 0.117574
O O11 0.250000 0.250000 0.000000
O O12 0.027558 0.000000 0.965999
O O13 0.041950 0.828315 0.874994
O O14 0.966789 0.737956 0.884741
O O15 0.584031 0.500000 0.824855
O O16 0.487888 0.706644 0.682686
O O17 0.602024 0.769775 0.323069
O O18 0.607082 0.000000 0.240036
O O19 0.850226 0.790427 0.485218
O O20 0.786930 0.000000 0.332279
O O21 0.588643 0.500000 0.363301
#
# Coordination Sequence:
#
# PCOD9225611 Si02
#       8
#     8   8   8   8   8   8   8   8
#     4  11  23  38  57  83 119 161 199 242 299 359
#     4  10  22  44  71  96 126 166 209 257 319 387
#     4  12  26  41  61  92 129 167 210 260 316 374
#     4   9  20  38  60  84 115 157 199 240 296 364
#     4   9  18  37  63  88 115 152 198 246 302 365
#     4  11  22  36  58  88 118 153 199 250 297 348
#     4  10  22  39  62  91 119 152 197 248 300 357
#     4   9  19  39  64  87 116 155 196 241 297 362
#
# _framework density 10.243449
#
# number of rings (size 3 to 8) (size 9 to 14) (size 15 to 20)
#    0.000    1.875    0.000    4.500    1.750    8.250 
#    0.000    1.250    0.000    0.000    0.000    0.000 
#    0.000    0.000    0.000    0.000    0.000    0.000 
#
# Total GULP energy -178366.402348 kJ/mol
# GULP energy per Si atom -5573.950073 kJ/mol
# Density = 1.022013 g / cm^3
# Si number density = 10.243449 Si / 1000 Ang^3
#
#
#
# Elastic Constant Matrix: (Units=GPa)
#
#
# Indices 1 2 3 4 5 6 
#
# 1 56.8096 6.1382 31.9977 0.0000 8.9301 0.0000
# 2 6.1382 39.6613 45.3678 0.0000 8.7597 0.0000
# 3 31.9977 45.3678 104.3150 0.0000 9.3909 0.0000
# 4 0.0000 0.0000 0.0000 -17.9831 0.0000 36.7021
# 5 8.9301 8.7597 9.3909 0.0000 21.3036 0.0000
# 6 0.0000 0.0000 0.0000 36.7021 0.0000 -6.9562
#
#
#
# Elastic Compliance Matrix: (Units=1/GPa)
#
#
# Indices 1 2 3 4 5 6 
#
# 1 0.024536 0.011916 -0.011810 0.000000 -0.009979 0.000000
# 2 0.011916 0.058805 -0.027703 0.000000 -0.016963 0.000000
# 3 -0.011810 -0.027703 0.024769 0.000000 0.005423 0.000000
# 4 0.000000 0.000000 0.000000 0.005693 0.000000 0.030036
# 5 -0.009979 -0.016963 0.005423 0.000000 0.055708 0.000000
# 6 0.000000 0.000000 0.000000 0.030036 0.000000 0.014717
#
#
# Mechanical properties :
#
#
# Convention : Reuss Voigt Hill
#
# Bulk Modulus (GPa) = 18.89804 40.86591 29.88198
# Shear Modulus (GPa) = 19.45076 7.09166 13.27121
#
# Velocity S-wave (km/s) = 3.08462 1.86254 2.54793
# Velocity P-wave (km/s) = 4.68305 4.96146 4.82426
#
# Compressibility (1/GPa) = 0.05291554
#
# Stress axis : x y z
#
# Youngs Moduli (GPa) = 40.75676 17.00547 40.37274
#
# Poissons Ratio (x) = -0.20264 0.47682
# Poissons Ratio (y) = -0.48567 1.11844
# Poissons Ratio (z) = 0.48135 0.47110
#
# Static dielectric constant tensor:
#      x y z
#    x 1.799380 0.000000 -0.051010 
#    y 0.000000 1.702780 0.000000 
#    z -0.051010 0.000000 1.780610 
# 
# From -- ./inp_files/295866.got.cif
#   From: 2010.05.17/outbox.ucp.g08.bks.cvg/sg12_148_cif.got.tgz:295866.got - 2010.06.11 11:47:21.
