data_PCOD9225226
_publ_section_title
;
Structure prediction by ZEFSAII (Michael W. Deem and Ramdas Pophale) SiO2 
 PCOD9225226
Probable space group: C 2/M
;
_chemical_formula_sum "Si O2"
_cell_formula_units_Z 32
_cell_length_a 21.000000
_cell_length_b 18.000000
_cell_length_c 27.000000
_cell_angle_alpha 90.000000
_cell_angle_beta 20.000000
_cell_angle_gamma 90.000000
_cell_volume 3490.657583
_symmetry_space_group_name_H-M "C 2/M"
_symmetry_group_IT_number 12
_symmetry_cell_setting 'monoclinic'
loop_
_space_group_symop_operation_xyz
x,y,z
-x,y,-z
-x,-y,-z
x,-y,z
1/2+x,1/2+y,z
1/2-x,1/2+y,-z
1/2-x,1/2-y,-z
1/2+x,1/2-y,z
loop_
_atom_site_type_symbol
_atom_site_label
_atom_site_fract_x
_atom_site_fract_y
_atom_site_fract_z
Si Si1 0.365004 0.668903 0.700860
Si Si2 0.137035 0.588598 0.781054
Si Si3 0.441329 0.412507 0.350829
Si Si4 0.674780 0.709519 0.905724
Si Si5 0.705267 0.589234 0.069370
Si Si6 0.086756 0.790144 0.086834
Si Si7 0.893348 0.680336 0.384521
Si Si8 0.239775 0.302275 0.626581
O O1 0.235925 0.626895 0.755682
O O2 0.470109 0.615130 0.662556
O O3 0.228485 0.718246 0.834241
O O4 0.542825 0.713288 0.546370
O O5 0.151386 0.500000 0.774277
O O6 0.244033 0.623430 0.656264
O O7 0.918049 0.607366 0.930658
O O8 0.452351 0.500000 0.340680
O O9 0.566919 0.382472 0.213878
O O10 0.228771 0.386026 0.503771
O O11 0.892203 0.679541 0.754063
O O12 0.500000 0.675907 0.000000
O O13 0.608543 0.718552 0.011474
O O14 0.697408 0.500000 0.071627
O O15 0.629455 0.626216 0.074441
O O16 0.885043 0.758332 0.252239
O O17 0.250000 0.750000 0.000000
O O18 0.750000 0.750000 0.500000
O O19 0.880713 0.679578 0.334304
#
# Coordination Sequence:
#
# PCOD9225226 Si02
#       8
#     8   8   8   8   8   8   8   8
#     4  11  24  36  55  88 133 169 201 244 303 374
#     4  11  23  38  56  88 136 174 203 243 301 378
#     4  10  21  36  61  91 119 160 209 252 307 372
#     4  12  25  38  61  95 125 158 209 256 314 364
#     4  10  22  39  63  93 121 160 211 255 311 376
#     4  12  21  39  66  88 118 165 207 265 306 356
#     4  11  20  39  60  85 118 160 204 265 303 352
#     4  11  22  36  59  85 113 169 217 249 295 351
#
# _framework density 9.1673270000000002
#
# number of rings (size 3 to 8) (size 9 to 14) (size 15 to 20)
#    0.000    1.000    5.000    3.000    1.750    3.000 
#    0.000    2.500    0.000    1.500    0.000    1.750 
#    0.000    0.000    0.000    0.000    0.000    0.000 
#
# Total GULP energy -178317.662653 kJ/mol
# GULP energy per Si atom -5572.426958 kJ/mol
# Density = 0.914646 g / cm^3
# Si number density = 9.167327 Si / 1000 Ang^3
#
#
#
# Elastic Constant Matrix: (Units=GPa)
#
#
# Indices 1 2 3 4 5 6 
#
# 1 139.6678 34.8225 49.7396 -0.0095 1.3580 0.0039
# 2 34.8225 46.7771 26.6421 -0.0169 -1.1131 0.0059
# 3 49.7396 26.6421 127.3477 -0.0522 -0.6052 0.0037
# 4 -0.0095 -0.0169 -0.0522 30.9844 0.0133 -5.2671
# 5 1.3580 -1.1131 -0.6052 0.0133 37.5690 0.0013
# 6 0.0039 0.0059 0.0037 -5.2671 0.0013 30.4443
#
#
#
# Elastic Compliance Matrix: (Units=1/GPa)
#
#
# Indices 1 2 3 4 5 6 
#
# 1 0.009466 -0.005622 -0.002523 -0.000004 -0.000549 -0.000001
# 2 -0.005622 0.027625 -0.003579 0.000006 0.000964 -0.000003
# 3 -0.002523 -0.003579 0.009587 0.000014 0.000140 0.000002
# 4 -0.000004 0.000006 0.000014 0.033252 -0.000011 0.005753
# 5 -0.000549 0.000964 0.000140 -0.000011 0.026668 -0.000003
# 6 -0.000001 -0.000003 0.000002 0.005753 -0.000003 0.033842
#
#
# Mechanical properties :
#
#
# Convention : Reuss Voigt Hill
#
# Bulk Modulus (GPa) = 43.05014 59.57788 51.31401
# Shear Modulus (GPa) = 29.13196 33.30543 31.21869
#
# Velocity S-wave (km/s) = 3.99043 4.26670 4.13087
# Velocity P-wave (km/s) = 6.69048 7.53911 7.12744
#
# Compressibility (1/GPa) = 0.02322873
#
# Stress axis : x y z
#
# Youngs Moduli (GPa) = 105.64500 36.19946 104.30252
#
# Poissons Ratio (x) = 0.20353 0.26320
# Poissons Ratio (y) = 0.59398 0.37327
# Poissons Ratio (z) = 0.26659 0.12955
#
# Static dielectric constant tensor:
#      x y z
#    x 1.649160 -0.000010 0.025820 
#    y -0.000010 1.701580 0.000030 
#    z 0.025820 0.000030 1.681820 
# 
# From -- ./inp_files/366788.got.cif
#   From: 2010.05.17/outbox.ucp.g08.bks.cvg/sg12_184_cif.got.tgz:366788.got - 2010.06.11 11:47:21.
