data_PCOD9225705
_publ_section_title
;
Structure prediction by ZEFSAII (Michael W. Deem and Ramdas Pophale) SiO2 
 PCOD9225705
Probable space group: C 2/M
;
_chemical_formula_sum "Si O2"
_cell_formula_units_Z 28
_cell_length_a 21.000000
_cell_length_b 21.000000
_cell_length_c 18.000000
_cell_angle_alpha 90.000000
_cell_angle_beta 20.000000
_cell_angle_gamma 90.000000
_cell_volume 2714.955898
_symmetry_space_group_name_H-M "C 2/M"
_symmetry_group_IT_number 12
_symmetry_cell_setting 'monoclinic'
loop_
_space_group_symop_operation_xyz
x,y,z
-x,y,-z
-x,-y,-z
x,-y,z
1/2+x,1/2+y,z
1/2-x,1/2+y,-z
1/2-x,1/2-y,-z
1/2+x,1/2-y,z
loop_
_atom_site_type_symbol
_atom_site_label
_atom_site_fract_x
_atom_site_fract_y
_atom_site_fract_z
Si Si1 0.474434 0.612612 0.861502
Si Si2 0.852310 0.647394 0.480704
Si Si3 0.865385 0.706274 0.078856
Si Si4 0.050461 0.253034 0.175680
Si Si5 0.198790 0.072176 0.240219
Si Si6 0.707721 0.838649 0.281441
Si Si7 0.205824 0.430253 0.036443
O O1 0.692090 0.599057 0.629986
O O2 0.482184 0.681446 0.813627
O O3 0.365687 0.569689 0.923076
O O4 0.357446 0.623416 0.066520
O O5 0.779228 0.660157 0.644150
O O6 0.890795 0.716390 0.401798
O O7 0.050586 0.616164 0.241813
O O8 0.797955 0.634372 0.164577
O O9 0.719248 0.765195 0.241016
O O10 0.943407 0.709074 0.909324
O O11 0.000000 0.722597 0.000000
O O12 0.250000 0.250000 0.000000
O O13 0.207808 0.083786 0.140252
O O14 0.000000 0.071592 0.500000
O O15 0.276349 0.000000 0.166441
O O16 0.500000 0.865397 0.500000
O O17 0.120085 0.500000 0.123803
#
# Coordination Sequence:
#
# PCOD9225705 Si02
#       7
#     8   8   8   8   8   8   8
#     4  11  23  39  64  96 130 163 218 267 329 389
#     4  12  22  40  66  95 130 169 215 272 324 390
#     4  11  22  36  59  96 130 160 215 264 322 386
#     4  11  20  39  63  93 127 174 214 264 335 396
#     4  10  22  42  64  86 122 171 217 263 318 384
#     4  11  21  39  63  94 132 169 201 264 334 394
#     4  11  24  45  67  91 127 174 223 268 323 388
#
# _framework density 10.313243
#
# number of rings (size 3 to 8) (size 9 to 14) (size 15 to 20)
#    0.000    1.000    4.286    3.857    0.000    3.143 
#    0.000    1.429    0.000    1.714    0.000    0.000 
#    0.000    0.000    0.000    0.000    0.000    0.000 
#
# Total GULP energy -155890.706752 kJ/mol
# GULP energy per Si atom -5567.525241 kJ/mol
# Density = 1.028977 g / cm^3
# Si number density = 10.313243 Si / 1000 Ang^3
#
#
#
# Elastic Constant Matrix: (Units=GPa)
#
#
# Indices 1 2 3 4 5 6 
#
# 1 85.2778 -4.3107 46.8743 -0.0090 22.3552 -0.0030
# 2 -4.3107 64.0573 8.4464 0.0024 9.0345 0.0097
# 3 46.8743 8.4464 111.8163 0.0366 11.0407 0.0019
# 4 -0.0090 0.0024 0.0366 12.2122 -0.0048 1.5691
# 5 22.3552 9.0345 11.0407 -0.0048 33.1735 -0.0122
# 6 -0.0030 0.0097 0.0019 1.5691 -0.0122 22.2552
#
#
#
# Elastic Compliance Matrix: (Units=1/GPa)
#
#
# Indices 1 2 3 4 5 6 
#
# 1 0.018750 0.003786 -0.007028 0.000031 -0.011328 -0.000007
# 2 0.003786 0.017072 -0.002239 0.000005 -0.006455 -0.000011
# 3 -0.007028 -0.002239 0.011922 -0.000040 0.001378 0.000003
# 4 0.000031 0.000005 -0.000040 0.082634 0.000001 -0.005826
# 5 -0.011328 -0.006455 0.001378 0.000001 0.039078 0.000023
# 6 -0.000007 -0.000011 0.000003 -0.005826 0.000023 0.045344
#
#
# Mechanical properties :
#
#
# Convention : Reuss Voigt Hill
#
# Bulk Modulus (GPa) = 27.18706 40.35237 33.76972
# Shear Modulus (GPa) = 21.00641 27.53760 24.27201
#
# Velocity S-wave (km/s) = 3.19473 3.65781 3.43409
# Velocity P-wave (km/s) = 5.17858 6.11926 5.66846
#
# Compressibility (1/GPa) = 0.03678220
#
# Stress axis : x y z
#
# Youngs Moduli (GPa) = 53.33281 58.57704 83.87535
#
# Poissons Ratio (x) = -0.22178 0.58945
# Poissons Ratio (y) = -0.20192 0.18782
# Poissons Ratio (z) = 0.37481 0.13117
#
# Static dielectric constant tensor:
#      x y z
#    x 1.868500 -0.000010 -0.065660 
#    y -0.000010 1.796290 0.000030 
#    z -0.065660 0.000030 1.753820 
# 
# From -- ./inp_files/286001.got.cif
#   From: 2010.05.17/outbox.ucp.g08.bks.cvg/sg12_144_cif.got.tgz:286001.got - 2010.06.11 11:47:21.
