data_PCOD9225936
_publ_section_title
;
Structure prediction by ZEFSAII (Michael W. Deem and Ramdas Pophale) SiO2 
 PCOD9225936
Probable space group: C 2/M
;
_chemical_formula_sum "Si O2"
_cell_formula_units_Z 20
_cell_length_a 24.000000
_cell_length_b 9.000000
_cell_length_c 9.000000
_cell_angle_alpha 90.000000
_cell_angle_beta 90.000000
_cell_angle_gamma 90.000000
_cell_volume 1944.000000
_symmetry_space_group_name_H-M "C 2/M"
_symmetry_group_IT_number 12
_symmetry_cell_setting 'monoclinic'
loop_
_space_group_symop_operation_xyz
x,y,z
-x,y,-z
-x,-y,-z
x,-y,z
1/2+x,1/2+y,z
1/2-x,1/2+y,-z
1/2-x,1/2-y,-z
1/2+x,1/2-y,z
loop_
_atom_site_type_symbol
_atom_site_label
_atom_site_fract_x
_atom_site_fract_y
_atom_site_fract_z
Si Si1 0.252609 0.179512 0.835045
Si Si2 0.565210 0.823398 0.965651
Si Si3 0.935294 0.677837 0.538375
Si Si4 0.130142 0.822121 0.214232
Si Si5 0.127920 0.822884 0.714066
O O1 0.307966 0.253588 0.762331
O O2 0.192645 0.208994 0.755927
O O3 0.259589 0.000000 0.842492
O O4 0.250000 0.250000 0.000000
O O5 0.610086 0.718043 0.048293
O O6 0.574493 0.000000 0.992796
O O7 0.500000 0.792183 0.000000
O O8 0.582687 0.779910 0.799522
O O9 0.927801 0.500000 0.520887
O O10 0.918650 0.730732 0.702182
O O11 0.889042 0.774470 0.450848
O O12 0.000000 0.712120 0.500000
O O13 0.129746 0.000000 0.238796
O O14 0.118963 0.000000 0.736239
#
# Coordination Sequence:
#
# PCOD9225936 Si02
#       5
#     8   8   8   8   8
#     4  11  23  41  66  96 131 168 213 266 323 382
#     4  11  23  39  62  92 126 167 214 264 320 382
#     4  11  25  45  67  93 129 172 215 263 323 387
#     4  12  25  41  65  95 128 170 215 265 322 379
#     4  11  24  41  65  96 127 166 213 264 322 381
#
# _framework density 10.288066000000001
#
# number of rings (size 3 to 8) (size 9 to 14) (size 15 to 20)
#    0.000    0.800    2.000    5.400    0.000   11.200 
#    0.000    0.000    0.000    0.000    0.000    0.000 
#    0.000    0.000    0.000    0.000    0.000    0.000 
#
# Total GULP energy -111617.118881 kJ/mol
# GULP energy per Si atom -5580.855944 kJ/mol
# Density = 1.026465 g / cm^3
# Si number density = 10.288066 Si / 1000 Ang^3
#
#
#
# Elastic Constant Matrix: (Units=GPa)
#
#
# Indices 1 2 3 4 5 6 
#
# 1 146.0566 61.9613 -1.2088 0.0000 -2.4770 0.0000
# 2 61.9613 131.5122 -8.0533 0.0000 1.4753 0.0000
# 3 -1.2088 -8.0533 12.4489 0.0000 2.6837 0.0000
# 4 0.0000 0.0000 0.0000 37.1020 0.0000 -2.1610
# 5 -2.4770 1.4753 2.6837 0.0000 44.7312 0.0000
# 6 0.0000 0.0000 0.0000 -2.1610 0.0000 35.7048
#
#
#
# Elastic Compliance Matrix: (Units=1/GPa)
#
#
# Indices 1 2 3 4 5 6 
#
# 1 0.008622 -0.004195 -0.002036 0.000000 0.000738 0.000000
# 2 -0.004195 0.009973 0.006246 0.000000 -0.000936 0.000000
# 3 -0.002036 0.006246 0.085344 0.000000 -0.005439 0.000000
# 4 0.000000 0.000000 0.000000 0.027048 0.000000 0.001637
# 5 0.000738 -0.000936 -0.005439 0.000000 0.022754 0.000000
# 6 0.000000 0.000000 0.000000 0.001637 0.000000 0.028106
#
#
# Mechanical properties :
#
#
# Convention : Reuss Voigt Hill
#
# Bulk Modulus (GPa) = 9.61815 43.93515 26.77665
# Shear Modulus (GPa) = 23.09747 39.32884 31.21316
#
# Velocity S-wave (km/s) = 3.35406 4.37668 3.89904
# Velocity P-wave (km/s) = 4.43669 6.85122 5.77163
#
# Compressibility (1/GPa) = 0.10397013
#
# Stress axis : x y z
#
# Youngs Moduli (GPa) = 115.98190 100.26679 11.71728
#
# Poissons Ratio (x) = 0.42064 0.02385
# Poissons Ratio (y) = 0.48656 -0.07319
# Poissons Ratio (z) = 0.23612 -0.62630
#
# Static dielectric constant tensor:
#      x y z
#    x 1.681350 0.000000 -0.004440 
#    y 0.000000 1.663140 0.000000 
#    z -0.004440 0.000000 1.759580 
# 
# From -- ./inp_files/92811.got.cif
#   From: 2010.05.17/outbox.ucp.g08.bks.cvg/sg12_47_cif.got.tgz:92811.got - 2010.06.11 11:47:21.
