data_PCOD9225223
_publ_section_title
;
Structure prediction by ZEFSAII (Michael W. Deem and Ramdas Pophale) SiO2 
 PCOD9225223
Probable space group: C 2/M
;
_chemical_formula_sum "Si O2"
_cell_formula_units_Z 28
_cell_length_a 24.000000
_cell_length_b 15.000000
_cell_length_c 24.000000
_cell_angle_alpha 90.000000
_cell_angle_beta 160.000000
_cell_angle_gamma 90.000000
_cell_volume 2955.054038
_symmetry_space_group_name_H-M "C 2/M"
_symmetry_group_IT_number 12
_symmetry_cell_setting 'monoclinic'
loop_
_space_group_symop_operation_xyz
x,y,z
-x,y,-z
-x,-y,-z
x,-y,z
1/2+x,1/2+y,z
1/2-x,1/2+y,-z
1/2-x,1/2-y,-z
1/2+x,1/2-y,z
loop_
_atom_site_type_symbol
_atom_site_label
_atom_site_fract_x
_atom_site_fract_y
_atom_site_fract_z
Si Si1 0.104338 0.099079 0.154458
Si Si2 0.581650 0.642851 0.910248
Si Si3 0.903693 0.282738 0.467815
Si Si4 0.049367 0.388574 0.712732
Si Si5 0.470517 0.168932 0.763274
Si Si6 0.126897 0.107043 0.489929
Si Si7 0.168266 0.902042 0.869499
O O1 0.232800 0.175430 0.288150
O O2 0.001793 0.097924 0.115273
O O3 0.179267 0.000000 0.217254
O O4 0.000000 0.115934 0.000000
O O5 0.478561 0.729154 0.792725
O O6 0.602856 0.594096 0.871214
O O7 0.768084 0.651278 0.107543
O O8 0.892066 0.181119 0.479383
O O9 0.000000 0.285756 0.500000
O O10 0.973062 0.344913 0.584586
O O11 0.050522 0.500000 0.712434
O O12 0.966602 0.353966 0.693080
O O13 0.308625 0.123236 0.635867
O O14 0.651853 0.140196 0.955408
O O15 0.980570 0.132212 0.308724
O O16 0.112719 0.000000 0.489528
O O17 0.201342 0.000000 0.878286
#
# Coordination Sequence:
#
# PCOD9225223 Si02
#       7
#     8   8   8   8   8   8   8
#     4  11  24  41  62  89 124 169 216 264 319 385
#     4  11  20  37  61  91 131 172 211 258 318 386
#     4  12  26  44  64  90 125 172 222 272 322 383
#     4  11  23  39  65 101 136 170 210 265 327 391
#     4  11  21  39  64  98 136 170 212 265 324 388
#     4  11  24  43  68  97 130 170 218 275 329 385
#     4  10  21  36  60  94 131 168 208 257 324 392
#
# _framework density 9.4752919999999996
#
# number of rings (size 3 to 8) (size 9 to 14) (size 15 to 20)
#    0.000    1.000    1.429    8.143    2.000    3.714 
#    0.000    0.000    0.000    0.429    0.000    0.000 
#    0.000    0.000    0.000    0.000    0.000    0.000 
#
# Total GULP energy -155928.824670 kJ/mol
# GULP energy per Si atom -5568.886595 kJ/mol
# Density = 0.945373 g / cm^3
# Si number density = 9.475292 Si / 1000 Ang^3
#
#
#
# Elastic Constant Matrix: (Units=GPa)
#
#
# Indices 1 2 3 4 5 6 
#
# 1 107.9087 34.7483 41.6842 0.0077 -9.7779 -0.0082
# 2 34.7483 101.0083 37.7935 0.0302 -21.7820 -0.0125
# 3 41.6842 37.7935 101.9856 0.0084 -19.7689 -0.0073
# 4 0.0077 0.0302 0.0084 32.2502 0.0086 -16.4508
# 5 -9.7779 -21.7820 -19.7689 0.0086 36.7351 -0.0036
# 6 -0.0082 -0.0125 -0.0073 -16.4508 -0.0036 53.1154
#
#
#
# Elastic Compliance Matrix: (Units=1/GPa)
#
#
# Indices 1 2 3 4 5 6 
#
# 1 0.011559 -0.002659 -0.003850 0.000001 -0.000572 0.000001
# 2 -0.002659 0.013011 -0.002653 -0.000013 0.005579 -0.000001
# 3 -0.003850 -0.002653 0.013239 -0.000001 0.004527 0.000001
# 4 0.000001 -0.000013 -0.000001 0.036825 -0.000015 0.011405
# 5 -0.000572 0.005579 0.004527 -0.000015 0.032814 -0.000001
# 6 0.000001 -0.000001 0.000001 0.011405 -0.000001 0.022359
#
#
# Mechanical properties :
#
#
# Convention : Reuss Voigt Hill
#
# Bulk Modulus (GPa) = 51.32221 59.92827 55.62524
# Shear Modulus (GPa) = 32.33587 37.53193 34.93390
#
# Velocity S-wave (km/s) = 4.13525 4.45513 4.29817
# Velocity P-wave (km/s) = 7.06692 7.62603 7.35179
#
# Compressibility (1/GPa) = 0.01948474
#
# Stress axis : x y z
#
# Youngs Moduli (GPa) = 86.51479 76.85909 75.53163
#
# Poissons Ratio (x) = 0.20439 0.29078
# Poissons Ratio (y) = 0.23007 0.20040
# Poissons Ratio (z) = 0.33306 0.20392
#
# Static dielectric constant tensor:
#      x y z
#    x 1.662330 0.000000 0.040890 
#    y 0.000000 1.727020 0.000000 
#    z 0.040890 0.000000 1.676060 
# 
# From -- ./inp_files/349814.got.cif
#   From: 2010.05.17/outbox.ucp.g08.bks.cvg/sg12_175_cif.got.tgz:349814.got - 2010.06.11 11:47:21.
