data_PCOD9225544
_publ_section_title
;
Structure prediction by ZEFSAII (Michael W. Deem and Ramdas Pophale) SiO2 
 PCOD9225544
Probable space group: C 2/M
;
_chemical_formula_sum "Si O2"
_cell_formula_units_Z 29
_cell_length_a 24.000000
_cell_length_b 9.000000
_cell_length_c 27.000000
_cell_angle_alpha 90.000000
_cell_angle_beta 150.000000
_cell_angle_gamma 90.000000
_cell_volume 2916.000000
_symmetry_space_group_name_H-M "C 2/M"
_symmetry_group_IT_number 12
_symmetry_cell_setting 'monoclinic'
loop_
_space_group_symop_operation_xyz
x,y,z
-x,y,-z
-x,-y,-z
x,-y,z
1/2+x,1/2+y,z
1/2-x,1/2+y,-z
1/2-x,1/2-y,-z
1/2+x,1/2-y,z
loop_
_atom_site_type_symbol
_atom_site_label
_atom_site_fract_x
_atom_site_fract_y
_atom_site_fract_z
Si Si1 0.367074 0.831853 0.092199
Si Si2 0.933078 0.265660 0.032891
Si Si3 0.422771 0.819424 0.683748
Si Si4 0.720063 0.321154 0.598826
Si Si5 0.230698 0.322717 0.809869
Si Si6 0.821144 0.830541 0.773340
Si Si7 0.500000 0.000000 0.000000
Si Si8 0.971939 0.680180 0.610544
O O1 0.413292 0.831448 0.071926
O O2 0.463262 0.766867 0.201832
O O3 0.346335 0.000000 0.093179
O O4 0.250000 0.750000 0.000000
O O5 0.044195 0.166284 0.125004
O O6 0.971775 0.375167 0.020077
O O7 0.814065 0.209744 0.919701
O O8 0.314963 0.773820 0.632036
O O9 0.421031 0.777374 0.624933
O O10 0.426013 0.000000 0.688337
O O11 0.712374 0.500000 0.593411
O O12 0.765800 0.264380 0.686892
O O13 0.603281 0.251874 0.490399
O O14 0.226025 0.500000 0.803800
O O15 0.284166 0.270650 0.798934
O O16 0.102129 0.271580 0.713014
O O17 0.780501 0.000000 0.737058
O O18 0.968857 0.500000 0.603452
#
# Coordination Sequence:
#
# PCOD9225544 Si02
#       8
#     8   8   8   8   8   8   2   8
#     4  11  23  39  60  91 129 167 206 253 313 377
#     4  12  22  40  65  93 129 166 214 255 317 385
#     4   9  19  38  62  84 116 159 200 248 306 364
#     4  11  23  40  63  89 122 160 203 258 313 373
#     4  10  22  40  63  89 122 162 205 260 312 369
#     4  11  23  39  64  93 122 161 212 258 305 374
#     4  12  24  36  66 100 126 184 202 266 328 372
#     4  10  21  41  64  87 117 158 206 256 310 369
#
# _framework density 9.9451300000000007
#
# number of rings (size 3 to 8) (size 9 to 14) (size 15 to 20)
#    0.000    1.379    3.448    2.069    0.966    3.862 
#    1.241    4.138    0.000    0.000    0.000    0.000 
#    0.000    0.000    0.000    0.000    0.000    0.000 
#
# Total GULP energy -161508.613509 kJ/mol
# GULP energy per Si atom -5569.262535 kJ/mol
# Density = 0.992249 g / cm^3
# Si number density = 9.945130 Si / 1000 Ang^3
#
#
#
# Elastic Constant Matrix: (Units=GPa)
#
#
# Indices 1 2 3 4 5 6 
#
# 1 41.9541 10.7232 12.1131 0.0008 -11.4363 0.0001
# 2 10.7232 43.8866 28.0132 0.0015 -3.4332 0.0003
# 3 12.1131 28.0132 157.9389 0.0024 -9.7075 0.0005
# 4 0.0008 0.0015 0.0024-1852.0149 0.0007 -368.4513
# 5 -11.4363 -3.4332 -9.7075 0.0007 33.0810 0.0001
# 6 0.0001 0.0003 0.0005 -368.4513 0.0001 -43.7431
#
#
#
# Elastic Compliance Matrix: (Units=1/GPa)
#
#
# Indices 1 2 3 4 5 6 
#
# 1 0.027892 -0.005755 -0.000573 0.000000 0.008877 0.000000
# 2 -0.005755 0.026942 -0.004366 0.000000 -0.000475 0.000000
# 3 -0.000573 -0.004366 0.007241 0.000000 0.001474 0.000000
# 4 0.000000 0.000000 0.000000 0.000799 0.000000 -0.006730
# 5 0.008877 -0.000475 0.001474 0.000000 0.033681 0.000000
# 6 0.000000 0.000000 0.000000 -0.006730 0.000000 0.033831
#
#
# Mechanical properties :
#
#
# Convention : Reuss Voigt Hill
#
# Bulk Modulus (GPa) = 24.57851 38.38651 31.48251
# Shear Modulus (GPa) = 30.24153 -359.67339 -164.71593
#
# Velocity S-wave (km/s) = 3.90349 -13.46185 -9.11000
# Velocity P-wave (km/s) = 5.71840 14.90931 9.73621
#
# Compressibility (1/GPa) = 0.04068595
#
# Stress axis : x y z
#
# Youngs Moduli (GPa) = 35.85294 37.11648 138.11137
#
# Poissons Ratio (x) = 0.21361 0.07911
# Poissons Ratio (y) = 0.20633 0.60306
# Poissons Ratio (z) = 0.02054 0.16207
#
# Static dielectric constant tensor:
#      x y z
#    x 1.708160 0.000000 0.021960 
#    y 0.000000 1.702700 0.000000 
#    z 0.021960 0.000000 1.705890 
# 
# From -- ./inp_files/367607.got.cif
#   From: 2010.05.17/outbox.ucp.g08.bks.cvg/sg12_184_cif.got.tgz:367607.got - 2010.06.11 11:47:21.
