data_PCOD9225630
_publ_section_title
;
Structure prediction by ZEFSAII (Michael W. Deem and Ramdas Pophale) SiO2 
 PCOD9225630
Probable space group: C 2/M
;
_chemical_formula_sum "Si O2"
_cell_formula_units_Z 20
_cell_length_a 15.000000
_cell_length_b 9.000000
_cell_length_c 15.000000
_cell_angle_alpha 90.000000
_cell_angle_beta 90.000000
_cell_angle_gamma 90.000000
_cell_volume 2025.000000
_symmetry_space_group_name_H-M "C 2/M"
_symmetry_group_IT_number 12
_symmetry_cell_setting 'monoclinic'
loop_
_space_group_symop_operation_xyz
x,y,z
-x,y,-z
-x,-y,-z
x,-y,z
1/2+x,1/2+y,z
1/2-x,1/2+y,-z
1/2-x,1/2-y,-z
1/2+x,1/2-y,z
loop_
_atom_site_type_symbol
_atom_site_label
_atom_site_fract_x
_atom_site_fract_y
_atom_site_fract_z
Si Si1 0.099498 0.678189 0.907864
Si Si2 0.146301 0.329471 0.262484
Si Si3 0.097344 0.177120 0.086051
Si Si4 0.487550 0.177942 0.397470
Si Si5 0.846791 0.829197 0.273113
O O1 0.097712 0.500000 0.913288
O O2 0.143445 0.734149 0.817065
O O3 0.999846 0.746628 0.904757
O O4 0.139536 0.749316 0.997852
O O5 0.127888 0.500000 0.231563
O O6 0.143782 0.222292 0.177680
O O7 0.073766 0.291113 0.336497
O O8 0.244560 0.327062 0.302055
O O9 0.090738 0.000000 0.075561
O O10 0.500000 0.221517 0.500000
O O11 0.407925 0.261864 0.349228
O O12 0.472174 0.000000 0.394879
O O13 0.872519 0.000000 0.253011
#
# Coordination Sequence:
#
# PCOD9225630 Si02
#       5
#     8   8   8   8   8
#     4  11  21  36  59  86 122 165 202 244 301 356
#     4  10  22  40  61  88 125 163 199 246 304 360
#     4  11  21  35  59  90 122 159 205 249 291 353
#     4  10  22  42  66  89 118 159 202 249 308 367
#     4  11  23  39  61  91 123 159 204 252 298 353
#
# _framework density 9.8765429999999999
#
# number of rings (size 3 to 8) (size 9 to 14) (size 15 to 20)
#    0.000    1.400    2.000    5.400    0.000    3.600 
#    0.000    0.000    0.000    0.000    0.000    0.000 
#    0.000    0.000    0.000    0.000    0.000    0.000 
#
# Total GULP energy -111734.136272 kJ/mol
# GULP energy per Si atom -5586.706814 kJ/mol
# Density = 0.985406 g / cm^3
# Si number density = 9.876543 Si / 1000 Ang^3
#
#
#
# Elastic Constant Matrix: (Units=GPa)
#
#
# Indices 1 2 3 4 5 6 
#
# 1 85.5354 43.0147 49.3991 0.0000 30.7966 0.0000
# 2 43.0147 139.9425 79.7229 0.0000 19.9630 0.0000
# 3 49.3991 79.7229 139.7425 0.0000 30.3018 0.0000
# 4 0.0000 0.0000 0.0000 25.7937 0.0000 7.9704
# 5 30.7966 19.9630 30.3018 0.0000 -37.1306 0.0000
# 6 0.0000 0.0000 0.0000 7.9704 0.0000 18.5924
#
#
#
# Elastic Compliance Matrix: (Units=1/GPa)
#
#
# Indices 1 2 3 4 5 6 
#
# 1 0.013409 -0.002276 -0.004748 0.000000 0.006023 0.000000
# 2 -0.002276 0.010954 -0.005363 0.000000 -0.000375 0.000000
# 3 -0.004748 -0.005363 0.011363 0.000000 0.002451 0.000000
# 4 0.000000 0.000000 0.000000 0.044689 0.000000 -0.019158
# 5 0.006023 -0.000375 0.002451 0.000000 -0.020137 0.000000
# 6 0.000000 0.000000 0.000000 -0.019158 0.000000 0.061998
#
#
# Mechanical properties :
#
#
# Convention : Reuss Voigt Hill
#
# Bulk Modulus (GPa) = 91.31208 78.83263 85.07235
# Shear Modulus (GPa) = 33.17825 14.32334 23.75080
#
# Velocity S-wave (km/s) = 4.10280 2.69573 3.47130
# Velocity P-wave (km/s) = 8.29283 7.04875 7.69597
#
# Compressibility (1/GPa) = 0.01095145
#
# Stress axis : x y z
#
# Youngs Moduli (GPa) = 74.57712 91.28702 88.00804
#
# Poissons Ratio (x) = 0.20778 0.41783
# Poissons Ratio (y) = 0.16975 0.47203
# Poissons Ratio (z) = 0.35406 0.48962
#
# Static dielectric constant tensor:
#      x y z
#    x 1.736920 0.000000 0.016590 
#    y 0.000000 1.676800 0.000000 
#    z 0.016590 0.000000 1.681190 
# 
# From -- ./inp_files/211371.got.cif
#   From: 2010.05.17/outbox.ucp.g08.bks.cvg/sg12_106_cif.got.tgz:211371.got - 2010.06.11 11:47:21.
