data_PCOD9225185
_publ_section_title
;
Structure prediction by ZEFSAII (Michael W. Deem and Ramdas Pophale) SiO2 
 PCOD9225185
Probable space group: C 2/M
;
_chemical_formula_sum "Si O2"
_cell_formula_units_Z 32
_cell_length_a 15.000000
_cell_length_b 9.000000
_cell_length_c 30.000000
_cell_angle_alpha 90.000000
_cell_angle_beta 50.000000
_cell_angle_gamma 90.000000
_cell_volume 3102.479995
_symmetry_space_group_name_H-M "C 2/M"
_symmetry_group_IT_number 12
_symmetry_cell_setting 'monoclinic'
loop_
_space_group_symop_operation_xyz
x,y,z
-x,y,-z
-x,-y,-z
x,-y,z
1/2+x,1/2+y,z
1/2-x,1/2+y,-z
1/2-x,1/2-y,-z
1/2+x,1/2-y,z
loop_
_atom_site_type_symbol
_atom_site_label
_atom_site_fract_x
_atom_site_fract_y
_atom_site_fract_z
Si Si1 0.714246 0.171017 0.188830
Si Si2 0.180487 0.818602 0.381193
Si Si3 0.761899 0.322351 0.262223
Si Si4 0.475590 0.177341 0.825735
Si Si5 0.683488 0.822442 0.583875
Si Si6 0.195625 0.829717 0.059156
Si Si7 0.570867 0.677859 0.541398
Si Si8 0.870955 0.830320 0.060862
O O1 0.710553 0.272778 0.232408
O O2 0.612229 0.207639 0.186706
O O3 0.838654 0.181749 0.123197
O O4 0.698896 0.000000 0.207159
O O5 0.192633 0.768048 0.327029
O O6 0.294211 0.776094 0.372637
O O7 0.052643 0.769588 0.437581
O O8 0.179991 0.000000 0.384186
O O9 0.763643 0.500000 0.264078
O O10 0.894602 0.269191 0.223506
O O11 0.419957 0.251656 0.886697
O O12 0.476844 0.000000 0.831274
O O13 0.589568 0.738216 0.585147
O O14 0.811097 0.784196 0.522384
O O15 0.665397 0.000000 0.586032
O O16 0.293779 0.798228 0.064419
O O17 0.174515 0.000000 0.057243
O O18 0.250000 0.750000 0.000000
O O19 0.567423 0.500000 0.542893
O O20 0.828976 0.000000 0.062333
O O21 0.000000 0.819612 0.000000
#
# Coordination Sequence:
#
# PCOD9225185 Si02
#       8
#     8   8   8   8   8   8   8   8
#     4   9  19  36  55  76 106 138 171 212 266 320
#     4   9  18  33  52  76 105 141 181 220 264 317
#     4  10  21  36  56  78 103 139 184 224 261 312
#     4   9  20  39  56  74 103 140 176 216 266 319
#     4   9  17  31  53  78 105 141 182 219 262 318
#     4  11  22  35  54  80 107 135 170 212 262 319
#     4   9  17  31  52  78 108 140 176 221 271 315
#     4   9  19  36  56  79 106 135 166 208 266 323
#
# _framework density 10.314329000000001
#
# number of rings (size 3 to 8) (size 9 to 14) (size 15 to 20)
#    0.000    2.625    0.000    2.250    1.750    5.250 
#    0.000    3.125    0.000    3.000    0.000    0.000 
#    0.000    0.000    0.000    0.000    0.000    0.000 
#
# Total GULP energy -178162.555719 kJ/mol
# GULP energy per Si atom -5567.579866 kJ/mol
# Density = 1.029085 g / cm^3
# Si number density = 10.314329 Si / 1000 Ang^3
#
#
#
# Elastic Constant Matrix: (Units=GPa)
#
#
# Indices 1 2 3 4 5 6 
#
# 1 41.1718 14.9030 15.3436 0.0000 -0.5708 0.0000
# 2 14.9030 -18.8510 27.8742 0.0000 2.7090 0.0000
# 3 15.3436 27.8742 66.8289 0.0000 10.2736 0.0000
# 4 0.0000 0.0000 0.0000 7.8173 0.0000 5.8307
# 5 -0.5708 2.7090 10.2736 0.0000 18.2092 0.0000
# 6 0.0000 0.0000 0.0000 5.8307 0.0000 21.2156
#
#
#
# Elastic Compliance Matrix: (Units=1/GPa)
#
#
# Indices 1 2 3 4 5 6 
#
# 1 0.025418 0.006827 -0.009471 0.000000 0.005125 0.000000
# 2 0.006827 -0.030818 0.011551 0.000000 -0.001718 0.000000
# 3 -0.009471 0.011551 0.013830 0.000000 -0.009818 0.000000
# 4 0.000000 0.000000 0.000000 0.160906 0.000000 -0.044222
# 5 0.005125 -0.001718 -0.009818 0.000000 0.060873 0.000000
# 6 0.000000 0.000000 0.000000 -0.044222 0.000000 0.059289
#
#
# Mechanical properties :
#
#
# Convention : Reuss Voigt Hill
#
# Bulk Modulus (GPa) = 38.10594 22.82126 30.46360
# Shear Modulus (GPa) = 17.82960 11.51700 14.67330
#
# Velocity S-wave (km/s) = 2.94311 2.36540 2.66993
# Velocity P-wave (km/s) = 5.48285 4.30663 4.92994
#
# Compressibility (1/GPa) = 0.02624263
#
# Stress axis : x y z
#
# Youngs Moduli (GPa) = 39.34205 -32.44876 72.30878
#
# Poissons Ratio (x) = 0.22152 0.68484
# Poissons Ratio (y) = -0.26857 -0.83523
# Poissons Ratio (z) = 0.37261 0.37481
#
# Static dielectric constant tensor:
#      x y z
#    x 1.766290 0.000000 0.027710 
#    y 0.000000 1.702100 0.000000 
#    z 0.027710 0.000000 1.798160 
# 
# From -- ./inp_files/375460.got.cif
#   From: 2010.05.17/outbox.ucp.g08.bks.cvg/sg12_188_cif.got.tgz:375460.got - 2010.06.11 11:47:21.
