data_PCOD9225162
_publ_section_title
;
Structure prediction by ZEFSAII (Michael W. Deem and Ramdas Pophale) SiO2 
 PCOD9225162
Probable space group: C 2/M
;
_chemical_formula_sum "Si O2"
_cell_formula_units_Z 32
_cell_length_a 9.000000
_cell_length_b 30.000000
_cell_length_c 18.000000
_cell_angle_alpha 90.000000
_cell_angle_beta 40.000000
_cell_angle_gamma 90.000000
_cell_volume 3123.947783
_symmetry_space_group_name_H-M "C 2/M"
_symmetry_group_IT_number 12
_symmetry_cell_setting 'monoclinic'
loop_
_space_group_symop_operation_xyz
x,y,z
-x,y,-z
-x,-y,-z
x,-y,z
1/2+x,1/2+y,z
1/2-x,1/2+y,-z
1/2-x,1/2-y,-z
1/2+x,1/2-y,z
loop_
_atom_site_type_symbol
_atom_site_label
_atom_site_fract_x
_atom_site_fract_y
_atom_site_fract_z
Si Si1 0.418808 0.400815 0.615103
Si Si2 0.618522 0.549106 0.808914
Si Si3 0.313007 0.302490 0.637224
Si Si4 0.156303 0.789983 0.085368
Si Si5 0.531413 0.949980 0.199601
Si Si6 0.771670 0.049034 0.403834
Si Si7 0.840622 0.259816 0.763938
Si Si8 0.672329 0.623029 0.998953
O O1 0.500000 0.402480 0.500000
O O2 0.308174 0.352603 0.669740
O O3 0.631697 0.410614 0.586249
O O4 0.236339 0.439642 0.698727
O O5 0.526241 0.500000 0.866598
O O6 0.864548 0.552523 0.756848
O O7 0.631635 0.550407 0.716169
O O8 0.471832 0.589823 0.894234
O O9 0.500000 0.300693 0.500000
O O10 0.389351 0.269051 0.672405
O O11 0.060227 0.288500 0.705248
O O12 0.205372 0.774875 0.150760
O O13 0.258699 0.835868 0.014846
O O14 0.880942 0.789630 0.173102
O O15 0.250000 0.750000 0.000000
O O16 0.581710 0.000000 0.152823
O O17 0.649307 0.910362 0.108455
O O18 0.500000 0.052125 0.500000
O O19 0.824083 0.000000 0.416866
O O20 0.500000 0.640216 0.000000
#
# Coordination Sequence:
#
# PCOD9225162 Si02
#       8
#     8   8   8   8   8   8   8   8
#     4  11  24  39  62  94 125 159 207 263 313 376
#     4   9  19  36  59  87 122 162 208 252 302 368
#     4  10  23  43  65  94 125 163 208 262 319 387
#     4  11  23  39  62  95 124 165 209 260 314 378
#     4  10  21  38  62  89 124 166 209 256 314 375
#     4  10  21  39  61  87 123 163 205 254 310 369
#     4  10  23  41  66  88 128 166 207 255 325 380
#     4  10  21  35  61  89 122 161 206 254 306 365
#
# _framework density 10.243449
#
# number of rings (size 3 to 8) (size 9 to 14) (size 15 to 20)
#    0.000    1.875    0.000    3.000    8.750    3.500 
#    0.000    1.250    0.000    2.250    0.000    0.000 
#    0.000    0.000    0.000    0.000    0.000    0.000 
#
# Total GULP energy -178590.556404 kJ/mol
# GULP energy per Si atom -5580.954888 kJ/mol
# Density = 1.022013 g / cm^3
# Si number density = 10.243449 Si / 1000 Ang^3
#
#
#
# Elastic Constant Matrix: (Units=GPa)
#
#
# Indices 1 2 3 4 5 6 
#
# 1 64.2144 36.4988 10.1041 0.0000 1.2505 0.0000
# 2 36.4988 87.5203 21.7079 0.0000 8.2306 0.0000
# 3 10.1041 21.7079 27.8995 0.0000 5.5574 0.0000
# 4 0.0000 0.0000 0.0000 27.0439 0.0000 -8.8848
# 5 1.2505 8.2306 5.5574 0.0000 23.6085 0.0000
# 6 0.0000 0.0000 0.0000 -8.8848 0.0000 41.2306
#
#
#
# Elastic Compliance Matrix: (Units=1/GPa)
#
#
# Indices 1 2 3 4 5 6 
#
# 1 0.020535 -0.008446 -0.001296 0.000000 0.002162 0.000000
# 2 -0.008446 0.017769 -0.010096 0.000000 -0.003371 0.000000
# 3 -0.001296 -0.010096 0.045590 0.000000 -0.007144 0.000000
# 4 0.000000 0.000000 0.000000 0.039794 0.000000 0.008575
# 5 0.002162 -0.003371 -0.007144 0.000000 0.045100 0.000000
# 6 0.000000 0.000000 0.000000 0.008575 0.000000 0.026102
#
#
# Mechanical properties :
#
#
# Convention : Reuss Voigt Hill
#
# Bulk Modulus (GPa) = 22.61433 35.13953 28.87693
# Shear Modulus (GPa) = 20.05573 25.79814 22.92694
#
# Velocity S-wave (km/s) = 3.13222 3.55244 3.34893
# Velocity P-wave (km/s) = 4.91360 5.83231 5.39256
#
# Compressibility (1/GPa) = 0.04421975
#
# Stress axis : x y z
#
# Youngs Moduli (GPa) = 48.69715 56.27769 21.93441
#
# Poissons Ratio (x) = 0.47530 0.02843
# Poissons Ratio (y) = 0.41127 0.22144
# Poissons Ratio (z) = 0.06313 0.56815
#
# Static dielectric constant tensor:
#      x y z
#    x 1.733930 0.000000 -0.022550 
#    y 0.000000 1.721480 0.000000 
#    z -0.022550 0.000000 1.771830 
# 
# From -- ./inp_files/260310.got.cif
#   From: 2010.05.17/outbox.ucp.g08.bks.cvg/sg12_131_cif.got.tgz:260310.got - 2010.06.11 11:47:21.
