data_PCOD9225823
_publ_section_title
;
Structure prediction by ZEFSAII (Michael W. Deem and Ramdas Pophale) SiO2 
 PCOD9225823
Probable space group: C 2/M
;
_chemical_formula_sum "Si O2"
_cell_formula_units_Z 28
_cell_length_a 21.000000
_cell_length_b 9.000000
_cell_length_c 21.000000
_cell_angle_alpha 90.000000
_cell_angle_beta 50.000000
_cell_angle_gamma 90.000000
_cell_volume 3040.430395
_symmetry_space_group_name_H-M "C 2/M"
_symmetry_group_IT_number 12
_symmetry_cell_setting 'monoclinic'
loop_
_space_group_symop_operation_xyz
x,y,z
-x,y,-z
-x,-y,-z
x,-y,z
1/2+x,1/2+y,z
1/2-x,1/2+y,-z
1/2-x,1/2-y,-z
1/2+x,1/2-y,z
loop_
_atom_site_type_symbol
_atom_site_label
_atom_site_fract_x
_atom_site_fract_y
_atom_site_fract_z
Si Si1 0.307680 0.175660 0.067857
Si Si2 0.993330 0.819189 0.280043
Si Si3 0.435532 0.323689 0.902264
Si Si4 0.652693 0.318776 0.251180
Si Si5 0.251336 0.173935 0.311928
Si Si6 0.699948 0.321584 0.590047
Si Si7 0.918124 0.669600 0.122250
O O1 0.219868 0.227856 0.153967
O O2 0.374162 0.195275 0.082843
O O3 0.300377 0.000000 0.059945
O O4 0.348835 0.255325 0.981489
O O5 0.897468 0.772334 0.348344
O O6 0.032282 0.771225 0.187412
O O7 0.059861 0.773487 0.291223
O O8 0.992185 0.000000 0.280418
O O9 0.427086 0.500000 0.905661
O O10 0.508749 0.277468 0.903915
O O11 0.656290 0.500000 0.249182
O O12 0.686823 0.273827 0.298706
O O13 0.257789 0.268018 0.371567
O O14 0.342036 0.180238 0.220689
O O15 0.233968 0.000000 0.337597
O O16 0.701526 0.500000 0.585040
O O17 0.750000 0.250000 0.500000
O O18 0.950525 0.500000 0.102471
#
# Coordination Sequence:
#
# PCOD9225823 Si02
#       7
#     8   8   8   8   8   8   8
#     4   9  18  31  48  72 101 140 183 222 259 300
#     4   9  19  35  54  78 107 140 176 218 267 314
#     4  11  20  29  45  73 107 141 179 221 264 306
#     4   8  16  34  57  77 104 143 185 219 253 310
#     4   9  17  33  59  84 103 134 178 221 263 310
#     4  11  22  38  60  85 111 137 168 213 266 321
#     4   9  17  30  48  71 102 137 178 220 260 309
#
# _framework density 9.2092220000000005
#
# number of rings (size 3 to 8) (size 9 to 14) (size 15 to 20)
#    0.000    2.571    1.429    3.000    0.000    2.857 
#    0.000    2.857    0.000   10.286    0.000    0.000 
#    0.000    0.000    0.000    0.000    0.000    0.000 
#
# Total GULP energy -156168.958802 kJ/mol
# GULP energy per Si atom -5577.462814 kJ/mol
# Density = 0.918826 g / cm^3
# Si number density = 9.209222 Si / 1000 Ang^3
#
#
#
# Elastic Constant Matrix: (Units=GPa)
#
#
# Indices 1 2 3 4 5 6 
#
# 1 86.9761 26.4527 62.2556 0.0000 -15.6586 0.0001
# 2 26.4527 31.0394 38.1397 -0.0002 3.7562 0.0003
# 3 62.2556 38.1397 127.4003 0.0000 9.7206 0.0000
# 4 0.0000 -0.0002 0.0000 27.4413 0.0000 3.7818
# 5 -15.6586 3.7562 9.7206 0.0000 12.4289 0.0000
# 6 0.0001 0.0003 0.0000 3.7818 0.0000 16.6470
#
#
#
# Elastic Compliance Matrix: (Units=1/GPa)
#
#
# Indices 1 2 3 4 5 6 
#
# 1 0.060604 -0.028793 -0.029229 0.000000 0.107915 0.000001
# 2 -0.028793 0.064803 -0.001136 0.000001 -0.054971 -0.000001
# 3 -0.029229 -0.001136 0.026859 0.000000 -0.057488 0.000000
# 4 0.000000 0.000001 0.000000 0.037619 -0.000001 -0.008546
# 5 0.107915 -0.054971 -0.057488 -0.000001 0.277991 0.000001
# 6 0.000001 -0.000001 0.000000 -0.008546 0.000001 0.062012
#
#
# Mechanical properties :
#
#
# Convention : Reuss Voigt Hill
#
# Bulk Modulus (GPa) = 29.45450 55.45684 42.45567
# Shear Modulus (GPa) = 7.58126 19.20796 13.39461
#
# Velocity S-wave (km/s) = 2.03102 3.23285 2.69966
# Velocity P-wave (km/s) = 4.63968 6.64152 5.72872
#
# Compressibility (1/GPa) = 0.03395067
#
# Stress axis : x y z
#
# Youngs Moduli (GPa) = 16.50046 15.43139 37.23160
#
# Poissons Ratio (x) = 0.44431 1.08825
# Poissons Ratio (y) = 0.47509 0.04229
# Poissons Ratio (z) = 0.48230 0.01753
#
# Static dielectric constant tensor:
#      x y z
#    x 1.649130 0.000000 0.012100 
#    y 0.000000 1.623270 0.000000 
#    z 0.012100 0.000000 1.642710 
# 
# From -- ./inp_files/319635.got.cif
#   From: 2010.05.17/outbox.ucp.g08.bks.cvg/sg12_160_cif.got.tgz:319635.got - 2010.06.11 11:47:21.
