data_PCOD9225045
_publ_section_title
;
Structure prediction by ZEFSAII (Michael W. Deem and Ramdas Pophale) SiO2 
 PCOD9225045
Probable space group: C 2/M
;
_chemical_formula_sum "Si O2"
_cell_formula_units_Z 32
_cell_length_a 30.000000
_cell_length_b 9.000000
_cell_length_c 18.000000
_cell_angle_alpha 90.000000
_cell_angle_beta 40.000000
_cell_angle_gamma 90.000000
_cell_volume 3123.947783
_symmetry_space_group_name_H-M "C 2/M"
_symmetry_group_IT_number 12
_symmetry_cell_setting 'monoclinic'
loop_
_space_group_symop_operation_xyz
x,y,z
-x,y,-z
-x,-y,-z
x,-y,z
1/2+x,1/2+y,z
1/2-x,1/2+y,-z
1/2-x,1/2-y,-z
1/2+x,1/2-y,z
loop_
_atom_site_type_symbol
_atom_site_label
_atom_site_fract_x
_atom_site_fract_y
_atom_site_fract_z
Si Si1 0.907343 0.829852 0.706185
Si Si2 0.062926 0.176003 0.867960
Si Si3 0.686603 0.326726 0.786738
Si Si4 0.190624 0.171794 0.031000
Si Si5 0.960358 0.328544 0.410222
Si Si6 0.674687 0.173997 0.315924
Si Si7 0.621737 0.829890 0.995826
Si Si8 0.495349 0.328110 0.220207
O O1 0.875153 0.828857 0.829885
O O2 0.850461 0.763328 0.723469
O O3 0.975881 0.730373 0.621571
O O4 0.923425 0.000000 0.665643
O O5 0.141100 0.238052 0.778185
O O6 0.046348 0.182018 0.802848
O O7 0.066765 0.000000 0.882860
O O8 0.000000 0.239519 0.000000
O O9 0.701398 0.500000 0.755453
O O10 0.757834 0.263340 0.727604
O O11 0.628889 0.294406 0.923529
O O12 0.182280 0.281427 0.972975
O O13 0.203549 0.000000 0.993301
O O14 0.250000 0.250000 0.000000
O O15 0.973191 0.500000 0.372711
O O16 0.889803 0.321859 0.545870
O O17 0.956963 0.222405 0.343134
O O18 0.687174 0.000000 0.280037
O O19 0.554744 0.792531 0.129138
O O20 0.624310 0.000000 0.967434
O O21 0.519989 0.500000 0.195321
#
# Coordination Sequence:
#
# PCOD9225045 Si02
#       8
#     8   8   8   8   8   8   8   8
#     4  11  23  38  59  85 114 152 200 245 286 341
#     4   9  17  33  61  91 116 148 192 241 289 349
#     4  10  20  39  63  86 117 156 197 240 290 353
#     4  11  23  37  54  81 118 156 195 237 289 350
#     4  11  23  40  60  85 118 155 198 245 293 345
#     4  10  23  40  60  85 116 156 198 242 293 346
#     4  12  23  35  55  85 120 155 189 236 296 350
#     4  11  21  37  61  88 115 149 196 241 290 347
#
# _framework density 10.243449
#
# number of rings (size 3 to 8) (size 9 to 14) (size 15 to 20)
#    0.000    1.375    2.500    3.750    0.000    6.500 
#    0.000    2.500    0.000    0.000    0.000    0.000 
#    0.000    0.000    0.000    0.000    0.000    0.000 
#
# Total GULP energy -178274.165320 kJ/mol
# GULP energy per Si atom -5571.067666 kJ/mol
# Density = 1.022013 g / cm^3
# Si number density = 10.243449 Si / 1000 Ang^3
#
#
#
# Elastic Constant Matrix: (Units=GPa)
#
#
# Indices 1 2 3 4 5 6 
#
# 1 140.8025 17.6123 23.6125 -0.0031 -21.6427 0.0000
# 2 17.6123 53.6695 7.7969 -0.0158 -6.7073 0.0050
# 3 23.6125 7.7969 58.9940 -0.0113 -14.0910 0.0027
# 4 -0.0031 -0.0158 -0.0113 17.3966 0.0027 4.3136
# 5 -21.6427 -6.7073 -14.0910 0.0027 20.3273 -0.0021
# 6 0.0000 0.0050 0.0027 4.3136 -0.0021 16.5246
#
#
#
# Elastic Compliance Matrix: (Units=1/GPa)
#
#
# Indices 1 2 3 4 5 6 
#
# 1 0.008746 -0.001693 -0.001422 -0.000003 0.007768 0.000002
# 2 -0.001693 0.019838 -0.000972 0.000019 0.004069 -0.000010
# 3 -0.001422 -0.000972 0.020625 0.000012 0.012463 -0.000005
# 4 -0.000003 0.000019 0.000012 0.061461 0.000002 -0.016044
# 5 0.007768 0.004069 0.012463 0.000002 0.067448 0.000005
# 6 0.000002 -0.000010 -0.000005 -0.016044 0.000005 0.064704
#
#
# Mechanical properties :
#
#
# Convention : Reuss Voigt Hill
#
# Bulk Modulus (GPa) = 24.36875 39.05661 31.71268
# Shear Modulus (GPa) = 18.89116 24.47933 21.68524
#
# Velocity S-wave (km/s) = 3.03992 3.46045 3.25698
# Velocity P-wave (km/s) = 4.92363 5.92215 5.44582
#
# Compressibility (1/GPa) = 0.04103616
#
# Stress axis : x y z
#
# Youngs Moduli (GPa) = 114.33336 50.40851 48.48433
#
# Poissons Ratio (x) = 0.08534 0.06892
# Poissons Ratio (y) = 0.19355 0.04714
# Poissons Ratio (z) = 0.16253 0.04901
#
# Static dielectric constant tensor:
#      x y z
#    x 1.797830 0.000000 -0.012450 
#    y 0.000000 1.714570 0.000000 
#    z -0.012450 0.000000 1.766120 
# 
# From -- ./inp_files/295595.got.cif
#   From: 2010.05.17/outbox.ucp.g08.bks.cvg/sg12_148_cif.got.tgz:295595.got - 2010.06.11 11:47:21.
