data_PCOD9225074
_publ_section_title
;
Structure prediction by ZEFSAII (Michael W. Deem and Ramdas Pophale) SiO2 
 PCOD9225074
Probable space group: C 2/M
;
_chemical_formula_sum "Si O2"
_cell_formula_units_Z 24
_cell_length_a 21.000000
_cell_length_b 9.000000
_cell_length_c 27.000000
_cell_angle_alpha 90.000000
_cell_angle_beta 150.000000
_cell_angle_gamma 90.000000
_cell_volume 2551.500000
_symmetry_space_group_name_H-M "C 2/M"
_symmetry_group_IT_number 12
_symmetry_cell_setting 'monoclinic'
loop_
_space_group_symop_operation_xyz
x,y,z
-x,y,-z
-x,-y,-z
x,-y,z
1/2+x,1/2+y,z
1/2-x,1/2+y,-z
1/2-x,1/2-y,-z
1/2+x,1/2-y,z
loop_
_atom_site_type_symbol
_atom_site_label
_atom_site_fract_x
_atom_site_fract_y
_atom_site_fract_z
Si Si1 0.851982 0.671971 0.914071
Si Si2 0.233210 0.327421 0.735414
Si Si3 0.060756 0.327340 0.430423
Si Si4 0.532249 0.178911 0.295917
Si Si5 0.250582 0.320462 0.364049
Si Si6 0.241558 0.318966 0.937534
O O1 0.806180 0.500000 0.887525
O O2 0.790547 0.750005 0.823774
O O3 0.832694 0.752904 0.954891
O O4 0.000000 0.669197 0.000000
O O5 0.276990 0.500000 0.761915
O O6 0.252874 0.250652 0.694037
O O7 0.083595 0.328365 0.647492
O O8 0.106905 0.500000 0.461016
O O9 0.061336 0.270500 0.372749
O O10 0.136462 0.235893 0.523452
O O11 0.630753 0.220528 0.318788
O O12 0.394618 0.216478 0.180345
O O13 0.535413 0.000000 0.302393
O O14 0.255263 0.500000 0.361650
O O15 0.254982 0.500000 0.950247
O O16 0.250000 0.250000 0.000000
#
# Coordination Sequence:
#
# PCOD9225074 Si02
#       6
#     8   8   8   8   8   8
#     4  11  25  44  66  93 125 161 202 257 317 370
#     4  11  23  41  64  89 122 164 206 253 306 366
#     4  10  20  40  63  85 118 163 208 253 305 360
#     4   9  20  40  62  85 123 164 198 247 308 358
#     4  11  23  37  59  92 126 162 203 252 304 363
#     4  11  23  43  67  94 126 164 206 252 308 369
#
# _framework density 9.4062319999999993
#
# number of rings (size 3 to 8) (size 9 to 14) (size 15 to 20)
#    0.000    1.500    1.667    3.000    2.333    4.667 
#    0.000    3.333    0.000    0.000    0.000    0.000 
#    0.000    0.000    0.000    0.000    0.000    0.000 
#
# Total GULP energy -133702.957858 kJ/mol
# GULP energy per Si atom -5570.956577 kJ/mol
# Density = 0.938482 g / cm^3
# Si number density = 9.406232 Si / 1000 Ang^3
#
#
#
# Elastic Constant Matrix: (Units=GPa)
#
#
# Indices 1 2 3 4 5 6 
#
# 1 177.0336 61.1954 41.0698 0.0000 -42.6124 0.0000
# 2 61.1954 115.8962 37.4617 0.0000 -22.4585 0.0000
# 3 41.0698 37.4617 72.3891 -0.0001 -23.0558 0.0000
# 4 0.0000 0.0000 -0.0001 31.9279 0.0000 -12.8252
# 5 -42.6124 -22.4585 -23.0558 0.0000 52.3842 0.0000
# 6 0.0000 0.0000 0.0000 -12.8252 0.0000 41.7021
#
#
#
# Elastic Compliance Matrix: (Units=1/GPa)
#
#
# Indices 1 2 3 4 5 6 
#
# 1 0.008146 -0.002862 -0.001653 0.000000 0.004672 0.000000
# 2 -0.002862 0.011638 -0.004130 0.000000 0.000844 0.000000
# 3 -0.001653 -0.004130 0.018489 0.000000 0.005022 0.000000
# 4 0.000000 0.000000 0.000000 0.035735 0.000000 0.010990
# 5 0.004672 0.000844 0.005022 0.000000 0.025463 0.000000
# 6 0.000000 0.000000 0.000000 0.010990 0.000000 0.027360
#
#
# Mechanical properties :
#
#
# Convention : Reuss Voigt Hill
#
# Bulk Modulus (GPa) = 47.65640 71.64139 59.64890
# Shear Modulus (GPa) = 33.08769 40.24232 36.66501
#
# Velocity S-wave (km/s) = 4.19838 4.63009 4.41951
# Velocity P-wave (km/s) = 6.99208 8.16996 7.60386
#
# Compressibility (1/GPa) = 0.02098354
#
# Stress axis : x y z
#
# Youngs Moduli (GPa) = 122.76315 85.92542 54.08636
#
# Poissons Ratio (x) = 0.24588 0.08938
# Poissons Ratio (y) = 0.35130 0.22340
# Poissons Ratio (z) = 0.20287 0.35491
#
# Static dielectric constant tensor:
#      x y z
#    x 1.656600 0.000000 0.045710 
#    y 0.000000 1.674000 0.000000 
#    z 0.045710 0.000000 1.698450 
# 
# From -- ./inp_files/365556.got.cif
#   From: 2010.05.17/outbox.ucp.g08.bks.cvg/sg12_183_cif.got.tgz:365556.got - 2010.06.11 11:47:21.
