data_PCOD9225635
_publ_section_title
;
Structure prediction by ZEFSAII (Michael W. Deem and Ramdas Pophale) SiO2 
 PCOD9225635
Probable space group: C 2/M
;
_chemical_formula_sum "Si O2"
_cell_formula_units_Z 28
_cell_length_a 24.000000
_cell_length_b 15.000000
_cell_length_c 9.000000
_cell_angle_alpha 90.000000
_cell_angle_beta 120.000000
_cell_angle_gamma 90.000000
_cell_volume 2805.922308
_symmetry_space_group_name_H-M "C 2/M"
_symmetry_group_IT_number 12
_symmetry_cell_setting 'monoclinic'
loop_
_space_group_symop_operation_xyz
x,y,z
-x,y,-z
-x,-y,-z
x,-y,z
1/2+x,1/2+y,z
1/2-x,1/2+y,-z
1/2-x,1/2-y,-z
1/2+x,1/2-y,z
loop_
_atom_site_type_symbol
_atom_site_label
_atom_site_fract_x
_atom_site_fract_y
_atom_site_fract_z
Si Si1 0.063481 0.607001 0.182574
Si Si2 0.206561 0.606555 0.295675
Si Si3 0.491009 0.599107 0.163439
Si Si4 0.731644 0.899307 0.675364
Si Si5 0.159293 0.901208 0.974057
Si Si6 0.949797 0.256428 0.567535
Si Si7 0.188371 0.221108 0.745427
O O1 0.064581 0.500000 0.210650
O O2 0.130161 0.628508 0.183711
O O3 0.061681 0.660241 0.336065
O O4 0.000000 0.627869 0.000000
O O5 0.215015 0.500000 0.276412
O O6 0.221826 0.622020 0.490441
O O7 0.255656 0.666786 0.266838
O O8 0.516027 0.500000 0.236446
O O9 0.416076 0.601955 0.103521
O O10 0.522405 0.678116 0.294494
O O11 0.500000 0.610798 0.000000
O O12 0.701389 0.826131 0.742881
O O13 0.707184 0.000000 0.668011
O O14 0.806142 0.897032 0.820814
O O15 0.183222 0.822411 0.900384
O O16 0.176212 0.000000 0.932769
O O17 0.883053 0.216311 0.417643
O O18 0.000000 0.276422 0.500000
#
# Coordination Sequence:
#
# PCOD9225635 Si02
#       7
#     8   8   8   8   8   8   8
#     4  10  23  46  70  94 127 168 216 268 318 377
#     4  10  22  41  66  97 125 161 212 261 315 380
#     4  10  23  41  62  89 124 168 216 262 316 383
#     4  10  22  40  62  88 124 163 207 257 308 375
#     4  10  22  41  61  89 126 164 208 261 318 379
#     4  12  25  41  63  96 131 171 216 262 321 379
#     4  12  23  39  64  94 130 165 207 260 324 374
#
# _framework density 9.9788940000000004
#
# number of rings (size 3 to 8) (size 9 to 14) (size 15 to 20)
#    0.000    1.429    2.857    1.714    2.000    2.857 
#    2.571    0.000    0.000    0.000    0.000    0.000 
#    0.000    0.000    0.000    0.000    0.000    0.000 
#
# Total GULP energy -156309.583658 kJ/mol
# GULP energy per Si atom -5582.485131 kJ/mol
# Density = 0.995618 g / cm^3
# Si number density = 9.978894 Si / 1000 Ang^3
#
#
#
# Elastic Constant Matrix: (Units=GPa)
#
#
# Indices 1 2 3 4 5 6 
#
# 1 113.6110 37.2870 34.1360 0.0000 -0.3166 0.0000
# 2 37.2870 61.3463 17.6902 0.0000 -7.6465 0.0000
# 3 34.1360 17.6902 77.8968 0.0000 14.9115 0.0000
# 4 0.0000 0.0000 0.0000 15.4762 0.0000 -43.1031
# 5 -0.3166 -7.6465 14.9115 0.0000 35.6336 0.0000
# 6 0.0000 0.0000 0.0000 -43.1031 0.0000 -129.4326
#
#
#
# Elastic Compliance Matrix: (Units=1/GPa)
#
#
# Indices 1 2 3 4 5 6 
#
# 1 0.011992 -0.006090 -0.003959 0.000000 0.000457 0.000000
# 2 -0.006090 0.021744 -0.003427 0.000000 0.006046 0.000000
# 3 -0.003959 -0.003427 0.016848 0.000000 -0.007821 0.000000
# 4 0.000000 0.000000 0.000000 0.033523 0.000000 -0.011164
# 5 0.000457 0.006046 -0.007821 0.000000 0.032638 0.000000
# 6 0.000000 0.000000 0.000000 -0.011164 0.000000 -0.004008
#
#
# Mechanical properties :
#
#
# Convention : Reuss Voigt Hill
#
# Bulk Modulus (GPa) = 42.31606 47.89785 45.10695
# Shear Modulus (GPa) = 33.88334 -4.74851 14.56742
#
# Velocity S-wave (km/s) = 4.12485 -1.54416 2.70462
# Velocity P-wave (km/s) = 6.62832 4.56863 5.69241
#
# Compressibility (1/GPa) = 0.02363169
#
# Stress axis : x y z
#
# Youngs Moduli (GPa) = 83.39161 45.98932 59.35474
#
# Poissons Ratio (x) = 0.28007 0.23501
# Poissons Ratio (y) = 0.50785 0.20339
# Poissons Ratio (z) = 0.33018 0.15759
#
# Static dielectric constant tensor:
#      x y z
#    x 1.699540 0.000000 0.065160 
#    y 0.000000 1.733070 0.000000 
#    z 0.065160 0.000000 1.768420 
# 
# From -- ./inp_files/96969.got.cif
#   From: 2010.05.17/outbox.ucp.g08.bks.cvg/sg12_49_cif.got.tgz:96969.got - 2010.06.11 11:47:21.
