data_PCOD9225157
_publ_section_title
;
Structure prediction by ZEFSAII (Michael W. Deem and Ramdas Pophale) SiO2 
 PCOD9225157
Probable space group: C 2/M
;
_chemical_formula_sum "Si O2"
_cell_formula_units_Z 28
_cell_length_a 9.000000
_cell_length_b 30.000000
_cell_length_c 21.000000
_cell_angle_alpha 90.000000
_cell_angle_beta 150.000000
_cell_angle_gamma 90.000000
_cell_volume 2835.000000
_symmetry_space_group_name_H-M "C 2/M"
_symmetry_group_IT_number 12
_symmetry_cell_setting 'monoclinic'
loop_
_space_group_symop_operation_xyz
x,y,z
-x,y,-z
-x,-y,-z
x,-y,z
1/2+x,1/2+y,z
1/2-x,1/2+y,-z
1/2-x,1/2-y,-z
1/2+x,1/2-y,z
loop_
_atom_site_type_symbol
_atom_site_label
_atom_site_fract_x
_atom_site_fract_y
_atom_site_fract_z
Si Si1 0.144378 0.185372 0.659930
Si Si2 0.547216 0.128167 0.440094
Si Si3 0.525446 0.315567 0.177135
Si Si4 0.928468 0.748209 0.249560
Si Si5 0.358895 0.110223 0.138499
Si Si6 0.733431 0.909026 0.033144
Si Si7 0.880070 0.446498 0.276120
O O1 0.274695 0.219250 0.654938
O O2 0.427121 0.153240 0.779766
O O3 0.860341 0.153489 0.542968
O O4 0.054316 0.217556 0.685124
O O5 0.500000 0.121791 0.500000
O O6 0.286945 0.160486 0.315845
O O7 0.522856 0.082931 0.387385
O O8 0.372852 0.279332 0.167080
O O9 0.329914 0.356811 0.079208
O O10 0.676569 0.287502 0.176176
O O11 0.434200 0.079579 0.228340
O O12 0.407136 0.086035 0.088904
O O13 0.000000 0.119911 0.000000
O O14 0.025619 0.938870 0.150319
O O15 0.500000 0.920268 0.000000
O O16 0.950659 0.500000 0.301861
#
# Coordination Sequence:
#
# PCOD9225157 Si02
#       7
#     8   8   8   8   8   8   8
#     4  11  22  39  60  94 127 172 217 255 307 370
#     4  11  23  40  67  89 127 170 206 266 329 383
#     4  10  21  38  54  93 127 168 219 260 308 363
#     4  10  21  35  59  89 131 168 221 265 294 351
#     4  10  22  42  66  92 130 174 209 255 320 381
#     4  10  21  39  68  93 127 170 207 257 321 378
#     4  10  24  45  68  95 124 156 209 267 325 394
#
# _framework density 9.8765429999999999
#
# number of rings (size 3 to 8) (size 9 to 14) (size 15 to 20)
#    0.000    1.714    1.429    3.429    2.000    8.857 
#    0.000   15.714    0.000    0.000    0.000    0.000 
#    0.000    0.000    0.000    0.000    0.000    0.000 
#
# Total GULP energy -156363.947294 kJ/mol
# GULP energy per Si atom -5584.426689 kJ/mol
# Density = 0.985406 g / cm^3
# Si number density = 9.876543 Si / 1000 Ang^3
#
#
#
# Elastic Constant Matrix: (Units=GPa)
#
#
# Indices 1 2 3 4 5 6 
#
# 1 150.9366 41.7911 30.2833 0.0002 -10.4441 0.0002
# 2 41.7911 120.3405 34.2358 0.0005 -3.6679 0.0001
# 3 30.2833 34.2358 54.3146 0.0095 -8.5468 0.0009
# 4 0.0002 0.0005 0.0095 22.5515 -0.0009 -4.3237
# 5 -10.4441 -3.6679 -8.5468 -0.0009 23.4591 0.0000
# 6 0.0002 0.0001 0.0009 -4.3237 0.0000 29.6079
#
#
#
# Elastic Compliance Matrix: (Units=1/GPa)
#
#
# Indices 1 2 3 4 5 6 
#
# 1 0.007864 -0.001845 -0.002881 0.000001 0.002163 0.000000
# 2 -0.001845 0.010572 -0.005839 0.000002 -0.001296 0.000001
# 3 -0.002881 -0.005839 0.024773 -0.000010 0.006830 -0.000002
# 4 0.000001 0.000002 -0.000010 0.045620 -0.000001 0.006662
# 5 0.002163 -0.001296 0.006830 -0.000001 0.045876 0.000000
# 6 0.000000 0.000001 -0.000002 0.006662 0.000000 0.034748
#
#
# Mechanical properties :
#
#
# Convention : Reuss Voigt Hill
#
# Bulk Modulus (GPa) = 45.29355 59.80135 52.54745
# Shear Modulus (GPa) = 25.25977 29.74245 27.50111
#
# Velocity S-wave (km/s) = 3.57988 3.88456 3.73533
# Velocity P-wave (km/s) = 6.32985 7.10351 6.72781
#
# Compressibility (1/GPa) = 0.02207820
#
# Stress axis : x y z
#
# Youngs Moduli (GPa) = 127.16253 94.58725 40.36689
#
# Poissons Ratio (x) = 0.17455 0.11630
# Poissons Ratio (y) = 0.23466 0.23570
# Poissons Ratio (z) = 0.36636 0.55229
#
# Static dielectric constant tensor:
#      x y z
#    x 1.746310 0.000000 -0.000070 
#    y 0.000000 1.676200 0.000000 
#    z -0.000070 0.000000 1.695450 
# 
# From -- ./inp_files/303077.got.cif
#   From: 2010.05.17/outbox.ucp.g08.bks.cvg/sg12_152_cif.got.tgz:303077.got - 2010.06.11 11:47:21.
