data_PCOD9225118
_publ_section_title
;
Structure prediction by ZEFSAII (Michael W. Deem and Ramdas Pophale) SiO2 
 PCOD9225118
Probable space group: C 2/M
;
_chemical_formula_sum "Si O2"
_cell_formula_units_Z 24
_cell_length_a 9.000000
_cell_length_b 24.000000
_cell_length_c 12.000000
_cell_angle_alpha 90.000000
_cell_angle_beta 80.000000
_cell_angle_gamma 90.000000
_cell_volume 2552.621696
_symmetry_space_group_name_H-M "C 2/M"
_symmetry_group_IT_number 12
_symmetry_cell_setting 'monoclinic'
loop_
_space_group_symop_operation_xyz
x,y,z
-x,y,-z
-x,-y,-z
x,-y,z
1/2+x,1/2+y,z
1/2-x,1/2+y,-z
1/2-x,1/2-y,-z
1/2+x,1/2-y,z
loop_
_atom_site_type_symbol
_atom_site_label
_atom_site_fract_x
_atom_site_fract_y
_atom_site_fract_z
Si Si1 0.283677 0.173625 0.937433
Si Si2 0.870939 0.565781 0.788058
Si Si3 0.190888 0.172532 0.209416
Si Si4 0.232241 0.564434 0.685332
Si Si5 0.332059 0.932610 0.549101
Si Si6 0.056144 0.248413 0.822966
O O1 0.321139 0.112108 0.884097
O O2 0.151541 0.206770 0.889571
O O3 0.430762 0.212151 0.897774
O O4 0.236083 0.170877 0.072368
O O5 0.838757 0.500000 0.818705
O O6 0.792448 0.582674 0.680427
O O7 0.052285 0.568278 0.739843
O O8 0.184142 0.110224 0.253532
O O9 0.325860 0.208593 0.246260
O O10 0.039519 0.207768 0.242669
O O11 0.275391 0.500000 0.697905
O O12 0.258137 0.579065 0.551631
O O13 0.500000 0.910945 0.500000
O O14 0.342709 0.000000 0.551933
#
# Coordination Sequence:
#
# PCOD9225118 Si02
#       6
#     8   8   8   8   8   8
#     4  11  19  32  51  73  97 127 161 201 237 281
#     4   9  17  29  49  75  99 125 157 197 243 285
#     4  11  19  32  51  73  97 127 161 201 237 281
#     4   9  17  29  49  75  99 125 157 197 243 285
#     4   7  12  26  46  68  94 125 160 191 228 286
#     4  10  21  34  50  69  96 133 170 192 229 286
#
# _framework density 9.4020980000000005
#
# number of rings (size 3 to 8) (size 9 to 14) (size 15 to 20)
#    0.000    2.500    1.667    6.000    0.000    0.667 
#    0.000    2.500    0.000    9.000    0.000    3.500 
#    0.000    0.000    0.000    0.000    0.000    0.000 
#
# Total GULP energy -133683.067418 kJ/mol
# GULP energy per Si atom -5570.127809 kJ/mol
# Density = 0.938070 g / cm^3
# Si number density = 9.402098 Si / 1000 Ang^3
#
#
#
# Elastic Constant Matrix: (Units=GPa)
#
#
# Indices 1 2 3 4 5 6 
#
# 1 63.4107 28.2618 1.8043 0.0000 9.7402 0.0000
# 2 28.2618 127.5189 30.3895 0.0000 13.6658 0.0000
# 3 1.8043 30.3895 27.8471 0.0000 4.8150 0.0000
# 4 0.0000 0.0000 0.0000 5.3006 0.0000 16.9113
# 5 9.7402 13.6658 4.8150 0.0000 8.5067 0.0000
# 6 0.0000 0.0000 0.0000 16.9113 0.0000 20.2364
#
#
#
# Elastic Compliance Matrix: (Units=1/GPa)
#
#
# Indices 1 2 3 4 5 6 
#
# 1 0.020526 -0.003848 0.006500 0.000000 -0.021000 0.000000
# 2 -0.003848 0.012467 -0.011811 0.000000 -0.008937 0.000000
# 3 0.006500 -0.011811 0.051417 0.000000 -0.017572 0.000000
# 4 0.000000 0.000000 0.000000 -0.113225 0.000000 0.094621
# 5 -0.021000 -0.008937 -0.017572 0.000000 0.165903 0.000000
# 6 0.000000 0.000000 0.000000 0.094621 0.000000 -0.029658
#
#
# Mechanical properties :
#
#
# Convention : Reuss Voigt Hill
#
# Bulk Modulus (GPa) = 15.13019 37.74309 26.43664
# Shear Modulus (GPa) = 33.83447 17.36349 25.59898
#
# Velocity S-wave (km/s) = 4.24642 3.04202 3.69364
# Velocity P-wave (km/s) = 5.66626 5.69682 5.68156
#
# Compressibility (1/GPa) = 0.06609303
#
# Stress axis : x y z
#
# Youngs Moduli (GPa) = 48.71905 80.21051 19.44894
#
# Poissons Ratio (x) = 0.30862 -0.12642
# Poissons Ratio (y) = 0.18745 0.22971
# Poissons Ratio (z) = -0.31668 0.94735
#
# Static dielectric constant tensor:
#      x y z
#    x 1.706320 0.000000 0.042200 
#    y 0.000000 1.633800 0.000000 
#    z 0.042200 0.000000 1.674610 
# 
# From -- ./inp_files/121823.got.cif
#   From: 2010.05.17/outbox.ucp.g08.bks.cvg/sg12_61_cif.got.tgz:121823.got - 2010.06.11 11:47:21.
