data_PCOD9225342
_publ_section_title
;
Structure prediction by ZEFSAII (Michael W. Deem and Ramdas Pophale) SiO2 
 PCOD9225342
Probable space group: C 2/M
;
_chemical_formula_sum "Si O2"
_cell_formula_units_Z 32
_cell_length_a 18.000000
_cell_length_b 9.000000
_cell_length_c 30.000000
_cell_angle_alpha 90.000000
_cell_angle_beta 40.000000
_cell_angle_gamma 90.000000
_cell_volume 3123.947783
_symmetry_space_group_name_H-M "C 2/M"
_symmetry_group_IT_number 12
_symmetry_cell_setting 'monoclinic'
loop_
_space_group_symop_operation_xyz
x,y,z
-x,y,-z
-x,-y,-z
x,-y,z
1/2+x,1/2+y,z
1/2-x,1/2+y,-z
1/2-x,1/2-y,-z
1/2+x,1/2-y,z
loop_
_atom_site_type_symbol
_atom_site_label
_atom_site_fract_x
_atom_site_fract_y
_atom_site_fract_z
Si Si1 0.472433 0.659127 0.708105
Si Si2 0.756841 0.331323 0.300157
Si Si3 0.267407 0.829752 0.781355
Si Si4 0.630201 0.332117 0.554222
Si Si5 0.129834 0.825767 0.062149
Si Si6 0.475672 0.336125 0.213566
Si Si7 0.952447 0.330934 0.571483
Si Si8 0.452636 0.680765 0.068358
O O1 0.413822 0.500000 0.722340
O O2 0.396386 0.803613 0.736885
O O3 0.582067 0.668202 0.626350
O O4 0.498462 0.650210 0.747289
O O5 0.722662 0.500000 0.319907
O O6 0.742709 0.269831 0.257240
O O7 0.888256 0.297817 0.249506
O O8 0.675196 0.234375 0.368820
O O9 0.178033 0.778548 0.860060
O O10 0.242600 0.000000 0.782293
O O11 0.646543 0.500000 0.531433
O O12 0.750000 0.250000 0.500000
O O13 0.534002 0.258485 0.567336
O O14 0.084816 0.806964 0.132682
O O15 0.032288 0.770394 0.072795
O O16 0.143003 0.000000 0.047360
O O17 0.250000 0.750000 0.000000
O O18 0.428778 0.500000 0.219824
O O19 0.949434 0.500000 0.588493
O O20 0.000000 0.324607 0.500000
O O21 0.456252 0.500000 0.064946
O O22 0.500000 0.738030 0.000000
#
# Coordination Sequence:
#
# PCOD9225342 Si02
#       8
#     8   8   8   8   8   8   8   8
#     4  10  23  41  62  89 122 159 201 253 306 354
#     4  12  24  40  64  93 124 156 203 260 306 354
#     4  11  21  38  65  89 118 162 207 248 306 368
#     4  11  24  42  63  91 127 164 203 251 304 358
#     4  10  21  38  59  84 120 160 200 248 305 364
#     4  10  22  42  63  86 122 165 206 249 305 367
#     4  11  25  44  67  93 123 162 204 247 304 367
#     4   9  19  36  58  86 119 156 201 252 300 355
#
# _framework density 10.243449
#
# number of rings (size 3 to 8) (size 9 to 14) (size 15 to 20)
#    0.000    1.500    2.500    2.250    3.500    2.500 
#    0.000    0.000    0.000    1.875    0.000    0.000 
#    0.000    0.000    0.000    0.000    0.000    0.000 
#
# Total GULP energy -178336.857503 kJ/mol
# GULP energy per Si atom -5573.026797 kJ/mol
# Density = 1.022013 g / cm^3
# Si number density = 10.243449 Si / 1000 Ang^3
#
#
#
# Elastic Constant Matrix: (Units=GPa)
#
#
# Indices 1 2 3 4 5 6 
#
# 1 30.7988 24.3395 22.7651 0.0000 10.1272 -0.0002
# 2 24.3395 72.7986 58.7516 0.0002 3.9279 -0.0008
# 3 22.7651 58.7516 86.7864 0.0000 -4.4024 0.0000
# 4 0.0000 0.0002 0.0000 43.0615 0.0000 -3.9792
# 5 10.1272 3.9279 -4.4024 0.0000 18.8191 0.0000
# 6 -0.0002 -0.0008 0.0000 -3.9792 0.0000 25.6913
#
#
#
# Elastic Compliance Matrix: (Units=1/GPa)
#
#
# Indices 1 2 3 4 5 6 
#
# 1 0.057985 -0.009018 -0.010720 0.000000 -0.031829 0.000000
# 2 -0.009018 0.034233 -0.021177 0.000000 -0.007246 0.000001
# 3 -0.010720 -0.021177 0.029538 0.000000 0.017099 -0.000001
# 4 0.000000 0.000000 0.000000 0.023560 0.000000 0.003649
# 5 -0.031829 -0.007246 0.017099 0.000000 0.075778 0.000000
# 6 0.000000 0.000001 -0.000001 0.003649 0.000000 0.039489
#
#
# Mechanical properties :
#
#
# Convention : Reuss Voigt Hill
#
# Bulk Modulus (GPa) = 25.04584 44.67736 34.86160
# Shear Modulus (GPa) = 14.05595 23.14955 18.60275
#
# Velocity S-wave (km/s) = 2.62218 3.36515 3.01663
# Velocity P-wave (km/s) = 4.62813 6.07899 5.40249
#
# Compressibility (1/GPa) = 0.03992678
#
# Stress axis : x y z
#
# Youngs Moduli (GPa) = 17.24579 29.21148 33.85493
#
# Poissons Ratio (x) = 0.26343 0.36292
# Poissons Ratio (y) = 0.15552 0.71694
# Poissons Ratio (z) = 0.18487 0.61860
#
# Static dielectric constant tensor:
#      x y z
#    x 1.787550 0.000000 -0.029940 
#    y 0.000000 1.801210 0.000000 
#    z -0.029940 0.000000 1.710760 
# 
# From -- ./inp_files/377956.got.cif
#   From: 2010.05.17/outbox.ucp.g08.bks.cvg/sg12_189_cif.got.tgz:377956.got - 2010.06.11 11:47:21.
