data_PCOD9225631
_publ_section_title
;
Structure prediction by ZEFSAII (Michael W. Deem and Ramdas Pophale) SiO2 
 PCOD9225631
Probable space group: C 2/M
;
_chemical_formula_sum "Si O2"
_cell_formula_units_Z 32
_cell_length_a 15.000000
_cell_length_b 30.000000
_cell_length_c 9.000000
_cell_angle_alpha 90.000000
_cell_angle_beta 60.000000
_cell_angle_gamma 90.000000
_cell_volume 3507.402885
_symmetry_space_group_name_H-M "C 2/M"
_symmetry_group_IT_number 12
_symmetry_cell_setting 'monoclinic'
loop_
_space_group_symop_operation_xyz
x,y,z
-x,y,-z
-x,-y,-z
x,-y,z
1/2+x,1/2+y,z
1/2-x,1/2+y,-z
1/2-x,1/2-y,-z
1/2+x,1/2-y,z
loop_
_atom_site_type_symbol
_atom_site_label
_atom_site_fract_x
_atom_site_fract_y
_atom_site_fract_z
Si Si1 0.884233 0.196959 0.290196
Si Si2 0.887800 0.052732 0.013321
Si Si3 0.417755 0.797976 0.197429
Si Si4 0.114664 0.198838 0.211118
Si Si5 0.213025 0.146886 0.370534
Si Si6 0.116506 0.052764 0.343053
Si Si7 0.716676 0.647761 0.875578
Si Si8 0.421313 0.799341 0.697477
O O1 0.868317 0.250939 0.297417
O O2 0.807748 0.163811 0.444213
O O3 0.865580 0.178013 0.143083
O O4 0.000492 0.190724 0.246862
O O5 0.813786 0.095330 0.116424
O O6 0.858403 0.000000 0.071587
O O7 0.891065 0.055937 0.830392
O O8 0.000000 0.059312 0.000000
O O9 0.327165 0.833328 0.237370
O O10 0.497218 0.817597 0.251185
O O11 0.500000 0.785692 0.000000
O O12 0.129660 0.178899 0.360839
O O13 0.129247 0.252498 0.203833
O O14 0.196426 0.167545 0.056758
O O15 0.184751 0.094872 0.352749
O O16 0.000000 0.058423 0.500000
O O17 0.147474 0.000000 0.351239
O O18 0.831420 0.665132 0.738250
O O19 0.500000 0.786810 0.500000
#
# Coordination Sequence:
#
# PCOD9225631 Si02
#       8
#     8   8   8   8   8   8   8   8
#     4  11  22  35  54  86 119 149 188 236 283 348
#     4  10  22  40  62  89 118 146 184 237 296 353
#     4  11  23  39  55  79 118 156 200 239 274 327
#     4  11  20  35  56  83 114 148 191 231 285 345
#     4  12  22  36  59  84 113 159 192 230 288 346
#     4  10  22  40  61  89 119 146 183 237 296 351
#     4  12  22  36  59  83 113 152 194 232 285 342
#     4  11  23  39  54  79 117 157 194 238 278 327
#
# _framework density 9.1235599999999994
#
# number of rings (size 3 to 8) (size 9 to 14) (size 15 to 20)
#    0.000    1.000    1.250    8.250    1.750    0.000 
#    0.000    0.000    0.000    1.500    0.000    0.000 
#    0.000    0.000    0.000    0.000    0.000    0.000 
#
# Total GULP energy -178229.374510 kJ/mol
# GULP energy per Si atom -5569.667953 kJ/mol
# Density = 0.910279 g / cm^3
# Si number density = 9.123560 Si / 1000 Ang^3
#
#
#
# Elastic Constant Matrix: (Units=GPa)
#
#
# Indices 1 2 3 4 5 6 
#
# 1 101.9973 62.0058 14.4309 0.0000 -2.3344 0.0000
# 2 62.0058 161.8183 11.4958 0.0000 -20.4188 0.0000
# 3 14.4309 11.4958 39.4647 0.0000 -10.9326 0.0000
# 4 0.0000 0.0000 0.0000 22.4642 0.0000 -3.3243
# 5 -2.3344 -20.4188 -10.9326 0.0000 24.5938 0.0000
# 6 0.0000 0.0000 0.0000 -3.3243 0.0000 37.5469
#
#
#
# Elastic Compliance Matrix: (Units=1/GPa)
#
#
# Indices 1 2 3 4 5 6 
#
# 1 0.013807 -0.005642 -0.004949 0.000000 -0.005574 0.000000
# 2 -0.005642 0.009217 0.001539 0.000000 0.007801 0.000000
# 3 -0.004949 0.001539 0.030706 0.000000 0.014458 0.000000
# 4 0.000000 0.000000 0.000000 0.045106 0.000000 0.003994
# 5 -0.005574 0.007801 0.014458 0.000000 0.053035 0.000000
# 6 0.000000 0.000000 0.000000 0.003994 0.000000 0.026987
#
#
# Mechanical properties :
#
#
# Convention : Reuss Voigt Hill
#
# Bulk Modulus (GPa) = 28.07018 53.23838 40.65428
# Shear Modulus (GPa) = 23.94214 31.27749 27.60981
#
# Velocity S-wave (km/s) = 3.62623 4.14467 3.89409
# Velocity P-wave (km/s) = 5.74016 7.22108 6.52279
#
# Compressibility (1/GPa) = 0.03562499
#
# Stress axis : x y z
#
# Youngs Moduli (GPa) = 72.42761 108.49783 32.56734
#
# Poissons Ratio (x) = 0.61218 0.16118
# Poissons Ratio (y) = 0.40866 -0.05014
# Poissons Ratio (z) = 0.35846 -0.16703
#
# Static dielectric constant tensor:
#      x y z
#    x 1.614090 0.000000 0.040910 
#    y 0.000000 1.618580 0.000000 
#    z 0.040910 0.000000 1.756660 
# 
# From -- ./inp_files/68217.got.cif
#   From: 2010.05.17/outbox.ucp.g08.bks.cvg/sg12_35_cif.got.tgz:68217.got - 2010.06.11 11:47:21.
