data_PCOD9225092
_publ_section_title
;
Structure prediction by ZEFSAII (Michael W. Deem and Ramdas Pophale) SiO2 
 PCOD9225092
Probable space group: C 2/M
;
_chemical_formula_sum "Si O2"
_cell_formula_units_Z 20
_cell_length_a 24.000000
_cell_length_b 9.000000
_cell_length_c 18.000000
_cell_angle_alpha 90.000000
_cell_angle_beta 30.000000
_cell_angle_gamma 90.000000
_cell_volume 1944.000000
_symmetry_space_group_name_H-M "C 2/M"
_symmetry_group_IT_number 12
_symmetry_cell_setting 'monoclinic'
loop_
_space_group_symop_operation_xyz
x,y,z
-x,y,-z
-x,-y,-z
x,-y,z
1/2+x,1/2+y,z
1/2-x,1/2+y,-z
1/2-x,1/2-y,-z
1/2+x,1/2-y,z
loop_
_atom_site_type_symbol
_atom_site_label
_atom_site_fract_x
_atom_site_fract_y
_atom_site_fract_z
Si Si1 0.114463 0.327380 0.571149
Si Si2 0.481622 0.676153 0.182911
Si Si3 0.202150 0.675745 0.898222
Si Si4 0.436053 0.822417 0.649989
Si Si5 0.665452 0.674657 0.782777
O O1 0.104745 0.500000 0.605235
O O2 0.104412 0.226284 0.654798
O O3 0.226831 0.312478 0.394387
O O4 0.015099 0.292326 0.628505
O O5 0.494703 0.500000 0.169094
O O6 0.436332 0.716945 0.153327
O O7 0.598150 0.756288 0.062448
O O8 0.201007 0.500000 0.904014
O O9 0.319348 0.740144 0.789573
O O10 0.184969 0.730494 0.833300
O O11 0.500000 0.780001 0.500000
O O12 0.416630 0.000000 0.668137
O O13 0.654088 0.500000 0.817169
#
# Coordination Sequence:
#
# PCOD9225092 Si02
#       5
#     8   8   8   8   8
#     4  10  21  39  65  92 121 156 197 248 304 359
#     4  11  24  40  61  89 125 163 201 246 300 360
#     4  12  25  39  61  91 124 159 202 254 299 350
#     4  10  20  40  67  89 117 158 200 245 301 363
#     4  10  21  41  65  89 120 162 204 244 298 363
#
# _framework density 10.288066000000001
#
# number of rings (size 3 to 8) (size 9 to 14) (size 15 to 20)
#    0.000    1.400    2.000    3.600    0.000    6.800 
#    0.000    0.000    0.000    0.000    0.000    0.000 
#    0.000    0.000    0.000    0.000    0.000    0.000 
#
# Total GULP energy -111877.125950 kJ/mol
# GULP energy per Si atom -5593.856297 kJ/mol
# Density = 1.026465 g / cm^3
# Si number density = 10.288066 Si / 1000 Ang^3
#
#
#
# Elastic Constant Matrix: (Units=GPa)
#
#
# Indices 1 2 3 4 5 6 
#
# 1 41.2403 36.0339 12.8835 0.0004 -12.8141 -0.0001
# 2 36.0339 30.1005 15.6815 -0.0007 -11.9264 0.0002
# 3 12.8835 15.6815 59.0871 -0.0002 -17.9887 0.0001
# 4 0.0004 -0.0007 -0.0002 8.6822 0.0001 13.7561
# 5 -12.8141 -11.9264 -17.9887 0.0001 41.0801 0.0000
# 6 -0.0001 0.0002 0.0001 13.7561 0.0000 23.5220
#
#
#
# Elastic Compliance Matrix: (Units=1/GPa)
#
#
# Indices 1 2 3 4 5 6 
#
# 1 -0.387883 0.488037 -0.044593 0.000911 0.001167 -0.000538
# 2 0.488037 -0.573239 0.047772 -0.001097 0.006730 0.000648
# 3 -0.044593 0.047772 0.016103 0.000102 0.007011 -0.000061
# 4 0.000911 -0.001097 0.000102 1.568884 0.000009 -0.917514
# 5 0.001167 0.006730 0.007011 0.000009 0.029731 -0.000005
# 6 -0.000538 0.000648 -0.000061 -0.917514 -0.000005 0.579093
#
#
# Mechanical properties :
#
#
# Convention : Reuss Voigt Hill
#
# Bulk Modulus (GPa) = 26.72855 28.84730 27.78793
# Shear Modulus (GPa) = 19.03097 19.04547 19.03822
#
# Velocity S-wave (km/s) = 3.04452 3.04568 3.04510
# Velocity P-wave (km/s) = 5.03757 5.13989 5.08899
#
# Compressibility (1/GPa) = 0.03741318
#
# Stress axis : x y z
#
# Youngs Moduli (GPa) = -2.57810 -1.74447 62.09950
#
# Poissons Ratio (x) = 0.85137 2.76922
# Poissons Ratio (y) = 1.25821 -2.96662
# Poissons Ratio (z) = -0.11497 0.08334
#
# Static dielectric constant tensor:
#      x y z
#    x 1.713480 0.000000 -0.005800 
#    y 0.000000 1.676290 0.000000 
#    z -0.005800 0.000000 1.757150 
# 
# From -- ./inp_files/151944.got.cif
#   From: 2010.05.17/outbox.ucp.g08.bks.cvg/sg12_76_cif.got.tgz:151944.got - 2010.06.11 11:47:21.
