data_PCOD9225300
_publ_section_title
;
Structure prediction by ZEFSAII (Michael W. Deem and Ramdas Pophale) SiO2 
 PCOD9225300
Probable space group: C 2/M
;
_chemical_formula_sum "Si O2"
_cell_formula_units_Z 32
_cell_length_a 30.000000
_cell_length_b 9.000000
_cell_length_c 18.000000
_cell_angle_alpha 90.000000
_cell_angle_beta 140.000000
_cell_angle_gamma 90.000000
_cell_volume 3123.947783
_symmetry_space_group_name_H-M "C 2/M"
_symmetry_group_IT_number 12
_symmetry_cell_setting 'monoclinic'
loop_
_space_group_symop_operation_xyz
x,y,z
-x,y,-z
-x,-y,-z
x,-y,z
1/2+x,1/2+y,z
1/2-x,1/2+y,-z
1/2-x,1/2-y,-z
1/2+x,1/2-y,z
loop_
_atom_site_type_symbol
_atom_site_label
_atom_site_fract_x
_atom_site_fract_y
_atom_site_fract_z
Si Si1 0.851041 0.674004 0.396332
Si Si2 0.874291 0.176690 0.014198
Si Si3 0.362735 0.176068 0.660695
Si Si4 0.507573 0.668410 0.421058
Si Si5 0.275246 0.326634 0.420644
Si Si6 0.220323 0.677962 0.849035
Si Si7 0.107312 0.676128 0.813733
Si Si8 0.492110 0.824665 0.077662
O O1 0.866458 0.500000 0.426064
O O2 0.786795 0.723980 0.364424
O O3 0.830555 0.700739 0.285201
O O4 0.915978 0.774885 0.500580
O O5 0.909154 0.231750 0.134428
O O6 0.922441 0.242623 0.012598
O O7 0.871867 0.000000 0.004832
O O8 0.795634 0.236510 0.922594
O O9 0.331889 0.270368 0.553222
O O10 0.301835 0.189271 0.644421
O O11 0.437642 0.222001 0.788665
O O12 0.366403 0.000000 0.644814
O O13 0.500000 0.666492 0.500000
O O14 0.494903 0.500000 0.377755
O O15 0.453259 0.785721 0.320395
O O16 0.286186 0.500000 0.417639
O O17 0.227693 0.500000 0.868327
O O18 0.179349 0.732434 0.869030
O O19 0.111330 0.500000 0.833137
O O20 0.483877 0.000000 0.082639
O O21 0.500000 0.805295 0.000000
#
# Coordination Sequence:
#
# PCOD9225300 Si02
#       8
#     8   8   8   8   8   8   8   8
#     4  11  22  38  61  88 121 163 203 244 300 370
#     4  11  24  42  63  92 125 159 205 259 310 359
#     4   9  20  40  62  85 118 157 198 247 306 367
#     4  11  23  39  59  89 124 157 197 248 303 354
#     4  10  21  37  60  91 120 152 198 252 305 360
#     4   9  21  40  62  89 123 162 207 253 302 361
#     4  11  22  41  66  90 121 165 209 250 302 365
#     4  10  23  43  65  89 119 159 207 253 303 368
#
# _framework density 10.243449
#
# number of rings (size 3 to 8) (size 9 to 14) (size 15 to 20)
#    0.000    1.750    1.250    2.250    3.500    1.750 
#    0.000    3.750    0.000    0.000    0.000    0.000 
#    0.000    0.000    0.000    0.000    0.000    0.000 
#
# Total GULP energy -178633.349153 kJ/mol
# GULP energy per Si atom -5582.292161 kJ/mol
# Density = 1.022013 g / cm^3
# Si number density = 10.243449 Si / 1000 Ang^3
#
#
#
# Elastic Constant Matrix: (Units=GPa)
#
#
# Indices 1 2 3 4 5 6 
#
# 1 38.2938 56.4402 -16.1278 0.0000 14.6514 0.0000
# 2 56.4402 17.0615 14.4026 0.0000 -2.8747 0.0000
# 3 -16.1278 14.4026 -1.8492 0.0000 19.5130 0.0000
# 4 0.0000 0.0000 0.0000 15.9321 0.0000 12.8367
# 5 14.6514 -2.8747 19.5130 0.0000 19.1185 0.0000
# 6 0.0000 0.0000 0.0000 12.8367 0.0000 14.4966
#
#
#
# Elastic Compliance Matrix: (Units=1/GPa)
#
#
# Indices 1 2 3 4 5 6 
#
# 1 0.029648 -0.033005 -0.068628 0.000000 0.042362 0.000000
# 2 -0.033005 0.069596 0.102569 0.000000 -0.068927 0.000000
# 3 -0.068628 0.102569 0.133760 0.000000 -0.068505 0.000000
# 4 0.000000 0.000000 0.000000 0.219043 0.000000 -0.193961
# 5 0.042362 -0.068927 -0.068505 0.000000 0.079396 0.000000
# 6 0.000000 0.000000 0.000000 -0.193961 0.000000 0.240733
#
#
# Mechanical properties :
#
#
# Convention : Reuss Voigt Hill
#
# Bulk Modulus (GPa) = 4.25761 18.10400 11.18080
# Shear Modulus (GPa) = 5.89208 9.82886 7.86047
#
# Velocity S-wave (km/s) = 1.69772 2.19273 1.96091
# Velocity P-wave (km/s) = 2.43429 3.90727 3.25519
#
# Compressibility (1/GPa) = 0.23487376
#
# Stress axis : x y z
#
# Youngs Moduli (GPa) = 33.72940 14.36873 7.47607
#
# Poissons Ratio (x) = 0.47424 0.51307
# Poissons Ratio (y) = 1.11324 -0.76681
# Poissons Ratio (z) = 2.31480 -1.47378
#
# Static dielectric constant tensor:
#      x y z
#    x 1.766820 0.000000 -0.025790 
#    y 0.000000 1.684730 0.000000 
#    z -0.025790 0.000000 1.771340 
# 
# From -- ./inp_files/295832.got.cif
#   From: 2010.05.17/outbox.ucp.g08.bks.cvg/sg12_148_cif.got.tgz:295832.got - 2010.06.11 11:47:21.
