data_PCOD9225243
_publ_section_title
;
Structure prediction by ZEFSAII (Michael W. Deem and Ramdas Pophale) SiO2 
 PCOD9225243
Probable space group: C 2/M
;
_chemical_formula_sum "Si O2"
_cell_formula_units_Z 28
_cell_length_a 18.000000
_cell_length_b 27.000000
_cell_length_c 9.000000
_cell_angle_alpha 90.000000
_cell_angle_beta 40.000000
_cell_angle_gamma 90.000000
_cell_volume 2811.553005
_symmetry_space_group_name_H-M "C 2/M"
_symmetry_group_IT_number 12
_symmetry_cell_setting 'monoclinic'
loop_
_space_group_symop_operation_xyz
x,y,z
-x,y,-z
-x,-y,-z
x,-y,z
1/2+x,1/2+y,z
1/2-x,1/2+y,-z
1/2-x,1/2-y,-z
1/2+x,1/2-y,z
loop_
_atom_site_type_symbol
_atom_site_label
_atom_site_fract_x
_atom_site_fract_y
_atom_site_fract_z
Si Si1 0.123379 0.352461 0.872051
Si Si2 0.984856 0.198456 0.695000
Si Si3 0.825794 0.555889 0.677018
Si Si4 0.152479 0.290866 0.115448
Si Si5 0.196561 0.195669 0.588436
Si Si6 0.073572 0.556236 0.147979
Si Si7 0.221714 0.846764 0.852201
O O1 0.210679 0.344923 0.604947
O O2 0.171731 0.320331 0.935101
O O3 0.106974 0.406086 0.968851
O O4 0.000000 0.334750 0.000000
O O5 0.957609 0.257285 0.747820
O O6 0.000000 0.192539 0.500000
O O7 0.087899 0.189303 0.649394
O O8 0.880847 0.160232 0.877878
O O9 0.788500 0.500000 0.706108
O O10 0.853515 0.560761 0.810980
O O11 0.737149 0.598180 0.774946
O O12 0.943165 0.564852 0.405349
O O13 0.162467 0.326789 0.242715
O O14 0.250000 0.250000 0.000000
O O15 0.250000 0.250000 0.500000
O O16 0.176621 0.187901 0.791186
O O17 0.083128 0.500000 0.081096
#
# Coordination Sequence:
#
# PCOD9225243 Si02
#       7
#     8   8   8   8   8   8   8
#     4  12  23  37  58  87 121 157 198 242 300 360
#     4  11  23  38  58  83 117 157 199 248 293 349
#     4   9  18  36  63  91 117 151 195 245 303 359
#     4  10  21  37  56  80 113 153 200 242 286 349
#     4  12  24  39  57  86 124 162 201 245 296 348
#     4   9  19  36  59  89 122 152 191 246 303 360
#     4  11  21  39  62  86 115 157 201 243 296 355
#
# _framework density 9.9589090000000002
#
# number of rings (size 3 to 8) (size 9 to 14) (size 15 to 20)
#    0.000    1.429    1.429    7.286    0.000    1.429 
#    0.000    0.714    0.000    3.000    0.000    0.000 
#    0.000    0.000    0.000    0.000    0.000    0.000 
#
# Total GULP energy -156014.519059 kJ/mol
# GULP energy per Si atom -5571.947109 kJ/mol
# Density = 0.993624 g / cm^3
# Si number density = 9.958909 Si / 1000 Ang^3
#
#
#
# Elastic Constant Matrix: (Units=GPa)
#
#
# Indices 1 2 3 4 5 6 
#
# 1 -53.8213 -36.5015 -63.0040 0.0000 -20.1058 0.0000
# 2 -36.5015 76.8618 7.1485 0.0000 -6.1554 0.0000
# 3 -63.0040 7.1485 -2.3425 0.0000 -1.2612 0.0000
# 4 0.0000 0.0000 0.0000 23.1333 0.0000 9.6399
# 5 -20.1058 -6.1554 -1.2612 0.0000 22.4134 0.0000
# 6 0.0000 0.0000 0.0000 9.6399 0.0000 34.6495
#
#
#
# Elastic Compliance Matrix: (Units=1/GPa)
#
#
# Indices 1 2 3 4 5 6 
#
# 1 0.000904 0.002134 -0.018003 0.000000 0.000384 0.000000
# 2 0.002134 0.015640 -0.012639 0.000000 0.005499 0.000000
# 3 -0.018003 -0.012639 0.028452 0.000000 -0.018020 0.000000
# 4 0.000000 0.000000 0.000000 0.048896 0.000000 -0.013604
# 5 0.000384 0.005499 -0.018020 0.000000 0.045457 0.000000
# 6 0.000000 0.000000 0.000000 -0.013604 0.000000 0.032645
#
#
# Mechanical properties :
#
#
# Convention : Reuss Voigt Hill
#
# Bulk Modulus (GPa) = -83.19599 -18.22401 -50.71000
# Shear Modulus (GPa) = 22.22194 23.57625 22.89910
#
# Velocity S-wave (km/s) = 3.34381 3.44419 3.39437
# Velocity P-wave (km/s) = 5.19156 2.57821 3.18631
#
# Compressibility (1/GPa) = -0.01201981
#
# Stress axis : x y z
#
# Youngs Moduli (GPa) = 1106.38371 63.93946 35.14680
#
# Poissons Ratio (x) = -0.13647 0.63275
# Poissons Ratio (y) = -2.36141 0.44422
# Poissons Ratio (z) = 19.91843 0.80813
#
# Static dielectric constant tensor:
#      x y z
#    x 1.665650 0.000000 -0.049790 
#    y 0.000000 1.914580 0.000000 
#    z -0.049790 0.000000 1.683260 
# 
# From -- ./inp_files/79998.got.cif
#   From: 2010.05.17/outbox.ucp.g08.bks.cvg/sg12_40_cif.got.tgz:79998.got - 2010.06.11 11:47:21.
