data_PCOD9225713
_publ_section_title
;
Structure prediction by ZEFSAII (Michael W. Deem and Ramdas Pophale) SiO2 
 PCOD9225713
Probable space group: C 2/M
;
_chemical_formula_sum "Si O2"
_cell_formula_units_Z 28
_cell_length_a 21.000000
_cell_length_b 9.000000
_cell_length_c 15.000000
_cell_angle_alpha 90.000000
_cell_angle_beta 90.000000
_cell_angle_gamma 90.000000
_cell_volume 2835.000000
_symmetry_space_group_name_H-M "C 2/M"
_symmetry_group_IT_number 12
_symmetry_cell_setting 'monoclinic'
loop_
_space_group_symop_operation_xyz
x,y,z
-x,y,-z
-x,-y,-z
x,-y,z
1/2+x,1/2+y,z
1/2-x,1/2+y,-z
1/2-x,1/2-y,-z
1/2+x,1/2-y,z
loop_
_atom_site_type_symbol
_atom_site_label
_atom_site_fract_x
_atom_site_fract_y
_atom_site_fract_z
Si Si1 0.996344 0.820124 0.245366
Si Si2 0.818344 0.325276 0.480739
Si Si3 0.357508 0.824822 0.274205
Si Si4 0.438800 0.330183 0.937232
Si Si5 0.812451 0.667461 0.965527
Si Si6 0.118480 0.177682 0.359987
Si Si7 0.273378 0.830019 0.761752
O O1 0.926707 0.746997 0.254803
O O2 0.034160 0.770450 0.156269
O O3 0.048168 0.786834 0.322345
O O4 0.987970 0.000000 0.240215
O O5 0.813335 0.500000 0.500974
O O6 0.750000 0.250000 0.500000
O O7 0.840191 0.309674 0.378899
O O8 0.869555 0.247103 0.543822
O O9 0.296252 0.745092 0.229895
O O10 0.358869 0.000000 0.251764
O O11 0.417010 0.500000 0.921189
O O12 0.380021 0.245329 0.981340
O O13 0.500000 0.332034 0.000000
O O14 0.813194 0.500000 0.000544
O O15 0.804574 0.665323 0.858895
O O16 0.750000 0.750000 0.000000
O O17 0.176638 0.242459 0.300278
O O18 0.124877 0.000000 0.361144
O O19 0.265593 0.000000 0.729099
#
# Coordination Sequence:
#
# PCOD9225713 Si02
#       7
#     8   8   8   8   8   8   8
#     4  10  23  42  63  90 126 166 207 252 309 373
#     4  11  23  39  61  91 125 164 208 259 312 365
#     4  11  25  41  62  92 126 163 207 258 309 365
#     4  10  22  42  66  91 125 166 205 251 307 370
#     4  11  25  42  64  95 127 163 207 256 309 365
#     4  11  22  39  65  92 122 163 207 255 311 368
#     4  11  23  40  64  91 123 164 208 254 307 368
#
# _framework density 9.8765429999999999
#
# number of rings (size 3 to 8) (size 9 to 14) (size 15 to 20)
#    0.000    1.286    2.857    2.143    2.000    6.000 
#    0.000    2.857    0.000    0.000    0.000    0.000 
#    0.000    0.000    0.000    0.000    0.000    0.000 
#
# Total GULP energy -156436.840369 kJ/mol
# GULP energy per Si atom -5587.030013 kJ/mol
# Density = 0.985406 g / cm^3
# Si number density = 9.876543 Si / 1000 Ang^3
#
#
#
# Elastic Constant Matrix: (Units=GPa)
#
#
# Indices 1 2 3 4 5 6 
#
# 1 138.4483 52.3658 -14.3704 0.0000 -12.0787 0.0000
# 2 52.3658 98.4789 -0.6532 0.0000 -11.0516 0.0000
# 3 -14.3704 -0.6532 19.5407 0.0000 2.3951 0.0000
# 4 0.0000 0.0000 0.0000 26.1039 0.0000 -6.5073
# 5 -12.0787 -11.0516 2.3951 0.0000 33.1380 0.0000
# 6 0.0000 0.0000 0.0000 -6.5073 0.0000 39.3082
#
#
#
# Elastic Compliance Matrix: (Units=1/GPa)
#
#
# Indices 1 2 3 4 5 6 
#
# 1 0.010011 -0.005116 0.007015 0.000000 0.001436 0.000000
# 2 -0.005116 0.013164 -0.003664 0.000000 0.002790 0.000000
# 3 0.007015 -0.003664 0.056549 0.000000 -0.002752 0.000000
# 4 0.000000 0.000000 0.000000 0.039957 0.000000 0.006615
# 5 0.001436 0.002790 -0.002752 0.000000 0.031830 0.000000
# 6 0.000000 0.000000 0.000000 0.006615 0.000000 0.026535
#
#
# Mechanical properties :
#
#
# Convention : Reuss Voigt Hill
#
# Bulk Modulus (GPa) = 13.12419 36.79470 24.95944
# Shear Modulus (GPa) = 24.15760 34.31839 29.23799
#
# Velocity S-wave (km/s) = 3.50090 4.17270 3.85148
# Velocity P-wave (km/s) = 4.79587 6.47170 5.69576
#
# Compressibility (1/GPa) = 0.07619519
#
# Stress axis : x y z
#
# Youngs Moduli (GPa) = 99.88661 75.96693 17.68363
#
# Poissons Ratio (x) = 0.38863 -0.12406
# Poissons Ratio (y) = 0.51100 0.06480
# Poissons Ratio (z) = -0.70075 0.27836
#
# Static dielectric constant tensor:
#      x y z
#    x 1.649890 0.000000 0.027730 
#    y 0.000000 1.699660 0.000000 
#    z 0.027730 0.000000 1.744040 
# 
# From -- ./inp_files/231046.got.cif
#   From: 2010.05.17/outbox.ucp.g08.bks.cvg/sg12_116_cif.got.tgz:231046.got - 2010.06.11 11:47:21.
