data_PCOD9225396
_publ_section_title
;
Structure prediction by ZEFSAII (Michael W. Deem and Ramdas Pophale) SiO2 
 PCOD9225396
Probable space group: C 2/M
;
_chemical_formula_sum "Si O2"
_cell_formula_units_Z 24
_cell_length_a 21.000000
_cell_length_b 12.000000
_cell_length_c 12.000000
_cell_angle_alpha 90.000000
_cell_angle_beta 50.000000
_cell_angle_gamma 90.000000
_cell_volume 2316.518396
_symmetry_space_group_name_H-M "C 2/M"
_symmetry_group_IT_number 12
_symmetry_cell_setting 'monoclinic'
loop_
_space_group_symop_operation_xyz
x,y,z
-x,y,-z
-x,-y,-z
x,-y,z
1/2+x,1/2+y,z
1/2-x,1/2+y,-z
1/2-x,1/2-y,-z
1/2+x,1/2-y,z
loop_
_atom_site_type_symbol
_atom_site_label
_atom_site_fract_x
_atom_site_fract_y
_atom_site_fract_z
Si Si1 0.139786 0.806327 0.522618
Si Si2 0.310780 0.884702 0.955618
Si Si3 0.825449 0.628015 0.346821
Si Si4 0.530953 0.624338 0.193790
Si Si5 0.579809 0.802677 0.967707
Si Si6 0.844774 0.804221 0.758577
O O1 0.139767 0.684705 0.580685
O O2 0.226404 0.862259 0.458680
O O3 0.135257 0.804174 0.393625
O O4 0.064595 0.870047 0.664819
O O5 0.303308 0.805512 0.857988
O O6 0.332346 0.000000 0.878562
O O7 0.379989 0.859585 0.970300
O O8 0.227131 0.887785 0.122596
O O9 0.850684 0.500000 0.304835
O O10 0.854822 0.699145 0.206228
O O11 0.561938 0.500000 0.146839
O O12 0.577053 0.675983 0.249475
O O13 0.549070 0.688900 0.059309
O O14 0.500000 0.857782 0.000000
#
# Coordination Sequence:
#
# PCOD9225396 Si02
#       6
#     8   8   8   8   8   8
#     4  11  23  43  62  94 129 158 209 257 305 375
#     4  10  21  38  62  89 120 163 206 254 311 363
#     4  11  24  42  66  91 125 170 206 251 312 365
#     4  11  24  41  65  94 124 163 204 257 318 363
#     4  11  22  42  62  94 122 160 210 257 295 373
#     4  10  22  39  61  90 125 157 208 259 301 374
#
# _framework density 10.360374999999999
#
# number of rings (size 3 to 8) (size 9 to 14) (size 15 to 20)
#    0.000    1.333    3.333    2.000    0.000    5.000 
#    0.000    0.833    0.000    3.000    0.000    0.000 
#    0.000    0.000    0.000    0.000    0.000    0.000 
#
# Total GULP energy -133620.008567 kJ/mol
# GULP energy per Si atom -5567.500357 kJ/mol
# Density = 1.033679 g / cm^3
# Si number density = 10.360375 Si / 1000 Ang^3
#
#
#
# Elastic Constant Matrix: (Units=GPa)
#
#
# Indices 1 2 3 4 5 6 
#
# 1 52.0766 19.2037 -5.6912 0.0000 2.3994 0.0000
# 2 19.2037 32.9763 77.3826 0.0000 44.6066 0.0000
# 3 -5.6912 77.3826 56.6266 0.0000 -4.3356 0.0000
# 4 0.0000 0.0000 0.0000 -5.5539 0.0000 -12.0857
# 5 2.3994 44.6066 -4.3356 0.0000 18.2223 0.0000
# 6 0.0000 0.0000 0.0000 -12.0857 0.0000 15.2905
#
#
#
# Elastic Compliance Matrix: (Units=1/GPa)
#
#
# Indices 1 2 3 4 5 6 
#
# 1 0.018719 0.001862 -0.001223 0.000000 -0.007314 0.000000
# 2 0.001862 -0.004455 0.007223 0.000000 0.012380 0.000000
# 3 -0.001223 0.007223 0.006442 0.000000 -0.015988 0.000000
# 4 0.000000 0.000000 0.000000 -0.066197 0.000000 -0.052322
# 5 -0.007314 0.012380 -0.015988 0.000000 0.021733 0.000000
# 6 0.000000 0.000000 0.000000 -0.052322 0.000000 0.024044
#
#
# Mechanical properties :
#
#
# Convention : Reuss Voigt Hill
#
# Bulk Modulus (GPa) = 27.45004 35.94110 31.69557
# Shear Modulus (GPa) = -1517.37123 8.97742 -754.19691
#
# Velocity S-wave (km/s) = -27.09032 2.08374 -19.09900
# Velocity P-wave (km/s) = 31.06827 4.81377 21.70328
#
# Compressibility (1/GPa) = 0.03642982
#
# Stress axis : x y z
#
# Youngs Moduli (GPa) = 53.42118 -224.45406 155.24066
#
# Poissons Ratio (x) = 0.41792 0.18987
# Poissons Ratio (y) = -0.09947 -1.12134
# Poissons Ratio (z) = 0.06534 1.62129
#
# Static dielectric constant tensor:
#      x y z
#    x 1.747110 0.000000 -0.073280 
#    y 0.000000 1.783340 0.000000 
#    z -0.073280 0.000000 1.714980 
# 
# From -- ./inp_files/165201.got.cif
#   From: 2010.05.17/outbox.ucp.g08.bks.cvg/sg12_83_cif.got.tgz:165201.got - 2010.06.11 11:47:21.
