data_PCOD9225914
_publ_section_title
;
Structure prediction by ZEFSAII (Michael W. Deem and Ramdas Pophale) SiO2 
 PCOD9225914
Probable space group: C 2/M
;
_chemical_formula_sum "Si O2"
_cell_formula_units_Z 32
_cell_length_a 21.000000
_cell_length_b 24.000000
_cell_length_c 18.000000
_cell_angle_alpha 90.000000
_cell_angle_beta 160.000000
_cell_angle_gamma 90.000000
_cell_volume 3102.806740
_symmetry_space_group_name_H-M "C 2/M"
_symmetry_group_IT_number 12
_symmetry_cell_setting 'monoclinic'
loop_
_space_group_symop_operation_xyz
x,y,z
-x,y,-z
-x,-y,-z
x,-y,z
1/2+x,1/2+y,z
1/2-x,1/2+y,-z
1/2-x,1/2-y,-z
1/2+x,1/2-y,z
loop_
_atom_site_type_symbol
_atom_site_label
_atom_site_fract_x
_atom_site_fract_y
_atom_site_fract_z
Si Si1 0.299289 0.936543 0.320553
Si Si2 0.186085 0.831870 0.103516
Si Si3 0.316768 0.308283 0.610982
Si Si4 0.826829 0.786676 0.262527
Si Si5 0.478855 0.869500 0.894858
Si Si6 0.282385 0.065369 0.959097
Si Si7 0.489138 0.120248 0.319800
Si Si8 0.955831 0.152467 0.611909
O O1 0.500000 0.938251 0.500000
O O2 0.185304 0.886601 0.155446
O O3 0.362831 0.916349 0.471234
O O4 0.223230 0.000000 0.234840
O O5 0.283871 0.775851 0.242001
O O6 0.333498 0.849585 0.200317
O O7 0.979177 0.810959 0.852007
O O8 0.250000 0.250000 0.500000
O O9 0.424469 0.342178 0.664917
O O10 0.124253 0.336734 0.425361
O O11 0.000000 0.811011 0.500000
O O12 0.920898 0.795484 0.284345
O O13 0.631392 0.819484 0.053891
O O14 0.261875 0.851225 0.651623
O O15 0.500000 0.893381 0.000000
O O16 0.557704 0.913421 0.922258
O O17 0.089924 0.100436 0.738256
O O18 0.248893 0.000000 0.915580
O O19 0.369779 0.081987 0.134005
#
# Coordination Sequence:
#
# PCOD9225914 Si02
#       8
#     8   8   8   8   8   8   8   8
#     4   9  20  42  68  93 133 180 228 282 333 391
#     4  11  24  41  63 102 135 179 226 273 336 400
#     4  12  25  40  64  99 134 177 220 279 341 404
#     4  11  22  39  67  96 133 175 217 270 334 409
#     4  11  23  44  68  98 131 171 217 280 344 405
#     4  11  25  43  69  97 130 175 225 275 337 409
#     4  11  22  43  67  97 133 175 231 274 336 400
#     4  11  23  43  63  96 131 170 219 272 342 399
#
# _framework density 10.313243
#
# number of rings (size 3 to 8) (size 9 to 14) (size 15 to 20)
#    0.000    1.125    3.750    3.000    1.750    2.750 
#    2.250    2.500    0.000    0.000    0.000    0.000 
#    0.000    0.000    0.000    0.000    0.000    0.000 
#
# Total GULP energy -178465.271954 kJ/mol
# GULP energy per Si atom -5577.039749 kJ/mol
# Density = 1.028977 g / cm^3
# Si number density = 10.313243 Si / 1000 Ang^3
#
#
#
# Elastic Constant Matrix: (Units=GPa)
#
#
# Indices 1 2 3 4 5 6 
#
# 1 70.7199 21.0443 11.7180 -0.0001 15.1652 0.0000
# 2 21.0443 145.9413 46.4567 0.0000 4.2861 0.0000
# 3 11.7180 46.4567 144.4808 -0.0005 10.2042 0.0002
# 4 -0.0001 0.0000 -0.0005 26.4177 -0.0002 -3.6310
# 5 15.1652 4.2861 10.2042 -0.0002 39.3641 0.0001
# 6 0.0000 0.0000 0.0002 -3.6310 0.0001 13.0303
#
#
#
# Elastic Compliance Matrix: (Units=1/GPa)
#
#
# Indices 1 2 3 4 5 6 
#
# 1 0.016059 -0.002073 -0.000219 0.000000 -0.005905 0.000000
# 2 -0.002073 0.007902 -0.002413 0.000000 0.000563 0.000000
# 3 -0.000219 -0.002413 0.007834 0.000000 -0.001684 0.000000
# 4 0.000000 0.000000 0.000000 0.039361 0.000000 0.010968
# 5 -0.005905 0.000563 -0.001684 0.000000 0.028054 0.000000
# 6 0.000000 0.000000 0.000000 0.010968 0.000000 0.079801
#
#
# Mechanical properties :
#
#
# Convention : Reuss Voigt Hill
#
# Bulk Modulus (GPa) = 44.66863 57.73110 51.19986
# Shear Modulus (GPa) = 25.52555 34.55728 30.04142
#
# Velocity S-wave (km/s) = 3.52165 4.09759 3.82048
# Velocity P-wave (km/s) = 6.18377 7.10187 6.65866
#
# Compressibility (1/GPa) = 0.02238708
#
# Stress axis : x y z
#
# Youngs Moduli (GPa) = 62.26847 126.54392 127.65226
#
# Poissons Ratio (x) = 0.26227 0.02796
# Poissons Ratio (y) = 0.12906 0.30798
# Poissons Ratio (z) = 0.01364 0.30531
#
# Static dielectric constant tensor:
#      x y z
#    x 1.823860 0.000000 -0.081270 
#    y 0.000000 1.742440 0.000000 
#    z -0.081270 0.000000 1.757710 
# 
# From -- ./inp_files/286459.got.cif
#   From: 2010.05.17/outbox.ucp.g08.bks.cvg/sg12_144_cif.got.tgz:286459.got - 2010.06.11 11:47:21.
