data_PCOD9225767
_publ_section_title
;
Structure prediction by ZEFSAII (Michael W. Deem and Ramdas Pophale) SiO2 
 PCOD9225767
Probable space group: C 2/M
;
_chemical_formula_sum "Si O2"
_cell_formula_units_Z 32
_cell_length_a 18.000000
_cell_length_b 21.000000
_cell_length_c 24.000000
_cell_angle_alpha 90.000000
_cell_angle_beta 160.000000
_cell_angle_gamma 90.000000
_cell_volume 3102.806740
_symmetry_space_group_name_H-M "C 2/M"
_symmetry_group_IT_number 12
_symmetry_cell_setting 'monoclinic'
loop_
_space_group_symop_operation_xyz
x,y,z
-x,y,-z
-x,-y,-z
x,-y,z
1/2+x,1/2+y,z
1/2-x,1/2+y,-z
1/2-x,1/2-y,-z
1/2+x,1/2-y,z
loop_
_atom_site_type_symbol
_atom_site_label
_atom_site_fract_x
_atom_site_fract_y
_atom_site_fract_z
Si Si1 0.031769 0.766137 0.147784
Si Si2 0.937314 0.833955 0.717612
Si Si3 0.571493 0.664813 0.418107
Si Si4 0.307401 0.069490 0.819914
Si Si5 0.020183 0.294353 0.597285
Si Si6 0.208036 0.147850 0.112110
Si Si7 0.471719 0.074019 0.726979
Si Si8 0.392443 0.879061 0.057797
O O1 0.994542 0.785125 0.185684
O O2 0.282446 0.783532 0.307361
O O3 0.971424 0.692428 0.098081
O O4 0.880094 0.808093 0.000265
O O5 0.938306 0.814747 0.653523
O O6 0.680015 0.844208 0.550613
O O7 0.136052 0.884941 0.861838
O O8 0.356421 0.626490 0.283844
O O9 0.592341 0.726147 0.471875
O O10 0.766839 0.616062 0.564686
O O11 0.438248 0.076672 0.855198
O O12 0.198987 0.000000 0.747166
O O13 0.500000 0.072931 0.000000
O O14 0.142925 0.311531 0.741062
O O15 0.342845 0.087744 0.187178
O O16 0.000000 0.127257 0.000000
O O17 0.568708 0.104195 0.851255
O O18 0.420711 0.000000 0.697258
#
# Coordination Sequence:
#
# PCOD9225767 Si02
#       8
#     8   8   8   8   8   8   8   8
#     4  11  23  40  65  99 136 168 210 266 335 387
#     4  12  23  36  66  98 129 166 210 269 327 385
#     4  12  24  42  66  98 129 175 219 267 317 391
#     4  11  24  43  65  93 133 181 223 264 313 378
#     4  11  23  40  65  99 136 168 210 266 335 387
#     4  10  23  42  69  98 129 171 218 270 329 387
#     4  12  27  46  66  93 130 176 224 267 318 387
#     4  12  24  42  66  98 129 175 219 267 317 391
#
# _framework density 10.313243
#
# number of rings (size 3 to 8) (size 9 to 14) (size 15 to 20)
#    0.000    0.625    5.000    3.375    3.500    0.750 
#    0.000    1.250    0.000    0.000    0.000    3.500 
#    0.000    0.000    0.000    0.000    0.000    0.000 
#
# Total GULP energy -178650.634738 kJ/mol
# GULP energy per Si atom -5582.832336 kJ/mol
# Density = 1.028977 g / cm^3
# Si number density = 10.313243 Si / 1000 Ang^3
#
#
#
# Elastic Constant Matrix: (Units=GPa)
#
#
# Indices 1 2 3 4 5 6 
#
# 1 92.6768 32.1588 35.2608 -0.0058 12.2018 0.0168
# 2 32.1588 26.5408 17.2361 0.0124 8.3569 0.0258
# 3 35.2608 17.2361 107.3064 -0.0787 16.8445 0.0319
# 4 -0.0058 0.0124 -0.0787 24.4517 0.0192 -3.0798
# 5 12.2018 8.3569 16.8445 0.0192 30.2253 0.0076
# 6 0.0168 0.0258 0.0319 -3.0798 0.0076 21.3741
#
#
#
# Elastic Compliance Matrix: (Units=1/GPa)
#
#
# Indices 1 2 3 4 5 6 
#
# 1 0.019397 -0.021554 -0.002869 0.000009 -0.000272 0.000016
# 2 -0.021554 0.068170 -0.002493 -0.000049 -0.008758 -0.000066
# 3 -0.002869 -0.002493 0.011367 0.000040 -0.004487 -0.000004
# 4 0.000009 -0.000049 0.000040 0.041653 -0.000040 0.006002
# 5 -0.000272 -0.008758 -0.004487 -0.000040 0.038117 -0.000002
# 6 0.000016 -0.000066 -0.000004 0.006002 -0.000002 0.047650
#
#
# Mechanical properties :
#
#
# Convention : Reuss Voigt Hill
#
# Bulk Modulus (GPa) = 22.17137 43.98172 33.07654
# Shear Modulus (GPa) = 16.93659 24.66810 20.80234
#
# Velocity S-wave (km/s) = 2.86861 3.46199 3.17917
# Velocity P-wave (km/s) = 4.66307 6.11144 5.43571
#
# Compressibility (1/GPa) = 0.04510322
#
# Stress axis : x y z
#
# Youngs Moduli (GPa) = 51.55524 14.66915 87.97680
#
# Poissons Ratio (x) = 0.31617 0.25240
# Poissons Ratio (y) = 1.11120 0.21929
# Poissons Ratio (z) = 0.14791 0.03656
#
# Static dielectric constant tensor:
#      x y z
#    x 2.000600 -0.000010 0.062890 
#    y -0.000010 1.690220 -0.000010 
#    z 0.062890 -0.000010 1.772490 
# 
# From -- ./inp_files/344893.got.cif
#   From: 2010.05.17/outbox.ucp.g08.bks.cvg/sg12_173_cif.got.tgz:344893.got - 2010.06.11 11:47:21.
