data_PCOD9225567
_publ_section_title
;
Structure prediction by ZEFSAII (Michael W. Deem and Ramdas Pophale) SiO2 
 PCOD9225567
Probable space group: C 2/M
;
_chemical_formula_sum "Si O2"
_cell_formula_units_Z 32
_cell_length_a 9.000000
_cell_length_b 30.000000
_cell_length_c 18.000000
_cell_angle_alpha 90.000000
_cell_angle_beta 40.000000
_cell_angle_gamma 90.000000
_cell_volume 3123.947783
_symmetry_space_group_name_H-M "C 2/M"
_symmetry_group_IT_number 12
_symmetry_cell_setting 'monoclinic'
loop_
_space_group_symop_operation_xyz
x,y,z
-x,y,-z
-x,-y,-z
x,-y,z
1/2+x,1/2+y,z
1/2-x,1/2+y,-z
1/2-x,1/2-y,-z
1/2+x,1/2-y,z
loop_
_atom_site_type_symbol
_atom_site_label
_atom_site_fract_x
_atom_site_fract_y
_atom_site_fract_z
Si Si1 0.051457 0.713893 0.724764
Si Si2 0.609858 0.373682 0.036666
Si Si3 0.498694 0.771888 0.420677
Si Si4 0.662413 0.948722 0.600584
Si Si5 0.637453 0.450207 0.773033
Si Si6 0.758480 0.215655 0.928746
Si Si7 0.425259 0.885847 0.222468
Si Si8 0.960650 0.051949 0.673591
O O1 0.308981 0.733972 0.637917
O O2 0.965771 0.704514 0.672724
O O3 0.053385 0.666719 0.766837
O O4 0.895920 0.755112 0.814722
O O5 0.462697 0.411608 0.135350
O O6 0.639642 0.330891 0.079178
O O7 0.500000 0.358269 0.000000
O O8 0.850362 0.394609 0.914559
O O9 0.500000 0.797476 0.500000
O O10 0.250000 0.750000 0.500000
O O11 0.412216 0.947773 0.660178
O O12 0.623375 0.913842 0.682770
O O13 0.859414 0.939940 0.463545
O O14 0.701072 0.000000 0.611833
O O15 0.578424 0.500000 0.825569
O O16 0.556078 0.447294 0.719964
O O17 0.500000 0.206472 0.000000
O O18 0.750000 0.250000 0.000000
O O19 0.212298 0.906166 0.259350
O O20 0.874659 0.000000 0.697217
#
# Coordination Sequence:
#
# PCOD9225567 Si02
#       8
#     8   8   8   8   8   8   8   8
#     4  11  24  41  67  94 128 170 225 274 334 397
#     4  12  27  46  66  99 141 176 230 280 337 411
#     4   9  21  42  63  89 126 166 206 267 335 399
#     4  10  21  42  69  98 135 180 224 271 332 405
#     4  10  23  43  70 101 137 180 223 277 342 403
#     4  12  26  44  71  97 129 175 225 283 334 394
#     4  12  25  40  66  99 135 172 221 280 336 403
#     4  10  23  43  68 101 137 176 227 280 335 406
#
# _framework density 10.243449
#
# number of rings (size 3 to 8) (size 9 to 14) (size 15 to 20)
#    0.000    1.250    2.500    2.250    3.500    6.750 
#    0.000    5.000    0.000    0.000    0.000    0.000 
#    0.000    0.000    0.000    0.000    0.000    0.000 
#
# Total GULP energy -178352.839473 kJ/mol
# GULP energy per Si atom -5573.526234 kJ/mol
# Density = 1.022013 g / cm^3
# Si number density = 10.243449 Si / 1000 Ang^3
#
#
#
# Elastic Constant Matrix: (Units=GPa)
#
#
# Indices 1 2 3 4 5 6 
#
# 1 119.5032 16.1140 14.9483 0.0000 -7.5368 0.0000
# 2 16.1140 81.2853 18.8545 0.0000 -19.4704 0.0000
# 3 14.9483 18.8545 94.6644 0.0000 -16.6335 0.0000
# 4 0.0000 0.0000 0.0000 38.2808 0.0000 9.0406
# 5 -7.5368 -19.4704 -16.6335 0.0000 29.2467 0.0000
# 6 0.0000 0.0000 0.0000 9.0406 0.0000 35.2920
#
#
#
# Elastic Compliance Matrix: (Units=1/GPa)
#
#
# Indices 1 2 3 4 5 6 
#
# 1 0.008718 -0.001305 -0.000972 0.000000 0.000825 0.000000
# 2 -0.001305 0.014986 -0.001205 0.000000 0.008955 0.000000
# 3 -0.000972 -0.001205 0.011968 0.000000 0.005754 0.000000
# 4 0.000000 0.000000 0.000000 0.027805 0.000000 -0.007123
# 5 0.000825 0.008955 0.005754 0.000000 0.043638 0.000000
# 6 0.000000 0.000000 0.000000 -0.007123 0.000000 0.030160
#
#
# Mechanical properties :
#
#
# Convention : Reuss Voigt Hill
#
# Bulk Modulus (GPa) = 34.83449 43.92071 39.37760
# Shear Modulus (GPa) = 32.50823 36.93295 34.72059
#
# Velocity S-wave (km/s) = 3.98776 4.25050 4.12123
# Velocity P-wave (km/s) = 6.18411 6.75085 6.47368
#
# Compressibility (1/GPa) = 0.02870718
#
# Stress axis : x y z
#
# Youngs Moduli (GPa) = 114.71120 66.73098 83.55521
#
# Poissons Ratio (x) = 0.08710 0.08119
# Poissons Ratio (y) = 0.14972 0.10070
# Poissons Ratio (z) = 0.11146 0.08042
#
# Static dielectric constant tensor:
#      x y z
#    x 1.844770 0.000000 0.035440 
#    y 0.000000 1.718810 0.000000 
#    z 0.035440 0.000000 1.854510 
# 
# From -- ./inp_files/260294.got.cif
#   From: 2010.05.17/outbox.ucp.g08.bks.cvg/sg12_131_cif.got.tgz:260294.got - 2010.06.11 11:47:21.
