data_PCOD9225517
_publ_section_title
;
Structure prediction by ZEFSAII (Michael W. Deem and Ramdas Pophale) SiO2 
 PCOD9225517
Probable space group: C 2/M
;
_chemical_formula_sum "Si O2"
_cell_formula_units_Z 32
_cell_length_a 21.000000
_cell_length_b 15.000000
_cell_length_c 30.000000
_cell_angle_alpha 90.000000
_cell_angle_beta 20.000000
_cell_angle_gamma 90.000000
_cell_volume 3232.090354
_symmetry_space_group_name_H-M "C 2/M"
_symmetry_group_IT_number 12
_symmetry_cell_setting 'monoclinic'
loop_
_space_group_symop_operation_xyz
x,y,z
-x,y,-z
-x,-y,-z
x,-y,z
1/2+x,1/2+y,z
1/2-x,1/2+y,-z
1/2-x,1/2-y,-z
1/2+x,1/2-y,z
loop_
_atom_site_type_symbol
_atom_site_label
_atom_site_fract_x
_atom_site_fract_y
_atom_site_fract_z
Si Si1 0.872176 0.397781 0.775614
Si Si2 0.147062 0.896395 0.636169
Si Si3 0.689601 0.392106 0.503358
Si Si4 0.177793 0.155501 0.992897
Si Si5 0.438272 0.244631 0.486786
Si Si6 0.708389 0.705296 0.799533
Si Si7 0.774583 0.863398 0.935157
Si Si8 0.069166 0.596473 0.903072
O O1 0.863250 0.500000 0.765720
O O2 0.789267 0.391617 0.879828
O O3 0.758732 0.338737 0.814212
O O4 0.089105 0.372112 0.637306
O O5 0.121153 0.873008 0.599929
O O6 0.273483 0.825881 0.581439
O O7 0.950270 0.894067 0.790822
O O8 0.218378 0.000000 0.589961
O O9 0.667057 0.500000 0.510346
O O10 0.609657 0.332066 0.514180
O O11 0.257057 0.256149 0.943979
O O12 0.200249 0.115950 0.028314
O O13 0.969354 0.164891 0.109629
O O14 0.500000 0.259806 0.500000
O O15 0.616850 0.197925 0.347684
O O16 0.677549 0.811279 0.826337
O O17 0.593746 0.898929 0.027274
O O18 0.167262 0.500000 0.832687
O O19 0.000000 0.597601 0.000000
#
# Coordination Sequence:
#
# PCOD9225517 Si02
#       8
#     8   8   8   8   8   8   8   8
#     4  11  23  42  66  91 124 167 217 264 315 378
#     4  11  23  42  69  96 127 174 228 270 316 382
#     4  10  24  44  69  97 124 171 225 270 320 386
#     4  10  22  39  62  95 132 167 208 258 324 391
#     4  12  26  42  65  96 133 174 211 268 335 385
#     4  11  23  40  63  91 127 167 207 262 316 385
#     4  10  21  40  65  93 128 168 211 264 322 380
#     4  10  22  38  60  92 124 160 207 260 320 381
#
# _framework density 9.9007129999999997
#
# number of rings (size 3 to 8) (size 9 to 14) (size 15 to 20)
#    0.000    1.375    1.250    4.125    3.500    5.000 
#    0.000    2.500    0.000    0.000    0.000    0.000 
#    0.000    0.000    0.000    0.000    0.000    0.000 
#
# Total GULP energy -178470.764482 kJ/mol
# GULP energy per Si atom -5577.211390 kJ/mol
# Density = 0.987818 g / cm^3
# Si number density = 9.900713 Si / 1000 Ang^3
#
#
#
# Elastic Constant Matrix: (Units=GPa)
#
#
# Indices 1 2 3 4 5 6 
#
# 1 195.6960 47.8436 40.0576 0.0613 8.6157 0.0149
# 2 47.8436 93.7522 12.3634 0.0587 -5.9004 0.0130
# 3 40.0576 12.3634 86.0778 0.1259 7.6223 0.0389
# 4 0.0613 0.0587 0.1259 13.8053 -0.0638 -3.5278
# 5 8.6157 -5.9004 7.6223 -0.0638 31.9478 -0.0195
# 6 0.0149 0.0130 0.0389 -3.5278 -0.0195 10.8535
#
#
#
# Elastic Compliance Matrix: (Units=1/GPa)
#
#
# Indices 1 2 3 4 5 6 
#
# 1 0.006428 -0.003073 -0.002397 -0.000002 -0.001729 0.000000
# 2 -0.003073 0.012530 -0.000662 -0.000021 0.003301 -0.000009
# 3 -0.002397 -0.000662 0.013058 -0.000141 -0.002592 -0.000093
# 4 -0.000002 -0.000021 -0.000141 0.079001 0.000204 0.025679
# 5 -0.001729 0.003301 -0.002592 0.000204 0.032996 0.000133
# 6 0.000000 -0.000009 -0.000093 0.025679 0.000133 0.100483
#
#
# Mechanical properties :
#
#
# Convention : Reuss Voigt Hill
#
# Bulk Modulus (GPa) = 50.62817 64.00614 57.31715
# Shear Modulus (GPa) = 18.98669 29.67206 24.32937
#
# Velocity S-wave (km/s) = 3.09990 3.87522 3.50904
# Velocity P-wave (km/s) = 6.19967 7.23998 6.73993
#
# Compressibility (1/GPa) = 0.01975185
#
# Stress axis : x y z
#
# Youngs Moduli (GPa) = 155.56863 79.81033 76.58369
#
# Poissons Ratio (x) = 0.24527 0.18356
# Poissons Ratio (y) = 0.47808 0.05068
# Poissons Ratio (z) = 0.37288 0.05282
#
# Static dielectric constant tensor:
#      x y z
#    x 1.678790 0.000000 -0.010990 
#    y 0.000000 1.731330 0.000040 
#    z -0.010990 0.000040 1.732580 
# 
# From -- ./inp_files/381446.got.cif
#   From: 2010.05.17/outbox.ucp.g08.bks.cvg/sg12_191_cif.got.tgz:381446.got - 2010.06.11 11:47:21.
