data_PCOD9225891
_publ_section_title
;
Structure prediction by ZEFSAII (Michael W. Deem and Ramdas Pophale) SiO2 
 PCOD9225891
Probable space group: C 2/M
;
_chemical_formula_sum "Si O2"
_cell_formula_units_Z 32
_cell_length_a 24.000000
_cell_length_b 24.000000
_cell_length_c 12.000000
_cell_angle_alpha 90.000000
_cell_angle_beta 150.000000
_cell_angle_gamma 90.000000
_cell_volume 3456.000000
_symmetry_space_group_name_H-M "C 2/M"
_symmetry_group_IT_number 12
_symmetry_cell_setting 'monoclinic'
loop_
_space_group_symop_operation_xyz
x,y,z
-x,y,-z
-x,-y,-z
x,-y,z
1/2+x,1/2+y,z
1/2-x,1/2+y,-z
1/2-x,1/2-y,-z
1/2+x,1/2-y,z
loop_
_atom_site_type_symbol
_atom_site_label
_atom_site_fract_x
_atom_site_fract_y
_atom_site_fract_z
Si Si1 0.327579 0.379614 0.026942
Si Si2 0.978319 0.226692 0.332577
Si Si3 0.789448 0.216863 0.389988
Si Si4 0.438078 0.434291 0.634123
Si Si5 0.923853 0.338121 0.101894
Si Si6 0.689623 0.151059 0.577202
Si Si7 0.378473 0.355541 0.733963
Si Si8 0.255611 0.067007 0.886900
O O1 0.381340 0.318667 0.144241
O O2 0.437055 0.413465 0.176397
O O3 0.283558 0.409420 0.061717
O O4 0.228132 0.373549 0.763960
O O5 0.940679 0.285667 0.214828
O O6 0.000000 0.233686 0.500000
O O7 0.097151 0.205857 0.486691
O O8 0.779478 0.283276 0.365289
O O9 0.828378 0.196835 0.579302
O O10 0.672252 0.187213 0.150468
O O11 0.440885 0.500000 0.657933
O O12 0.398050 0.402075 0.674260
O O13 0.347669 0.424324 0.378593
O O14 0.057529 0.352814 0.312697
O O15 0.860838 0.394081 0.034388
O O16 0.781328 0.126572 0.650608
O O17 0.500000 0.343785 0.000000
O O18 0.278298 0.000000 0.929120
#
# Coordination Sequence:
#
# PCOD9225891 Si02
#       8
#     8   8   8   8   8   8   8   8
#     4  12  21  42  66 100 133 164 212 274 332 387
#     4  11  22  35  66  99 132 167 209 274 333 389
#     4  11  22  43  62  95 133 179 207 266 324 394
#     4  11  23  43  70  97 127 168 222 275 330 383
#     4  11  24  42  63  95 133 174 218 256 323 397
#     4  11  26  40  64  98 134 172 222 259 325 388
#     4  12  23  44  67  95 133 168 216 275 322 378
#     4  11  25  44  68  95 129 174 219 266 324 397
#
# _framework density 9.2592590000000001
#
# number of rings (size 3 to 8) (size 9 to 14) (size 15 to 20)
#    0.000    0.750    5.000    2.625    5.250    2.750 
#    0.000    2.500    0.000    1.500    0.000    0.000 
#    0.000    0.000    0.000    0.000    0.000    0.000 
#
# Total GULP energy -178512.803139 kJ/mol
# GULP energy per Si atom -5578.525098 kJ/mol
# Density = 0.923818 g / cm^3
# Si number density = 9.259259 Si / 1000 Ang^3
#
#
#
# Elastic Constant Matrix: (Units=GPa)
#
#
# Indices 1 2 3 4 5 6 
#
# 1 92.9162 38.6524 58.6615 0.0000 2.8431 0.0000
# 2 38.6524 110.5608 41.6279 0.0000 3.6848 0.0000
# 3 58.6615 41.6279 168.1844 0.0000 5.4164 0.0000
# 4 0.0000 0.0000 0.0000 36.2374 0.0000 -0.2943
# 5 2.8431 3.6848 5.4164 0.0000 40.1688 0.0000
# 6 0.0000 0.0000 0.0000 -0.2943 0.0000 22.6217
#
#
#
# Elastic Compliance Matrix: (Units=1/GPa)
#
#
# Indices 1 2 3 4 5 6 
#
# 1 0.015005 -0.003609 -0.004336 0.000000 -0.000146 0.000000
# 2 -0.003609 0.010856 -0.001411 0.000000 -0.000550 0.000000
# 3 -0.004336 -0.001411 0.007827 0.000000 -0.000619 0.000000
# 4 0.000000 0.000000 0.000000 0.027599 0.000000 0.000359
# 5 -0.000146 -0.000550 -0.000619 0.000000 0.025039 0.000000
# 6 0.000000 0.000000 0.000000 0.000359 0.000000 0.044210
#
#
# Mechanical properties :
#
#
# Convention : Reuss Voigt Hill
#
# Bulk Modulus (GPa) = 66.76280 72.17168 69.46724
# Shear Modulus (GPa) = 32.41715 35.32023 33.86869
#
# Velocity S-wave (km/s) = 4.18847 4.37199 4.28121
# Velocity P-wave (km/s) = 7.71500 8.03387 7.87605
#
# Compressibility (1/GPa) = 0.01497840
#
# Stress axis : x y z
#
# Youngs Moduli (GPa) = 66.64271 92.11660 127.75853
#
# Poissons Ratio (x) = 0.33241 0.55395
# Poissons Ratio (y) = 0.24048 0.18022
# Poissons Ratio (z) = 0.28896 0.12994
#
# Static dielectric constant tensor:
#      x y z
#    x 1.692770 0.000000 -0.007100 
#    y 0.000000 1.643780 0.000000 
#    z -0.007100 0.000000 1.630130 
# 
# From -- ./inp_files/178425.got.cif
#   From: 2010.05.17/outbox.ucp.g08.bks.cvg/sg12_90_cif.got.tgz:178425.got - 2010.06.11 11:47:21.
