data_PCOD9225296
_publ_section_title
;
Structure prediction by ZEFSAII (Michael W. Deem and Ramdas Pophale) SiO2 
 PCOD9225296
Probable space group: C 2/M
;
_chemical_formula_sum "Si O2"
_cell_formula_units_Z 28
_cell_length_a 30.000000
_cell_length_b 9.000000
_cell_length_c 21.000000
_cell_angle_alpha 90.000000
_cell_angle_beta 30.000000
_cell_angle_gamma 90.000000
_cell_volume 2835.000000
_symmetry_space_group_name_H-M "C 2/M"
_symmetry_group_IT_number 12
_symmetry_cell_setting 'monoclinic'
loop_
_space_group_symop_operation_xyz
x,y,z
-x,y,-z
-x,-y,-z
x,-y,z
1/2+x,1/2+y,z
1/2-x,1/2+y,-z
1/2-x,1/2-y,-z
1/2+x,1/2-y,z
loop_
_atom_site_type_symbol
_atom_site_label
_atom_site_fract_x
_atom_site_fract_y
_atom_site_fract_z
Si Si1 0.322076 0.825767 0.957323
Si Si2 0.595734 0.172120 0.896320
Si Si3 0.739257 0.825354 0.820857
Si Si4 0.868328 0.673376 0.419768
Si Si5 0.412101 0.831479 0.651232
Si Si6 0.817193 0.330450 0.349378
Si Si7 0.978487 0.176278 0.697901
O O1 0.413796 0.741781 0.831781
O O2 0.329813 0.000000 0.931883
O O3 0.250000 0.750000 0.000000
O O4 0.295187 0.814896 0.064108
O O5 0.665164 0.232517 0.862740
O O6 0.641032 0.169007 0.771568
O O7 0.578532 0.000000 0.938926
O O8 0.500000 0.244208 0.000000
O O9 0.832779 0.740314 0.708415
O O10 0.755297 0.000000 0.786065
O O11 0.884249 0.500000 0.412605
O O12 0.885275 0.703261 0.323207
O O13 0.764793 0.717726 0.551251
O O14 0.924640 0.766442 0.400788
O O15 0.500000 0.835287 0.500000
O O16 0.438423 0.740732 0.681842
O O17 0.387105 0.000000 0.700334
O O18 0.784506 0.500000 0.402871
O O19 0.976125 0.000000 0.698019
#
# Coordination Sequence:
#
# PCOD9225296 Si02
#       7
#     8   8   8   8   8   8   8
#     4  11  22  38  61  89 121 157 199 248 303 360
#     4   9  19  36  61  90 119 156 204 249 293 357
#     4  10  22  39  63  92 121 161 206 250 303 363
#     4  10  21  37  60  88 121 157 198 252 308 363
#     4  11  25  43  63  90 125 162 201 250 312 373
#     4   9  19  37  61  88 118 157 202 249 304 362
#     4  12  25  40  62  90 120 159 206 252 302 363
#
# _framework density 9.8765429999999999
#
# number of rings (size 3 to 8) (size 9 to 14) (size 15 to 20)
#    0.000    1.714    1.429    2.571    4.000    2.286 
#    0.000    0.000    0.000    0.857    0.000    0.000 
#    0.000    0.000    0.000    0.000    0.000    0.000 
#
# Total GULP energy -156214.578298 kJ/mol
# GULP energy per Si atom -5579.092082 kJ/mol
# Density = 0.985406 g / cm^3
# Si number density = 9.876543 Si / 1000 Ang^3
#
#
#
# Elastic Constant Matrix: (Units=GPa)
#
#
# Indices 1 2 3 4 5 6 
#
# 1 150.1056 53.5814 34.8146 -0.0006 -26.1778 0.0003
# 2 53.5814 102.9257 28.6174 0.0017 -10.1210 -0.0005
# 3 34.8146 28.6174 50.7262 0.0014 -10.4838 -0.0008
# 4 -0.0006 0.0017 0.0014 20.4261 -0.0006 -6.0435
# 5 -26.1778 -10.1210 -10.4838 -0.0006 28.8461 0.0002
# 6 0.0003 -0.0005 -0.0008 -6.0435 0.0002 24.1431
#
#
#
# Elastic Compliance Matrix: (Units=1/GPa)
#
#
# Indices 1 2 3 4 5 6 
#
# 1 0.009844 -0.003538 -0.003428 0.000001 0.006446 0.000000
# 2 -0.003538 0.012883 -0.004941 -0.000001 -0.000486 0.000000
# 3 -0.003428 -0.004941 0.025790 -0.000001 0.004528 0.000000
# 4 0.000001 -0.000001 -0.000001 0.052873 0.000001 0.013235
# 5 0.006446 -0.000486 0.004528 0.000001 0.041992 0.000000
# 6 0.000000 0.000000 0.000000 0.013235 0.000000 0.044733
#
#
# Mechanical properties :
#
#
# Convention : Reuss Voigt Hill
#
# Bulk Modulus (GPa) = 40.47879 59.75380 50.11630
# Shear Modulus (GPa) = 22.71051 27.13266 24.92159
#
# Velocity S-wave (km/s) = 3.39443 3.71022 3.55583
# Velocity P-wave (km/s) = 5.99164 6.97641 6.50270
#
# Compressibility (1/GPa) = 0.02470430
#
# Stress axis : x y z
#
# Youngs Moduli (GPa) = 101.58379 77.62003 38.77517
#
# Poissons Ratio (x) = 0.27459 0.13293
# Poissons Ratio (y) = 0.35936 0.19157
# Poissons Ratio (z) = 0.34825 0.38349
#
# Static dielectric constant tensor:
#      x y z
#    x 1.769780 0.000000 -0.093440 
#    y 0.000000 1.692360 0.000000 
#    z -0.093440 0.000000 1.864390 
# 
# From -- ./inp_files/329565.got.cif
#   From: 2010.05.17/outbox.ucp.g08.bks.cvg/sg12_165_cif.got.tgz:329565.got - 2010.06.11 11:47:21.
