data_PCOD9225772
_publ_section_title
;
Structure prediction by ZEFSAII (Michael W. Deem and Ramdas Pophale) SiO2 
 PCOD9225772
Probable space group: C 2/M
;
_chemical_formula_sum "Si O2"
_cell_formula_units_Z 24
_cell_length_a 27.000000
_cell_length_b 9.000000
_cell_length_c 15.000000
_cell_angle_alpha 90.000000
_cell_angle_beta 140.000000
_cell_angle_gamma 90.000000
_cell_volume 2342.960837
_symmetry_space_group_name_H-M "C 2/M"
_symmetry_group_IT_number 12
_symmetry_cell_setting 'monoclinic'
loop_
_space_group_symop_operation_xyz
x,y,z
-x,y,-z
-x,-y,-z
x,-y,z
1/2+x,1/2+y,z
1/2-x,1/2+y,-z
1/2-x,1/2-y,-z
1/2+x,1/2-y,z
loop_
_atom_site_type_symbol
_atom_site_label
_atom_site_fract_x
_atom_site_fract_y
_atom_site_fract_z
Si Si1 0.016586 0.335465 0.125791
Si Si2 0.689492 0.824663 0.740101
Si Si3 0.391085 0.323125 0.201648
Si Si4 0.649675 0.178107 0.034798
Si Si5 0.666060 0.671011 0.391578
Si Si6 0.077275 0.169772 0.459260
O O1 0.026186 0.500000 0.181576
O O2 0.097431 0.250578 0.243160
O O3 0.000000 0.352431 0.000000
O O4 0.935651 0.269408 0.050310
O O5 0.654412 0.732118 0.774336
O O6 0.772057 0.756479 0.822707
O O7 0.622820 0.793509 0.576469
O O8 0.698186 0.000000 0.770823
O O9 0.379282 0.500000 0.171643
O O10 0.484863 0.300869 0.330444
O O11 0.354155 0.224965 0.073061
O O12 0.654377 0.000000 0.056048
O O13 0.676767 0.500000 0.378598
O O14 0.750000 0.750000 0.500000
O O15 0.623563 0.669079 0.429659
O O16 0.085336 0.000000 0.507626
#
# Coordination Sequence:
#
# PCOD9225772 Si02
#       6
#     8   8   8   8   8   8
#     4  10  23  43  67  95 126 164 207 257 314 371
#     4  12  26  40  61  94 129 165 211 259 309 370
#     4  11  22  42  67  91 124 165 212 259 315 372
#     4  11  23  41  65  92 128 167 209 258 313 371
#     4  11  24  43  67  96 128 165 208 256 311 370
#     4  10  23  43  65  90 126 167 207 256 314 371
#
# _framework density 10.243449
#
# number of rings (size 3 to 8) (size 9 to 14) (size 15 to 20)
#    0.000    1.167    1.667    4.000    2.333    5.667 
#    0.000    0.000    0.000    0.000    0.000    0.000 
#    0.000    0.000    0.000    0.000    0.000    0.000 
#
# Total GULP energy -133831.873473 kJ/mol
# GULP energy per Si atom -5576.328061 kJ/mol
# Density = 1.022013 g / cm^3
# Si number density = 10.243449 Si / 1000 Ang^3
#
#
#
# Elastic Constant Matrix: (Units=GPa)
#
#
# Indices 1 2 3 4 5 6 
#
# 1 66.0502 22.5606 17.3126 0.0000 31.2587 0.0000
# 2 22.5606 79.7265 30.5295 0.0000 29.2674 0.0000
# 3 17.3126 30.5295 65.6695 0.0000 29.6698 0.0000
# 4 0.0000 0.0000 0.0000 16.8825 0.0000 0.7467
# 5 31.2587 29.2674 29.6698 0.0000 46.8041 0.0000
# 6 0.0000 0.0000 0.0000 0.7467 0.0000 27.0809
#
#
#
# Elastic Compliance Matrix: (Units=1/GPa)
#
#
# Indices 1 2 3 4 5 6 
#
# 1 0.022316 -0.001397 0.001549 0.000000 -0.015012 0.000000
# 2 -0.001397 0.017221 -0.004476 0.000000 -0.006998 0.000000
# 3 0.001549 -0.004476 0.022566 0.000000 -0.012541 0.000000
# 4 0.000000 0.000000 0.000000 0.059305 0.000000 -0.001635
# 5 -0.015012 -0.006998 -0.012541 0.000000 0.043718 0.000000
# 6 0.000000 0.000000 0.000000 -0.001635 0.000000 0.036971
#
#
# Mechanical properties :
#
#
# Convention : Reuss Voigt Hill
#
# Bulk Modulus (GPa) = 18.70723 39.13906 28.92315
# Shear Modulus (GPa) = 21.87571 27.55639 24.71605
#
# Velocity S-wave (km/s) = 3.27125 3.67150 3.47714
# Velocity P-wave (km/s) = 4.83934 6.09255 5.50175
#
# Compressibility (1/GPa) = 0.05345525
#
# Stress axis : x y z
#
# Youngs Moduli (GPa) = 44.81121 58.06785 44.31413
#
# Poissons Ratio (x) = 0.08112 -0.06864
# Poissons Ratio (y) = 0.06260 0.19835
# Poissons Ratio (z) = -0.06941 0.25991
#
# Static dielectric constant tensor:
#      x y z
#    x 1.757990 0.000000 -0.053280 
#    y 0.000000 1.745950 0.000000 
#    z -0.053280 0.000000 1.762250 
# 
# From -- ./inp_files/244662.got.cif
#   From: 2010.05.17/outbox.ucp.g08.bks.cvg/sg12_123_cif.got.tgz:244662.got - 2010.06.11 11:47:21.
