data_PCOD9225525
_publ_section_title
;
Structure prediction by ZEFSAII (Michael W. Deem and Ramdas Pophale) SiO2 
 PCOD9225525
Probable space group: C 2/M
;
_chemical_formula_sum "Si O2"
_cell_formula_units_Z 28
_cell_length_a 27.000000
_cell_length_b 9.000000
_cell_length_c 12.000000
_cell_angle_alpha 90.000000
_cell_angle_beta 110.000000
_cell_angle_gamma 90.000000
_cell_volume 2740.143682
_symmetry_space_group_name_H-M "C 2/M"
_symmetry_group_IT_number 12
_symmetry_cell_setting 'monoclinic'
loop_
_space_group_symop_operation_xyz
x,y,z
-x,y,-z
-x,-y,-z
x,-y,z
1/2+x,1/2+y,z
1/2-x,1/2+y,-z
1/2-x,1/2-y,-z
1/2+x,1/2-y,z
loop_
_atom_site_type_symbol
_atom_site_label
_atom_site_fract_x
_atom_site_fract_y
_atom_site_fract_z
Si Si1 0.405059 0.681123 0.489674
Si Si2 0.605701 0.180093 0.759594
Si Si3 0.824116 0.182524 0.809107
Si Si4 0.943608 0.826495 0.919442
Si Si5 0.725151 0.682481 0.869370
Si Si6 0.309005 0.818463 0.557557
Si Si7 0.497839 0.673031 0.727948
O O1 0.399961 0.500000 0.479600
O O2 0.408487 0.759274 0.373498
O O3 0.352301 0.750260 0.505895
O O4 0.459817 0.715097 0.596062
O O5 0.664496 0.254236 0.821880
O O6 0.552907 0.236679 0.786348
O O7 0.610108 0.000000 0.770696
O O8 0.883381 0.221193 0.903860
O O9 0.769495 0.252174 0.816831
O O10 0.827264 0.255634 0.690412
O O11 0.820344 0.000000 0.805133
O O12 0.955304 0.821428 0.796397
O O13 0.944930 0.000000 0.957639
O O14 0.000000 0.755824 0.000000
O O15 0.724074 0.500000 0.864117
O O16 0.750000 0.750000 0.000000
O O17 0.250000 0.750000 0.500000
O O18 0.307690 0.000000 0.550378
O O19 0.513771 0.500000 0.727679
#
# Coordination Sequence:
#
# PCOD9225525 Si02
#       7
#     8   8   8   8   8   8   8
#     4  11  22  41  65  94 130 171 219 269 327 395
#     4  12  26  43  64  96 133 173 219 271 327 389
#     4  11  22  42  68  98 132 170 215 267 319 386
#     4   9  19  37  65  99 130 168 213 257 316 385
#     4  12  27  48  70  96 129 172 219 271 327 387
#     4  12  24  39  62  92 129 171 214 268 326 387
#     4  10  21  40  66  97 132 174 218 264 324 393
#
# _framework density 10.218442
#
# number of rings (size 3 to 8) (size 9 to 14) (size 15 to 20)
#    0.000    1.000    1.429    6.000    2.000    2.857 
#    0.000    0.000    0.000    2.143    0.000    0.000 
#    0.000    0.000    0.000    0.000    0.000    0.000 
#
# Total GULP energy -156052.764023 kJ/mol
# GULP energy per Si atom -5573.313001 kJ/mol
# Density = 1.019518 g / cm^3
# Si number density = 10.218442 Si / 1000 Ang^3
#
#
#
# Elastic Constant Matrix: (Units=GPa)
#
#
# Indices 1 2 3 4 5 6 
#
# 1 160.4068 48.2981 -0.6986 0.0000 30.7226 0.0000
# 2 48.2981 149.9333 3.7876 0.0000 17.8442 0.0000
# 3 -0.6986 3.7876 47.5476 0.0000 28.6900 0.0000
# 4 0.0000 0.0000 0.0000 25.5346 0.0000 1.3057
# 5 30.7226 17.8442 28.6900 0.0000 52.8882 0.0000
# 6 0.0000 0.0000 0.0000 1.3057 0.0000 46.2330
#
#
#
# Elastic Compliance Matrix: (Units=1/GPa)
#
#
# Indices 1 2 3 4 5 6 
#
# 1 0.008020 -0.001950 0.003995 0.000000 -0.006168 0.000000
# 2 -0.001950 0.007476 0.000318 0.000000 -0.001562 0.000000
# 3 0.003995 0.000318 0.033493 0.000000 -0.020597 0.000000
# 4 0.000000 0.000000 0.000000 0.039219 0.000000 -0.001108
# 5 -0.006168 -0.001562 -0.020597 0.000000 0.034191 0.000000
# 6 0.000000 0.000000 0.000000 -0.001108 0.000000 0.021661
#
#
# Mechanical properties :
#
#
# Convention : Reuss Voigt Hill
#
# Bulk Modulus (GPa) = 18.61695 51.18467 34.90081
# Shear Modulus (GPa) = 31.79878 45.36454 38.58166
#
# Velocity S-wave (km/s) = 3.94883 4.71652 4.34965
# Velocity P-wave (km/s) = 5.46995 7.40003 6.50695
#
# Compressibility (1/GPa) = 0.05371450
#
# Stress axis : x y z
#
# Youngs Moduli (GPa) = 124.68604 133.76555 29.85710
#
# Poissons Ratio (x) = 0.26089 -0.11928
# Poissons Ratio (y) = 0.24319 -0.00950
# Poissons Ratio (z) = -0.49811 -0.04258
#
# Static dielectric constant tensor:
#      x y z
#    x 1.812310 0.000000 -0.038310 
#    y 0.000000 1.702100 0.000000 
#    z -0.038310 0.000000 1.878270 
# 
# From -- ./inp_files/181015.got.cif
#   From: 2010.05.17/outbox.ucp.g08.bks.cvg/sg12_91_cif.got.tgz:181015.got - 2010.06.11 11:47:21.
