data_PCOD9225025
_publ_section_title
;
Structure prediction by ZEFSAII (Michael W. Deem and Ramdas Pophale) SiO2 
 PCOD9225025
Probable space group: C 2/M
;
_chemical_formula_sum "Si O2"
_cell_formula_units_Z 32
_cell_length_a 30.000000
_cell_length_b 9.000000
_cell_length_c 24.000000
_cell_angle_alpha 90.000000
_cell_angle_beta 30.000000
_cell_angle_gamma 90.000000
_cell_volume 3240.000000
_symmetry_space_group_name_H-M "C 2/M"
_symmetry_group_IT_number 12
_symmetry_cell_setting 'monoclinic'
loop_
_space_group_symop_operation_xyz
x,y,z
-x,y,-z
-x,-y,-z
x,-y,z
1/2+x,1/2+y,z
1/2-x,1/2+y,-z
1/2-x,1/2-y,-z
1/2+x,1/2-y,z
loop_
_atom_site_type_symbol
_atom_site_label
_atom_site_fract_x
_atom_site_fract_y
_atom_site_fract_z
Si Si1 0.895196 0.820828 0.111804
Si Si2 0.819940 0.819928 0.313240
Si Si3 0.112017 0.678838 0.545320
Si Si4 0.419299 0.178908 0.545349
Si Si5 0.739592 0.321250 0.215823
Si Si6 0.383211 0.169696 0.880056
Si Si7 0.551535 0.322445 0.725883
Si Si8 0.811846 0.828605 0.852801
O O1 0.856817 0.772995 0.213410
O O2 0.835714 0.744905 0.128408
O O3 0.885816 0.000000 0.116472
O O4 0.000000 0.786235 0.000000
O O5 0.716618 0.779432 0.429493
O O6 0.880691 0.769101 0.299331
O O7 0.823872 0.000000 0.309492
O O8 0.105797 0.500000 0.558039
O O9 0.067332 0.718415 0.534206
O O10 0.075306 0.756775 0.639846
O O11 0.500000 0.216091 0.500000
O O12 0.330987 0.258679 0.663318
O O13 0.405880 0.000000 0.561955
O O14 0.743586 0.500000 0.212204
O O15 0.702535 0.275823 0.194866
O O16 0.450975 0.266403 0.843045
O O17 0.371949 0.232981 0.829621
O O18 0.414555 0.000000 0.843921
O O19 0.286328 0.172211 0.013209
O O20 0.554536 0.500000 0.721220
O O21 0.843700 0.000000 0.817715
#
# Coordination Sequence:
#
# PCOD9225025 Si02
#       8
#     8   8   8   8   8   8   8   8
#     4  10  21  39  64  90 118 157 203 245 289 349
#     4   9  19  38  59  83 115 151 192 241 288 341
#     4  10  20  39  61  82 115 151 195 246 288 343
#     4  10  22  40  63  89 118 156 201 246 292 353
#     4  11  23  39  61  91 125 157 191 242 305 357
#     4  10  21  39  60  84 114 153 196 236 284 343
#     4  11  23  36  57  87 118 148 190 242 297 349
#     4   9  21  40  59  83 119 154 189 237 290 344
#
# _framework density 9.8765429999999999
#
# number of rings (size 3 to 8) (size 9 to 14) (size 15 to 20)
#    0.000    2.000    1.250    1.500    3.500    2.500 
#    0.000    1.875    0.000    0.000    0.000    0.000 
#    0.000    0.000    0.000    0.000    0.000    0.000 
#
# Total GULP energy -178700.389363 kJ/mol
# GULP energy per Si atom -5584.387168 kJ/mol
# Density = 0.985406 g / cm^3
# Si number density = 9.876543 Si / 1000 Ang^3
#
#
#
# Elastic Constant Matrix: (Units=GPa)
#
#
# Indices 1 2 3 4 5 6 
#
# 1 119.1013 19.5786 -3.2901 0.0005 -4.5325 -0.0004
# 2 19.5786 29.9047 3.2475 -0.0004 -3.1305 0.0038
# 3 -3.2901 3.2475 34.7459 0.0025 -5.9106 0.0024
# 4 0.0005 -0.0004 0.0025 23.6456 0.0012 -4.3099
# 5 -4.5325 -3.1305 -5.9106 0.0012 34.7740 -0.0007
# 6 -0.0004 0.0038 0.0024 -4.3099 -0.0007 28.7702
#
#
#
# Elastic Compliance Matrix: (Units=1/GPa)
#
#
# Indices 1 2 3 4 5 6 
#
# 1 0.009515 -0.006309 0.001653 0.000000 0.000953 0.000001
# 2 -0.006309 0.038192 -0.003833 0.000000 0.001964 -0.000005
# 3 0.001653 -0.003833 0.030145 -0.000004 0.004994 -0.000002
# 4 0.000000 0.000000 -0.000004 0.043478 -0.000002 0.006513
# 5 0.000953 0.001964 0.004994 -0.000002 0.029907 0.000000
# 6 0.000001 -0.000005 -0.000002 0.006513 0.000000 0.035734
#
#
# Mechanical properties :
#
#
# Convention : Reuss Voigt Hill
#
# Bulk Modulus (GPa) = 16.42756 24.75822 20.59289
# Shear Modulus (GPa) = 22.29740 28.38569 25.34155
#
# Velocity S-wave (km/s) = 3.36342 3.79492 3.58567
# Velocity P-wave (km/s) = 4.83921 5.63587 5.25266
#
# Compressibility (1/GPa) = 0.06087333
#
# Stress axis : x y z
#
# Youngs Moduli (GPa) = 105.09358 26.18338 33.17332
#
# Poissons Ratio (x) = 0.16520 -0.05483
# Poissons Ratio (y) = 0.66308 0.12715
# Poissons Ratio (z) = -0.17370 0.10036
#
# Static dielectric constant tensor:
#      x y z
#    x 1.682540 0.000000 -0.009170 
#    y 0.000000 1.668770 0.000000 
#    z -0.009170 0.000000 1.729140 
# 
# From -- ./inp_files/353348.got.cif
#   From: 2010.05.17/outbox.ucp.g08.bks.cvg/sg12_177_cif.got.tgz:353348.got - 2010.06.11 11:47:21.
