data_PCOD9225248
_publ_section_title
;
Structure prediction by ZEFSAII (Michael W. Deem and Ramdas Pophale) SiO2 
 PCOD9225248
Probable space group: C 2/M
;
_chemical_formula_sum "Si O2"
_cell_formula_units_Z 29
_cell_length_a 24.000000
_cell_length_b 15.000000
_cell_length_c 9.000000
_cell_angle_alpha 90.000000
_cell_angle_beta 90.000000
_cell_angle_gamma 90.000000
_cell_volume 3240.000000
_symmetry_space_group_name_H-M "C 2/M"
_symmetry_group_IT_number 12
_symmetry_cell_setting 'monoclinic'
loop_
_space_group_symop_operation_xyz
x,y,z
-x,y,-z
-x,-y,-z
x,-y,z
1/2+x,1/2+y,z
1/2-x,1/2+y,-z
1/2-x,1/2-y,-z
1/2+x,1/2-y,z
loop_
_atom_site_type_symbol
_atom_site_label
_atom_site_fract_x
_atom_site_fract_y
_atom_site_fract_z
Si Si1 0.196855 0.604149 0.792452
Si Si2 0.500000 0.000000 0.500000
Si Si3 0.401902 0.240397 0.167333
Si Si4 0.623447 0.242872 0.182216
Si Si5 0.279545 0.895595 0.861247
Si Si6 0.164369 0.105313 0.696489
Si Si7 0.312101 0.394353 0.650384
Si Si8 0.010815 0.684983 0.337989
O O1 0.181458 0.500000 0.772035
O O2 0.143563 0.667040 0.778758
O O3 0.247246 0.626902 0.682486
O O4 0.221079 0.613900 0.959936
O O5 0.491260 0.920180 0.625095
O O6 0.384246 0.333291 0.241276
O O7 0.462244 0.210951 0.223668
O O8 0.394708 0.247866 0.990075
O O9 0.671548 0.167975 0.194864
O O10 0.649816 0.333934 0.244347
O O11 0.570239 0.214154 0.276845
O O12 0.220683 0.871658 0.787719
O O13 0.290588 0.000000 0.827580
O O14 0.174122 0.121528 0.521912
O O15 0.154160 0.000000 0.717492
O O16 0.318963 0.500000 0.682044
O O17 0.000000 0.728872 0.500000
#
# Coordination Sequence:
#
# PCOD9225248 Si02
#       8
#     8   2   8   8   8   8   8   8
#     4   9  19  34  54  82 116 151 188 231 285 344
#     4   8  24  44  62  84 114 160 186 232 276 330
#     4  11  22  37  59  85 115 151 193 239 285 337
#     4  11  22  37  59  85 115 151 193 239 285 337
#     4   9  19  34  54  82 116 151 188 231 285 344
#     4  10  21  37  56  83 115 152 192 237 288 341
#     4  10  21  37  56  83 115 152 192 237 288 341
#     4  10  23  41  60  84 114 148 191 227 278 332
#
# _framework density 8.9506169999999994
#
# number of rings (size 3 to 8) (size 9 to 14) (size 15 to 20)
#    0.414    1.655    0.000    2.897    1.931    7.172 
#    0.000    1.379    0.000    4.138    0.000    0.000 
#    0.000    0.000    0.000    0.000    0.000    0.000 
#
# Total GULP energy -161625.572953 kJ/mol
# GULP energy per Si atom -5573.295619 kJ/mol
# Density = 0.893025 g / cm^3
# Si number density = 8.950617 Si / 1000 Ang^3
#
#
#
# Elastic Constant Matrix: (Units=GPa)
#
#
# Indices 1 2 3 4 5 6 
#
# 1 34.6163 13.2676 -12.3623 0.0000 -15.1675 0.0000
# 2 13.2676 37.8946 4.1173 0.0000 -13.1466 0.0000
# 3 -12.3623 4.1173 10.4917 0.0000 -17.8635 0.0000
# 4 0.0000 0.0000 0.0000 24.1686 0.0000 -4.9130
# 5 -15.1675 -13.1466 -17.8635 0.0000 31.1082 0.0000
# 6 0.0000 0.0000 0.0000 -4.9130 0.0000 6.4423
#
#
#
# Elastic Compliance Matrix: (Units=1/GPa)
#
#
# Indices 1 2 3 4 5 6 
#
# 1 0.000313 -0.005241 -0.048758 0.000000 -0.030061 0.000000
# 2 -0.005241 0.032436 0.003786 0.000000 0.013326 0.000000
# 3 -0.048758 0.003786 -0.061754 0.000000 -0.057635 0.000000
# 4 0.000000 0.000000 0.000000 0.048967 0.000000 0.037343
# 5 -0.030061 0.013326 -0.057635 0.000000 -0.009975 0.000000
# 6 0.000000 0.000000 0.000000 0.037343 0.000000 0.183703
#
#
# Mechanical properties :
#
#
# Convention : Reuss Voigt Hill
#
# Bulk Modulus (GPa) = -7.72604 10.33865 1.30631
# Shear Modulus (GPa) = 19.92261 17.54247 18.73254
#
# Velocity S-wave (km/s) = 3.33966 3.13382 3.23838
# Velocity P-wave (km/s) = 3.24743 4.34539 3.83590
#
# Compressibility (1/GPa) = -0.12943239
#
# Stress axis : x y z
#
# Youngs Moduli (GPa) = 3199.39335 30.83013 -16.19321
#
# Poissons Ratio (x) = 0.16158 -0.78955
# Poissons Ratio (y) = 16.76743 0.06130
# Poissons Ratio (z) = 155.99643 -0.11671
#
# Static dielectric constant tensor:
#      x y z
#    x 1.580200 0.000000 -0.009030 
#    y 0.000000 1.606230 0.000000 
#    z -0.009030 0.000000 1.611280 
# 
# From -- ./inp_files/96378.got.cif
#   From: 2010.05.17/outbox.ucp.g08.bks.cvg/sg12_49_cif.got.tgz:96378.got - 2010.06.11 11:47:21.
