data_PCOD9225104
_publ_section_title
;
Structure prediction by ZEFSAII (Michael W. Deem and Ramdas Pophale) SiO2 
 PCOD9225104
Probable space group: C 2/M
;
_chemical_formula_sum "Si O2"
_cell_formula_units_Z 32
_cell_length_a 24.000000
_cell_length_b 18.000000
_cell_length_c 21.000000
_cell_angle_alpha 90.000000
_cell_angle_beta 160.000000
_cell_angle_gamma 90.000000
_cell_volume 3102.806740
_symmetry_space_group_name_H-M "C 2/M"
_symmetry_group_IT_number 12
_symmetry_cell_setting 'monoclinic'
loop_
_space_group_symop_operation_xyz
x,y,z
-x,y,-z
-x,-y,-z
x,-y,z
1/2+x,1/2+y,z
1/2-x,1/2+y,-z
1/2-x,1/2-y,-z
1/2+x,1/2-y,z
loop_
_atom_site_type_symbol
_atom_site_label
_atom_site_fract_x
_atom_site_fract_y
_atom_site_fract_z
Si Si1 0.541884 0.589070 0.184899
Si Si2 0.652023 0.857241 0.082676
Si Si3 0.431061 0.644357 0.646987
Si Si4 0.238051 0.809392 0.153495
Si Si5 0.741962 0.827290 0.677498
Si Si6 0.283515 0.913221 0.989554
Si Si7 0.781946 0.648674 0.706872
Si Si8 0.524654 0.807913 0.707146
O O1 0.547233 0.500000 0.192038
O O2 0.619112 0.621365 0.334464
O O3 0.613796 0.622655 0.195878
O O4 0.361699 0.624187 0.986281
O O5 0.645163 0.767452 0.068386
O O6 0.710266 0.891348 0.078633
O O7 0.753872 0.873645 0.257308
O O8 0.464896 0.879178 0.892028
O O9 0.601620 0.603053 0.818599
O O10 0.320620 0.625935 0.466015
O O11 0.460524 0.733436 0.673196
O O12 0.295026 0.834616 0.286338
O O13 0.355182 0.783504 0.221485
O O14 0.772626 0.739085 0.699437
O O15 0.605828 0.847764 0.478713
O O16 0.324596 0.000000 0.041107
O O17 0.398194 0.860896 0.156545
#
# Coordination Sequence:
#
# PCOD9225104 Si02
#       8
#     8   8   8   8   8   8   8   8
#     4  12  25  40  59  91 132 172 209 252 310 373
#     4  10  20  41  66  94 123 155 202 258 314 372
#     4  11  23  41  64  94 123 165 211 259 302 371
#     4  11  20  41  66  92 124 161 206 259 311 365
#     4  10  23  38  63  95 124 158 209 262 308 361
#     4  12  25  41  60  89 127 168 204 255 317 375
#     4   9  21  39  67  95 118 155 208 261 307 366
#     4  11  23  40  66  94 123 160 213 260 308 366
#
# _framework density 10.313243
#
# number of rings (size 3 to 8) (size 9 to 14) (size 15 to 20)
#    0.000    1.250    3.750    2.250    1.750    3.000 
#    0.000    3.750    0.000    2.250    0.000    0.000 
#    0.000    0.000    0.000    0.000    0.000    0.000 
#
# Total GULP energy -178357.536258 kJ/mol
# GULP energy per Si atom -5573.673008 kJ/mol
# Density = 1.028977 g / cm^3
# Si number density = 10.313243 Si / 1000 Ang^3
#
#
#
# Elastic Constant Matrix: (Units=GPa)
#
#
# Indices 1 2 3 4 5 6 
#
# 1 120.8617 22.0426 13.0375 -0.0095 -39.3763 -0.0042
# 2 22.0426 61.7092 9.0566 -0.0094 -17.0893 -0.0013
# 3 13.0375 9.0566 59.3898 -0.0122 -28.1842 -0.0045
# 4 -0.0095 -0.0094 -0.0122 6.1935 0.0015 -5.6987
# 5 -39.3763 -17.0893 -28.1842 0.0015 37.6319 0.0015
# 6 -0.0042 -0.0013 -0.0045 -5.6987 0.0015 20.6856
#
#
#
# Elastic Compliance Matrix: (Units=1/GPa)
#
#
# Indices 1 2 3 4 5 6 
#
# 1 0.013799 -0.000657 0.005867 0.000040 0.018534 0.000014
# 2 -0.000657 0.018694 0.001545 0.000039 0.008959 0.000011
# 3 0.005867 0.001545 0.028795 0.000089 0.028406 0.000030
# 4 0.000040 0.000039 0.000089 0.216283 0.000114 0.059584
# 5 0.018534 0.008959 0.028406 0.000114 0.071309 0.000037
# 6 0.000014 0.000011 0.000030 0.059584 0.000037 0.064758
#
#
# Mechanical properties :
#
#
# Convention : Reuss Voigt Hill
#
# Bulk Modulus (GPa) = 13.36955 36.69268 25.03111
# Shear Modulus (GPa) = 11.76299 26.09046 18.92673
#
# Velocity S-wave (km/s) = 2.39066 3.56040 3.03247
# Velocity P-wave (km/s) = 3.75714 5.89319 4.94195
#
# Compressibility (1/GPa) = 0.07479686
#
# Stress axis : x y z
#
# Youngs Moduli (GPa) = 72.46688 53.49297 34.72838
#
# Poissons Ratio (x) = 0.03517 -0.20374
# Poissons Ratio (y) = 0.04764 -0.05365
# Poissons Ratio (z) = -0.42514 -0.08264
#
# Static dielectric constant tensor:
#      x y z
#    x 1.796310 0.000000 0.091390 
#    y 0.000000 1.702450 0.000000 
#    z 0.091390 0.000000 1.879330 
# 
# From -- ./inp_files/326149.got.cif
#   From: 2010.05.17/outbox.ucp.g08.bks.cvg/sg12_164_cif.got.tgz:326149.got - 2010.06.11 11:47:21.
