data_PCOD9225496
_publ_section_title
;
Structure prediction by ZEFSAII (Michael W. Deem and Ramdas Pophale) SiO2 
 PCOD9225496
Probable space group: C 2/M
;
_chemical_formula_sum "Si O2"
_cell_formula_units_Z 32
_cell_length_a 18.000000
_cell_length_b 9.000000
_cell_length_c 30.000000
_cell_angle_alpha 90.000000
_cell_angle_beta 40.000000
_cell_angle_gamma 90.000000
_cell_volume 3123.947783
_symmetry_space_group_name_H-M "C 2/M"
_symmetry_group_IT_number 12
_symmetry_cell_setting 'monoclinic'
loop_
_space_group_symop_operation_xyz
x,y,z
-x,y,-z
-x,-y,-z
x,-y,z
1/2+x,1/2+y,z
1/2-x,1/2+y,-z
1/2-x,1/2-y,-z
1/2+x,1/2-y,z
loop_
_atom_site_type_symbol
_atom_site_label
_atom_site_fract_x
_atom_site_fract_y
_atom_site_fract_z
Si Si1 0.608774 0.662142 0.482025
Si Si2 0.684380 0.332551 0.213964
Si Si3 0.230257 0.671011 0.671974
Si Si4 0.484894 0.675987 0.790508
Si Si5 0.634382 0.166672 0.943830
Si Si6 0.705153 0.826818 0.064719
Si Si7 0.870520 0.667943 0.446259
Si Si8 0.884473 0.675142 0.673437
O O1 0.500000 0.656214 0.500000
O O2 0.609103 0.500000 0.506061
O O3 0.723099 0.672418 0.399894
O O4 0.596982 0.806699 0.517257
O O5 0.663163 0.500000 0.241414
O O6 0.585044 0.296872 0.223388
O O7 0.802438 0.334521 0.132414
O O8 0.692076 0.214113 0.249158
O O9 0.212625 0.500000 0.693116
O O10 0.329681 0.741007 0.657037
O O11 0.112830 0.760608 0.729908
O O12 0.485983 0.500000 0.796868
O O13 0.411053 0.753045 0.863047
O O14 0.696710 0.289996 0.944146
O O15 0.655710 0.000000 0.953661
O O16 0.500000 0.188632 0.000000
O O17 0.688029 0.000000 0.066479
O O18 0.750000 0.750000 0.000000
O O19 0.855457 0.500000 0.439266
O O20 0.750000 0.750000 0.500000
O O21 0.987122 0.729875 0.370928
O O22 0.891753 0.500000 0.661352
#
# Coordination Sequence:
#
# PCOD9225496 Si02
#       8
#     8   8   8   8   8   8   8   8
#     4  10  21  40  63  87 116 152 193 244 297 353
#     4   9  20  38  60  85 116 155 194 239 295 347
#     4  11  23  39  62  88 118 155 195 240 298 357
#     4  10  22  41  62  88 120 154 198 244 293 351
#     4   9  19  38  62  88 119 155 197 244 293 349
#     4  11  22  38  61  89 123 160 199 244 293 345
#     4  11  25  41  60  86 116 153 197 246 296 350
#     4  11  24  40  58  84 118 154 196 245 292 346
#
# _framework density 10.243449
#
# number of rings (size 3 to 8) (size 9 to 14) (size 15 to 20)
#    0.000    1.750    1.250    3.375    1.750    6.500 
#    0.000    3.750    0.000    0.000    0.000    0.000 
#    0.000    0.000    0.000    0.000    0.000    0.000 
#
# Total GULP energy -178415.405716 kJ/mol
# GULP energy per Si atom -5575.481429 kJ/mol
# Density = 1.022013 g / cm^3
# Si number density = 10.243449 Si / 1000 Ang^3
#
#
#
# Elastic Constant Matrix: (Units=GPa)
#
#
# Indices 1 2 3 4 5 6 
#
# 1 8.4630 5.1352 25.0145 0.0000 -17.7499 0.0020
# 2 5.1352 53.0405 26.0588 0.0002 5.7855 0.0017
# 3 25.0145 26.0588 78.0372 -0.0003 -9.5129 -0.0003
# 4 0.0000 0.0002 -0.0003 29.8371 0.0000 4.3683
# 5 -17.7499 5.7855 -9.5129 0.0000 31.1634 0.0002
# 6 0.0020 0.0017 -0.0003 4.3683 0.0002 31.0812
#
#
#
# Elastic Compliance Matrix: (Units=1/GPa)
#
#
# Indices 1 2 3 4 5 6 
#
# 1 -0.147253 0.004147 0.036871 -0.000001 -0.073387 0.000010
# 2 0.004147 0.023886 -0.009928 0.000000 -0.005103 -0.000002
# 3 0.036871 -0.009928 0.007370 0.000000 0.025093 -0.000002
# 4 -0.000001 0.000000 0.000000 0.034219 0.000000 -0.004809
# 5 -0.073387 -0.005103 0.025093 0.000000 -0.001103 0.000005
# 6 0.000010 -0.000002 -0.000002 -0.004809 0.000005 0.032850
#
#
# Mechanical properties :
#
#
# Convention : Reuss Voigt Hill
#
# Bulk Modulus (GPa) = -18.58135 27.99530 4.70698
# Shear Modulus (GPa) = -38.41706 23.97182 -7.22262
#
# Velocity S-wave (km/s) = -4.33506 3.42439 -1.87966
# Velocity P-wave (km/s) = 5.84350 5.41571 1.55187
#
# Compressibility (1/GPa) = -0.05381741
#
# Stress axis : x y z
#
# Youngs Moduli (GPa) = -6.79102 41.86540 135.69142
#
# Poissons Ratio (x) = -0.17361 -5.00304
# Poissons Ratio (y) = 0.02816 1.34708
# Poissons Ratio (z) = 0.25039 0.41562
#
# Static dielectric constant tensor:
#      x y z
#    x 1.766630 0.000000 0.047870 
#    y 0.000000 1.751440 0.000000 
#    z 0.047870 0.000000 1.601240 
# 
# From -- ./inp_files/378182.got.cif
#   From: 2010.05.17/outbox.ucp.g08.bks.cvg/sg12_190_cif.got.tgz:378182.got - 2010.06.11 11:47:21.
