data_PCOD9225238
_publ_section_title
;
Structure prediction by ZEFSAII (Michael W. Deem and Ramdas Pophale) SiO2 
 PCOD9225238
Probable space group: C 2/M
;
_chemical_formula_sum "Si O2"
_cell_formula_units_Z 32
_cell_length_a 15.000000
_cell_length_b 9.000000
_cell_length_c 30.000000
_cell_angle_alpha 90.000000
_cell_angle_beta 130.000000
_cell_angle_gamma 90.000000
_cell_volume 3102.479995
_symmetry_space_group_name_H-M "C 2/M"
_symmetry_group_IT_number 12
_symmetry_cell_setting 'monoclinic'
loop_
_space_group_symop_operation_xyz
x,y,z
-x,y,-z
-x,-y,-z
x,-y,z
1/2+x,1/2+y,z
1/2-x,1/2+y,-z
1/2-x,1/2-y,-z
1/2+x,1/2-y,z
loop_
_atom_site_type_symbol
_atom_site_label
_atom_site_fract_x
_atom_site_fract_y
_atom_site_fract_z
Si Si1 0.750042 0.675162 0.367031
Si Si2 0.810359 0.167029 0.231967
Si Si3 0.402174 0.677069 0.936501
Si Si4 0.537141 0.171163 0.322897
Si Si5 0.512948 0.824073 0.593588
Si Si6 0.833698 0.832151 0.132019
Si Si7 0.322562 0.676040 0.483047
Si Si8 0.073099 0.178691 0.160501
O O1 0.746751 0.500000 0.373673
O O2 0.619910 0.732299 0.318169
O O3 0.848920 0.704754 0.362258
O O4 0.789276 0.756261 0.424902
O O5 0.825235 0.160395 0.183066
O O6 0.685730 0.223825 0.208635
O O7 0.903908 0.290910 0.273466
O O8 0.836281 0.000000 0.257216
O O9 0.400724 0.500000 0.939152
O O10 0.277671 0.732723 0.913528
O O11 0.434007 0.708571 0.895104
O O12 0.500000 0.741123 0.000000
O O13 0.548493 0.205512 0.379115
O O14 0.563885 0.000000 0.324343
O O15 0.453465 0.723128 0.537515
O O16 0.496747 0.000000 0.578257
O O17 0.957050 0.782236 0.151016
O O18 0.816749 0.000000 0.109453
O O19 0.306289 0.500000 0.477895
O O20 0.250000 0.750000 0.500000
O O21 0.093720 0.000000 0.173195
#
# Coordination Sequence:
#
# PCOD9225238 Si02
#       8
#     8   8   8   8   8   8   8   8
#     4  11  23  40  61  85 113 146 181 224 274 328
#     4  10  21  37  56  79 107 138 180 232 277 321
#     4   9  18  32  51  79 114 147 181 226 274 320
#     4  11  23  40  60  82 111 146 182 224 275 334
#     4  10  23  41  60  83 113 146 181 222 274 332
#     4   9  19  35  55  78 106 145 187 226 271 325
#     4  12  23  37  60  86 114 148 184 224 271 325
#     4   9  18  35  56  77 106 145 186 223 270 331
#
# _framework density 10.314329000000001
#
# number of rings (size 3 to 8) (size 9 to 14) (size 15 to 20)
#    0.000    1.875    1.250    2.625    0.000    5.750 
#    0.000    5.000    0.000    0.000    0.000    0.000 
#    0.000    0.000    0.000    0.000    0.000    0.000 
#
# Total GULP energy -178431.938065 kJ/mol
# GULP energy per Si atom -5575.998065 kJ/mol
# Density = 1.029085 g / cm^3
# Si number density = 10.314329 Si / 1000 Ang^3
#
#
#
# Elastic Constant Matrix: (Units=GPa)
#
#
# Indices 1 2 3 4 5 6 
#
# 1 143.7149 40.0820 7.1975 0.0000 27.4749 0.0000
# 2 40.0820 -11.6659 2.0415 0.0000 -1.4446 0.0000
# 3 7.1975 2.0415 23.5106 0.0000 16.9660 0.0000
# 4 0.0000 0.0000 0.0000 18.6175 0.0000 9.9825
# 5 27.4749 -1.4446 16.9660 0.0000 16.1598 0.0000
# 6 0.0000 0.0000 0.0000 9.9825 0.0000 31.3622
#
#
#
# Elastic Compliance Matrix: (Units=1/GPa)
#
#
# Indices 1 2 3 4 5 6 
#
# 1 0.004185 0.016737 0.005449 0.000000 -0.011340 0.000000
# 2 0.016737 -0.004407 0.066339 0.000000 -0.098499 0.000000
# 3 0.005449 0.066339 0.154770 0.000000 -0.165825 0.000000
# 4 0.000000 0.000000 0.000000 0.064766 0.000000 -0.020615
# 5 -0.011340 -0.098499 -0.165825 0.000000 0.246454 0.000000
# 6 0.000000 0.000000 0.000000 -0.020615 0.000000 0.038447
#
#
# Mechanical properties :
#
#
# Convention : Reuss Voigt Hill
#
# Bulk Modulus (GPa) = 3.01570 28.24463 15.63017
# Shear Modulus (GPa) = 11.42339 20.31049 15.86694
#
# Velocity S-wave (km/s) = 2.35577 3.14120 2.77640
# Velocity P-wave (km/s) = 2.97735 5.18438 4.22744
#
# Compressibility (1/GPa) = 0.33159781
#
# Stress axis : x y z
#
# Youngs Moduli (GPa) = 238.93543 -226.91387 6.46121
#
# Poissons Ratio (x) = 3.79795 -0.03521
# Poissons Ratio (y) = -3.99916 -0.42863
# Poissons Ratio (z) = -1.30188 15.05320
#
# Static dielectric constant tensor:
#      x y z
#    x 1.727650 0.000000 0.061240 
#    y 0.000000 1.710930 0.000000 
#    z 0.061240 0.000000 1.869310 
# 
# From -- ./inp_files/359739.got.cif
#   From: 2010.05.17/outbox.ucp.g08.bks.cvg/sg12_180_cif.got.tgz:359739.got - 2010.06.11 11:47:21.
