data_PCOD9225753
_publ_section_title
;
Structure prediction by ZEFSAII (Michael W. Deem and Ramdas Pophale) SiO2 
 PCOD9225753
Probable space group: C 2/M
;
_chemical_formula_sum "Si O2"
_cell_formula_units_Z 32
_cell_length_a 30.000000
_cell_length_b 9.000000
_cell_length_c 18.000000
_cell_angle_alpha 90.000000
_cell_angle_beta 40.000000
_cell_angle_gamma 90.000000
_cell_volume 3123.947783
_symmetry_space_group_name_H-M "C 2/M"
_symmetry_group_IT_number 12
_symmetry_cell_setting 'monoclinic'
loop_
_space_group_symop_operation_xyz
x,y,z
-x,y,-z
-x,-y,-z
x,-y,z
1/2+x,1/2+y,z
1/2-x,1/2+y,-z
1/2-x,1/2-y,-z
1/2+x,1/2-y,z
loop_
_atom_site_type_symbol
_atom_site_label
_atom_site_fract_x
_atom_site_fract_y
_atom_site_fract_z
Si Si1 0.175287 0.172706 0.386882
Si Si2 0.966278 0.181018 0.255392
Si Si3 0.317919 0.671566 0.444110
Si Si4 0.548008 0.319444 0.005970
Si Si5 0.917811 0.669835 0.614820
Si Si6 0.201657 0.176197 0.843425
Si Si7 0.071031 0.179261 0.240810
Si Si8 0.700372 0.821659 0.001760
O O1 0.169760 0.173537 0.482734
O O2 0.114990 0.239530 0.411648
O O3 0.239533 0.279005 0.288356
O O4 0.186146 0.000000 0.351252
O O5 0.891428 0.238268 0.325411
O O6 0.018273 0.224377 0.123831
O O7 0.997064 0.220068 0.297220
O O8 0.962002 0.000000 0.261786
O O9 0.312881 0.500000 0.426797
O O10 0.250000 0.750000 0.500000
O O11 0.546398 0.500000 0.005036
O O12 0.500000 0.265206 0.000000
O O13 0.628065 0.276074 0.903489
O O14 0.889645 0.500000 0.654130
O O15 0.910448 0.753865 0.702742
O O16 0.000000 0.660552 0.500000
O O17 0.199529 0.000000 0.861746
O O18 0.219406 0.264472 0.895873
O O19 0.126170 0.250494 0.114637
O O20 0.076219 0.000000 0.236402
O O21 0.700766 0.000000 0.005766
O O22 0.750000 0.750000 0.000000
#
# Coordination Sequence:
#
# PCOD9225753 Si02
#       8
#     8   8   8   8   8   8   8   8
#     4  11  24  42  61  89 127 166 208 253 306 371
#     4   9  18  36  61  89 121 157 203 251 299 361
#     4  10  23  41  64  91 122 161 207 255 305 362
#     4   9  18  33  59  93 121 152 201 255 302 358
#     4  11  24  41  62  91 124 160 206 259 313 369
#     4  11  22  39  63  92 124 162 207 254 307 367
#     4  11  21  38  63  90 121 159 204 251 302 366
#     4  12  24  39  59  86 123 163 202 249 304 362
#
# _framework density 10.243449
#
# number of rings (size 3 to 8) (size 9 to 14) (size 15 to 20)
#    0.000    1.500    1.250    4.125    1.750    3.000 
#    0.000    1.250    0.000    1.500    0.000    0.000 
#    0.000    0.000    0.000    0.000    0.000    0.000 
#
# Total GULP energy -178566.680700 kJ/mol
# GULP energy per Si atom -5580.208772 kJ/mol
# Density = 1.022013 g / cm^3
# Si number density = 10.243449 Si / 1000 Ang^3
#
#
#
# Elastic Constant Matrix: (Units=GPa)
#
#
# Indices 1 2 3 4 5 6 
#
# 1 139.6452 25.8514 10.0317 -0.0010 -23.7694 0.0015
# 2 25.8514 74.6074 -1.8005 -0.0008 -1.9632 0.0028
# 3 10.0317 -1.8005 39.4278 -0.0050 -16.7475 -0.0007
# 4 -0.0010 -0.0008 -0.0050 17.6428 0.0000 -3.1131
# 5 -23.7694 -1.9632 -16.7475 0.0000 34.1942 0.0003
# 6 0.0015 0.0028 -0.0007 -3.1131 0.0003 19.8657
#
#
#
# Elastic Compliance Matrix: (Units=1/GPa)
#
#
# Indices 1 2 3 4 5 6 
#
# 1 0.008691 -0.002850 0.000196 0.000000 0.005974 0.000000
# 2 -0.002850 0.014402 0.001127 0.000001 -0.000602 -0.000002
# 3 0.000196 0.001127 0.032135 0.000010 0.015940 0.000002
# 4 0.000000 0.000001 0.000010 0.058292 0.000005 0.009135
# 5 0.005974 -0.000602 0.015940 0.000005 0.041170 0.000000
# 6 0.000000 -0.000002 0.000002 0.009135 0.000000 0.051770
#
#
# Mechanical properties :
#
#
# Convention : Reuss Voigt Hill
#
# Bulk Modulus (GPa) = 19.16602 35.76062 27.46332
# Shear Modulus (GPa) = 22.03564 28.98039 25.50802
#
# Velocity S-wave (km/s) = 3.28319 3.76517 3.53241
# Velocity P-wave (km/s) = 4.87319 6.03285 5.48376
#
# Compressibility (1/GPa) = 0.05217567
#
# Stress axis : x y z
#
# Youngs Moduli (GPa) = 115.05765 69.43366 31.11860
#
# Poissons Ratio (x) = 0.19786 -0.00610
# Poissons Ratio (y) = 0.32787 -0.03507
# Poissons Ratio (z) = -0.02256 -0.07825
#
# Static dielectric constant tensor:
#      x y z
#    x 1.731170 -0.000010 -0.024200 
#    y -0.000010 1.697250 0.000010 
#    z -0.024200 0.000010 1.830950 
# 
# From -- ./inp_files/295535.got.cif
#   From: 2010.05.17/outbox.ucp.g08.bks.cvg/sg12_148_cif.got.tgz:295535.got - 2010.06.11 11:47:21.
