data_PCOD9225122
_publ_section_title
;
Structure prediction by ZEFSAII (Michael W. Deem and Ramdas Pophale) SiO2 
 PCOD9225122
Probable space group: C 2/M
;
_chemical_formula_sum "Si O2"
_cell_formula_units_Z 24
_cell_length_a 12.000000
_cell_length_b 21.000000
_cell_length_c 21.000000
_cell_angle_alpha 90.000000
_cell_angle_beta 30.000000
_cell_angle_gamma 90.000000
_cell_volume 2646.000000
_symmetry_space_group_name_H-M "C 2/M"
_symmetry_group_IT_number 12
_symmetry_cell_setting 'monoclinic'
loop_
_space_group_symop_operation_xyz
x,y,z
-x,y,-z
-x,-y,-z
x,-y,z
1/2+x,1/2+y,z
1/2-x,1/2+y,-z
1/2-x,1/2-y,-z
1/2+x,1/2-y,z
loop_
_atom_site_type_symbol
_atom_site_label
_atom_site_fract_x
_atom_site_fract_y
_atom_site_fract_z
Si Si1 0.127057 0.254203 0.168373
Si Si2 0.609239 0.000000 0.687784
Si Si3 0.481892 0.500000 0.618126
Si Si4 0.265900 0.391143 0.153592
Si Si5 0.951840 0.324275 0.916467
Si Si6 0.103090 0.119941 0.242559
Si Si7 0.926164 0.074905 0.888946
O O1 0.198631 0.316925 0.173535
O O2 0.987274 0.284152 0.177432
O O3 0.027655 0.194572 0.259532
O O4 0.333500 0.222600 0.026394
O O5 0.797468 0.000000 0.537442
O O6 0.438300 0.061042 0.764963
O O7 0.762534 0.000000 0.677779
O O8 0.479977 0.564973 0.664519
O O9 0.346845 0.404761 0.186534
O O10 0.500000 0.404686 0.000000
O O11 0.153780 0.361447 0.849900
O O12 0.766186 0.377312 0.990612
O O13 0.081796 0.086525 0.183685
O O14 0.884951 0.000000 0.921955
#
# Coordination Sequence:
#
# PCOD9225122 Si02
#       7
#     8   4   4   8   8   8   8
#     4  10  21  36  58  95 132 170 203 255 322 384
#     4  11  27  47  68  93 120 169 217 270 315 375
#     4  11  26  49  67  86 124 169 228 265 303 371
#     4  12  22  39  65  97 134 160 206 261 329 388
#     4  10  21  34  57  92 139 170 201 255 317 380
#     4  11  23  39  62  88 129 175 211 260 311 374
#     4  11  22  34  56  97 132 162 207 255 318 388
#
# _framework density 9.0702949999999998
#
# number of rings (size 3 to 8) (size 9 to 14) (size 15 to 20)
#    0.000    1.167    3.333    4.250    5.833    0.667 
#    0.000    2.500    0.000    0.000    0.000    0.000 
#    0.000    0.000    0.000    0.000    0.000    0.000 
#
# Total GULP energy -133641.819212 kJ/mol
# GULP energy per Si atom -5568.409134 kJ/mol
# Density = 0.904965 g / cm^3
# Si number density = 9.070295 Si / 1000 Ang^3
#
#
#
# Elastic Constant Matrix: (Units=GPa)
#
#
# Indices 1 2 3 4 5 6 
#
# 1 140.3286 42.4737 25.3100 -0.0268 4.5751 -0.0361
# 2 42.4737 176.9327 32.7267 -0.1441 3.8049 0.0067
# 3 25.3100 32.7267 62.4283 -0.1078 4.8085 -0.0014
# 4 -0.0268 -0.1441 -0.1078 26.1271 0.0072 4.6582
# 5 4.5751 3.8049 4.8085 0.0072 28.4069 0.0212
# 6 -0.0361 0.0067 -0.0014 4.6582 0.0212 51.0347
#
#
#
# Elastic Compliance Matrix: (Units=1/GPa)
#
#
# Indices 1 2 3 4 5 6 
#
# 1 0.008031 -0.001462 -0.002436 -0.000011 -0.000685 0.000007
# 2 -0.001462 0.006527 -0.002816 0.000024 -0.000162 -0.000004
# 3 -0.002436 -0.002816 0.018667 0.000061 -0.002390 -0.000005
# 4 -0.000011 0.000024 0.000061 0.038908 -0.000019 -0.003551
# 5 -0.000685 -0.000162 -0.002390 -0.000019 0.035739 -0.000014
# 6 0.000007 -0.000004 -0.000005 -0.003551 -0.000014 0.019919
#
#
# Mechanical properties :
#
#
# Convention : Reuss Voigt Hill
#
# Bulk Modulus (GPa) = 50.51965 64.52338 57.52152
# Shear Modulus (GPa) = 33.82510 39.72569 36.77540
#
# Velocity S-wave (km/s) = 4.32280 4.68469 4.50738
# Velocity P-wave (km/s) = 7.26807 8.05652 7.67243
#
# Compressibility (1/GPa) = 0.01979428
#
# Stress axis : x y z
#
# Youngs Moduli (GPa) = 124.52483 153.20103 53.57103
#
# Poissons Ratio (x) = 0.22404 0.13052
# Poissons Ratio (y) = 0.18210 0.15088
# Poissons Ratio (z) = 0.30339 0.43148
#
# Static dielectric constant tensor:
#      x y z
#    x 1.704550 0.000000 0.025600 
#    y 0.000000 1.665040 0.000050 
#    z 0.025600 0.000050 1.617130 
# 
# From -- ./inp_files/133015.got.cif
#   From: 2010.05.17/outbox.ucp.g08.bks.cvg/sg12_67_cif.got.tgz:133015.got - 2010.06.11 11:47:21.
