data_PCOD9225195
_publ_section_title
;
Structure prediction by ZEFSAII (Michael W. Deem and Ramdas Pophale) SiO2 
 PCOD9225195
Probable space group: C 2/M
;
_chemical_formula_sum "Si O2"
_cell_formula_units_Z 32
_cell_length_a 18.000000
_cell_length_b 9.000000
_cell_length_c 30.000000
_cell_angle_alpha 90.000000
_cell_angle_beta 40.000000
_cell_angle_gamma 90.000000
_cell_volume 3123.947783
_symmetry_space_group_name_H-M "C 2/M"
_symmetry_group_IT_number 12
_symmetry_cell_setting 'monoclinic'
loop_
_space_group_symop_operation_xyz
x,y,z
-x,y,-z
-x,-y,-z
x,-y,z
1/2+x,1/2+y,z
1/2-x,1/2+y,-z
1/2-x,1/2-y,-z
1/2+x,1/2-y,z
loop_
_atom_site_type_symbol
_atom_site_label
_atom_site_fract_x
_atom_site_fract_y
_atom_site_fract_z
Si Si1 0.616720 0.326678 0.792880
Si Si2 0.258476 0.173567 0.854244
Si Si3 0.157716 0.836561 0.310222
Si Si4 0.638323 0.826306 0.689500
Si Si5 0.536968 0.823835 0.915875
Si Si6 0.881949 0.829769 0.567262
Si Si7 0.701807 0.325015 0.977547
Si Si8 0.964736 0.833751 0.716814
O O1 0.588659 0.500000 0.810010
O O2 0.751642 0.292922 0.740874
O O3 0.603776 0.265129 0.749042
O O4 0.549713 0.224052 0.858316
O O5 0.130574 0.225104 0.898938
O O6 0.280764 0.181055 0.897123
O O7 0.339368 0.293763 0.793461
O O8 0.274814 0.000000 0.833640
O O9 0.124006 0.835395 0.376763
O O10 0.047188 0.828153 0.330384
O O11 0.212254 0.000000 0.275195
O O12 0.757282 0.765616 0.613792
O O13 0.541599 0.798356 0.698567
O O14 0.652706 0.000000 0.694043
O O15 0.551882 0.000000 0.915753
O O16 0.409909 0.768190 0.985638
O O17 0.000000 0.752681 0.500000
O O18 0.884466 0.000000 0.548128
O O19 0.675304 0.500000 0.997578
O O20 0.750000 0.250000 0.000000
O O21 0.000557 0.000000 0.714283
#
# Coordination Sequence:
#
# PCOD9225195 Si02
#       8
#     8   8   8   8   8   8   8   8
#     4  11  21  35  58  85 113 149 193 240 290 346
#     4  11  24  42  63  87 116 153 197 244 294 350
#     4   9  18  34  56  85 117 150 191 238 284 339
#     4  10  21  36  56  83 119 154 194 243 292 345
#     4  12  24  40  63  88 117 152 195 240 293 356
#     4   8  15  32  59  86 113 153 200 240 284 342
#     4  11  26  45  63  86 118 153 195 246 298 353
#     4  11  22  36  57  85 120 156 194 243 295 347
#
# _framework density 10.243449
#
# number of rings (size 3 to 8) (size 9 to 14) (size 15 to 20)
#    0.000    1.625    1.250    4.875    1.750    4.000 
#    0.000    0.625    0.000    9.375    0.000    0.000 
#    0.000    0.000    0.000    0.000    0.000    0.000 
#
# Total GULP energy -178307.757904 kJ/mol
# GULP energy per Si atom -5572.117434 kJ/mol
# Density = 1.022013 g / cm^3
# Si number density = 10.243449 Si / 1000 Ang^3
#
#
#
# Elastic Constant Matrix: (Units=GPa)
#
#
# Indices 1 2 3 4 5 6 
#
# 1 56.3264 2.9483 -4.7582 0.0001 -18.4083 0.0003
# 2 2.9483 82.1109 -5.3854 0.0002 8.8127 0.0010
# 3 -4.7582 -5.3854 29.9489 0.0001 -14.2967 0.0000
# 4 0.0001 0.0002 0.0001 3.6247 0.0000 7.6376
# 5 -18.4083 8.8127 -14.2967 0.0000 -14.6391 0.0000
# 6 0.0003 0.0010 0.0000 7.6376 0.0000 22.5607
#
#
#
# Elastic Compliance Matrix: (Units=1/GPa)
#
#
# Indices 1 2 3 4 5 6 
#
# 1 0.013279 0.000628 -0.003798 0.000000 -0.012611 0.000000
# 2 0.000628 0.012084 0.003662 0.000002 0.002909 -0.000001
# 3 -0.003798 0.003662 0.025083 -0.000002 -0.017517 0.000001
# 4 0.000000 0.000002 -0.000002 0.962363 0.000001 -0.325794
# 5 -0.012611 0.002909 -0.017517 0.000001 -0.033594 0.000000
# 6 0.000000 -0.000001 0.000001 -0.325794 0.000000 0.154617
#
#
# Mechanical properties :
#
#
# Convention : Reuss Voigt Hill
#
# Bulk Modulus (GPa) = 19.44429 17.11063 18.27746
# Shear Modulus (GPa) = 4.34785 14.01469 9.18127
#
# Velocity S-wave (km/s) = 1.45838 2.61833 2.11926
# Velocity P-wave (km/s) = 3.51390 4.18461 3.86384
#
# Compressibility (1/GPa) = 0.05142898
#
# Stress axis : x y z
#
# Youngs Moduli (GPa) = 75.30935 82.75402 39.86735
#
# Poissons Ratio (x) = -0.05194 0.15140
# Poissons Ratio (y) = -0.04727 -0.14598
# Poissons Ratio (z) = 0.28599 -0.30301
#
# Static dielectric constant tensor:
#      x y z
#    x 1.831600 0.000000 -0.042940 
#    y 0.000000 1.685090 0.000000 
#    z -0.042940 0.000000 1.825730 
# 
# From -- ./inp_files/377986.got.cif
#   From: 2010.05.17/outbox.ucp.g08.bks.cvg/sg12_189_cif.got.tgz:377986.got - 2010.06.11 11:47:21.
