data_PCOD9225622
_publ_section_title
;
Structure prediction by ZEFSAII (Michael W. Deem and Ramdas Pophale) SiO2 
 PCOD9225622
Probable space group: C 2/M
;
_chemical_formula_sum "Si O2"
_cell_formula_units_Z 32
_cell_length_a 30.000000
_cell_length_b 9.000000
_cell_length_c 24.000000
_cell_angle_alpha 90.000000
_cell_angle_beta 30.000000
_cell_angle_gamma 90.000000
_cell_volume 3240.000000
_symmetry_space_group_name_H-M "C 2/M"
_symmetry_group_IT_number 12
_symmetry_cell_setting 'monoclinic'
loop_
_space_group_symop_operation_xyz
x,y,z
-x,y,-z
-x,-y,-z
x,-y,z
1/2+x,1/2+y,z
1/2-x,1/2+y,-z
1/2-x,1/2-y,-z
1/2+x,1/2-y,z
loop_
_atom_site_type_symbol
_atom_site_label
_atom_site_fract_x
_atom_site_fract_y
_atom_site_fract_z
Si Si1 0.438674 0.320546 0.175175
Si Si2 0.875941 0.671368 0.008506
Si Si3 0.747748 0.323095 0.942581
Si Si4 0.083678 0.823583 0.300053
Si Si5 0.300222 0.333296 0.723085
Si Si6 0.410951 0.177468 0.434351
Si Si7 0.260340 0.675526 0.316804
Si Si8 0.652769 0.178414 0.617553
O O1 0.448170 0.500000 0.164823
O O2 0.535229 0.246337 0.063412
O O3 0.362015 0.271832 0.213974
O O4 0.395067 0.262266 0.279907
O O5 0.895295 0.500000 0.972647
O O6 0.838833 0.763211 0.996340
O O7 0.789805 0.669841 0.142245
O O8 0.746687 0.500000 0.945680
O O9 0.837673 0.265238 0.815822
O O10 0.750000 0.250000 0.000000
O O11 0.113007 0.806884 0.332863
O O12 0.989116 0.761348 0.382428
O O13 0.090292 0.000000 0.280629
O O14 0.307373 0.500000 0.691300
O O15 0.283325 0.214600 0.694275
O O16 0.312756 0.231072 0.559984
O O17 0.409515 0.197231 0.369570
O O18 0.418664 0.000000 0.437312
O O19 0.265955 0.500000 0.318990
O O20 0.750000 0.250000 0.500000
O O21 0.662105 0.000000 0.617356
#
# Coordination Sequence:
#
# PCOD9225622 Si02
#       8
#     8   8   8   8   8   8   8   8
#     4  11  23  40  60  89 123 158 203 247 296 358
#     4  10  22  41  61  87 121 156 197 246 298 354
#     4  11  22  38  60  86 117 156 198 243 295 354
#     4  10  22  40  60  87 120 155 197 246 297 354
#     4   9  21  41  62  85 118 154 196 249 301 354
#     4  10  22  40  59  86 121 158 199 245 295 355
#     4  10  22  40  61  86 119 156 201 250 297 352
#     4  11  22  39  61  85 121 160 199 247 300 353
#
# _framework density 9.8765429999999999
#
# number of rings (size 3 to 8) (size 9 to 14) (size 15 to 20)
#    0.000    1.750    1.250    3.375    1.750    6.500 
#    0.000    5.000    0.000    0.000    0.000    0.000 
#    0.000    0.000    0.000    0.000    0.000    0.000 
#
# Total GULP energy -178567.182965 kJ/mol
# GULP energy per Si atom -5580.224468 kJ/mol
# Density = 0.985406 g / cm^3
# Si number density = 9.876543 Si / 1000 Ang^3
#
#
#
# Elastic Constant Matrix: (Units=GPa)
#
#
# Indices 1 2 3 4 5 6 
#
# 1 82.0676 32.0943 13.6721 0.0014 -30.6621 0.0000
# 2 32.0943 87.2301 9.3767 0.0035 -14.9710 -0.0018
# 3 13.6721 9.3767 15.7318 0.0064 -20.7331 0.0007
# 4 0.0014 0.0035 0.0064 33.5625 -0.0004 -6.0307
# 5 -30.6621 -14.9710 -20.7331 -0.0004 35.7281 -0.0003
# 6 0.0000 -0.0018 0.0007 -6.0307 -0.0003 33.5876
#
#
#
# Elastic Compliance Matrix: (Units=1/GPa)
#
#
# Indices 1 2 3 4 5 6 
#
# 1 0.021641 -0.005358 0.025101 -0.000005 0.030894 -0.000001
# 2 -0.005358 0.013699 -0.008519 0.000001 -0.003802 0.000001
# 3 0.025101 -0.008519 0.299795 -0.000058 0.191944 -0.000016
# 4 -0.000005 0.000001 -0.000058 0.030789 -0.000038 0.005528
# 5 0.030894 -0.003802 0.191944 -0.000038 0.164295 -0.000010
# 6 -0.000001 0.000001 -0.000016 0.005528 -0.000010 0.030765
#
#
# Mechanical properties :
#
#
# Convention : Reuss Voigt Hill
#
# Bulk Modulus (GPa) = 2.79656 32.81283 17.80470
# Shear Modulus (GPa) = 7.60190 29.23474 18.41832
#
# Velocity S-wave (km/s) = 1.96388 3.85126 3.05688
# Velocity P-wave (km/s) = 2.56149 6.03522 4.63601
#
# Compressibility (1/GPa) = 0.35758257
#
# Stress axis : x y z
#
# Youngs Moduli (GPa) = 46.20773 72.99990 3.33562
#
# Poissons Ratio (x) = 0.39117 -0.08373
# Poissons Ratio (y) = 0.24760 0.02842
# Poissons Ratio (z) = -1.15987 0.62187
#
# Static dielectric constant tensor:
#      x y z
#    x 1.682850 0.000030 -0.003050 
#    y 0.000030 1.701670 0.000020 
#    z -0.003050 0.000020 1.662470 
# 
# From -- ./inp_files/353350.got.cif
#   From: 2010.05.17/outbox.ucp.g08.bks.cvg/sg12_177_cif.got.tgz:353350.got - 2010.06.11 11:47:21.
