data_PCOD9225697
_publ_section_title
;
Structure prediction by ZEFSAII (Michael W. Deem and Ramdas Pophale) SiO2 
 PCOD9225697
Probable space group: C 2/M
;
_chemical_formula_sum "Si O2"
_cell_formula_units_Z 32
_cell_length_a 12.000000
_cell_length_b 18.000000
_cell_length_c 30.000000
_cell_angle_alpha 90.000000
_cell_angle_beta 30.000000
_cell_angle_gamma 90.000000
_cell_volume 3240.000000
_symmetry_space_group_name_H-M "C 2/M"
_symmetry_group_IT_number 12
_symmetry_cell_setting 'monoclinic'
loop_
_space_group_symop_operation_xyz
x,y,z
-x,y,-z
-x,-y,-z
x,-y,z
1/2+x,1/2+y,z
1/2-x,1/2+y,-z
1/2-x,1/2-y,-z
1/2+x,1/2-y,z
loop_
_atom_site_type_symbol
_atom_site_label
_atom_site_fract_x
_atom_site_fract_y
_atom_site_fract_z
Si Si1 0.753311 0.236750 0.898317
Si Si2 0.195921 0.590549 0.146621
Si Si3 0.444683 0.083628 0.644192
Si Si4 0.128131 0.848973 0.821999
Si Si5 0.109013 0.675391 0.418428
Si Si6 0.401550 0.667023 0.485067
Si Si7 0.823719 0.087290 0.689181
Si Si8 0.614654 0.299083 0.250131
O O1 0.781843 0.328855 0.888877
O O2 0.808780 0.204793 0.828978
O O3 0.900497 0.187306 0.881985
O O4 0.500000 0.224385 0.000000
O O5 0.246843 0.500000 0.116956
O O6 0.342957 0.612835 0.139307
O O7 0.927272 0.589793 0.244511
O O8 0.245933 0.094464 0.747670
O O9 0.352153 0.109245 0.628983
O O10 0.649355 0.140146 0.578084
O O11 0.529138 0.000000 0.616289
O O12 0.280779 0.775811 0.767480
O O13 0.350282 0.709360 0.342765
O O14 0.000000 0.642686 0.500000
O O15 0.953055 0.745548 0.459804
O O16 0.500000 0.649424 0.500000
O O17 0.514233 0.624067 0.404113
O O18 0.828523 0.133845 0.734543
O O19 0.878632 0.000000 0.677532
#
# Coordination Sequence:
#
# PCOD9225697 Si02
#       8
#     8   8   8   8   8   8   8   8
#     4  11  24  44  73  99 129 171 227 285 337 407
#     4  10  22  41  67 100 136 173 215 275 343 400
#     4  12  24  37  59  89 127 170 215 269 324 383
#     4  11  21  42  67  94 128 170 226 268 333 406
#     4  11  22  38  60  90 124 169 217 262 317 387
#     4  11  22  38  59  93 129 173 226 272 311 387
#     4  11  22  39  63  95 140 180 218 272 335 395
#     4  11  22  41  67  95 129 175 221 275 329 394
#
# _framework density 9.8765429999999999
#
# number of rings (size 3 to 8) (size 9 to 14) (size 15 to 20)
#    0.000    1.000    2.500    6.375    0.000    5.000 
#    0.000    0.000    0.000    2.625    0.000    0.000 
#    0.000    0.000    0.000    0.000    0.000    0.000 
#
# Total GULP energy -178171.517660 kJ/mol
# GULP energy per Si atom -5567.859927 kJ/mol
# Density = 0.985406 g / cm^3
# Si number density = 9.876543 Si / 1000 Ang^3
#
#
#
# Elastic Constant Matrix: (Units=GPa)
#
#
# Indices 1 2 3 4 5 6 
#
# 1 47.9393 24.8169 6.4014 -0.0227 -26.3673 -0.0926
# 2 24.8169 69.7331 -7.3288 -0.0009 10.1015 0.0411
# 3 6.4014 -7.3288 70.6827 -0.0690 -27.0911 -0.2735
# 4 -0.0227 -0.0009 -0.0690 14.8165 0.0233 -29.5626
# 5 -26.3673 10.1015 -27.0911 0.0233 8.5026 0.1157
# 6 -0.0926 0.0411 -0.2735 -29.5626 0.1157 -233.8621
#
#
#
# Elastic Compliance Matrix: (Units=1/GPa)
#
#
# Indices 1 2 3 4 5 6 
#
# 1 0.003280 0.002268 -0.012674 -0.000005 -0.032906 -0.000002
# 2 0.002268 0.011851 0.007584 0.000011 0.017118 -0.000001
# 3 -0.012674 0.007584 0.011011 0.000022 -0.013231 -0.000016
# 4 -0.000005 0.000011 0.000022 0.053898 -0.000017 -0.006813
# 5 -0.032906 0.017118 -0.013231 -0.000017 -0.046928 0.000010
# 6 -0.000002 -0.000001 -0.000016 -0.006813 0.000010 -0.003415
#
#
# Mechanical properties :
#
#
# Convention : Reuss Voigt Hill
#
# Bulk Modulus (GPa) = 48.78793 26.23713 37.51253
# Shear Modulus (GPa) = 118.56003 -31.14423 43.70790
#
# Velocity S-wave (km/s) = 7.75573 -3.97505 4.70905
# Velocity P-wave (km/s) = 10.24472 2.78507 6.97129
#
# Compressibility (1/GPa) = 0.02049687
#
# Stress axis : x y z
#
# Youngs Moduli (GPa) = 304.91828 84.38268 90.82156
#
# Poissons Ratio (x) = -0.19134 1.15107
# Poissons Ratio (y) = -0.69143 -0.68882
# Poissons Ratio (z) = 3.86453 -0.63999
#
# Static dielectric constant tensor:
#      x y z
#    x 1.768420 -0.000010 0.000280 
#    y -0.000010 1.692260 0.000000 
#    z 0.000280 0.000000 1.684440 
# 
# From -- ./inp_files/374416.got.cif
#   From: 2010.05.17/outbox.ucp.g08.bks.cvg/sg12_188_cif.got.tgz:374416.got - 2010.06.11 11:47:21.
