data_PCOD9225181
_publ_section_title
;
Structure prediction by ZEFSAII (Michael W. Deem and Ramdas Pophale) SiO2 
 PCOD9225181
Probable space group: C 2/M
;
_chemical_formula_sum "Si O2"
_cell_formula_units_Z 32
_cell_length_a 21.000000
_cell_length_b 15.000000
_cell_length_c 30.000000
_cell_angle_alpha 90.000000
_cell_angle_beta 160.000000
_cell_angle_gamma 90.000000
_cell_volume 3232.090354
_symmetry_space_group_name_H-M "C 2/M"
_symmetry_group_IT_number 12
_symmetry_cell_setting 'monoclinic'
loop_
_space_group_symop_operation_xyz
x,y,z
-x,y,-z
-x,-y,-z
x,-y,z
1/2+x,1/2+y,z
1/2-x,1/2+y,-z
1/2-x,1/2-y,-z
1/2+x,1/2-y,z
loop_
_atom_site_type_symbol
_atom_site_label
_atom_site_fract_x
_atom_site_fract_y
_atom_site_fract_z
Si Si1 0.558878 0.104100 0.774141
Si Si2 0.707348 0.107535 0.480317
Si Si3 0.307700 0.099172 0.919787
Si Si4 0.965270 0.737566 0.159507
Si Si5 0.621685 0.217950 0.169752
Si Si6 0.000708 0.899136 0.053126
Si Si7 0.595074 0.602865 0.688135
Si Si8 0.599375 0.395878 0.302324
O O1 0.467180 0.133688 0.666152
O O2 0.515423 0.172584 0.785262
O O3 0.499371 0.000000 0.742431
O O4 0.782416 0.103741 0.920964
O O5 0.757377 0.135753 0.564171
O O6 0.893209 0.128685 0.574165
O O7 0.697926 0.000000 0.477793
O O8 0.241933 0.104535 0.825702
O O9 0.110003 0.106136 0.814794
O O10 0.386131 0.000000 0.980067
O O11 0.452837 0.172918 0.030414
O O12 0.070465 0.698485 0.186591
O O13 0.069679 0.829232 0.241845
O O14 0.750000 0.750000 0.000000
O O15 0.610893 0.322442 0.151178
O O16 0.817297 0.172954 0.287542
O O17 0.071399 0.000000 0.107428
O O18 0.000000 0.881586 0.000000
O O19 0.584977 0.500000 0.665778
O O20 0.639322 0.500000 0.317699
#
# Coordination Sequence:
#
# PCOD9225181 Si02
#       8
#     8   8   8   8   8   8   8   8
#     4  10  21  39  61  84 113 145 181 233 281 326
#     4   8  17  37  63  87 108 137 182 231 286 336
#     4   9  16  28  50  78 105 136 174 222 284 336
#     4  12  23  35  49  80 114 152 194 219 264 344
#     4  12  21  32  49  74 114 150 183 222 269 327
#     4  10  21  36  55  79 106 142 189 236 280 314
#     4   9  18  32  54  85 113 139 176 223 276 335
#     4   9  18  34  55  78 106 140 183 238 281 320
#
# _framework density 9.9007129999999997
#
# number of rings (size 3 to 8) (size 9 to 14) (size 15 to 20)
#    0.000    2.125    2.500    3.000    0.000    4.500 
#    0.000    0.625    0.000    2.250    0.000    0.000 
#    0.000    7.000    0.000    0.000    0.000    0.000 
#
# Total GULP energy -178462.050014 kJ/mol
# GULP energy per Si atom -5576.939063 kJ/mol
# Density = 0.987818 g / cm^3
# Si number density = 9.900713 Si / 1000 Ang^3
#
#
#
# Elastic Constant Matrix: (Units=GPa)
#
#
# Indices 1 2 3 4 5 6 
#
# 1 20.8255 1.8278 -8.9679 0.0033 2.8930 0.0072
# 2 1.8278 50.9006 5.9838 0.0194 -7.5021 -0.0001
# 3 -8.9679 5.9838 27.5152 -0.0065 -18.5478 0.0009
# 4 0.0033 0.0194 -0.0065 14.1814 0.0076 4.8836
# 5 2.8930 -7.5021 -18.5478 0.0076 16.3637 -0.0090
# 6 0.0072 -0.0001 0.0009 4.8836 -0.0090 10.8855
#
#
#
# Elastic Compliance Matrix: (Units=1/GPa)
#
#
# Indices 1 2 3 4 5 6 
#
# 1 0.065318 -0.001330 0.056722 -0.000017 0.052135 0.000003
# 2 -0.001330 0.021540 0.007195 -0.000048 0.018266 0.000037
# 3 0.056722 0.007195 0.206539 -0.000115 0.227377 0.000186
# 4 -0.000017 -0.000048 -0.000115 0.083400 -0.000208 -0.037417
# 5 0.052135 0.018266 0.227377 -0.000208 0.317994 0.000305
# 6 0.000003 0.000037 0.000186 -0.037417 0.000305 0.108652
#
#
# Mechanical properties :
#
#
# Convention : Reuss Voigt Hill
#
# Bulk Modulus (GPa) = 2.38907 10.76985 6.57946
# Shear Modulus (GPa) = 6.11402 14.97928 10.54665
#
# Velocity S-wave (km/s) = 1.75908 2.75339 2.31036
# Velocity P-wave (km/s) = 2.30975 3.94448 3.23218
#
# Compressibility (1/GPa) = 0.41857219
#
# Stress axis : x y z
#
# Youngs Moduli (GPa) = 15.30974 46.42482 4.84170
#
# Poissons Ratio (x) = 0.06172 -0.27463
# Poissons Ratio (y) = 0.02035 -0.03484
# Poissons Ratio (z) = -0.86840 -0.33403
#
# Static dielectric constant tensor:
#      x y z
#    x 1.741800 0.000000 0.027770 
#    y 0.000000 1.744890 -0.000010 
#    z 0.027770 -0.000010 1.682850 
# 
# From -- ./inp_files/381485.got.cif
#   From: 2010.05.17/outbox.ucp.g08.bks.cvg/sg12_191_cif.got.tgz:381485.got - 2010.06.11 11:47:21.
