data_PCOD9225299
_publ_section_title
;
Structure prediction by ZEFSAII (Michael W. Deem and Ramdas Pophale) SiO2 
 PCOD9225299
Probable space group: C 2/M
;
_chemical_formula_sum "Si O2"
_cell_formula_units_Z 32
_cell_length_a 30.000000
_cell_length_b 9.000000
_cell_length_c 18.000000
_cell_angle_alpha 90.000000
_cell_angle_beta 140.000000
_cell_angle_gamma 90.000000
_cell_volume 3123.947783
_symmetry_space_group_name_H-M "C 2/M"
_symmetry_group_IT_number 12
_symmetry_cell_setting 'monoclinic'
loop_
_space_group_symop_operation_xyz
x,y,z
-x,y,-z
-x,-y,-z
x,-y,z
1/2+x,1/2+y,z
1/2-x,1/2+y,-z
1/2-x,1/2-y,-z
1/2+x,1/2-y,z
loop_
_atom_site_type_symbol
_atom_site_label
_atom_site_fract_x
_atom_site_fract_y
_atom_site_fract_z
Si Si1 0.928682 0.168705 0.613078
Si Si2 0.655061 0.674487 0.230885
Si Si3 0.165323 0.175770 0.966890
Si Si4 0.073154 0.819252 0.557914
Si Si5 0.232097 0.167654 0.553062
Si Si6 0.315284 0.678347 0.176846
Si Si7 0.942685 0.667585 0.776571
Si Si8 0.403773 0.168172 0.985555
O O1 0.927891 0.230597 0.528819
O O2 0.848896 0.161643 0.536275
O O3 0.960849 0.264417 0.719711
O O4 0.957690 0.000000 0.649543
O O5 0.656845 0.500000 0.239728
O O6 0.730968 0.743558 0.334606
O O7 0.611392 0.739483 0.244173
O O8 0.623238 0.727449 0.113601
O O9 0.243819 0.231549 0.082133
O O10 0.119165 0.268463 0.964548
O O11 0.159398 0.000000 0.973791
O O12 0.149608 0.200531 0.859421
O O13 0.135730 0.774758 0.692354
O O14 0.000000 0.777438 0.500000
O O15 0.076912 0.000000 0.559965
O O16 0.250000 0.250000 0.500000
O O17 0.258751 0.000000 0.584763
O O18 0.301290 0.500000 0.165037
O O19 0.916963 0.500000 0.733568
O O20 0.013619 0.664448 0.912618
O O21 0.377106 0.000000 0.941490
#
# Coordination Sequence:
#
# PCOD9225299 Si02
#       8
#     8   8   8   8   8   8   8   8
#     4  10  22  38  62  92 122 162 210 253 302 365
#     4  12  25  41  63  92 123 159 203 254 307 362
#     4  10  21  37  60  91 118 154 204 254 307 362
#     4   9  19  36  61  92 122 158 203 250 302 360
#     4  11  22  38  61  92 126 166 209 253 304 365
#     4   9  19  37  61  87 121 160 199 248 306 363
#     4  11  24  42  63  87 121 163 203 249 310 370
#     4  11  25  42  62  88 120 160 204 252 310 373
#
# _framework density 10.243449
#
# number of rings (size 3 to 8) (size 9 to 14) (size 15 to 20)
#    0.000    1.625    1.250    3.000    3.500    4.500 
#    0.000    0.625    0.000    0.750    0.000    0.000 
#    0.000    0.000    0.000    0.000    0.000    0.000 
#
# Total GULP energy -178682.785954 kJ/mol
# GULP energy per Si atom -5583.837061 kJ/mol
# Density = 1.022013 g / cm^3
# Si number density = 10.243449 Si / 1000 Ang^3
#
#
#
# Elastic Constant Matrix: (Units=GPa)
#
#
# Indices 1 2 3 4 5 6 
#
# 1 44.1855 12.2606 -11.6706 0.0000 -1.0949 0.0000
# 2 12.2606 103.1842 22.4729 0.0000 -9.0075 0.0000
# 3 -11.6706 22.4729 58.9389 0.0000 -0.1353 0.0000
# 4 0.0000 0.0000 0.0000 22.8166 0.0000 -6.0146
# 5 -1.0949 -9.0075 -0.1353 0.0000 13.6609 0.0000
# 6 0.0000 0.0000 0.0000 -6.0146 0.0000 17.0491
#
#
#
# Elastic Compliance Matrix: (Units=1/GPa)
#
#
# Indices 1 2 3 4 5 6 
#
# 1 0.025703 -0.004627 0.006851 0.000000 -0.000923 0.000000
# 2 -0.004627 0.012101 -0.005513 0.000000 0.007554 0.000000
# 3 0.006851 -0.005513 0.020419 0.000000 -0.002884 0.000000
# 4 0.000000 0.000000 0.000000 0.048321 0.000000 0.017047
# 5 -0.000923 0.007554 -0.002884 0.000000 0.078080 0.000000
# 6 0.000000 0.000000 0.000000 0.017047 0.000000 0.064668
#
#
# Mechanical properties :
#
#
# Convention : Reuss Voigt Hill
#
# Bulk Modulus (GPa) = 19.36258 28.04825 23.70542
# Shear Modulus (GPa) = 18.30942 22.92170 20.61556
#
# Velocity S-wave (km/s) = 2.99275 3.34855 3.17563
# Velocity P-wave (km/s) = 4.62750 5.35452 5.00423
#
# Compressibility (1/GPa) = 0.05164600
#
# Stress axis : x y z
#
# Youngs Moduli (GPa) = 38.90672 82.63599 48.97442
#
# Poissons Ratio (x) = 0.38234 -0.33555
# Poissons Ratio (y) = 0.18001 0.26999
# Poissons Ratio (z) = -0.26657 0.45557
#
# Static dielectric constant tensor:
#      x y z
#    x 1.715600 0.000000 0.013550 
#    y 0.000000 1.746060 0.000000 
#    z 0.013550 0.000000 1.767660 
# 
# From -- ./inp_files/295816.got.cif
#   From: 2010.05.17/outbox.ucp.g08.bks.cvg/sg12_148_cif.got.tgz:295816.got - 2010.06.11 11:47:21.
