data_PCOD9225527
_publ_section_title
;
Structure prediction by ZEFSAII (Michael W. Deem and Ramdas Pophale) SiO2 
 PCOD9225527
Probable space group: C 2/M
;
_chemical_formula_sum "Si O2"
_cell_formula_units_Z 32
_cell_length_a 30.000000
_cell_length_b 21.000000
_cell_length_c 15.000000
_cell_angle_alpha 90.000000
_cell_angle_beta 160.000000
_cell_angle_gamma 90.000000
_cell_volume 3232.090354
_symmetry_space_group_name_H-M "C 2/M"
_symmetry_group_IT_number 12
_symmetry_cell_setting 'monoclinic'
loop_
_space_group_symop_operation_xyz
x,y,z
-x,y,-z
-x,-y,-z
x,-y,z
1/2+x,1/2+y,z
1/2-x,1/2+y,-z
1/2-x,1/2-y,-z
1/2+x,1/2-y,z
loop_
_atom_site_type_symbol
_atom_site_label
_atom_site_fract_x
_atom_site_fract_y
_atom_site_fract_z
Si Si1 0.748867 0.310107 0.168181
Si Si2 0.655291 0.925984 0.777048
Si Si3 0.620576 0.714146 0.295239
Si Si4 0.181627 0.073016 0.732418
Si Si5 0.137468 0.338692 0.434164
Si Si6 0.245128 0.420317 0.465790
Si Si7 0.527839 0.296320 0.447244
Si Si8 0.098389 0.427542 0.004413
O O1 0.793463 0.371635 0.193568
O O2 0.757994 0.330240 0.289777
O O3 0.856286 0.253370 0.359557
O O4 0.606019 0.289754 0.862052
O O5 0.500000 0.917514 0.500000
O O6 0.674673 0.000000 0.783177
O O7 0.732358 0.919262 0.015813
O O8 0.750000 0.750000 0.500000
O O9 0.594910 0.766723 0.324583
O O10 0.651652 0.637934 0.368494
O O11 0.500000 0.717177 0.000000
O O12 0.079393 0.130717 0.534986
O O13 0.277637 0.077701 0.827802
O O14 0.127733 0.000000 0.632281
O O15 0.189442 0.386152 0.451586
O O16 0.008817 0.376032 0.224075
O O17 0.275917 0.500000 0.533969
O O18 0.143832 0.419039 0.192702
O O19 0.500000 0.285673 0.500000
O O20 0.047242 0.500000 0.899011
#
# Coordination Sequence:
#
# PCOD9225527 Si02
#       8
#     8   8   8   8   8   8   8   8
#     4  12  28  42  68 101 136 178 224 281 337 402
#     4  10  21  40  67 100 134 171 219 276 338 401
#     4  10  22  41  65  94 128 175 226 275 331 391
#     4  10  23  43  69  98 134 177 224 276 340 408
#     4  11  23  40  68  98 138 176 229 277 333 399
#     4  10  22  41  66  99 137 179 224 276 337 402
#     4  12  27  47  69  96 135 180 227 281 339 409
#     4  10  21  40  69 104 136 177 225 280 337 400
#
# _framework density 9.9007129999999997
#
# number of rings (size 3 to 8) (size 9 to 14) (size 15 to 20)
#    0.000    1.375    1.250    3.750    5.250    6.000 
#    0.000    0.000    0.000    0.000    0.000    0.000 
#    0.000    0.000    0.000    0.000    0.000    0.000 
#
# Total GULP energy -178536.282161 kJ/mol
# GULP energy per Si atom -5579.258818 kJ/mol
# Density = 0.987818 g / cm^3
# Si number density = 9.900713 Si / 1000 Ang^3
#
#
#
# Elastic Constant Matrix: (Units=GPa)
#
#
# Indices 1 2 3 4 5 6 
#
# 1 65.6715 27.1132 19.3567 0.0000 -21.5002 0.0000
# 2 27.1132 160.5480 55.5653 0.0000 -1.0448 0.0000
# 3 19.3567 55.5653 143.0192 0.0000 -18.6313 0.0000
# 4 0.0000 0.0000 0.0000 45.2268 0.0000 9.2127
# 5 -21.5002 -1.0448 -18.6313 0.0000 32.4955 0.0000
# 6 0.0000 0.0000 0.0000 9.2127 0.0000 39.0179
#
#
#
# Elastic Compliance Matrix: (Units=1/GPa)
#
#
# Indices 1 2 3 4 5 6 
#
# 1 0.021249 -0.003627 0.000378 0.000000 0.014159 0.000000
# 2 -0.003627 0.007882 -0.003081 0.000000 -0.003913 0.000000
# 3 0.000378 -0.003081 0.008816 0.000000 0.005206 0.000000
# 4 0.000000 0.000000 0.000000 0.023228 0.000000 -0.005484
# 5 0.014159 -0.003913 0.005206 0.000000 0.043000 0.000000
# 6 0.000000 0.000000 0.000000 -0.005484 0.000000 0.026924
#
#
# Mechanical properties :
#
#
# Convention : Reuss Voigt Hill
#
# Bulk Modulus (GPa) = 39.54713 63.70100 51.62407
# Shear Modulus (GPa) = 32.85376 41.16162 37.00769
#
# Velocity S-wave (km/s) = 4.07770 4.56424 4.32781
# Velocity P-wave (km/s) = 6.49503 7.74701 7.14848
#
# Compressibility (1/GPa) = 0.02528628
#
# Stress axis : x y z
#
# Youngs Moduli (GPa) = 47.06114 126.86921 113.42790
#
# Poissons Ratio (x) = 0.46017 -0.04285
# Poissons Ratio (y) = 0.17070 0.34949
# Poissons Ratio (z) = -0.01778 0.39091
#
# Static dielectric constant tensor:
#      x y z
#    x 1.822090 0.000000 0.050160 
#    y 0.000000 1.723340 0.000000 
#    z 0.050160 0.000000 1.692660 
# 
# From -- ./inp_files/251950.got.cif
#   From: 2010.05.17/outbox.ucp.g08.bks.cvg/sg12_126_cif.got.tgz:251950.got - 2010.06.11 11:47:21.
