data_PCOD9225699
_publ_section_title
;
Structure prediction by ZEFSAII (Michael W. Deem and Ramdas Pophale) SiO2 
 PCOD9225699
Probable space group: C 2/M
;
_chemical_formula_sum "Si O2"
_cell_formula_units_Z 28
_cell_length_a 12.000000
_cell_length_b 18.000000
_cell_length_c 15.000000
_cell_angle_alpha 90.000000
_cell_angle_beta 120.000000
_cell_angle_gamma 90.000000
_cell_volume 2805.922308
_symmetry_space_group_name_H-M "C 2/M"
_symmetry_group_IT_number 12
_symmetry_cell_setting 'monoclinic'
loop_
_space_group_symop_operation_xyz
x,y,z
-x,y,-z
-x,-y,-z
x,-y,z
1/2+x,1/2+y,z
1/2-x,1/2+y,-z
1/2-x,1/2-y,-z
1/2+x,1/2-y,z
loop_
_atom_site_type_symbol
_atom_site_label
_atom_site_fract_x
_atom_site_fract_y
_atom_site_fract_z
Si Si1 0.872740 0.194714 0.017809
Si Si2 0.340783 0.086394 0.141874
Si Si3 0.946560 0.088269 0.574550
Si Si4 0.190660 0.672392 0.506691
Si Si5 0.363146 0.671208 0.215678
Si Si6 0.414520 0.088006 0.876252
Si Si7 0.899798 0.671469 0.327502
O O1 0.915822 0.172758 0.134989
O O2 0.750000 0.250000 0.000000
O O3 0.786928 0.128912 0.941558
O O4 0.000000 0.212008 0.000000
O O5 0.478604 0.113161 0.154356
O O6 0.352773 0.102152 0.251005
O O7 0.331385 0.000000 0.114487
O O8 0.798470 0.111977 0.526114
O O9 0.000000 0.114624 0.500000
O O10 0.037032 0.125136 0.684758
O O11 0.958668 0.000000 0.583678
O O12 0.250000 0.750000 0.500000
O O13 0.164468 0.674324 0.601633
O O14 0.052874 0.664686 0.404027
O O15 0.218285 0.635028 0.166533
O O16 0.364113 0.754554 0.256788
O O17 0.382391 0.000000 0.848846
O O18 0.500000 0.093147 0.000000
#
# Coordination Sequence:
#
# PCOD9225699 Si02
#       7
#     8   8   8   8   8   8   8
#     4  12  29  47  73 108 145 189 242 300 358 427
#     4  11  26  46  69 104 146 187 236 289 354 431
#     4  11  26  45  69 104 137 175 228 295 357 418
#     4  11  24  46  68  96 136 176 234 290 359 422
#     4  12  24  43  74 102 141 181 239 295 353 424
#     4  10  22  41  68 100 138 187 233 285 347 421
#     4  11  26  42  70 102 129 185 231 289 357 419
#
# _framework density 9.9788940000000004
#
# number of rings (size 3 to 8) (size 9 to 14) (size 15 to 20)
#    0.000    0.857    4.286    1.286    8.000    2.000 
#    0.000    1.429    0.000    0.000    0.000    0.000 
#    0.000    0.000    0.000    0.000    0.000    0.000 
#
# Total GULP energy -156281.251429 kJ/mol
# GULP energy per Si atom -5581.473265 kJ/mol
# Density = 0.995618 g / cm^3
# Si number density = 9.978894 Si / 1000 Ang^3
#
#
#
# Elastic Constant Matrix: (Units=GPa)
#
#
# Indices 1 2 3 4 5 6 
#
# 1 155.0631 34.2593 53.0990 0.0000 0.2481 0.0000
# 2 34.2593 55.0329 23.9536 0.0000 4.0695 0.0000
# 3 53.0990 23.9536 124.1764 0.0000 -14.6951 0.0000
# 4 0.0000 0.0000 0.0000 31.1736 0.0000 4.1762
# 5 0.2481 4.0695 -14.6951 0.0000 33.9334 0.0000
# 6 0.0000 0.0000 0.0000 4.1762 0.0000 37.3564
#
#
#
# Elastic Compliance Matrix: (Units=1/GPa)
#
#
# Indices 1 2 3 4 5 6 
#
# 1 0.008293 -0.003833 -0.002909 0.000000 -0.000861 0.000000
# 2 -0.003833 0.022208 -0.003116 0.000000 -0.003985 0.000000
# 3 -0.002909 -0.003116 0.010482 0.000000 0.004934 0.000000
# 4 0.000000 0.000000 0.000000 0.032566 0.000000 -0.003641
# 5 -0.000861 -0.003985 0.004934 0.000000 0.032091 0.000000
# 6 0.000000 0.000000 0.000000 -0.003641 0.000000 0.027176
#
#
# Mechanical properties :
#
#
# Convention : Reuss Voigt Hill
#
# Bulk Modulus (GPa) = 47.02136 61.87735 54.44936
# Shear Modulus (GPa) = 31.32401 35.35672 33.34036
#
# Velocity S-wave (km/s) = 3.96601 4.21357 4.09166
# Velocity P-wave (km/s) = 6.67711 7.39890 7.04725
#
# Compressibility (1/GPa) = 0.02126693
#
# Stress axis : x y z
#
# Youngs Moduli (GPa) = 120.57949 45.02823 95.40201
#
# Poissons Ratio (x) = 0.17260 0.27750
# Poissons Ratio (y) = 0.46219 0.29732
# Poissons Ratio (z) = 0.35073 0.14033
#
# Static dielectric constant tensor:
#      x y z
#    x 1.724750 0.000000 -0.016780 
#    y 0.000000 1.739230 0.000000 
#    z -0.016780 0.000000 1.742470 
# 
# From -- ./inp_files/206772.got.cif
#   From: 2010.05.17/outbox.ucp.g08.bks.cvg/sg12_104_cif.got.tgz:206772.got - 2010.06.11 11:47:21.
