data_PCOD9225084
_publ_section_title
;
Structure prediction by ZEFSAII (Michael W. Deem and Ramdas Pophale) SiO2 
 PCOD9225084
Probable space group: C 2/M
;
_chemical_formula_sum "Si O2"
_cell_formula_units_Z 32
_cell_length_a 18.000000
_cell_length_b 9.000000
_cell_length_c 30.000000
_cell_angle_alpha 90.000000
_cell_angle_beta 40.000000
_cell_angle_gamma 90.000000
_cell_volume 3123.947783
_symmetry_space_group_name_H-M "C 2/M"
_symmetry_group_IT_number 12
_symmetry_cell_setting 'monoclinic'
loop_
_space_group_symop_operation_xyz
x,y,z
-x,y,-z
-x,-y,-z
x,-y,z
1/2+x,1/2+y,z
1/2-x,1/2+y,-z
1/2-x,1/2-y,-z
1/2+x,1/2-y,z
loop_
_atom_site_type_symbol
_atom_site_label
_atom_site_fract_x
_atom_site_fract_y
_atom_site_fract_z
Si Si1 0.006670 0.172040 0.214460
Si Si2 0.920186 0.174499 0.996396
Si Si3 0.418824 0.177090 0.494459
Si Si4 0.017641 0.178355 0.360613
Si Si5 0.840673 0.180303 0.363716
Si Si6 0.298027 0.165356 0.844221
Si Si7 0.998962 0.325358 0.130182
Si Si8 0.738994 0.669635 0.771369
O O1 0.892433 0.227820 0.292259
O O2 0.049613 0.263547 0.152590
O O3 0.110017 0.203221 0.201340
O O4 0.995340 0.000000 0.208378
O O5 0.942646 0.256442 0.940160
O O6 0.947873 0.000000 0.977120
O O7 0.791497 0.185088 0.074682
O O8 0.000000 0.232490 0.000000
O O9 0.500000 0.195343 0.500000
O O10 0.465969 0.268471 0.431219
O O11 0.289236 0.226012 0.566506
O O12 0.416599 0.000000 0.484442
O O13 0.927204 0.224424 0.363502
O O14 0.139387 0.259462 0.297424
O O15 0.031023 0.000000 0.353032
O O16 0.842135 0.000000 0.361543
O O17 0.229840 0.164481 0.829147
O O18 0.353066 0.000000 0.822124
O O19 0.004803 0.500000 0.125061
O O20 0.867959 0.267194 0.194525
O O21 0.731148 0.500000 0.758147
#
# Coordination Sequence:
#
# PCOD9225084 Si02
#       8
#     8   8   8   8   8   8   8   8
#     4  11  23  41  64  89 126 169 207 254 315 370
#     4  10  20  40  65  90 121 163 209 257 312 373
#     4  10  22  40  62  90 123 165 211 252 303 371
#     4  11  22  39  62  92 126 160 205 260 310 363
#     4   9  20  39  62  89 122 161 206 252 302 364
#     4  10  21  39  65  93 123 157 208 263 307 368
#     4  12  26  41  60  93 129 162 206 258 313 372
#     4  11  22  40  65  92 122 163 209 255 311 373
#
# _framework density 10.243449
#
# number of rings (size 3 to 8) (size 9 to 14) (size 15 to 20)
#    0.000    1.500    2.500    2.625    1.750    2.000 
#    0.000    1.875    0.000    0.000    0.000    0.000 
#    0.000    0.000    0.000    0.000    0.000    0.000 
#
# Total GULP energy -178680.206573 kJ/mol
# GULP energy per Si atom -5583.756455 kJ/mol
# Density = 1.022013 g / cm^3
# Si number density = 10.243449 Si / 1000 Ang^3
#
#
#
# Elastic Constant Matrix: (Units=GPa)
#
#
# Indices 1 2 3 4 5 6 
#
# 1 53.5815 21.6192 28.3345 0.0000 4.4865 0.0000
# 2 21.6192 70.9450 42.5805 0.0001 10.1605 -0.0005
# 3 28.3345 42.5805 108.4652 0.0000 10.1782 0.0000
# 4 0.0000 0.0001 0.0000 26.7189 0.0000 -4.4416
# 5 4.4865 10.1605 10.1782 0.0000 31.8304 0.0000
# 6 0.0000 -0.0005 0.0000 -4.4416 0.0000 18.5176
#
#
#
# Elastic Compliance Matrix: (Units=1/GPa)
#
#
# Indices 1 2 3 4 5 6 
#
# 1 0.022658 -0.004331 -0.004174 0.000000 -0.000476 0.000000
# 2 -0.004331 0.019697 -0.006256 0.000000 -0.003676 0.000001
# 3 -0.004174 -0.006256 0.012911 0.000000 -0.001543 0.000000
# 4 0.000000 0.000000 0.000000 0.038981 0.000000 0.009350
# 5 -0.000476 -0.003676 -0.001543 0.000000 0.033151 0.000000
# 6 0.000000 0.000001 0.000000 0.009350 0.000000 0.056245
#
#
# Mechanical properties :
#
#
# Convention : Reuss Voigt Hill
#
# Bulk Modulus (GPa) = 38.84558 46.45112 42.64835
# Shear Modulus (GPa) = 22.54843 24.77721 23.66282
#
# Velocity S-wave (km/s) = 3.32117 3.48144 3.40225
# Velocity P-wave (km/s) = 5.80596 6.23565 6.02464
#
# Compressibility (1/GPa) = 0.02574295
#
# Stress axis : x y z
#
# Youngs Moduli (GPa) = 44.13481 50.77038 77.45575
#
# Poissons Ratio (x) = 0.21990 0.32330
# Poissons Ratio (y) = 0.19116 0.48455
# Poissons Ratio (z) = 0.18422 0.31761
#
# Static dielectric constant tensor:
#      x y z
#    x 1.796710 0.000000 -0.004560 
#    y 0.000000 1.698330 0.000000 
#    z -0.004560 0.000000 1.707140 
# 
# From -- ./inp_files/378245.got.cif
#   From: 2010.05.17/outbox.ucp.g08.bks.cvg/sg12_190_cif.got.tgz:378245.got - 2010.06.11 11:47:21.
