data_PCOD9225180
_publ_section_title
;
Structure prediction by ZEFSAII (Michael W. Deem and Ramdas Pophale) SiO2 
 PCOD9225180
Probable space group: C 2/M
;
_chemical_formula_sum "Si O2"
_cell_formula_units_Z 20
_cell_length_a 24.000000
_cell_length_b 9.000000
_cell_length_c 9.000000
_cell_angle_alpha 90.000000
_cell_angle_beta 90.000000
_cell_angle_gamma 90.000000
_cell_volume 1944.000000
_symmetry_space_group_name_H-M "C 2/M"
_symmetry_group_IT_number 12
_symmetry_cell_setting 'monoclinic'
loop_
_space_group_symop_operation_xyz
x,y,z
-x,y,-z
-x,-y,-z
x,-y,z
1/2+x,1/2+y,z
1/2-x,1/2+y,-z
1/2-x,1/2-y,-z
1/2+x,1/2-y,z
loop_
_atom_site_type_symbol
_atom_site_label
_atom_site_fract_x
_atom_site_fract_y
_atom_site_fract_z
Si Si1 0.712305 0.677011 0.803189
Si Si2 0.831055 0.677350 0.896368
Si Si3 0.979896 0.176363 0.162035
Si Si4 0.074986 0.322971 0.325555
Si Si5 0.384582 0.324475 0.377502
O O1 0.705916 0.500000 0.824612
O O2 0.777245 0.709692 0.795207
O O3 0.678495 0.717981 0.657699
O O4 0.685646 0.753768 0.946953
O O5 0.836473 0.500000 0.915560
O O6 0.884549 0.732697 0.807452
O O7 0.015614 0.258316 0.285520
O O8 0.917609 0.199476 0.221811
O O9 0.990656 0.000000 0.165521
O O10 0.000000 0.230560 0.000000
O O11 0.075123 0.500000 0.323083
O O12 0.093319 0.265952 0.484766
O O13 0.389717 0.500000 0.411063
#
# Coordination Sequence:
#
# PCOD9225180 Si02
#       5
#     8   8   8   8   8
#     4   9  18  35  58  80 103 136 178 220 261 306
#     4   9  19  35  54  79 109 138 173 217 261 309
#     4  10  21  38  59  80 102 133 177 223 262 306
#     4  11  23  36  52  78 112 144 172 209 261 317
#     4  10  21  36  55  79 106 137 176 220 261 306
#
# _framework density 10.288066000000001
#
# number of rings (size 3 to 8) (size 9 to 14) (size 15 to 20)
#    0.000    2.200    0.000    2.400    0.000    8.400 
#    0.000    0.000    0.000    0.000    0.000    0.000 
#    0.000    0.000    0.000    0.000    0.000    0.000 
#
# Total GULP energy -111489.260418 kJ/mol
# GULP energy per Si atom -5574.463021 kJ/mol
# Density = 1.026465 g / cm^3
# Si number density = 10.288066 Si / 1000 Ang^3
#
#
#
# Elastic Constant Matrix: (Units=GPa)
#
#
# Indices 1 2 3 4 5 6 
#
# 1 64.2621 29.4651 -1.7238 0.0000 19.3253 0.0000
# 2 29.4651 -29.4754 -18.6193 0.0000 10.9720 0.0000
# 3 -1.7238 -18.6193 1.7532 0.0000 15.7351 0.0000
# 4 0.0000 0.0000 0.0000 25.5714 0.0000 -6.0912
# 5 19.3253 10.9720 15.7351 0.0000 32.6327 0.0000
# 6 0.0000 0.0000 0.0000 -6.0912 0.0000 11.7790
#
#
#
# Elastic Compliance Matrix: (Units=1/GPa)
#
#
# Indices 1 2 3 4 5 6 
#
# 1 0.520359 -0.547615 1.259425 0.000000 -0.731315 0.000000
# 2 -0.547615 0.591723 -1.388611 0.000000 0.794917 0.000000
# 3 1.259425 -1.388611 3.135874 0.000000 -1.791027 0.000000
# 4 0.000000 0.000000 0.000000 0.044600 0.000000 0.023064
# 5 -0.731315 0.794917 -1.791027 0.000000 1.060070 0.000000
# 6 0.000000 0.000000 0.000000 0.023064 0.000000 0.096823
#
#
# Mechanical properties :
#
#
# Convention : Reuss Voigt Hill
#
# Bulk Modulus (GPa) = 0.34550 6.08711 3.21630
# Shear Modulus (GPa) = 0.64368 15.82449 8.23409
#
# Velocity S-wave (km/s) = 0.55992 2.77622 2.00261
# Velocity P-wave (km/s) = 0.76569 3.63886 2.62941
#
# Compressibility (1/GPa) = 2.89435520
#
# Stress axis : x y z
#
# Youngs Moduli (GPa) = 1.92175 1.68998 0.31889
#
# Poissons Ratio (x) = 0.92546 -0.40162
# Poissons Ratio (y) = 1.05238 0.44281
# Poissons Ratio (z) = -2.42030 2.34672
#
# Static dielectric constant tensor:
#      x y z
#    x 1.812470 0.000000 0.015510 
#    y 0.000000 1.682060 0.000000 
#    z 0.015510 0.000000 1.696040 
# 
# From -- ./inp_files/92731.got.cif
#   From: 2010.05.17/outbox.ucp.g08.bks.cvg/sg12_47_cif.got.tgz:92731.got - 2010.06.11 11:47:21.
