data_PCOD9225503
_publ_section_title
;
Structure prediction by ZEFSAII (Michael W. Deem and Ramdas Pophale) SiO2 
 PCOD9225503
Probable space group: C 2/M
;
_chemical_formula_sum "Si O2"
_cell_formula_units_Z 28
_cell_length_a 18.000000
_cell_length_b 9.000000
_cell_length_c 27.000000
_cell_angle_alpha 90.000000
_cell_angle_beta 40.000000
_cell_angle_gamma 90.000000
_cell_volume 2811.553005
_symmetry_space_group_name_H-M "C 2/M"
_symmetry_group_IT_number 12
_symmetry_cell_setting 'monoclinic'
loop_
_space_group_symop_operation_xyz
x,y,z
-x,y,-z
-x,-y,-z
x,-y,z
1/2+x,1/2+y,z
1/2-x,1/2+y,-z
1/2-x,1/2-y,-z
1/2+x,1/2-y,z
loop_
_atom_site_type_symbol
_atom_site_label
_atom_site_fract_x
_atom_site_fract_y
_atom_site_fract_z
Si Si1 0.540846 0.825960 0.287230
Si Si2 0.679293 0.836929 0.318492
Si Si3 0.600086 0.666662 0.858483
Si Si4 0.160705 0.824833 0.009307
Si Si5 0.636888 0.332850 0.432476
Si Si6 0.762613 0.674600 0.129351
Si Si7 0.204396 0.175251 0.573316
O O1 0.592933 0.817943 0.316378
O O2 0.638500 0.748408 0.204097
O O3 0.417973 0.746221 0.348808
O O4 0.530307 0.000000 0.279976
O O5 0.808452 0.841795 0.231949
O O6 0.673554 0.701322 0.358217
O O7 0.652838 0.000000 0.354687
O O8 0.599953 0.500000 0.882454
O O9 0.652144 0.785809 0.869186
O O10 0.471451 0.699196 0.907389
O O11 0.180006 0.750706 0.946792
O O12 0.181309 0.000000 0.996098
O O13 0.250000 0.750000 0.000000
O O14 0.500000 0.315198 0.500000
O O15 0.665351 0.500000 0.434376
O O16 0.700528 0.216301 0.434505
O O17 0.749253 0.500000 0.129638
O O18 0.250000 0.250000 0.500000
O O19 0.191903 0.000000 0.573289
#
# Coordination Sequence:
#
# PCOD9225503 Si02
#       7
#     8   8   8   8   8   8   8
#     4  10  21  40  64  89 119 154 194 239 290 347
#     4   9  19  37  61  87 114 147 190 241 295 347
#     4   9  20  39  61  84 114 154 196 240 292 349
#     4  11  23  39  58  82 117 157 198 245 297 350
#     4  11  24  40  59  85 118 156 198 241 287 343
#     4  11  22  37  60  89 119 152 194 241 291 350
#     4  12  25  41  62  88 120 156 196 241 291 346
#
# _framework density 9.9589090000000002
#
# number of rings (size 3 to 8) (size 9 to 14) (size 15 to 20)
#    0.000    1.571    0.000    6.000    0.000   10.286 
#    0.000    4.286    0.000    0.000    0.000    0.000 
#    0.000    0.000    0.000    0.000    0.000    0.000 
#
# Total GULP energy -156336.845443 kJ/mol
# GULP energy per Si atom -5583.458766 kJ/mol
# Density = 0.993624 g / cm^3
# Si number density = 9.958909 Si / 1000 Ang^3
#
#
#
# Elastic Constant Matrix: (Units=GPa)
#
#
# Indices 1 2 3 4 5 6 
#
# 1 14.9545 41.4250 46.6826 0.0000 -20.9723 0.0002
# 2 41.4250 115.4107 43.3515 0.0000 -25.7129 0.0005
# 3 46.6826 43.3515 24.9604 0.0000 -6.1908 0.0000
# 4 0.0000 0.0000 0.0000 11.2228 0.0000 6.1571
# 5 -20.9723 -25.7129 -6.1908 0.0000 13.9350 0.0000
# 6 0.0002 0.0005 0.0000 6.1571 0.0000 32.4474
#
#
#
# Elastic Compliance Matrix: (Units=1/GPa)
#
#
# Indices 1 2 3 4 5 6 
#
# 1 -0.005069 -0.011712 0.025364 0.000000 -0.017971 0.000000
# 2 -0.011712 0.018255 -0.006538 0.000000 0.013152 0.000000
# 3 0.025364 -0.006538 0.011752 0.000000 0.031330 0.000000
# 4 0.000000 0.000000 0.000000 0.099459 0.000000 -0.018873
# 5 -0.017971 0.013152 0.031330 0.000000 0.082902 0.000000
# 6 0.000000 0.000000 0.000000 -0.018873 0.000000 0.034400
#
#
# Mechanical properties :
#
#
# Convention : Reuss Voigt Hill
#
# Bulk Modulus (GPa) = 25.53255 46.47152 36.00203
# Shear Modulus (GPa) = 20.78776 13.11213 16.94994
#
# Velocity S-wave (km/s) = 3.23410 2.56854 2.92034
# Velocity P-wave (km/s) = 5.17616 5.67264 5.43008
#
# Compressibility (1/GPa) = 0.03916570
#
# Stress axis : x y z
#
# Youngs Moduli (GPa) = -197.28585 54.78021 85.09392
#
# Poissons Ratio (x) = 0.64159 -2.15835
# Poissons Ratio (y) = -2.31063 0.55637
# Poissons Ratio (z) = 5.00402 0.35817
#
# Static dielectric constant tensor:
#      x y z
#    x 1.703380 0.000000 0.018500 
#    y 0.000000 1.671490 0.000000 
#    z 0.018500 0.000000 1.690900 
# 
# From -- ./inp_files/363006.got.cif
#   From: 2010.05.17/outbox.ucp.g08.bks.cvg/sg12_182_cif.got.tgz:363006.got - 2010.06.11 11:47:21.
