data_PCOD9225262
_publ_section_title
;
Structure prediction by ZEFSAII (Michael W. Deem and Ramdas Pophale) SiO2 
 PCOD9225262
Probable space group: C 2/M
;
_chemical_formula_sum "Si O2"
_cell_formula_units_Z 32
_cell_length_a 30.000000
_cell_length_b 9.000000
_cell_length_c 18.000000
_cell_angle_alpha 90.000000
_cell_angle_beta 140.000000
_cell_angle_gamma 90.000000
_cell_volume 3123.947783
_symmetry_space_group_name_H-M "C 2/M"
_symmetry_group_IT_number 12
_symmetry_cell_setting 'monoclinic'
loop_
_space_group_symop_operation_xyz
x,y,z
-x,y,-z
-x,-y,-z
x,-y,z
1/2+x,1/2+y,z
1/2-x,1/2+y,-z
1/2-x,1/2-y,-z
1/2+x,1/2-y,z
loop_
_atom_site_type_symbol
_atom_site_label
_atom_site_fract_x
_atom_site_fract_y
_atom_site_fract_z
Si Si1 0.793229 0.176925 0.296835
Si Si2 0.656616 0.831461 0.379069
Si Si3 0.174772 0.822422 0.053155
Si Si4 0.581197 0.179043 0.616345
Si Si5 0.019991 0.322146 0.253770
Si Si6 0.724127 0.665592 0.347027
Si Si7 0.109419 0.680215 0.822446
Si Si8 0.035196 0.822208 0.965453
O O1 0.743972 0.244822 0.170078
O O2 0.869246 0.243606 0.380096
O O3 0.758570 0.234733 0.328562
O O4 0.793843 0.000000 0.295204
O O5 0.598634 0.774152 0.361626
O O6 0.659836 0.737084 0.308018
O O7 0.723417 0.842632 0.516411
O O8 0.640972 0.000000 0.335505
O O9 0.182471 0.000000 0.055736
O O10 0.154521 0.754846 0.946251
O O11 0.116226 0.796269 0.043840
O O12 0.500000 0.216568 0.500000
O O13 0.610427 0.218506 0.736397
O O14 0.586628 0.000000 0.616112
O O15 0.015557 0.500000 0.250315
O O16 0.967374 0.271653 0.248781
O O17 0.000345 0.264480 0.147464
O O18 0.710077 0.500000 0.300355
O O19 0.118143 0.500000 0.838617
O O20 0.024869 0.000000 0.945339
O O21 0.000000 0.779979 0.000000
#
# Coordination Sequence:
#
# PCOD9225262 Si02
#       8
#     8   8   8   8   8   8   8   8
#     4  12  26  42  62  90 126 161 203 259 314 364
#     4   9  19  35  56  84 118 157 202 247 296 356
#     4  10  21  39  62  88 121 162 207 251 305 367
#     4  10  23  43  70  97 122 158 204 248 306 376
#     4   9  18  32  54  84 114 151 193 237 292 352
#     4  10  21  37  58  82 118 160 204 249 298 361
#     4   9  19  38  63  91 122 156 199 251 303 361
#     4   9  19  34  52  80 116 153 197 246 294 347
#
# _framework density 10.243449
#
# number of rings (size 3 to 8) (size 9 to 14) (size 15 to 20)
#    0.000    2.250    0.000    1.875    3.500    3.000 
#    0.000    0.000    0.000    0.000    0.000    0.000 
#    0.000    0.000    0.000    0.000    0.000    0.000 
#
# Total GULP energy -178226.896696 kJ/mol
# GULP energy per Si atom -5569.590522 kJ/mol
# Density = 1.022013 g / cm^3
# Si number density = 10.243449 Si / 1000 Ang^3
#
#
#
# Elastic Constant Matrix: (Units=GPa)
#
#
# Indices 1 2 3 4 5 6 
#
# 1 71.3392 30.5207 25.7004 0.0000 -4.4016 0.0000
# 2 30.5207 52.8605 26.2681 0.0000 5.3546 0.0000
# 3 25.7004 26.2681 36.8913 0.0000 5.8020 0.0000
# 4 0.0000 0.0000 0.0000 24.5658 0.0000 -4.8170
# 5 -4.4016 5.3546 5.8020 0.0000 30.9417 0.0000
# 6 0.0000 0.0000 0.0000 -4.8170 0.0000 30.5555
#
#
#
# Elastic Compliance Matrix: (Units=1/GPa)
#
#
# Indices 1 2 3 4 5 6 
#
# 1 0.021537 -0.007934 -0.010357 0.000000 0.006379 0.000000
# 2 -0.007934 0.032243 -0.016873 0.000000 -0.003544 0.000000
# 3 -0.010357 -0.016873 0.047510 0.000000 -0.007462 0.000000
# 4 0.000000 0.000000 0.000000 0.042006 0.000000 0.006622
# 5 0.006379 -0.003544 -0.007462 0.000000 0.035239 0.000000
# 6 0.000000 0.000000 0.000000 0.006622 0.000000 0.033771
#
#
# Mechanical properties :
#
#
# Convention : Reuss Voigt Hill
#
# Bulk Modulus (GPa) = 32.29979 36.22995 34.26487
# Shear Modulus (GPa) = 17.06740 22.45270 19.76005
#
# Velocity S-wave (km/s) = 2.88946 3.31411 3.10904
# Velocity P-wave (km/s) = 5.18963 5.68923 5.44516
#
# Compressibility (1/GPa) = 0.03095996
#
# Stress axis : x y z
#
# Youngs Moduli (GPa) = 46.43190 31.01470 21.04800
#
# Poissons Ratio (x) = 0.24608 0.21800
# Poissons Ratio (y) = 0.36840 0.35515
# Poissons Ratio (z) = 0.48092 0.52332
#
# Static dielectric constant tensor:
#      x y z
#    x 1.778000 0.000000 0.083900 
#    y 0.000000 1.734910 0.000000 
#    z 0.083900 0.000000 1.790910 
# 
# From -- ./inp_files/295756.got.cif
#   From: 2010.05.17/outbox.ucp.g08.bks.cvg/sg12_148_cif.got.tgz:295756.got - 2010.06.11 11:47:21.
