data_PCOD9225614
_publ_section_title
;
Structure prediction by ZEFSAII (Michael W. Deem and Ramdas Pophale) SiO2 
 PCOD9225614
Probable space group: C 2/M
;
_chemical_formula_sum "Si O2"
_cell_formula_units_Z 28
_cell_length_a 12.000000
_cell_length_b 27.000000
_cell_length_c 9.000000
_cell_angle_alpha 90.000000
_cell_angle_beta 110.000000
_cell_angle_gamma 90.000000
_cell_volume 2740.143682
_symmetry_space_group_name_H-M "C 2/M"
_symmetry_group_IT_number 12
_symmetry_cell_setting 'monoclinic'
loop_
_space_group_symop_operation_xyz
x,y,z
-x,y,-z
-x,-y,-z
x,-y,z
1/2+x,1/2+y,z
1/2-x,1/2+y,-z
1/2-x,1/2-y,-z
1/2+x,1/2-y,z
loop_
_atom_site_type_symbol
_atom_site_label
_atom_site_fract_x
_atom_site_fract_y
_atom_site_fract_z
Si Si1 0.096965 0.055387 0.643506
Si Si2 0.705540 0.627754 0.903701
Si Si3 0.439244 0.889563 0.826302
Si Si4 0.952625 0.697190 0.315026
Si Si5 0.729628 0.359043 0.253303
Si Si6 0.502897 0.703439 0.827671
Si Si7 0.317995 0.055892 0.520134
O O1 0.127014 0.083239 0.805616
O O2 0.209404 0.052478 0.586999
O O3 0.000000 0.082663 0.500000
O O4 0.054446 0.000000 0.659488
O O5 0.816125 0.629457 0.842118
O O6 0.628386 0.677052 0.859217
O O7 0.729478 0.618638 0.087428
O O8 0.507896 0.842865 0.789862
O O9 0.421889 0.925693 0.677991
O O10 0.500000 0.912753 0.000000
O O11 0.812552 0.689483 0.272550
O O12 0.000000 0.685070 0.500000
O O13 0.000452 0.749712 0.281534
O O14 0.601454 0.337284 0.239641
O O15 0.783747 0.400624 0.388270
O O16 0.500000 0.719106 0.000000
O O17 0.337552 0.000000 0.468729
#
# Coordination Sequence:
#
# PCOD9225614 Si02
#       7
#     8   8   8   8   8   8   8
#     4   9  18  35  61  90 123 164 208 258 315 373
#     4  10  22  39  64  90 126 163 212 257 314 373
#     4  11  22  41  65  88 126 167 211 259 309 372
#     4  12  25  41  64  90 125 166 214 255 321 369
#     4  11  23  42  63  93 132 164 210 262 313 372
#     4  10  25  41  63  93 126 167 210 258 316 372
#     4  10  22  40  64  93 128 165 207 260 317 373
#
# _framework density 10.218442
#
# number of rings (size 3 to 8) (size 9 to 14) (size 15 to 20)
#    0.000    1.571    2.857    1.286    2.000    5.429 
#    0.000    1.429    0.000    5.143    0.000    0.000 
#    0.000    0.000    0.000    0.000    0.000    0.000 
#
# Total GULP energy -156064.329882 kJ/mol
# GULP energy per Si atom -5573.726067 kJ/mol
# Density = 1.019518 g / cm^3
# Si number density = 10.218442 Si / 1000 Ang^3
#
#
#
# Elastic Constant Matrix: (Units=GPa)
#
#
# Indices 1 2 3 4 5 6 
#
# 1 54.4171 11.8413 5.3091 0.0000 3.8002 0.0000
# 2 11.8413 73.1961 43.5228 0.0000 -5.7676 0.0000
# 3 5.3091 43.5228 128.0446 0.0000 5.4934 0.0000
# 4 0.0000 0.0000 0.0000 42.3739 0.0000 22.3460
# 5 3.8002 -5.7676 5.4934 0.0000 19.1567 0.0000
# 6 0.0000 0.0000 0.0000 22.3460 0.0000 35.1527
#
#
#
# Elastic Compliance Matrix: (Units=1/GPa)
#
#
# Indices 1 2 3 4 5 6 
#
# 1 0.019554 -0.004057 0.000797 0.000000 -0.005329 0.000000
# 2 -0.004057 0.018918 -0.006622 0.000000 0.008400 0.000000
# 3 0.000797 -0.006622 0.010246 0.000000 -0.005090 0.000000
# 4 0.000000 0.000000 0.000000 0.035500 0.000000 -0.022567
# 5 -0.005329 0.008400 -0.005090 0.000000 0.057247 0.000000
# 6 0.000000 0.000000 0.000000 -0.022567 0.000000 0.042793
#
#
# Mechanical properties :
#
#
# Convention : Reuss Voigt Hill
#
# Bulk Modulus (GPa) = 34.53919 41.88935 38.21427
# Shear Modulus (GPa) = 23.40025 32.33565 27.86795
#
# Velocity S-wave (km/s) = 3.38746 3.98203 3.69672
# Velocity P-wave (km/s) = 5.67776 6.45628 6.07949
#
# Compressibility (1/GPa) = 0.02895262
#
# Stress axis : x y z
#
# Youngs Moduli (GPa) = 51.14093 52.86028 97.59831
#
# Poissons Ratio (x) = 0.21446 -0.07777
# Poissons Ratio (y) = 0.20748 0.64633
# Poissons Ratio (z) = -0.04075 0.35006
#
# Static dielectric constant tensor:
#      x y z
#    x 1.799350 0.000000 0.100670 
#    y 0.000000 1.714560 0.000000 
#    z 0.100670 0.000000 1.759620 
# 
# From -- ./inp_files/53165.got.cif
#   From: 2010.05.17/outbox.ucp.g08.bks.cvg/sg12_27_cif.got.tgz:53165.got - 2010.06.11 11:47:21.
