data_PCOD9225618
_publ_section_title
;
Structure prediction by ZEFSAII (Michael W. Deem and Ramdas Pophale) SiO2 
 PCOD9225618
Probable space group: C 2/M
;
_chemical_formula_sum "Si O2"
_cell_formula_units_Z 24
_cell_length_a 9.000000
_cell_length_b 18.000000
_cell_length_c 30.000000
_cell_angle_alpha 90.000000
_cell_angle_beta 30.000000
_cell_angle_gamma 90.000000
_cell_volume 2430.000000
_symmetry_space_group_name_H-M "C 2/M"
_symmetry_group_IT_number 12
_symmetry_cell_setting 'monoclinic'
loop_
_space_group_symop_operation_xyz
x,y,z
-x,y,-z
-x,-y,-z
x,-y,z
1/2+x,1/2+y,z
1/2-x,1/2+y,-z
1/2-x,1/2-y,-z
1/2+x,1/2-y,z
loop_
_atom_site_type_symbol
_atom_site_label
_atom_site_fract_x
_atom_site_fract_y
_atom_site_fract_z
Si Si1 0.773470 0.827791 0.518084
Si Si2 0.947783 0.672836 0.806248
Si Si3 0.795537 0.411776 0.339159
Si Si4 0.421329 0.912045 0.136498
Si Si5 0.210559 0.159077 0.722805
Si Si6 0.249976 0.328818 0.975058
O O1 0.750000 0.750000 0.500000
O O2 0.438758 0.843911 0.621590
O O3 0.000000 0.816029 0.500000
O O4 0.963929 0.888142 0.441020
O O5 0.155641 0.620156 0.722605
O O6 0.973496 0.640982 0.849849
O O7 0.078706 0.757594 0.767780
O O8 0.608520 0.663294 0.875254
O O9 0.830215 0.500000 0.333587
O O10 0.061428 0.372131 0.298745
O O11 0.630825 0.891073 0.040158
O O12 0.083495 0.889616 0.210291
O O13 0.439842 0.000000 0.142138
O O14 0.250000 0.250000 0.000000
O O15 0.000000 0.326497 0.000000
#
# Coordination Sequence:
#
# PCOD9225618 Si02
#       6
#     8   8   8   8   8   8
#     4  10  22  39  66  95 129 174 224 274 329 397
#     4  12  24  43  71  98 135 181 226 275 332 409
#     4  11  24  42  66  99 136 176 225 282 340 392
#     4  12  27  44  68 104 141 176 223 286 343 393
#     4  11  23  41  69  95 132 180 230 273 330 409
#     4  12  26  45  72 101 133 179 228 277 335 407
#
# _framework density 9.8765429999999999
#
# number of rings (size 3 to 8) (size 9 to 14) (size 15 to 20)
#    0.000    0.667    3.333    4.500    2.333    6.000 
#    0.000    0.000    0.000    2.500    0.000    0.000 
#    0.000    0.000    0.000    0.000    0.000    0.000 
#
# Total GULP energy -133948.129336 kJ/mol
# GULP energy per Si atom -5581.172056 kJ/mol
# Density = 0.985406 g / cm^3
# Si number density = 9.876543 Si / 1000 Ang^3
#
#
#
# Elastic Constant Matrix: (Units=GPa)
#
#
# Indices 1 2 3 4 5 6 
#
# 1 70.9237 28.1395 24.5216 -0.0952 0.4308 0.0292
# 2 28.1395 138.2919 61.6098 0.0493 -2.4960 0.0029
# 3 24.5216 61.6098 136.2659 -0.1885 -10.4246 0.1230
# 4 -0.0952 0.0493 -0.1885 34.3787 0.1299 -4.9816
# 5 0.4308 -2.4960 -10.4246 0.1299 37.7430 -0.0319
# 6 0.0292 0.0029 0.1230 -4.9816 -0.0319 24.8210
#
#
#
# Elastic Compliance Matrix: (Units=1/GPa)
#
#
# Indices 1 2 3 4 5 6 
#
# 1 0.015681 -0.002405 -0.001798 0.000040 -0.000835 -0.000002
# 2 -0.002405 0.009435 -0.003865 -0.000038 -0.000416 0.000013
# 3 -0.001798 -0.003865 0.009594 0.000039 0.002415 -0.000034
# 4 0.000040 -0.000038 0.000039 0.029960 -0.000090 0.006013
# 5 -0.000835 -0.000416 0.002415 -0.000090 0.027144 0.000006
# 6 -0.000002 0.000013 -0.000034 0.006013 0.000006 0.041495
#
#
# Mechanical properties :
#
#
# Convention : Reuss Voigt Hill
#
# Bulk Modulus (GPa) = 53.83853 63.78034 58.80944
# Shear Modulus (GPa) = 32.12618 34.80257 33.46438
#
# Velocity S-wave (km/s) = 4.03723 4.20203 4.12045
# Velocity P-wave (km/s) = 7.00337 7.47674 7.24392
#
# Compressibility (1/GPa) = 0.01857406
#
# Stress axis : x y z
#
# Youngs Moduli (GPa) = 63.77303 105.99189 104.22668
#
# Poissons Ratio (x) = 0.25486 0.18745
# Poissons Ratio (y) = 0.15334 0.40282
# Poissons Ratio (z) = 0.11469 0.40965
#
# Static dielectric constant tensor:
#      x y z
#    x 1.705550 -0.000010 0.056620 
#    y -0.000010 1.632410 0.000000 
#    z 0.056620 0.000000 1.769700 
# 
# From -- ./inp_files/372853.got.cif
#   From: 2010.05.17/outbox.ucp.g08.bks.cvg/sg12_187_cif.got.tgz:372853.got - 2010.06.11 11:47:21.
