data_PCOD9225335
_publ_section_title
;
Structure prediction by ZEFSAII (Michael W. Deem and Ramdas Pophale) SiO2 
 PCOD9225335
Probable space group: C 2/M
;
_chemical_formula_sum "Si O2"
_cell_formula_units_Z 28
_cell_length_a 18.000000
_cell_length_b 9.000000
_cell_length_c 27.000000
_cell_angle_alpha 90.000000
_cell_angle_beta 140.000000
_cell_angle_gamma 90.000000
_cell_volume 2811.553005
_symmetry_space_group_name_H-M "C 2/M"
_symmetry_group_IT_number 12
_symmetry_cell_setting 'monoclinic'
loop_
_space_group_symop_operation_xyz
x,y,z
-x,y,-z
-x,-y,-z
x,-y,z
1/2+x,1/2+y,z
1/2-x,1/2+y,-z
1/2-x,1/2-y,-z
1/2+x,1/2-y,z
loop_
_atom_site_type_symbol
_atom_site_label
_atom_site_fract_x
_atom_site_fract_y
_atom_site_fract_z
Si Si1 0.514573 0.676112 0.875063
Si Si2 0.284835 0.673948 0.420900
Si Si3 0.052391 0.319425 0.344864
Si Si4 0.873271 0.178301 0.175302
Si Si5 0.219557 0.173450 0.293084
Si Si6 0.109155 0.320768 0.021721
Si Si7 0.504258 0.174132 0.574718
O O1 0.524201 0.500000 0.889931
O O2 0.575005 0.706398 0.853107
O O3 0.377061 0.709898 0.797332
O O4 0.578108 0.762237 0.951262
O O5 0.305539 0.500000 0.434027
O O6 0.187314 0.723371 0.409461
O O7 0.212096 0.714045 0.334530
O O8 0.408967 0.750779 0.490433
O O9 0.046209 0.500000 0.338271
O O10 0.021303 0.269176 0.383676
O O11 0.959739 0.253353 0.258882
O O12 0.876022 0.000000 0.184847
O O13 0.737605 0.226713 0.105888
O O14 0.356705 0.185052 0.354739
O O15 0.196000 0.000000 0.295198
O O16 0.111745 0.500000 0.022189
O O17 0.000000 0.273935 0.000000
O O18 0.478587 0.000000 0.556566
#
# Coordination Sequence:
#
# PCOD9225335 Si02
#       7
#     8   8   8   8   8   8   8
#     4  10  21  38  61  87 112 149 197 233 271 331
#     4  11  22  37  57  85 115 147 191 238 286 338
#     4  10  22  38  58  85 114 148 192 238 283 333
#     4  10  21  39  61  84 114 152 191 230 278 337
#     4  10  21  38  59  83 114 151 192 236 280 332
#     4  10  23  40  59  88 122 150 180 227 287 342
#     4  10  22  38  57  81 114 154 192 235 285 333
#
# _framework density 9.9589090000000002
#
# number of rings (size 3 to 8) (size 9 to 14) (size 15 to 20)
#    0.000    1.857    1.429    1.714    2.000    5.429 
#    0.000    0.000    0.000    0.000    0.000    0.000 
#    0.000    0.000    0.000    0.000    0.000    0.000 
#
# Total GULP energy -155974.630828 kJ/mol
# GULP energy per Si atom -5570.522530 kJ/mol
# Density = 0.993624 g / cm^3
# Si number density = 9.958909 Si / 1000 Ang^3
#
#
#
# Elastic Constant Matrix: (Units=GPa)
#
#
# Indices 1 2 3 4 5 6 
#
# 1 43.6507 15.1634 25.4876 0.0000 16.7575 0.0000
# 2 15.1634 -1.8740 11.3953 0.0000 21.4450 0.0000
# 3 25.4876 11.3953 122.4031 0.0000 38.1449 0.0000
# 4 0.0000 0.0000 0.0000 0.4745 0.0000 -3.4298
# 5 16.7575 21.4450 38.1449 0.0000 25.7729 0.0000
# 6 0.0000 0.0000 0.0000 -3.4298 0.0000 12.7838
#
#
#
# Elastic Compliance Matrix: (Units=1/GPa)
#
#
# Indices 1 2 3 4 5 6 
#
# 1 0.030463 0.001678 0.000201 0.000000 -0.021500 0.000000
# 2 0.001678 -0.038379 -0.011857 0.000000 0.048391 0.000000
# 3 0.000201 -0.011857 0.011504 0.000000 -0.007291 0.000000
# 4 0.000000 0.000000 0.000000 -2.243592 0.000000 -0.601935
# 5 -0.021500 0.048391 -0.007291 0.000000 0.023305 0.000000
# 6 0.000000 0.000000 0.000000 -0.601935 0.000000 -0.083269
#
#
# Mechanical properties :
#
#
# Convention : Reuss Voigt Hill
#
# Bulk Modulus (GPa) = -61.09251 29.80804 -15.64224
# Shear Modulus (GPa) = -2.18774 15.28179 6.54703
#
# Velocity S-wave (km/s) = -1.04917 2.77292 1.81498
# Velocity P-wave (km/s) = 5.67508 5.02495 1.86500
#
# Compressibility (1/GPa) = -0.01636862
#
# Stress axis : x y z
#
# Youngs Moduli (GPa) = 32.82662 -26.05622 86.92734
#
# Poissons Ratio (x) = 0.04371 -0.01745
# Poissons Ratio (y) = -0.05507 1.03068
# Poissons Ratio (z) = -0.00659 -0.30894
#
# Static dielectric constant tensor:
#      x y z
#    x 1.950330 0.000000 -0.013570 
#    y 0.000000 1.676480 0.000000 
#    z -0.013570 0.000000 1.655840 
# 
# From -- ./inp_files/275699.got.cif
#   From: 2010.05.17/outbox.ucp.g08.bks.cvg/sg12_138_cif.got.tgz:275699.got - 2010.06.11 11:47:21.
