data_PCOD9225380
_publ_section_title
;
Structure prediction by ZEFSAII (Michael W. Deem and Ramdas Pophale) SiO2 
 PCOD9225380
Probable space group: C 2/M
;
_chemical_formula_sum "Si O2"
_cell_formula_units_Z 24
_cell_length_a 15.000000
_cell_length_b 9.000000
_cell_length_c 27.000000
_cell_angle_alpha 90.000000
_cell_angle_beta 40.000000
_cell_angle_gamma 90.000000
_cell_volume 2342.960837
_symmetry_space_group_name_H-M "C 2/M"
_symmetry_group_IT_number 12
_symmetry_cell_setting 'monoclinic'
loop_
_space_group_symop_operation_xyz
x,y,z
-x,y,-z
-x,-y,-z
x,-y,z
1/2+x,1/2+y,z
1/2-x,1/2+y,-z
1/2-x,1/2-y,-z
1/2+x,1/2-y,z
loop_
_atom_site_type_symbol
_atom_site_label
_atom_site_fract_x
_atom_site_fract_y
_atom_site_fract_z
Si Si1 0.916524 0.670689 0.882975
Si Si2 0.088333 0.178554 0.313341
Si Si3 0.592736 0.673500 0.008769
Si Si4 0.327188 0.674554 0.263980
Si Si5 0.644663 0.177742 0.645852
Si Si6 0.575477 0.679964 0.517877
O O1 0.964379 0.500000 0.855740
O O2 0.759024 0.679146 0.930353
O O3 0.013808 0.787031 0.814217
O O4 0.926815 0.717616 0.936277
O O5 0.235548 0.256787 0.258718
O O6 0.997908 0.241238 0.306843
O O7 0.002083 0.225259 0.399418
O O8 0.100416 0.000000 0.306224
O O9 0.560447 0.500000 0.035945
O O10 0.500000 0.709553 0.000000
O O11 0.302072 0.500000 0.280306
O O12 0.296645 0.765967 0.326871
O O13 0.763292 0.219954 0.555653
O O14 0.627325 0.000000 0.653950
O O15 0.500000 0.733862 0.500000
O O16 0.569374 0.500000 0.519581
#
# Coordination Sequence:
#
# PCOD9225380 Si02
#       6
#     8   8   8   8   8   8
#     4  10  21  38  61  89 121 156 193 239 293 344
#     4  11  22  39  61  86 117 153 199 250 305 362
#     4   9  19  38  64  92 121 153 191 234 283 345
#     4  12  25  41  59  84 120 161 204 248 297 351
#     4  11  22  39  61  86 118 155 198 247 305 362
#     4   9  17  34  60  85 112 151 195 248 303 357
#
# _framework density 10.243449
#
# number of rings (size 3 to 8) (size 9 to 14) (size 15 to 20)
#    0.000    1.667    1.667    3.500    0.000    2.333 
#    0.000    8.333    0.000    0.000    0.000    0.000 
#    0.000    0.000    0.000    0.000    0.000    0.000 
#
# Total GULP energy -133994.542720 kJ/mol
# GULP energy per Si atom -5583.105947 kJ/mol
# Density = 1.022013 g / cm^3
# Si number density = 10.243449 Si / 1000 Ang^3
#
#
#
# Elastic Constant Matrix: (Units=GPa)
#
#
# Indices 1 2 3 4 5 6 
#
# 1 125.9567 23.6469 1.6965 0.0000 -14.2945 0.0000
# 2 23.6469 74.6175 5.1689 0.0000 -11.6599 0.0000
# 3 1.6965 5.1689 34.5806 0.0000 -7.1912 0.0000
# 4 0.0000 0.0000 0.0000 23.1418 0.0000 0.5123
# 5 -14.2945 -11.6599 -7.1912 0.0000 12.6589 0.0000
# 6 0.0000 0.0000 0.0000 0.5123 0.0000 30.7339
#
#
#
# Elastic Compliance Matrix: (Units=1/GPa)
#
#
# Indices 1 2 3 4 5 6 
#
# 1 0.009360 -0.001492 0.001900 0.000000 0.010274 0.000000
# 2 -0.001492 0.015910 0.000445 0.000000 0.013222 0.000000
# 3 0.001900 0.000445 0.033213 0.000000 0.021423 0.000000
# 4 0.000000 0.000000 0.000000 0.043228 0.000000 -0.000721
# 5 0.010274 0.013222 0.021423 0.000000 0.114946 0.000000
# 6 0.000000 0.000000 0.000000 -0.000721 0.000000 0.032549
#
#
# Mechanical properties :
#
#
# Convention : Reuss Voigt Hill
#
# Bulk Modulus (GPa) = 16.61452 32.90882 24.76167
# Shear Modulus (GPa) = 18.68718 26.94976 22.81847
#
# Velocity S-wave (km/s) = 3.02346 3.63087 3.34100
# Velocity P-wave (km/s) = 4.50731 5.80309 5.19575
#
# Compressibility (1/GPa) = 0.06018833
#
# Stress axis : x y z
#
# Youngs Moduli (GPa) = 106.84004 62.85389 30.10841
#
# Poissons Ratio (x) = 0.09380 -0.05722
# Poissons Ratio (y) = 0.15945 -0.01339
# Poissons Ratio (z) = -0.20304 -0.02795
#
# Static dielectric constant tensor:
#      x y z
#    x 1.722830 0.000000 -0.012280 
#    y 0.000000 1.679320 0.000000 
#    z -0.012280 0.000000 1.812950 
# 
# From -- ./inp_files/308306.got.cif
#   From: 2010.05.17/outbox.ucp.g08.bks.cvg/sg12_155_cif.got.tgz:308306.got - 2010.06.11 11:47:21.
