data_PCOD9225011
_publ_section_title
;
Structure prediction by ZEFSAII (Michael W. Deem and Ramdas Pophale) SiO2 
 PCOD9225011
Probable space group: C 2/M
;
_chemical_formula_sum "Si O2"
_cell_formula_units_Z 19
_cell_length_a 18.000000
_cell_length_b 15.000000
_cell_length_c 21.000000
_cell_angle_alpha 90.000000
_cell_angle_beta 20.000000
_cell_angle_gamma 90.000000
_cell_volume 1939.254213
_symmetry_space_group_name_H-M "C 2/M"
_symmetry_group_IT_number 12
_symmetry_cell_setting 'monoclinic'
loop_
_space_group_symop_operation_xyz
x,y,z
-x,y,-z
-x,-y,-z
x,-y,z
1/2+x,1/2+y,z
1/2-x,1/2+y,-z
1/2-x,1/2-y,-z
1/2+x,1/2-y,z
loop_
_atom_site_type_symbol
_atom_site_label
_atom_site_fract_x
_atom_site_fract_y
_atom_site_fract_z
Si Si1 0.000000 0.000000 0.000000
Si Si2 0.931917 0.808025 0.481383
Si Si3 0.019858 0.000000 0.619142
Si Si4 0.260258 0.500000 0.426394
Si Si5 0.247041 0.500000 0.957285
Si Si6 0.395569 0.862702 0.721663
Si Si7 0.061244 0.322553 0.163342
O O1 0.815102 0.921245 0.128677
O O2 0.678485 0.790063 0.665683
O O3 0.000000 0.801028 0.500000
O O4 0.083549 0.735879 0.323959
O O5 0.968549 0.909423 0.429159
O O6 0.208971 0.000000 0.521351
O O7 0.806945 0.000000 0.834859
O O8 0.512459 0.500000 0.201683
O O9 0.113947 0.416317 0.524347
O O10 0.119707 0.411674 0.077728
O O11 0.421326 0.849997 0.776690
O O12 0.250000 0.250000 0.000000
#
# Coordination Sequence:
#
# PCOD9225011 Si02
#       7
#     2   8   4   4   4   8   8
#     4  10  26  44  72  98 134 170 224 304 334 408
#     4  12  26  44  67 100 143 188 230 279 348 416
#     4  10  21  44  65  96 134 183 224 283 337 400
#     4   9  19  41  69  92 129 181 224 280 343 409
#     4  10  20  38  67 103 123 167 239 281 333 390
#     4  11  23  46  67  97 139 181 227 282 360 405
#     4  12  23  39  70  99 132 180 232 284 335 418
#
# _framework density 9.7975809999999992
#
# number of rings (size 3 to 8) (size 9 to 14) (size 15 to 20)
#    0.632    0.421    2.105    5.368    2.947    0.000 
#    3.789    2.105    0.000    0.000    0.000    0.000 
#    0.000    0.000    0.000    0.000    0.000    0.000 
#
# Total GULP energy -105767.782121 kJ/mol
# GULP energy per Si atom -5566.725375 kJ/mol
# Density = 0.977528 g / cm^3
# Si number density = 9.797581 Si / 1000 Ang^3
#
#
#
# Elastic Constant Matrix: (Units=GPa)
#
#
# Indices 1 2 3 4 5 6 
#
# 1 101.0715 18.9735 46.8408 -0.0008 -21.3927 0.0026
# 2 18.9735 121.8392 43.2527 0.0387 -5.7989 0.0477
# 3 46.8408 43.2527 93.3399 0.0642 -21.7326 0.0497
# 4 -0.0008 0.0387 0.0642 49.9283 0.0012 4.6008
# 5 -21.3927 -5.7989 -21.7326 0.0012 37.3605 -0.0092
# 6 0.0026 0.0477 0.0497 4.6008 -0.0092 16.6799
#
#
#
# Elastic Compliance Matrix: (Units=1/GPa)
#
#
# Indices 1 2 3 4 5 6 
#
# 1 0.013487 0.000179 -0.005837 0.000006 0.004355 0.000016
# 2 0.000179 0.009881 -0.004959 0.000000 -0.001249 -0.000014
# 3 -0.005837 -0.004959 0.017331 -0.000016 0.005969 -0.000029
# 4 0.000006 0.000000 -0.000016 0.020551 -0.000008 -0.005669
# 5 0.004355 -0.001249 0.005969 -0.000008 0.032538 0.000005
# 6 0.000016 -0.000014 -0.000029 -0.005669 0.000005 0.061516
#
#
# Mechanical properties :
#
#
# Convention : Reuss Voigt Hill
#
# Bulk Modulus (GPa) = 51.37686 59.37606 55.37646
# Shear Modulus (GPa) = 27.31826 34.60597 30.96212
#
# Velocity S-wave (km/s) = 3.73786 4.20700 3.97935
# Velocity P-wave (km/s) = 6.70111 7.34613 7.03102
#
# Compressibility (1/GPa) = 0.01946402
#
# Stress axis : x y z
#
# Youngs Moduli (GPa) = 74.14284 101.20707 57.70058
#
# Poissons Ratio (x) = -0.01814 0.33683
# Poissons Ratio (y) = -0.01329 0.28615
# Poissons Ratio (z) = 0.43281 0.50191
#
# Static dielectric constant tensor:
#      x y z
#    x 1.713500 0.000000 0.026790 
#    y 0.000000 1.688220 0.000020 
#    z 0.026790 0.000020 1.708490 
# 
# From -- ./inp_files/316662.got.cif
#   From: 2010.05.17/outbox.ucp.g08.bks.cvg/sg12_159_cif.got.tgz:316662.got - 2010.06.11 11:47:21.
