data_PCOD9225321
_publ_section_title
;
Structure prediction by ZEFSAII (Michael W. Deem and Ramdas Pophale) SiO2 
 PCOD9225321
Probable space group: C 2/M
;
_chemical_formula_sum "Si O2"
_cell_formula_units_Z 29
_cell_length_a 15.000000
_cell_length_b 15.000000
_cell_length_c 15.000000
_cell_angle_alpha 90.000000
_cell_angle_beta 60.000000
_cell_angle_gamma 90.000000
_cell_volume 2922.835738
_symmetry_space_group_name_H-M "C 2/M"
_symmetry_group_IT_number 12
_symmetry_cell_setting 'monoclinic'
loop_
_space_group_symop_operation_xyz
x,y,z
-x,y,-z
-x,-y,-z
x,-y,z
1/2+x,1/2+y,z
1/2-x,1/2+y,-z
1/2-x,1/2-y,-z
1/2+x,1/2-y,z
loop_
_atom_site_type_symbol
_atom_site_label
_atom_site_fract_x
_atom_site_fract_y
_atom_site_fract_z
Si Si1 0.365735 0.868251 0.448350
Si Si2 0.733232 0.393655 0.100237
Si Si3 0.000000 0.500000 0.500000
Si Si4 0.639484 0.659139 0.504831
Si Si5 0.251539 0.892405 0.885098
Si Si6 0.001018 0.394305 0.202770
Si Si7 0.587838 0.604391 0.335483
Si Si8 0.602715 0.763274 0.896783
O O1 0.419994 0.922855 0.500195
O O2 0.366823 0.762975 0.467463
O O3 0.244655 0.885153 0.488197
O O4 0.434203 0.889367 0.326709
O O5 0.752765 0.500000 0.098872
O O6 0.642028 0.368847 0.215454
O O7 0.832348 0.337265 0.080754
O O8 0.710846 0.377410 0.007062
O O9 0.634913 0.651199 0.399456
O O10 0.534901 0.617635 0.597445
O O11 0.377018 0.876351 0.832560
O O12 0.184708 0.822463 0.856323
O O13 0.239863 0.000000 0.868866
O O14 0.997679 0.500000 0.172645
O O15 0.945946 0.321131 0.163603
O O16 0.609401 0.500000 0.336590
O O17 0.500000 0.732838 0.000000
#
# Coordination Sequence:
#
# PCOD9225321 Si02
#       8
#     8   8   2   8   8   8   8   8
#     4  11  25  43  67  97 131 178 220 285 338 410
#     4  10  21  39  64 101 139 180 230 281 341 402
#     4  12  24  44  72  90 136 174 224 276 338 398
#     4  10  22  41  61  99 136 169 229 282 342 400
#     4  10  24  45  67  98 146 185 224 284 341 409
#     4  11  24  46  72 101 136 182 233 281 342 413
#     4  10  21  37  69  97 132 181 225 283 340 405
#     4  12  24  38  70 102 134 181 233 283 337 403
#
# _framework density 9.9218709999999994
#
# number of rings (size 3 to 8) (size 9 to 14) (size 15 to 20)
#    0.000    1.379    2.069    3.310    3.862    1.931 
#    4.966    0.000    0.000    1.655    0.000    0.000 
#    0.000    0.000    0.000    0.000    0.000    0.000 
#
# Total GULP energy -161530.551977 kJ/mol
# GULP energy per Si atom -5570.019034 kJ/mol
# Density = 0.989929 g / cm^3
# Si number density = 9.921871 Si / 1000 Ang^3
#
#
#
# Elastic Constant Matrix: (Units=GPa)
#
#
# Indices 1 2 3 4 5 6 
#
# 1 151.3220 49.0986 34.0402 0.0000 -16.2053 0.0000
# 2 49.0986 109.3790 14.2312 0.0000 1.5247 0.0000
# 3 34.0402 14.2312 70.0801 0.0000 -17.7346 0.0000
# 4 0.0000 0.0000 0.0000 26.0617 0.0000 13.3237
# 5 -16.2053 1.5247 -17.7346 0.0000 22.0301 0.0000
# 6 0.0000 0.0000 0.0000 13.3237 0.0000 -26.7700
#
#
#
# Elastic Compliance Matrix: (Units=1/GPa)
#
#
# Indices 1 2 3 4 5 6 
#
# 1 0.008871 -0.003752 -0.002298 0.000000 0.004935 0.000000
# 2 -0.003752 0.011111 -0.001666 0.000000 -0.004871 0.000000
# 3 -0.002298 -0.001666 0.019246 0.000000 0.013918 0.000000
# 4 0.000000 0.000000 0.000000 0.030588 0.000000 0.015224
# 5 0.004935 -0.004871 0.013918 0.000000 0.060564 0.000000
# 6 0.000000 0.000000 0.000000 0.015224 0.000000 -0.029778
#
#
# Mechanical properties :
#
#
# Convention : Reuss Voigt Hill
#
# Bulk Modulus (GPa) = 42.02449 58.39125 50.20787
# Shear Modulus (GPa) = 40.33298 19.82509 30.07903
#
# Velocity S-wave (km/s) = 4.51325 3.16422 3.89754
# Velocity P-wave (km/s) = 6.95578 6.54516 6.75359
#
# Compressibility (1/GPa) = 0.02379565
#
# Stress axis : x y z
#
# Youngs Moduli (GPa) = 112.72260 89.99722 51.95796
#
# Poissons Ratio (x) = 0.33767 0.11941
# Poissons Ratio (y) = 0.42293 0.08659
# Poissons Ratio (z) = 0.25907 0.14998
#
# Static dielectric constant tensor:
#      x y z
#    x 1.701680 0.000000 -0.000210 
#    y 0.000000 1.724730 0.000000 
#    z -0.000210 0.000000 1.732050 
# 
# From -- ./inp_files/215191.got.cif
#   From: 2010.05.17/outbox.ucp.g08.bks.cvg/sg12_108_cif.got.tgz:215191.got - 2010.06.11 11:47:21.
