data_PCOD9225766
_publ_section_title
;
Structure prediction by ZEFSAII (Michael W. Deem and Ramdas Pophale) SiO2 
 PCOD9225766
Probable space group: C 2/M
;
_chemical_formula_sum "Si O2"
_cell_formula_units_Z 24
_cell_length_a 15.000000
_cell_length_b 27.000000
_cell_length_c 9.000000
_cell_angle_alpha 90.000000
_cell_angle_beta 40.000000
_cell_angle_gamma 90.000000
_cell_volume 2342.960837
_symmetry_space_group_name_H-M "C 2/M"
_symmetry_group_IT_number 12
_symmetry_cell_setting 'monoclinic'
loop_
_space_group_symop_operation_xyz
x,y,z
-x,y,-z
-x,-y,-z
x,-y,z
1/2+x,1/2+y,z
1/2-x,1/2+y,-z
1/2-x,1/2-y,-z
1/2+x,1/2-y,z
loop_
_atom_site_type_symbol
_atom_site_label
_atom_site_fract_x
_atom_site_fract_y
_atom_site_fract_z
Si Si1 0.611821 0.376929 0.988063
Si Si2 0.070772 0.055603 0.570315
Si Si3 0.855798 0.400953 0.101098
Si Si4 0.654845 0.207098 0.253008
Si Si5 0.648440 0.941698 0.232067
Si Si6 0.861244 0.716899 0.077998
O O1 0.513096 0.401819 0.237178
O O2 0.500000 0.365225 0.000000
O O3 0.715439 0.331937 0.903125
O O4 0.730294 0.419398 0.817811
O O5 0.229280 0.071451 0.342955
O O6 0.000000 0.052821 0.500000
O O7 0.061157 0.000000 0.650045
O O8 0.837127 0.341459 0.137074
O O9 0.854059 0.416072 0.928306
O O10 0.000000 0.413346 0.000000
O O11 0.500000 0.189605 0.500000
O O12 0.719526 0.250651 0.276041
O O13 0.623876 0.222053 0.120847
O O14 0.500000 0.935020 0.500000
O O15 0.673345 0.000000 0.176756
O O16 0.000000 0.730663 0.000000
#
# Coordination Sequence:
#
# PCOD9225766 Si02
#       6
#     8   8   8   8   8   8
#     4  12  26  42  65  96 134 175 227 271 335 394
#     4  11  23  42  66  91 131 177 223 279 326 388
#     4  11  24  42  68  98 133 172 223 271 334 396
#     4  11  24  44  70  97 136 174 220 276 335 395
#     4  11  24  43  66  94 133 175 222 276 330 395
#     4  10  23  42  67 100 132 170 218 272 332 401
#
# _framework density 10.243449
#
# number of rings (size 3 to 8) (size 9 to 14) (size 15 to 20)
#    0.000    1.000    3.333    2.000    2.333    8.000 
#    0.000    0.000    0.000    0.000    0.000    0.000 
#    0.000    0.000    0.000    0.000    0.000    0.000 
#
# Total GULP energy -133861.299055 kJ/mol
# GULP energy per Si atom -5577.554127 kJ/mol
# Density = 1.022013 g / cm^3
# Si number density = 10.243449 Si / 1000 Ang^3
#
#
#
# Elastic Constant Matrix: (Units=GPa)
#
#
# Indices 1 2 3 4 5 6 
#
# 1 172.7433 47.5119 40.1121 0.0000 -35.6679 0.0000
# 2 47.5119 110.9760 34.4121 0.0000 -17.8190 0.0000
# 3 40.1121 34.4121 97.8697 0.0000 -30.8109 0.0000
# 4 0.0000 0.0000 0.0000 70.7283 0.0000 -63.4618
# 5 -35.6679 -17.8190 -30.8109 0.0000 42.5935 0.0000
# 6 0.0000 0.0000 0.0000 -63.4618 0.0000 97.5822
#
#
#
# Elastic Compliance Matrix: (Units=1/GPa)
#
#
# Indices 1 2 3 4 5 6 
#
# 1 0.007586 -0.002221 -0.000804 0.000000 0.004842 0.000000
# 2 -0.002221 0.010918 -0.002688 0.000000 0.000763 0.000000
# 3 -0.000804 -0.002688 0.014148 0.000000 0.008437 0.000000
# 4 0.000000 0.000000 0.000000 0.033948 0.000000 0.022078
# 5 0.004842 0.000763 0.008437 0.000000 0.033954 0.000000
# 6 0.000000 0.000000 0.000000 0.022078 0.000000 0.024606
#
#
# Mechanical properties :
#
#
# Convention : Reuss Voigt Hill
#
# Bulk Modulus (GPa) = 47.11255 69.51791 58.31523
# Shear Modulus (GPa) = 34.80348 59.48433 47.14391
#
# Velocity S-wave (km/s) = 4.12614 5.39429 4.80226
# Velocity P-wave (km/s) = 6.76361 8.53254 7.69905
#
# Compressibility (1/GPa) = 0.02122577
#
# Stress axis : x y z
#
# Youngs Moduli (GPa) = 131.81639 91.59169 70.67922
#
# Poissons Ratio (x) = 0.20344 0.05682
# Poissons Ratio (y) = 0.29278 0.19001
# Poissons Ratio (z) = 0.10597 0.24624
#
# Static dielectric constant tensor:
#      x y z
#    x 1.708890 0.000000 0.008270 
#    y 0.000000 1.805990 0.000000 
#    z 0.008270 0.000000 1.760790 
# 
# From -- ./inp_files/67301.got.cif
#   From: 2010.05.17/outbox.ucp.g08.bks.cvg/sg12_34_cif.got.tgz:67301.got - 2010.06.11 11:47:21.
