data_PCOD9225952
_publ_section_title
;
Structure prediction by ZEFSAII (Michael W. Deem and Ramdas Pophale) SiO2 
 PCOD9225952
Probable space group: C 2/M
;
_chemical_formula_sum "Si O2"
_cell_formula_units_Z 28
_cell_length_a 18.000000
_cell_length_b 15.000000
_cell_length_c 21.000000
_cell_angle_alpha 90.000000
_cell_angle_beta 150.000000
_cell_angle_gamma 90.000000
_cell_volume 2835.000000
_symmetry_space_group_name_H-M "C 2/M"
_symmetry_group_IT_number 12
_symmetry_cell_setting 'monoclinic'
loop_
_space_group_symop_operation_xyz
x,y,z
-x,y,-z
-x,-y,-z
x,-y,z
1/2+x,1/2+y,z
1/2-x,1/2+y,-z
1/2-x,1/2-y,-z
1/2+x,1/2-y,z
loop_
_atom_site_type_symbol
_atom_site_label
_atom_site_fract_x
_atom_site_fract_y
_atom_site_fract_z
Si Si1 0.067510 0.000000 0.948554
Si Si2 0.760505 0.000000 0.791851
Si Si3 0.591889 0.894557 0.242214
Si Si4 0.585512 0.830874 0.626998
Si Si5 0.249991 0.358011 0.997987
Si Si6 0.863029 0.101873 0.223416
Si Si7 0.846851 0.200528 0.518553
Si Si8 0.360638 0.209221 0.852120
O O1 0.135583 0.911808 0.963392
O O2 0.887757 0.000000 0.829219
O O3 0.143947 0.000000 0.073725
O O4 0.649517 0.083586 0.709741
O O5 0.725952 0.847212 0.381862
O O6 0.584596 0.850620 0.166272
O O7 0.623675 0.000000 0.261711
O O8 0.422995 0.883524 0.143942
O O9 0.500000 0.859164 0.500000
O O10 0.460874 0.769932 0.569056
O O11 0.741850 0.778069 0.733434
O O12 0.305257 0.387714 0.108724
O O13 0.250000 0.250000 0.000000
O O14 0.747019 0.155216 0.180646
O O15 0.032443 0.134647 0.359269
O O16 0.856110 0.000000 0.237981
O O17 0.750000 0.250000 0.500000
O O18 0.500000 0.241822 0.000000
#
# Coordination Sequence:
#
# PCOD9225952 Si02
#       8
#     4   4   8   8   8   8   8   8
#     4  11  28  50  70 113 148 183 253 301 368 421
#     4  11  29  44  78 100 142 197 242 313 342 420
#     4  12  24  43  70 107 138 184 229 287 370 430
#     4  11  25  49  68 102 138 186 247 288 358 428
#     4  12  26  43  71 102 142 182 233 298 355 428
#     4  11  23  43  64 101 135 178 225 277 351 422
#     4  11  26  45  68  99 140 183 233 292 359 424
#     4  11  24  40  72 102 143 179 226 287 351 441
#
# _framework density 9.8765429999999999
#
# number of rings (size 3 to 8) (size 9 to 14) (size 15 to 20)
#    0.000    0.714    4.286    1.929   10.000    1.714 
#    1.286    2.143    0.000    0.000    0.000    0.000 
#    0.000    0.000    0.000    0.000    0.000    0.000 
#
# Total GULP energy -156247.249602 kJ/mol
# GULP energy per Si atom -5580.258914 kJ/mol
# Density = 0.985406 g / cm^3
# Si number density = 9.876543 Si / 1000 Ang^3
#
#
#
# Elastic Constant Matrix: (Units=GPa)
#
#
# Indices 1 2 3 4 5 6 
#
# 1 42.4920 -18.2308 2.6001 -0.0012 1.1820 0.0002
# 2 -18.2308 59.7203 5.2064 -0.0018 -4.4028 -0.0008
# 3 2.6001 5.2064 151.5202 -0.0016 3.8087 -0.0007
# 4 -0.0012 -0.0018 -0.0016 36.7084 -0.0015 3.7082
# 5 1.1820 -4.4028 3.8087 -0.0015 34.2530 -0.0005
# 6 0.0002 -0.0008 -0.0007 3.7082 -0.0005 30.2565
#
#
#
# Elastic Compliance Matrix: (Units=1/GPa)
#
#
# Indices 1 2 3 4 5 6 
#
# 1 0.027168 0.008376 -0.000760 0.000001 0.000224 0.000000
# 2 0.008376 0.019549 -0.000874 0.000001 0.002321 0.000000
# 3 -0.000760 -0.000874 0.006664 0.000000 -0.000827 0.000000
# 4 0.000001 0.000001 0.000000 0.027583 0.000001 -0.003381
# 5 0.000224 0.002321 -0.000827 0.000001 0.029577 0.000000
# 6 0.000000 0.000000 0.000000 -0.003381 0.000000 0.033465
#
#
# Mechanical properties :
#
#
# Convention : Reuss Voigt Hill
#
# Bulk Modulus (GPa) = 14.95527 25.87599 20.41563
# Shear Modulus (GPa) = 32.72059 37.85403 35.28731
#
# Velocity S-wave (km/s) = 4.07440 4.38237 4.23119
# Velocity P-wave (km/s) = 5.45178 6.22375 5.85051
#
# Compressibility (1/GPa) = 0.06686605
#
# Stress axis : x y z
#
# Youngs Moduli (GPa) = 36.80825 51.15350 150.06839
#
# Poissons Ratio (x) = -0.42847 0.11400
# Poissons Ratio (y) = -0.30831 0.13113
# Poissons Ratio (z) = 0.02796 0.04470
#
# Static dielectric constant tensor:
#      x y z
#    x 1.699270 0.000000 -0.010940 
#    y 0.000000 1.755730 0.000000 
#    z -0.010940 0.000000 1.658700 
# 
# From -- ./inp_files/316823.got.cif
#   From: 2010.05.17/outbox.ucp.g08.bks.cvg/sg12_159_cif.got.tgz:316823.got - 2010.06.11 11:47:21.
