data_PCOD9225376
_publ_section_title
;
Structure prediction by ZEFSAII (Michael W. Deem and Ramdas Pophale) SiO2 
 PCOD9225376
Probable space group: C 2/M
;
_chemical_formula_sum "Si O2"
_cell_formula_units_Z 24
_cell_length_a 30.000000
_cell_length_b 9.000000
_cell_length_c 18.000000
_cell_angle_alpha 90.000000
_cell_angle_beta 30.000000
_cell_angle_gamma 90.000000
_cell_volume 2430.000000
_symmetry_space_group_name_H-M "C 2/M"
_symmetry_group_IT_number 12
_symmetry_cell_setting 'monoclinic'
loop_
_space_group_symop_operation_xyz
x,y,z
-x,y,-z
-x,-y,-z
x,-y,z
1/2+x,1/2+y,z
1/2-x,1/2+y,-z
1/2-x,1/2-y,-z
1/2+x,1/2-y,z
loop_
_atom_site_type_symbol
_atom_site_label
_atom_site_fract_x
_atom_site_fract_y
_atom_site_fract_z
Si Si1 0.920455 0.822902 0.395256
Si Si2 0.394597 0.333859 0.152960
Si Si3 0.740924 0.175100 0.748218
Si Si4 0.605594 0.326068 0.204094
Si Si5 0.275078 0.828631 0.850463
Si Si6 0.154715 0.671467 0.635131
O O1 0.827757 0.792971 0.571949
O O2 0.910146 0.745078 0.331142
O O3 0.009443 0.778735 0.311309
O O4 0.926549 0.000000 0.375244
O O5 0.360238 0.500000 0.223303
O O6 0.341503 0.277979 0.157728
O O7 0.378819 0.204786 0.234752
O O8 0.500000 0.347169 0.000000
O O9 0.767463 0.219305 0.792557
O O10 0.720295 0.000000 0.771577
O O11 0.598977 0.500000 0.236918
O O12 0.644181 0.225000 0.213890
O O13 0.682551 0.319418 0.030166
O O14 0.287085 0.000000 0.810138
O O15 0.164357 0.500000 0.604840
O O16 0.250000 0.750000 0.500000
#
# Coordination Sequence:
#
# PCOD9225376 Si02
#       6
#     8   8   8   8   8   8
#     4  10  22  40  62  88 118 159 204 247 298 355
#     4  11  25  43  63  88 122 162 203 250 304 359
#     4  11  23  39  61  88 121 158 199 249 299 357
#     4   9  20  40  63  86 115 155 200 244 299 362
#     4  10  21  38  61  88 120 155 195 248 303 357
#     4  12  24  40  63  90 123 162 202 249 300 356
#
# _framework density 9.8765429999999999
#
# number of rings (size 3 to 8) (size 9 to 14) (size 15 to 20)
#    0.000    1.500    1.667    3.000    2.333    4.000 
#    0.000    3.333    0.000    0.000    0.000    0.000 
#    0.000    0.000    0.000    0.000    0.000    0.000 
#
# Total GULP energy -133948.512893 kJ/mol
# GULP energy per Si atom -5581.188037 kJ/mol
# Density = 0.985406 g / cm^3
# Si number density = 9.876543 Si / 1000 Ang^3
#
#
#
# Elastic Constant Matrix: (Units=GPa)
#
#
# Indices 1 2 3 4 5 6 
#
# 1 97.9913 20.4188 -3.2949 0.0002 -21.0901 -0.0003
# 2 20.4188 32.1718 -2.7390 -0.0001 -11.9372 0.0001
# 3 -3.2949 -2.7390 -25.3103 -0.0001 -13.3003 -0.0001
# 4 0.0002 -0.0001 -0.0001 18.8474 0.0001 5.8321
# 5 -21.0901 -11.9372 -13.3003 0.0001 32.5936 0.0000
# 6 -0.0003 0.0001 -0.0001 5.8321 0.0000 24.1815
#
#
#
# Elastic Compliance Matrix: (Units=1/GPa)
#
#
# Indices 1 2 3 4 5 6 
#
# 1 0.012390 -0.006529 -0.003181 0.000000 0.004328 0.000000
# 2 -0.006529 0.037128 -0.006665 0.000000 0.006654 0.000000
# 3 -0.003181 -0.006665 -0.029652 0.000000 -0.016599 0.000000
# 4 0.000000 0.000000 0.000000 0.057337 0.000000 -0.013828
# 5 0.004328 0.006654 -0.016599 0.000000 0.029145 0.000000
# 6 0.000000 0.000000 0.000000 -0.013828 0.000000 0.044689
#
#
# Mechanical properties :
#
#
# Convention : Reuss Voigt Hill
#
# Bulk Modulus (GPa) = -77.63056 14.84695 -31.39180
# Shear Modulus (GPa) = 27.85655 21.15570 24.50613
#
# Velocity S-wave (km/s) = 3.75939 3.27617 3.52607
# Velocity P-wave (km/s) = 4.53231 4.67372 0.80681
#
# Compressibility (1/GPa) = -0.01288153
#
# Stress axis : x y z
#
# Youngs Moduli (GPa) = 80.71085 26.93378 -33.72485
#
# Poissons Ratio (x) = 0.17584 -0.10727
# Poissons Ratio (y) = 0.52692 -0.22476
# Poissons Ratio (z) = 0.25672 0.17950
#
# Static dielectric constant tensor:
#      x y z
#    x 1.658510 0.000000 0.036370 
#    y 0.000000 1.739770 0.000000 
#    z 0.036370 0.000000 1.715010 
# 
# From -- ./inp_files/244590.got.cif
#   From: 2010.05.17/outbox.ucp.g08.bks.cvg/sg12_123_cif.got.tgz:244590.got - 2010.06.11 11:47:21.
