data_PCOD9225418
_publ_section_title
;
Structure prediction by ZEFSAII (Michael W. Deem and Ramdas Pophale) SiO2 
 PCOD9225418
Probable space group: C 2/M
;
_chemical_formula_sum "Si O2"
_cell_formula_units_Z 32
_cell_length_a 18.000000
_cell_length_b 24.000000
_cell_length_c 21.000000
_cell_angle_alpha 90.000000
_cell_angle_beta 160.000000
_cell_angle_gamma 90.000000
_cell_volume 3102.806740
_symmetry_space_group_name_H-M "C 2/M"
_symmetry_group_IT_number 12
_symmetry_cell_setting 'monoclinic'
loop_
_space_group_symop_operation_xyz
x,y,z
-x,y,-z
-x,-y,-z
x,-y,z
1/2+x,1/2+y,z
1/2-x,1/2+y,-z
1/2-x,1/2-y,-z
1/2+x,1/2-y,z
loop_
_atom_site_type_symbol
_atom_site_label
_atom_site_fract_x
_atom_site_fract_y
_atom_site_fract_z
Si Si1 0.576448 0.385312 0.989106
Si Si2 0.485533 0.936101 0.671384
Si Si3 0.140209 0.133215 0.311313
Si Si4 0.178840 0.763343 0.088054
Si Si5 0.892406 0.256353 0.483874
Si Si6 0.257557 0.355017 0.106731
Si Si7 0.053385 0.135315 0.468840
Si Si8 0.945750 0.435099 0.785080
O O1 0.654113 0.322519 0.034234
O O2 0.768353 0.429077 0.151828
O O3 0.500000 0.378368 0.000000
O O4 0.419636 0.398201 0.803201
O O5 0.328804 0.898400 0.502558
O O6 0.507741 0.918600 0.763077
O O7 0.409713 0.000000 0.608547
O O8 0.224085 0.194521 0.359464
O O9 0.940412 0.137431 0.199668
O O10 0.410419 0.765114 0.308787
O O11 0.171195 0.708269 0.039145
O O12 0.000000 0.756676 0.000000
O O13 0.814689 0.193331 0.435980
O O14 0.000000 0.260521 0.500000
O O15 0.365827 0.365328 0.263994
O O16 0.068207 0.397818 0.935633
O O17 0.192771 0.079683 0.578984
O O18 0.000000 0.140896 0.500000
O O19 0.990516 0.500000 0.831149
#
# Coordination Sequence:
#
# PCOD9225418 Si02
#       8
#     8   8   8   8   8   8   8   8
#     4  11  24  43  66  98 134 171 210 267 329 389
#     4  11  25  46  67  93 131 172 221 270 324 385
#     4  12  24  41  66 100 128 171 219 268 318 383
#     4  10  22  39  63  97 138 171 204 263 330 389
#     4  10  21  38  65  97 136 173 206 259 331 391
#     4  11  25  40  66 101 128 171 222 265 319 384
#     4  10  24  43  66  99 135 172 210 269 326 387
#     4  11  25  45  68  93 131 174 220 270 325 383
#
# _framework density 10.313243
#
# number of rings (size 3 to 8) (size 9 to 14) (size 15 to 20)
#    0.000    1.250    3.750    1.500    7.000    5.500 
#    0.000    1.250    0.000    0.000    0.000    0.000 
#    0.000    0.000    0.000    0.000    0.000    0.000 
#
# Total GULP energy -178477.104844 kJ/mol
# GULP energy per Si atom -5577.409526 kJ/mol
# Density = 1.028977 g / cm^3
# Si number density = 10.313243 Si / 1000 Ang^3
#
#
#
# Elastic Constant Matrix: (Units=GPa)
#
#
# Indices 1 2 3 4 5 6 
#
# 1 49.7071 17.5715 1.9290 -0.2701 -20.1477 0.1364
# 2 17.5715 41.3910 13.8928 -0.5932 -16.1653 0.0950
# 3 1.9290 13.8928 52.8879 -1.1615 -19.7004 0.1166
# 4 -0.2701 -0.5932 -1.1615 -51.9761 -0.0830 28.7039
# 5 -20.1477 -16.1653 -19.7004 -0.0830 30.3239 -0.0338
# 6 0.1364 0.0950 0.1166 28.7039 -0.0338 17.5042
#
#
#
# Elastic Compliance Matrix: (Units=1/GPa)
#
#
# Indices 1 2 3 4 5 6 
#
# 1 0.031890 -0.007636 0.009516 -0.000238 0.023299 0.000164
# 2 -0.007636 0.032607 -0.004888 -0.000144 0.009132 0.000169
# 3 0.009516 -0.004888 0.027994 -0.000399 0.021903 0.000462
# 4 -0.000238 -0.000144 -0.000399 -0.010088 -0.000503 0.016548
# 5 0.023299 0.009132 0.021903 -0.000503 0.067555 0.000579
# 6 0.000164 0.000169 0.000462 0.016548 0.000579 0.029989
#
#
# Mechanical properties :
#
#
# Convention : Reuss Voigt Hill
#
# Bulk Modulus (GPa) = 11.56433 23.41918 17.49175
# Shear Modulus (GPa) = 23.27874 6.54324 14.91099
#
# Velocity S-wave (km/s) = 3.36309 1.78301 2.69161
# Velocity P-wave (km/s) = 4.54964 3.95189 4.26126
#
# Compressibility (1/GPa) = 0.08647281
#
# Stress axis : x y z
#
# Youngs Moduli (GPa) = 31.35773 30.66856 35.72225
#
# Poissons Ratio (x) = 0.23420 -0.33993
# Poissons Ratio (y) = 0.23946 0.17463
# Poissons Ratio (z) = -0.29840 0.14992
#
# Static dielectric constant tensor:
#      x y z
#    x 4.345120 -0.001570 0.106320 
#    y -0.001570 1.727310 -0.000010 
#    z 0.106320 -0.000010 1.801320 
# 
# From -- ./inp_files/318373.got.cif
#   From: 2010.05.17/outbox.ucp.g08.bks.cvg/sg12_160_cif.got.tgz:318373.got - 2010.06.11 11:47:21.
