data_PCOD9225875
_publ_section_title
;
Structure prediction by ZEFSAII (Michael W. Deem and Ramdas Pophale) SiO2 
 PCOD9225875
Probable space group: C 2/M
;
_chemical_formula_sum "Si O2"
_cell_formula_units_Z 20
_cell_length_a 9.000000
_cell_length_b 24.000000
_cell_length_c 18.000000
_cell_angle_alpha 90.000000
_cell_angle_beta 30.000000
_cell_angle_gamma 90.000000
_cell_volume 1944.000000
_symmetry_space_group_name_H-M "C 2/M"
_symmetry_group_IT_number 12
_symmetry_cell_setting 'monoclinic'
loop_
_space_group_symop_operation_xyz
x,y,z
-x,y,-z
-x,-y,-z
x,-y,z
1/2+x,1/2+y,z
1/2-x,1/2+y,-z
1/2-x,1/2-y,-z
1/2+x,1/2-y,z
loop_
_atom_site_type_symbol
_atom_site_label
_atom_site_fract_x
_atom_site_fract_y
_atom_site_fract_z
Si Si1 0.572570 0.730957 0.887038
Si Si2 0.399372 0.063455 0.890273
Si Si3 0.744942 0.854415 0.831229
Si Si4 0.162395 0.654143 0.357016
Si Si5 0.725248 0.937289 0.229568
O O1 0.759173 0.787740 0.815382
O O2 0.723852 0.695755 0.756467
O O3 0.500000 0.704713 0.000000
O O4 0.250000 0.750000 0.000000
O O5 0.630108 0.110655 0.812487
O O6 0.375814 0.063247 0.811974
O O7 0.475201 0.000000 0.881382
O O8 0.077454 0.077124 0.066284
O O9 0.055861 0.874490 0.726190
O O10 0.500000 0.863321 0.000000
O O11 0.033722 0.604187 0.363164
O O12 0.000000 0.678552 0.500000
O O13 0.708557 0.000000 0.265576
#
# Coordination Sequence:
#
# PCOD9225875 Si02
#       5
#     8   8   8   8   8
#     4  11  22  41  66  88 114 161 205 246 293 358
#     4   9  18  34  63  94 116 152 210 256 284 345
#     4  11  21  38  60  89 119 158 207 242 298 361
#     4  12  26  40  60  93 126 157 198 252 308 356
#     4   9  19  36  60  90 121 158 200 246 302 354
#
# _framework density 10.288066000000001
#
# number of rings (size 3 to 8) (size 9 to 14) (size 15 to 20)
#    0.000    1.600    6.000    1.200    5.600    2.400 
#    0.000    1.000    0.000    2.400    0.000    0.000 
#    0.000    0.000    0.000    0.000    0.000    0.000 
#
# Total GULP energy -111341.512804 kJ/mol
# GULP energy per Si atom -5567.075640 kJ/mol
# Density = 1.026465 g / cm^3
# Si number density = 10.288066 Si / 1000 Ang^3
#
#
#
# Elastic Constant Matrix: (Units=GPa)
#
#
# Indices 1 2 3 4 5 6 
#
# 1 74.0016 32.7215 31.2689 -0.0099 20.8807 0.0006
# 2 32.7215 55.7545 19.5784 -0.0028 23.1917 0.0000
# 3 31.2689 19.5784 65.1658 -0.0332 37.8953 -0.0140
# 4 -0.0099 -0.0028 -0.0332 2.3550 -0.0053 9.3694
# 5 20.8807 23.1917 37.8953 -0.0053 34.3653 -0.0051
# 6 0.0006 0.0000 -0.0140 9.3694 -0.0051 21.3356
#
#
#
# Elastic Compliance Matrix: (Units=1/GPa)
#
#
# Indices 1 2 3 4 5 6 
#
# 1 0.021164 -0.011384 -0.010382 0.000044 0.006272 -0.000025
# 2 -0.011384 0.032053 0.012234 -0.000124 -0.028205 0.000056
# 3 -0.010382 0.012234 0.049573 -0.000624 -0.056614 0.000294
# 4 0.000044 -0.000124 -0.000624 -0.568342 0.000695 0.249582
# 5 0.006272 -0.028205 -0.056614 0.000695 0.106752 -0.000317
# 6 -0.000025 0.000056 0.000294 0.249582 -0.000317 -0.062732
#
#
# Mechanical properties :
#
#
# Convention : Reuss Voigt Hill
#
# Bulk Modulus (GPa) = 11.94358 40.22884 26.08621
# Shear Modulus (GPa) = -13.34907 19.03473 2.84283
#
# Velocity S-wave (km/s) = -2.54985 3.04483 1.17670
# Velocity P-wave (km/s) = 1.68873 5.65287 3.81465
#
# Compressibility (1/GPa) = 0.08372702
#
# Stress axis : x y z
#
# Youngs Moduli (GPa) = 47.24955 31.19830 20.17209
#
# Poissons Ratio (x) = 0.35516 0.20943
# Poissons Ratio (y) = 0.53789 -0.24679
# Poissons Ratio (z) = 0.49056 -0.38169
#
# Static dielectric constant tensor:
#      x y z
#    x 1.812040 -0.000010 -0.011480 
#    y -0.000010 1.823210 0.000010 
#    z -0.011480 0.000010 1.769780 
# 
# From -- ./inp_files/40529.got.cif
#   From: 2010.05.17/outbox.ucp.g08.bks.cvg/sg12_21_cif.got.tgz:40529.got - 2010.06.11 11:47:21.
