data_PCOD9225107
_publ_section_title
;
Structure prediction by ZEFSAII (Michael W. Deem and Ramdas Pophale) SiO2 
 PCOD9225107
Probable space group: C 2/M
;
_chemical_formula_sum "Si O2"
_cell_formula_units_Z 32
_cell_length_a 30.000000
_cell_length_b 9.000000
_cell_length_c 12.000000
_cell_angle_alpha 90.000000
_cell_angle_beta 90.000000
_cell_angle_gamma 90.000000
_cell_volume 3240.000000
_symmetry_space_group_name_H-M "C 2/M"
_symmetry_group_IT_number 12
_symmetry_cell_setting 'monoclinic'
loop_
_space_group_symop_operation_xyz
x,y,z
-x,y,-z
-x,-y,-z
x,-y,z
1/2+x,1/2+y,z
1/2-x,1/2+y,-z
1/2-x,1/2-y,-z
1/2+x,1/2-y,z
loop_
_atom_site_type_symbol
_atom_site_label
_atom_site_fract_x
_atom_site_fract_y
_atom_site_fract_z
Si Si1 0.836145 0.327166 0.256039
Si Si2 0.947285 0.663117 0.012516
Si Si3 0.507399 0.177875 0.369911
Si Si4 0.405773 0.171466 0.768735
Si Si5 0.682080 0.325422 0.275249
Si Si6 0.202485 0.327064 0.496048
Si Si7 0.070767 0.826174 0.771826
Si Si8 0.758052 0.821424 0.121727
O O1 0.835626 0.500000 0.221759
O O2 0.817150 0.318026 0.380923
O O3 0.885301 0.262001 0.262695
O O4 0.804986 0.234060 0.172500
O O5 0.933952 0.500000 0.059304
O O6 0.934022 0.790368 0.097393
O O7 0.928300 0.674218 0.889380
O O8 0.000000 0.664353 0.000000
O O9 0.500000 0.214087 0.500000
O O10 0.557066 0.209213 0.323986
O O11 0.471770 0.261789 0.293451
O O12 0.500782 0.000000 0.356394
O O13 0.365280 0.284553 0.775941
O O14 0.390493 0.000000 0.747862
O O15 0.692178 0.500000 0.275670
O O16 0.677494 0.261753 0.399956
O O17 0.720543 0.240296 0.207016
O O18 0.205764 0.500000 0.464622
O O19 0.250000 0.250000 0.500000
O O20 0.075253 0.000000 0.750867
O O21 0.756340 0.000000 0.115509
O O22 0.750000 0.750000 0.000000
#
# Coordination Sequence:
#
# PCOD9225107 Si02
#       8
#     8   8   8   8   8   8   8   8
#     4  11  25  45  69  96 129 171 219 266 322 384
#     4  10  20  41  69  92 122 165 216 268 318 380
#     4  10  22  43  68  93 126 169 217 266 319 384
#     4  10  22  41  66  95 126 167 220 270 322 379
#     4  12  26  43  65  96 136 174 215 264 323 386
#     4  11  23  42  70  97 127 166 216 271 323 384
#     4  12  26  41  63  96 134 169 211 265 323 385
#     4  12  26  46  70  96 132 171 216 268 325 386
#
# _framework density 9.8765429999999999
#
# number of rings (size 3 to 8) (size 9 to 14) (size 15 to 20)
#    0.000    1.000    2.500    4.125    3.500    3.000 
#    0.000    0.000    0.000    0.000    0.000    0.000 
#    0.000    0.000    0.000    0.000    0.000    0.000 
#
# Total GULP energy -178856.579108 kJ/mol
# GULP energy per Si atom -5589.268097 kJ/mol
# Density = 0.985406 g / cm^3
# Si number density = 9.876543 Si / 1000 Ang^3
#
#
#
# Elastic Constant Matrix: (Units=GPa)
#
#
# Indices 1 2 3 4 5 6 
#
# 1 43.1589 13.8454 -12.2675 0.0000 -3.9316 0.0000
# 2 13.8454 111.7066 19.0946 0.0000 -3.3548 0.0000
# 3 -12.2675 19.0946 46.7596 0.0000 -0.2219 0.0000
# 4 0.0000 0.0000 0.0000 27.0246 0.0000 -3.0651
# 5 -3.9316 -3.3548 -0.2219 0.0000 29.4318 0.0000
# 6 0.0000 0.0000 0.0000 -3.0651 0.0000 13.1628
#
#
#
# Elastic Compliance Matrix: (Units=1/GPa)
#
#
# Indices 1 2 3 4 5 6 
#
# 1 0.027681 -0.004922 0.009287 0.000000 0.003207 0.000000
# 2 -0.004922 0.010533 -0.005590 0.000000 0.000501 0.000000
# 3 0.009287 -0.005590 0.026109 0.000000 0.000800 0.000000
# 4 0.000000 0.000000 0.000000 0.038007 0.000000 0.008850
# 5 0.003207 0.000501 0.000800 0.000000 0.034468 0.000000
# 6 0.000000 0.000000 0.000000 0.008850 0.000000 0.078033
#
#
# Mechanical properties :
#
#
# Convention : Reuss Voigt Hill
#
# Bulk Modulus (GPa) = 16.16202 26.99667 21.57935
# Shear Modulus (GPa) = 21.01678 25.98734 23.50206
#
# Velocity S-wave (km/s) = 3.26540 3.63107 3.45308
# Velocity P-wave (km/s) = 4.73465 5.59252 5.18137
#
# Compressibility (1/GPa) = 0.06187344
#
# Stress axis : x y z
#
# Youngs Moduli (GPa) = 36.12558 94.94258 38.30084
#
# Poissons Ratio (x) = 0.46732 -0.35572
# Poissons Ratio (y) = 0.17782 0.21410
# Poissons Ratio (z) = -0.33551 0.53073
#
# Static dielectric constant tensor:
#      x y z
#    x 1.735780 0.000000 0.006300 
#    y 0.000000 1.703820 0.000000 
#    z 0.006300 0.000000 1.641310 
# 
# From -- ./inp_files/187547.got.cif
#   From: 2010.05.17/outbox.ucp.g08.bks.cvg/sg12_94_cif.got.tgz:187547.got - 2010.06.11 11:47:21.
