data_PCOD9225738
_publ_section_title
;
Structure prediction by ZEFSAII (Michael W. Deem and Ramdas Pophale) SiO2 
 PCOD9225738
Probable space group: C 2/M
;
_chemical_formula_sum "Si O2"
_cell_formula_units_Z 21
_cell_length_a 15.000000
_cell_length_b 9.000000
_cell_length_c 18.000000
_cell_angle_alpha 90.000000
_cell_angle_beta 70.000000
_cell_angle_gamma 90.000000
_cell_volume 2283.453069
_symmetry_space_group_name_H-M "C 2/M"
_symmetry_group_IT_number 12
_symmetry_cell_setting 'monoclinic'
loop_
_space_group_symop_operation_xyz
x,y,z
-x,y,-z
-x,-y,-z
x,-y,z
1/2+x,1/2+y,z
1/2-x,1/2+y,-z
1/2-x,1/2-y,-z
1/2+x,1/2-y,z
loop_
_atom_site_type_symbol
_atom_site_label
_atom_site_fract_x
_atom_site_fract_y
_atom_site_fract_z
Si Si1 0.232585 0.178380 0.822369
Si Si2 0.344142 0.164413 0.445632
Si Si3 0.611446 0.827970 0.987270
Si Si4 0.596878 0.677749 0.150572
Si Si5 0.605541 0.322239 0.720751
Si Si6 0.000000 0.500000 0.500000
O O1 0.165120 0.239896 0.907183
O O2 0.332265 0.255801 0.808971
O O3 0.189714 0.215715 0.754146
O O4 0.239190 0.000000 0.826307
O O5 0.250000 0.250000 0.500000
O O6 0.385917 0.244612 0.360940
O O7 0.311476 0.000000 0.431117
O O8 0.427089 0.128281 0.482927
O O9 0.643999 0.000000 0.980552
O O10 0.500000 0.826804 0.000000
O O11 0.622225 0.751600 0.064348
O O12 0.605364 0.500000 0.141989
O O13 0.490773 0.714707 0.207313
O O14 0.606930 0.500000 0.709311
#
# Coordination Sequence:
#
# PCOD9225738 Si02
#       6
#     8   8   8   8   8   2
#     4  11  23  40  61  89 123 169 215 263 326 377
#     4  10  22  44  72  99 136 170 215 266 330 401
#     4  11  22  37  60  85 120 167 221 271 319 374
#     4  11  23  40  60  88 128 167 218 267 319 381
#     4  10  23  42  64  95 131 165 210 267 320 385
#     4   8  24  44  70 106 132 170 218 258 330 398
#
# _framework density 9.1965979999999998
#
# number of rings (size 3 to 8) (size 9 to 14) (size 15 to 20)
#    0.571    0.952    1.905    2.857    0.000    5.333 
#    3.429    3.810    0.000    0.000    0.000    0.000 
#    0.000    0.000    0.000    0.000    0.000    0.000 
#
# Total GULP energy -116924.292176 kJ/mol
# GULP energy per Si atom -5567.823437 kJ/mol
# Density = 0.917567 g / cm^3
# Si number density = 9.196598 Si / 1000 Ang^3
#
#
#
# Elastic Constant Matrix: (Units=GPa)
#
#
# Indices 1 2 3 4 5 6 
#
# 1 102.8646 21.2248 23.5743 0.0000 27.2150 0.0000
# 2 21.2248 48.2619 25.9992 0.0000 6.3358 0.0000
# 3 23.5743 25.9992 75.6593 0.0000 16.0050 0.0000
# 4 0.0000 0.0000 0.0000 33.5563 0.0000 3.8032
# 5 27.2150 6.3358 16.0050 0.0000 20.3096 0.0000
# 6 0.0000 0.0000 0.0000 3.8032 0.0000 33.9417
#
#
#
# Elastic Compliance Matrix: (Units=1/GPa)
#
#
# Indices 1 2 3 4 5 6 
#
# 1 0.015963 -0.004887 0.001089 0.000000 -0.020725 0.000000
# 2 -0.004887 0.026950 -0.008814 0.000000 0.005087 0.000000
# 3 0.001089 -0.008814 0.018761 0.000000 -0.013495 0.000000
# 4 0.000000 0.000000 0.000000 0.030184 0.000000 -0.003382
# 5 -0.020725 0.005087 -0.013495 0.000000 0.086058 0.000000
# 6 0.000000 0.000000 0.000000 -0.003382 0.000000 0.029841
#
#
# Mechanical properties :
#
#
# Convention : Reuss Voigt Hill
#
# Bulk Modulus (GPa) = 27.43356 40.93139 34.18248
# Shear Modulus (GPa) = 20.39719 27.96067 24.17893
#
# Velocity S-wave (km/s) = 3.33371 3.90316 3.62962
# Velocity P-wave (km/s) = 5.45578 6.52799 6.01582
#
# Compressibility (1/GPa) = 0.03645170
#
# Stress axis : x y z
#
# Youngs Moduli (GPa) = 62.64316 37.10581 53.30083
#
# Poissons Ratio (x) = 0.18132 -0.05807
# Poissons Ratio (y) = 0.30611 0.46982
# Poissons Ratio (z) = -0.06825 0.32707
#
# Static dielectric constant tensor:
#      x y z
#    x 1.671720 0.000000 -0.019290 
#    y 0.000000 1.622870 0.000000 
#    z -0.019290 0.000000 1.616820 
# 
# From -- ./inp_files/266998.got.cif
#   From: 2010.05.17/outbox.ucp.g08.bks.cvg/sg12_134_cif.got.tgz:266998.got - 2010.06.11 11:47:21.
