data_PCOD9225636
_publ_section_title
;
Structure prediction by ZEFSAII (Michael W. Deem and Ramdas Pophale) SiO2 
 PCOD9225636
Probable space group: C 2/M
;
_chemical_formula_sum "Si O2"
_cell_formula_units_Z 32
_cell_length_a 30.000000
_cell_length_b 9.000000
_cell_length_c 18.000000
_cell_angle_alpha 90.000000
_cell_angle_beta 40.000000
_cell_angle_gamma 90.000000
_cell_volume 3123.947783
_symmetry_space_group_name_H-M "C 2/M"
_symmetry_group_IT_number 12
_symmetry_cell_setting 'monoclinic'
loop_
_space_group_symop_operation_xyz
x,y,z
-x,y,-z
-x,-y,-z
x,-y,z
1/2+x,1/2+y,z
1/2-x,1/2+y,-z
1/2-x,1/2-y,-z
1/2+x,1/2-y,z
loop_
_atom_site_type_symbol
_atom_site_label
_atom_site_fract_x
_atom_site_fract_y
_atom_site_fract_z
Si Si1 0.342131 0.824374 0.827163
Si Si2 0.698723 0.175852 0.626361
Si Si3 0.532264 0.333851 0.377898
Si Si4 0.915142 0.328458 0.439317
Si Si5 0.207212 0.832704 0.349675
Si Si6 0.724299 0.169672 0.897193
Si Si7 0.567506 0.675992 0.732703
Si Si8 0.579339 0.175956 0.115838
O O1 0.391500 0.730390 0.710402
O O2 0.265452 0.771107 0.902961
O O3 0.381088 0.790120 0.856055
O O4 0.346997 0.000000 0.810369
O O5 0.750000 0.250000 0.500000
O O6 0.735763 0.192249 0.658964
O O7 0.622093 0.248616 0.719486
O O8 0.692819 0.000000 0.617671
O O9 0.500000 0.341761 0.500000
O O10 0.533079 0.500000 0.343823
O O11 0.485349 0.225265 0.388453
O O12 0.919475 0.500000 0.412957
O O13 0.850939 0.292768 0.573188
O O14 0.901356 0.224723 0.386404
O O15 0.238740 0.830719 0.228333
O O16 0.177211 0.000000 0.399892
O O17 0.724279 0.000000 0.928243
O O18 0.644875 0.208168 0.980377
O O19 0.566449 0.500000 0.744000
O O20 0.489123 0.738906 0.823175
O O21 0.562740 0.000000 0.137833
#
# Coordination Sequence:
#
# PCOD9225636 Si02
#       8
#     8   8   8   8   8   8   8   8
#     4  11  22  36  58  88 120 157 204 251 296 349
#     4  11  22  38  63  92 123 157 198 245 300 363
#     4  11  23  37  54  80 118 162 203 243 294 358
#     4  12  23  36  58  86 120 157 195 246 303 356
#     4  10  22  40  62  89 121 159 200 243 298 364
#     4  10  22  41  63  87 120 161 204 249 297 354
#     4  12  24  39  62  90 120 155 198 247 302 360
#     4  10  22  41  63  88 120 160 206 252 296 350
#
# _framework density 10.243449
#
# number of rings (size 3 to 8) (size 9 to 14) (size 15 to 20)
#    0.000    1.125    2.500    4.500    0.000    6.000 
#    0.000    0.625    0.000    3.750    0.000    0.000 
#    0.000    0.000    0.000    0.000    0.000    0.000 
#
# Total GULP energy -178545.526106 kJ/mol
# GULP energy per Si atom -5579.547691 kJ/mol
# Density = 1.022013 g / cm^3
# Si number density = 10.243449 Si / 1000 Ang^3
#
#
#
# Elastic Constant Matrix: (Units=GPa)
#
#
# Indices 1 2 3 4 5 6 
#
# 1 93.8701 48.7954 23.4786 0.0014 -24.1900 -0.0012
# 2 48.7954 109.9501 35.6681 -0.0001 -23.4653 -0.0007
# 3 23.4786 35.6681 76.0523 -0.0007 -26.3364 -0.0015
# 4 0.0014 -0.0001 -0.0007 11.8214 -0.0004 -11.6253
# 5 -24.1900 -23.4653 -26.3364 -0.0004 38.2330 0.0005
# 6 -0.0012 -0.0007 -0.0015 -11.6253 0.0005 32.0312
#
#
#
# Elastic Compliance Matrix: (Units=1/GPa)
#
#
# Indices 1 2 3 4 5 6 
#
# 1 0.015037 -0.005349 0.000032 -0.000002 0.006253 0.000000
# 2 -0.005349 0.013142 -0.003796 0.000001 0.002066 0.000000
# 3 0.000032 -0.003796 0.018543 0.000003 0.010463 0.000002
# 4 -0.000002 0.000001 0.000003 0.131541 0.000002 0.047741
# 5 0.006253 0.002066 0.010463 0.000002 0.038587 0.000001
# 6 0.000000 0.000000 0.000002 0.047741 0.000001 0.048546
#
#
# Mechanical properties :
#
#
# Convention : Reuss Voigt Hill
#
# Bulk Modulus (GPa) = 35.09552 55.08409 45.08980
# Shear Modulus (GPa) = 17.05778 27.87914 22.46846
#
# Velocity S-wave (km/s) = 2.88864 3.69294 3.31527
# Velocity P-wave (km/s) = 5.31917 6.71786 6.05901
#
# Compressibility (1/GPa) = 0.02849367
#
# Stress axis : x y z
#
# Youngs Moduli (GPa) = 66.50253 76.09478 53.92920
#
# Poissons Ratio (x) = 0.40705 -0.00172
# Poissons Ratio (y) = 0.35574 0.20474
# Poissons Ratio (z) = -0.00212 0.28889
#
# Static dielectric constant tensor:
#      x y z
#    x 1.717400 0.000000 0.017530 
#    y 0.000000 1.731140 0.000000 
#    z 0.017530 0.000000 1.873760 
# 
# From -- ./inp_files/295550.got.cif
#   From: 2010.05.17/outbox.ucp.g08.bks.cvg/sg12_148_cif.got.tgz:295550.got - 2010.06.11 11:47:21.
