data_PCOD9225273
_publ_section_title
;
Structure prediction by ZEFSAII (Michael W. Deem and Ramdas Pophale) SiO2 
 PCOD9225273
Probable space group: C 2/M
;
_chemical_formula_sum "Si O2"
_cell_formula_units_Z 32
_cell_length_a 21.000000
_cell_length_b 18.000000
_cell_length_c 24.000000
_cell_angle_alpha 90.000000
_cell_angle_beta 20.000000
_cell_angle_gamma 90.000000
_cell_volume 3102.806740
_symmetry_space_group_name_H-M "C 2/M"
_symmetry_group_IT_number 12
_symmetry_cell_setting 'monoclinic'
loop_
_space_group_symop_operation_xyz
x,y,z
-x,y,-z
-x,-y,-z
x,-y,z
1/2+x,1/2+y,z
1/2-x,1/2+y,-z
1/2-x,1/2-y,-z
1/2+x,1/2-y,z
loop_
_atom_site_type_symbol
_atom_site_label
_atom_site_fract_x
_atom_site_fract_y
_atom_site_fract_z
Si Si1 0.481291 0.705642 0.858768
Si Si2 0.312688 0.084431 0.186333
Si Si3 0.157617 0.587488 0.120448
Si Si4 0.561650 0.705057 0.668577
Si Si5 0.164585 0.416207 0.533387
Si Si6 0.917169 0.637647 0.217617
Si Si7 0.492412 0.308589 0.409391
Si Si8 0.604210 0.851200 0.468047
O O1 0.475360 0.729455 0.797745
O O2 0.484503 0.786212 0.884479
O O3 0.677804 0.669379 0.715271
O O4 0.327450 0.642889 0.991097
O O5 0.359506 0.089051 0.212807
O O6 0.138955 0.137362 0.317144
O O7 0.267838 0.000000 0.206456
O O8 0.500000 0.107456 0.000000
O O9 0.202502 0.500000 0.092510
O O10 0.997146 0.614101 0.294591
O O11 0.061658 0.597516 0.139349
O O12 0.750000 0.750000 0.500000
O O13 0.641027 0.624186 0.618233
O O14 0.455178 0.701439 0.698539
O O15 0.188960 0.500000 0.529610
O O16 0.096237 0.405289 0.527008
O O17 0.720758 0.660749 0.409308
O O18 0.490856 0.227458 0.438118
O O19 0.500000 0.880885 0.500000
#
# Coordination Sequence:
#
# PCOD9225273 Si02
#       8
#     8   8   8   8   8   8   8   8
#     4  10  22  36  62  93 121 152 203 254 306 360
#     4  11  27  44  57  88 130 164 201 245 294 359
#     4  11  23  38  58  89 127 160 198 255 309 360
#     4  11  18  38  63  93 118 155 196 256 303 355
#     4  10  21  37  58  88 123 155 198 247 298 359
#     4  11  21  40  64  86 117 162 209 245 299 358
#     4  11  21  38  68  89 118 160 206 248 296 358
#     4  10  21  40  65  90 118 155 203 251 302 364
#
# _framework density 10.313243
#
# number of rings (size 3 to 8) (size 9 to 14) (size 15 to 20)
#    0.000    1.375    5.000    2.625    1.750    5.250 
#    0.000    0.625    0.000    1.500    0.000    0.000 
#    0.000    0.000    0.000    0.000    0.000    0.000 
#
# Total GULP energy -178610.511953 kJ/mol
# GULP energy per Si atom -5581.578499 kJ/mol
# Density = 1.028977 g / cm^3
# Si number density = 10.313243 Si / 1000 Ang^3
#
#
#
# Elastic Constant Matrix: (Units=GPa)
#
#
# Indices 1 2 3 4 5 6 
#
# 1 72.5069 -20.2655 -2.0766 -0.0860 -12.9325 -0.0101
# 2 -20.2655 42.6453 31.4803 -0.0376 -11.8126 0.0135
# 3 -2.0766 31.4803 45.2090 -0.0769 -15.4182 0.0028
# 4 -0.0860 -0.0376 -0.0769 12.3058 0.0401 -8.8387
# 5 -12.9325 -11.8126 -15.4182 0.0401 24.4963 0.0023
# 6 -0.0101 0.0135 0.0028 -8.8387 0.0023 16.9710
#
#
#
# Elastic Compliance Matrix: (Units=1/GPa)
#
#
# Indices 1 2 3 4 5 6 
#
# 1 0.022634 0.021449 -0.008013 0.000182 0.017249 0.000090
# 2 0.021449 0.068718 -0.040367 0.000029 0.019053 -0.000023
# 3 -0.008013 -0.040367 0.053198 0.000214 0.009787 0.000129
# 4 0.000182 0.000029 0.000214 0.129832 0.000025 0.067618
# 5 0.017249 0.019053 0.009787 0.000025 0.065276 -0.000002
# 6 0.000090 -0.000023 0.000129 0.067618 -0.000002 0.094141
#
#
# Mechanical properties :
#
#
# Convention : Reuss Voigt Hill
#
# Bulk Modulus (GPa) = 11.02683 19.84862 15.43773
# Shear Modulus (GPa) = 9.65452 20.83616 15.24534
#
# Velocity S-wave (km/s) = 2.16583 3.18176 2.72162
# Velocity P-wave (km/s) = 3.40763 4.81060 4.16856
#
# Compressibility (1/GPa) = 0.09068792
#
# Stress axis : x y z
#
# Youngs Moduli (GPa) = 44.18154 14.55215 18.79754
#
# Poissons Ratio (x) = -0.31213 0.15063
# Poissons Ratio (y) = -0.94764 0.75881
# Poissons Ratio (z) = 0.35403 0.58743
#
# Static dielectric constant tensor:
#      x y z
#    x 1.737870 0.000000 0.050760 
#    y 0.000000 1.743820 0.000040 
#    z 0.050760 0.000040 1.772690 
# 
# From -- ./inp_files/347881.got.cif
#   From: 2010.05.17/outbox.ucp.g08.bks.cvg/sg12_174_cif.got.tgz:347881.got - 2010.06.11 11:47:21.
