data_PCOD9225704
_publ_section_title
;
Structure prediction by ZEFSAII (Michael W. Deem and Ramdas Pophale) SiO2 
 PCOD9225704
Probable space group: C 2/M
;
_chemical_formula_sum "Si O2"
_cell_formula_units_Z 20
_cell_length_a 15.000000
_cell_length_b 18.000000
_cell_length_c 21.000000
_cell_angle_alpha 90.000000
_cell_angle_beta 20.000000
_cell_angle_gamma 90.000000
_cell_volume 1939.254213
_symmetry_space_group_name_H-M "C 2/M"
_symmetry_group_IT_number 12
_symmetry_cell_setting 'monoclinic'
loop_
_space_group_symop_operation_xyz
x,y,z
-x,y,-z
-x,-y,-z
x,-y,z
1/2+x,1/2+y,z
1/2-x,1/2+y,-z
1/2-x,1/2-y,-z
1/2+x,1/2-y,z
loop_
_atom_site_type_symbol
_atom_site_label
_atom_site_fract_x
_atom_site_fract_y
_atom_site_fract_z
Si Si1 0.373595 0.171601 0.979924
Si Si2 0.645645 0.088139 0.273283
Si Si3 0.650173 0.331822 0.585850
Si Si4 0.400594 0.588411 0.637368
Si Si5 0.623863 0.655478 0.011833
O O1 0.457515 0.257849 0.930581
O O2 0.113839 0.168409 0.196443
O O3 0.612156 0.120914 0.841175
O O4 0.295829 0.148171 0.960032
O O5 0.370831 0.123475 0.475634
O O6 0.725131 0.131330 0.154135
O O7 0.636007 0.000000 0.267993
O O8 0.863665 0.106678 0.179513
O O9 0.750000 0.250000 0.500000
O O10 0.590358 0.375707 0.561370
O O11 0.500000 0.607909 0.500000
O O12 0.399234 0.500000 0.644671
#
# Coordination Sequence:
#
# PCOD9225704 Si02
#       5
#     8   8   8   8   8
#     4  11  24  41  67  96 130 170 216 268 323 384
#     4  11  23  42  68  94 129 173 214 262 323 388
#     4  12  24  42  65  98 134 169 214 269 323 386
#     4  11  26  45  67  95 132 174 217 268 327 390
#     4  10  22  42  63  97 126 169 219 262 319 382
#
# _framework density 10.313243
#
# number of rings (size 3 to 8) (size 9 to 14) (size 15 to 20)
#    0.000    1.000    2.000    4.800    5.600    6.400 
#    0.000    1.000    0.000    0.000    0.000    0.000 
#    0.000    0.000    0.000    0.000    0.000    0.000 
#
# Total GULP energy -111804.420543 kJ/mol
# GULP energy per Si atom -5590.221027 kJ/mol
# Density = 1.028977 g / cm^3
# Si number density = 10.313243 Si / 1000 Ang^3
#
#
#
# Elastic Constant Matrix: (Units=GPa)
#
#
# Indices 1 2 3 4 5 6 
#
# 1 29.1073 24.3841 -7.0242 -7.5798 -6.9676 2.6791
# 2 24.3841 87.2519 25.1554 -7.3008 -10.2448 2.4755
# 3 -7.0242 25.1554 94.6843 -14.0061 -14.1369 4.7537
# 4 -7.5798 -7.3008 -14.0061 -216.0218 6.8683 77.1582
# 5 -6.9676 -10.2448 -14.1369 6.8683 28.4290 -2.4458
# 6 2.6791 2.4755 4.7537 77.1582 -2.4458 9.7235
#
#
#
# Elastic Compliance Matrix: (Units=1/GPa)
#
#
# Indices 1 2 3 4 5 6 
#
# 1 0.052989 -0.016335 0.009892 -0.001538 0.012395 0.000046
# 2 -0.016335 0.017695 -0.005963 0.000344 -0.000675 0.000011
# 3 0.009892 -0.005963 0.013859 -0.000782 0.007363 0.000077
# 4 -0.001538 0.000344 -0.000782 -0.001102 0.000448 0.009575
# 5 0.012395 -0.000675 0.007363 0.000448 0.041527 0.000048
# 6 0.000046 0.000011 0.000077 0.009575 0.000048 0.026823
#
#
# Mechanical properties :
#
#
# Convention : Reuss Voigt Hill
#
# Bulk Modulus (GPa) = 16.74209 32.89713 24.81961
# Shear Modulus (GPa) = 25.44331 -24.33864 0.55233
#
# Velocity S-wave (km/s) = 3.51597 -3.43880 0.51803
# Velocity P-wave (km/s) = 4.96157 0.46530 3.52375
#
# Compressibility (1/GPa) = 0.05972970
#
# Stress axis : x y z
#
# Youngs Moduli (GPa) = 18.87166 56.51372 72.15406
#
# Poissons Ratio (x) = 0.92317 -0.71373
# Poissons Ratio (y) = 0.30828 0.43027
# Poissons Ratio (z) = -0.18667 0.33701
#
# Static dielectric constant tensor:
#      x y z
#    x 1.731540 -0.000230 0.000220 
#    y -0.000230 1.689260 0.000190 
#    z 0.000220 0.000190 1.767370 
# 
# From -- ./inp_files/145854.got.cif
#   From: 2010.05.17/outbox.ucp.g08.bks.cvg/sg12_73_cif.got.tgz:145854.got - 2010.06.11 11:47:21.
