data_PCOD9225453
_publ_section_title
;
Structure prediction by ZEFSAII (Michael W. Deem and Ramdas Pophale) SiO2 
 PCOD9225453
Probable space group: C 2/M
;
_chemical_formula_sum "Si O2"
_cell_formula_units_Z 32
_cell_length_a 18.000000
_cell_length_b 9.000000
_cell_length_c 30.000000
_cell_angle_alpha 90.000000
_cell_angle_beta 40.000000
_cell_angle_gamma 90.000000
_cell_volume 3123.947783
_symmetry_space_group_name_H-M "C 2/M"
_symmetry_group_IT_number 12
_symmetry_cell_setting 'monoclinic'
loop_
_space_group_symop_operation_xyz
x,y,z
-x,y,-z
-x,-y,-z
x,-y,z
1/2+x,1/2+y,z
1/2-x,1/2+y,-z
1/2-x,1/2-y,-z
1/2+x,1/2-y,z
loop_
_atom_site_type_symbol
_atom_site_label
_atom_site_fract_x
_atom_site_fract_y
_atom_site_fract_z
Si Si1 0.992553 0.165559 0.421390
Si Si2 0.383905 0.176033 0.213342
Si Si3 0.195104 0.329580 0.358896
Si Si4 0.160063 0.322064 0.945574
Si Si5 0.253826 0.669517 0.574360
Si Si6 0.570917 0.325235 0.189563
Si Si7 0.541755 0.321073 0.913223
Si Si8 0.025864 0.830675 0.669389
O O1 0.855529 0.183846 0.491461
O O2 0.032494 0.169350 0.351879
O O3 0.061113 0.291919 0.414899
O O4 0.020666 0.000000 0.426515
O O5 0.268076 0.231428 0.290781
O O6 0.485170 0.223287 0.201014
O O7 0.408090 0.261015 0.156104
O O8 0.381720 0.000000 0.206965
O O9 0.222580 0.500000 0.338538
O O10 0.226249 0.279232 0.393924
O O11 0.137895 0.500000 0.955258
O O12 0.297037 0.299591 0.884721
O O13 0.114981 0.247751 0.920513
O O14 0.086622 0.244190 0.018397
O O15 0.257027 0.500000 0.589114
O O16 0.126734 0.711560 0.617485
O O17 0.543847 0.500000 0.193485
O O18 0.550088 0.300478 0.252030
O O19 0.541476 0.500000 0.915012
O O20 0.072545 0.000000 0.653373
#
# Coordination Sequence:
#
# PCOD9225453 Si02
#       8
#     8   8   8   8   8   8   8   8
#     4  10  23  40  61  90 123 160 206 254 308 366
#     4  12  25  42  65  90 122 163 205 253 309 366
#     4  12  25  41  61  89 122 159 206 257 309 366
#     4  10  21  40  66  97 130 166 205 248 303 362
#     4  11  22  39  62  89 122 162 205 253 305 367
#     4  10  22  40  63  92 125 161 204 253 304 361
#     4  11  23  41  65  95 130 165 205 252 299 356
#     4  10  21  39  62  89 123 161 201 254 309 360
#
# _framework density 10.243449
#
# number of rings (size 3 to 8) (size 9 to 14) (size 15 to 20)
#    0.000    1.250    1.250    5.625    1.750    4.500 
#    0.000    0.000    0.000    0.000    0.000    0.000 
#    0.000    0.000    0.000    0.000    0.000    0.000 
#
# Total GULP energy -178747.930191 kJ/mol
# GULP energy per Si atom -5585.872818 kJ/mol
# Density = 1.022013 g / cm^3
# Si number density = 10.243449 Si / 1000 Ang^3
#
#
#
# Elastic Constant Matrix: (Units=GPa)
#
#
# Indices 1 2 3 4 5 6 
#
# 1 36.9913 30.3790 24.9363 -0.0001 -5.3017 -0.0005
# 2 30.3790 123.6761 48.4168 -0.0001 -7.4164 -0.0014
# 3 24.9363 48.4168 115.7444 0.0000 -0.3065 0.0000
# 4 -0.0001 -0.0001 0.0000 28.7195 0.0000 1.8311
# 5 -5.3017 -7.4164 -0.3065 0.0000 37.5518 -0.0001
# 6 -0.0005 -0.0014 0.0000 1.8311 -0.0001 25.2541
#
#
#
# Elastic Compliance Matrix: (Units=1/GPa)
#
#
# Indices 1 2 3 4 5 6 
#
# 1 0.036529 -0.006779 -0.005024 0.000000 0.003777 0.000000
# 2 -0.006779 0.011061 -0.003163 0.000000 0.001202 0.000000
# 3 -0.005024 -0.003163 0.011042 0.000000 -0.001244 0.000000
# 4 0.000000 0.000000 0.000000 0.034981 0.000000 -0.002536
# 5 0.003777 0.001202 -0.001244 0.000000 0.027390 0.000000
# 6 0.000000 0.000000 0.000000 -0.002536 0.000000 0.039781
#
#
# Mechanical properties :
#
#
# Convention : Reuss Voigt Hill
#
# Bulk Modulus (GPa) = 34.84448 53.76399 44.30423
# Shear Modulus (GPa) = 24.96441 29.81708 27.39074
#
# Velocity S-wave (km/s) = 3.49457 3.81914 3.66045
# Velocity P-wave (km/s) = 5.77302 6.76371 6.28791
#
# Compressibility (1/GPa) = 0.02869895
#
# Stress axis : x y z
#
# Youngs Moduli (GPa) = 27.37545 90.40519 90.56298
#
# Poissons Ratio (x) = 0.61290 0.45499
# Poissons Ratio (y) = 0.18559 0.28647
# Poissons Ratio (z) = 0.13753 0.28598
#
# Static dielectric constant tensor:
#      x y z
#    x 1.773620 0.000000 -0.017250 
#    y 0.000000 1.706290 0.000000 
#    z -0.017250 0.000000 1.707800 
# 
# From -- ./inp_files/378053.got.cif
#   From: 2010.05.17/outbox.ucp.g08.bks.cvg/sg12_190_cif.got.tgz:378053.got - 2010.06.11 11:47:21.
