data_PCOD9225649
_publ_section_title
;
Structure prediction by ZEFSAII (Michael W. Deem and Ramdas Pophale) SiO2 
 PCOD9225649
Probable space group: C 2/M
;
_chemical_formula_sum "Si O2"
_cell_formula_units_Z 28
_cell_length_a 15.000000
_cell_length_b 30.000000
_cell_length_c 12.000000
_cell_angle_alpha 90.000000
_cell_angle_beta 30.000000
_cell_angle_gamma 90.000000
_cell_volume 2700.000000
_symmetry_space_group_name_H-M "C 2/M"
_symmetry_group_IT_number 12
_symmetry_cell_setting 'monoclinic'
loop_
_space_group_symop_operation_xyz
x,y,z
-x,y,-z
-x,-y,-z
x,-y,z
1/2+x,1/2+y,z
1/2-x,1/2+y,-z
1/2-x,1/2-y,-z
1/2+x,1/2-y,z
loop_
_atom_site_type_symbol
_atom_site_label
_atom_site_fract_x
_atom_site_fract_y
_atom_site_fract_z
Si Si1 0.211384 0.135344 0.519255
Si Si2 0.623723 0.864820 0.030022
Si Si3 0.315564 0.301433 0.648604
Si Si4 0.176359 0.377419 0.240999
Si Si5 0.532242 0.553041 0.141821
Si Si6 0.177968 0.951634 0.234370
Si Si7 0.698068 0.297810 0.741745
O O1 0.412728 0.130129 0.260845
O O2 0.128488 0.160108 0.501338
O O3 0.210312 0.172458 0.617405
O O4 0.127229 0.088985 0.656934
O O5 0.668152 0.866409 0.116063
O O6 0.691830 0.823169 0.880682
O O7 0.703247 0.908283 0.883993
O O8 0.500000 0.286472 0.500000
O O9 0.245079 0.254481 0.675285
O O10 0.209467 0.329867 0.265691
O O11 0.000000 0.394294 0.500000
O O12 0.329866 0.416495 0.081875
O O13 0.495585 0.500000 0.146250
O O14 0.623471 0.547551 0.163736
O O15 0.000000 0.947004 0.500000
O O16 0.259688 0.000000 0.174379
O O17 0.500000 0.296819 0.000000
#
# Coordination Sequence:
#
# PCOD9225649 Si02
#       7
#     8   8   8   8   8   8   8
#     4  12  24  44  66  97 137 170 219 276 324 388
#     4  11  23  40  68  95 134 170 218 275 323 388
#     4  12  27  44  67  99 130 173 222 270 333 396
#     4  11  22  43  67  95 132 176 218 270 328 384
#     4  10  22  40  65  95 132 176 218 266 329 388
#     4   9  18  36  63  95 130 171 214 263 329 391
#     4  12  25  45  68  94 131 176 218 273 329 388
#
# _framework density 10.370369999999999
#
# number of rings (size 3 to 8) (size 9 to 14) (size 15 to 20)
#    0.000    1.000    2.857    5.143    0.000    1.429 
#    0.000    1.429    0.000    4.286    0.000    0.000 
#    0.000    0.000    0.000    0.000    0.000    0.000 
#
# Total GULP energy -156015.544680 kJ/mol
# GULP energy per Si atom -5571.983739 kJ/mol
# Density = 1.034677 g / cm^3
# Si number density = 10.370370 Si / 1000 Ang^3
#
#
#
# Elastic Constant Matrix: (Units=GPa)
#
#
# Indices 1 2 3 4 5 6 
#
# 1 36.4689 1.5237 -1.5945 -0.0003 17.7031 0.0001
# 2 1.5237 149.1849 48.9869 -0.0001 4.1935 0.0000
# 3 -1.5945 48.9869 111.6230 -0.0003 4.4196 0.0001
# 4 -0.0003 -0.0001 -0.0003 -5.6767 0.0005 19.4027
# 5 17.7031 4.1935 4.4196 0.0005 33.8957 -0.0002
# 6 0.0001 0.0000 0.0001 19.4027 -0.0002 23.4514
#
#
#
# Elastic Compliance Matrix: (Units=1/GPa)
#
#
# Indices 1 2 3 4 5 6 
#
# 1 0.036931 -0.000300 0.001429 -0.000001 -0.019438 0.000001
# 2 -0.000300 0.007843 -0.003432 0.000000 -0.000366 0.000000
# 3 0.001429 -0.003432 0.010552 0.000000 -0.001698 0.000000
# 4 -0.000001 0.000000 0.000000 -0.046020 0.000002 0.038075
# 5 -0.019438 -0.000366 -0.001698 0.000002 0.039921 -0.000001
# 6 0.000001 0.000000 0.000000 0.038075 -0.000001 0.011140
#
#
# Mechanical properties :
#
#
# Convention : Reuss Voigt Hill
#
# Bulk Modulus (GPa) = 19.71572 43.90100 31.80836
# Shear Modulus (GPa) = 61.06441 26.89147 43.97794
#
# Velocity S-wave (km/s) = 5.43191 3.60467 4.60974
# Velocity P-wave (km/s) = 6.99052 6.20785 6.61078
#
# Compressibility (1/GPa) = 0.05072093
#
# Stress axis : x y z
#
# Youngs Moduli (GPa) = 27.07733 127.49618 94.76433
#
# Poissons Ratio (x) = 0.03825 -0.13540
# Poissons Ratio (y) = 0.00812 0.32522
# Poissons Ratio (z) = -0.03869 0.43756
#
# Static dielectric constant tensor:
#      x y z
#    x 1.883690 0.000000 -0.045920 
#    y 0.000000 1.783480 0.000000 
#    z -0.045920 0.000000 1.739300 
# 
# From -- ./inp_files/150427.got.cif
#   From: 2010.05.17/outbox.ucp.g08.bks.cvg/sg12_76_cif.got.tgz:150427.got - 2010.06.11 11:47:21.
