data_PCOD9225016
_publ_section_title
;
Structure prediction by ZEFSAII (Michael W. Deem and Ramdas Pophale) SiO2 
 PCOD9225016
Probable space group: C 2/M
;
_chemical_formula_sum "Si O2"
_cell_formula_units_Z 24
_cell_length_a 24.000000
_cell_length_b 12.000000
_cell_length_c 9.000000
_cell_angle_alpha 90.000000
_cell_angle_beta 110.000000
_cell_angle_gamma 90.000000
_cell_volume 2435.683273
_symmetry_space_group_name_H-M "C 2/M"
_symmetry_group_IT_number 12
_symmetry_cell_setting 'monoclinic'
loop_
_space_group_symop_operation_xyz
x,y,z
-x,y,-z
-x,-y,-z
x,-y,z
1/2+x,1/2+y,z
1/2-x,1/2+y,-z
1/2-x,1/2-y,-z
1/2+x,1/2-y,z
loop_
_atom_site_type_symbol
_atom_site_label
_atom_site_fract_x
_atom_site_fract_y
_atom_site_fract_z
Si Si1 0.969160 0.000000 0.627258
Si Si2 0.835569 0.819384 0.843375
Si Si3 0.802188 0.377269 0.341514
Si Si4 0.064169 0.000000 0.968789
Si Si5 0.857723 0.376761 0.069803
Si Si6 0.004771 0.632349 0.831724
Si Si7 0.600452 0.733438 0.397513
O O1 0.927027 0.109405 0.603630
O O2 0.000000 0.000000 0.500000
O O3 0.029602 0.000000 0.782261
O O4 0.769676 0.861069 0.734177
O O5 0.866488 0.770074 0.728137
O O6 0.888330 0.900204 0.956270
O O7 0.827148 0.719183 0.949121
O O8 0.812647 0.500000 0.422601
O O9 0.824375 0.383588 0.193634
O O10 0.847566 0.285125 0.451171
O O11 0.000000 0.000000 0.000000
O O12 0.856166 0.500000 0.995679
O O13 0.927328 0.349022 0.154528
O O14 0.993464 0.500000 0.821985
O O15 0.957488 0.689632 0.680310
O O16 0.000000 0.672363 0.000000
#
# Coordination Sequence:
#
# PCOD9225016 Si02
#       7
#     4   8   8   4   8   8   8
#     4  12  30  46  66 108 142 176 226 286 351 405
#     4  12  23  45  72  97 130 180 232 282 331 409
#     4  11  26  46  64  97 140 181 224 275 346 412
#     4  12  24  46  78 100 132 177 233 289 337 405
#     4  10  23  41  66 101 133 168 228 278 337 407
#     4  10  20  38  68 100 127 164 218 277 331 393
#     4  12  25  43  69  97 135 178 223 281 343 404
#
# _framework density 9.8534980000000001
#
# number of rings (size 3 to 8) (size 9 to 14) (size 15 to 20)
#    0.000    0.833    4.167    2.500    4.667    0.667 
#    1.500    2.500    0.000    0.000    0.000    0.000 
#    0.000    0.000    0.000    0.000    0.000    0.000 
#
# Total GULP energy -133613.261263 kJ/mol
# GULP energy per Si atom -5567.219219 kJ/mol
# Density = 0.983107 g / cm^3
# Si number density = 9.853498 Si / 1000 Ang^3
#
#
#
# Elastic Constant Matrix: (Units=GPa)
#
#
# Indices 1 2 3 4 5 6 
#
# 1 -59.9373 -64.2782 -51.2260 0.0000 37.4183 0.0000
# 2 -64.2782 68.3278 9.5690 0.0000 34.5928 0.0000
# 3 -51.2260 9.5690 58.6668 0.0000 24.7897 0.0000
# 4 0.0000 0.0000 0.0000 253.6488 0.0000 433.3249
# 5 37.4183 34.5928 24.7897 0.0000 44.6739 0.0000
# 6 0.0000 0.0000 0.0000 433.3249 0.0000 810.0406
#
#
#
# Elastic Compliance Matrix: (Units=1/GPa)
#
#
# Indices 1 2 3 4 5 6 
#
# 1 -0.001977 -0.005442 -0.004335 0.000000 0.008275 0.000000
# 2 -0.005442 0.010349 -0.006505 0.000000 0.000154 0.000000
# 3 -0.004335 -0.006505 0.013923 0.000000 0.000942 0.000000
# 4 0.000000 0.000000 0.000000 0.045777 0.000000 -0.024488
# 5 0.008275 0.000154 0.000942 0.000000 0.014811 0.000000
# 6 0.000000 0.000000 0.000000 -0.024488 0.000000 0.014334
#
#
# Mechanical properties :
#
#
# Convention : Reuss Voigt Hill
#
# Bulk Modulus (GPa) = -97.37627 -16.09034 -56.73331
# Shear Modulus (GPa) = 39.57014 233.20549 136.38782
#
# Velocity S-wave (km/s) = 4.48585 10.89005 8.32815
# Velocity P-wave (km/s) = 4.76328 12.24508 7.97662
#
# Compressibility (1/GPa) = -0.01026944
#
# Stress axis : x y z
#
# Youngs Moduli (GPa) = -505.88432 96.63130 71.82338
#
# Poissons Ratio (x) = 0.52587 0.31136
# Poissons Ratio (y) = -2.75304 0.46721
# Poissons Ratio (z) = -2.19306 0.62859
#
# Static dielectric constant tensor:
#      x y z
#    x 1.647530 0.000000 -0.179590 
#    y 0.000000 1.736270 0.000000 
#    z -0.179590 0.000000 0.658460 
# 
# From -- ./inp_files/95007.got.cif
#   From: 2010.05.17/outbox.ucp.g08.bks.cvg/sg12_48_cif.got.tgz:95007.got - 2010.06.11 11:47:21.
