data_PCOD9225570
_publ_section_title
;
Structure prediction by ZEFSAII (Michael W. Deem and Ramdas Pophale) SiO2 
 PCOD9225570
Probable space group: C 2/M
;
_chemical_formula_sum "Si O2"
_cell_formula_units_Z 20
_cell_length_a 18.000000
_cell_length_b 12.000000
_cell_length_c 9.000000
_cell_angle_alpha 90.000000
_cell_angle_beta 80.000000
_cell_angle_gamma 90.000000
_cell_volume 1914.466272
_symmetry_space_group_name_H-M "C 2/M"
_symmetry_group_IT_number 12
_symmetry_cell_setting 'monoclinic'
loop_
_space_group_symop_operation_xyz
x,y,z
-x,y,-z
-x,-y,-z
x,-y,z
1/2+x,1/2+y,z
1/2-x,1/2+y,-z
1/2-x,1/2-y,-z
1/2+x,1/2-y,z
loop_
_atom_site_type_symbol
_atom_site_label
_atom_site_fract_x
_atom_site_fract_y
_atom_site_fract_z
Si Si1 0.466573 0.870700 0.348928
Si Si2 0.580157 0.500000 0.073203
Si Si3 0.828471 0.799617 0.412789
Si Si4 0.319537 0.295489 0.075587
Si Si5 0.589340 0.500000 0.431955
Si Si6 0.573283 0.120098 0.072671
O O1 0.500000 0.876178 0.500000
O O2 0.392771 0.795301 0.375207
O O3 0.536504 0.821840 0.228347
O O4 0.451839 0.000000 0.306032
O O5 0.582558 0.500000 0.253598
O O6 0.500000 0.500000 0.000000
O O7 0.629545 0.392431 0.012419
O O8 0.750000 0.750000 0.500000
O O9 0.807651 0.833142 0.249711
O O10 0.866202 0.894773 0.505910
O O11 0.250000 0.250000 0.000000
O O12 0.371148 0.186725 0.048642
O O13 0.500000 0.500000 0.500000
O O14 0.605657 0.000000 0.106344
O O15 0.500000 0.106521 0.000000
#
# Coordination Sequence:
#
# PCOD9225570 Si02
#       6
#     8   4   8   8   4   8
#     4  10  23  42  70 102 135 179 230 288 351 428
#     4  12  28  50  78 106 144 192 252 300 362 447
#     4  12  27  46  71 103 149 189 236 295 363 430
#     4  12  27  45  71 105 145 188 240 299 358 425
#     4  12  28  50  76 106 144 198 246 302 368 442
#     4  10  21  42  71 100 131 177 233 289 352 423
#
# _framework density 10.446776
#
# number of rings (size 3 to 8) (size 9 to 14) (size 15 to 20)
#    0.000    0.800    2.000    4.200   11.200    0.000 
#    0.000    0.000    0.000    0.000    0.000    0.000 
#    0.000    0.000    0.000    0.000    0.000    0.000 
#
# Total GULP energy -111374.782460 kJ/mol
# GULP energy per Si atom -5568.739123 kJ/mol
# Density = 1.042300 g / cm^3
# Si number density = 10.446776 Si / 1000 Ang^3
#
#
#
# Elastic Constant Matrix: (Units=GPa)
#
#
# Indices 1 2 3 4 5 6 
#
# 1 128.0739 62.1741 59.7547 0.0000 19.4095 0.0000
# 2 62.1741 91.0692 39.4211 0.0000 0.6495 0.0000
# 3 59.7547 39.4211 199.2310 0.0000 7.7179 0.0000
# 4 0.0000 0.0000 0.0000 43.2897 0.0000 8.5171
# 5 19.4095 0.6495 7.7179 0.0000 37.5040 0.0000
# 6 0.0000 0.0000 0.0000 8.5171 0.0000 25.7037
#
#
#
# Elastic Compliance Matrix: (Units=1/GPa)
#
#
# Indices 1 2 3 4 5 6 
#
# 1 0.014015 -0.008544 -0.002255 0.000000 -0.006641 0.000000
# 2 -0.008544 0.017221 -0.001013 0.000000 0.004332 0.000000
# 3 -0.002255 -0.001013 0.005897 0.000000 -0.000029 0.000000
# 4 0.000000 0.000000 0.000000 0.024711 0.000000 -0.008188
# 5 -0.006641 0.004332 -0.000029 0.000000 0.030032 0.000000
# 6 0.000000 0.000000 0.000000 -0.008188 0.000000 0.041618
#
#
# Mechanical properties :
#
#
# Convention : Reuss Voigt Hill
#
# Bulk Modulus (GPa) = 74.02798 82.34155 78.18476
# Shear Modulus (GPa) = 30.93645 38.43444 34.68544
#
# Velocity S-wave (km/s) = 3.85212 4.29363 4.07886
# Velocity P-wave (km/s) = 7.43593 8.00475 7.72558
#
# Compressibility (1/GPa) = 0.01350841
#
# Stress axis : x y z
#
# Youngs Moduli (GPa) = 71.35426 58.06731 169.57000
#
# Poissons Ratio (x) = 0.49614 0.38246
# Poissons Ratio (y) = 0.60967 0.17172
# Poissons Ratio (z) = 0.16094 0.05880
#
# Static dielectric constant tensor:
#      x y z
#    x 1.679760 0.000000 0.048200 
#    y 0.000000 1.893590 0.000000 
#    z 0.048200 0.000000 1.890380 
# 
# From -- ./inp_files/71256.got.cif
#   From: 2010.05.17/outbox.ucp.g08.bks.cvg/sg12_36_cif.got.tgz:71256.got - 2010.06.11 11:47:21.
