data_PCOD9225403
_publ_section_title
;
Structure prediction by ZEFSAII (Michael W. Deem and Ramdas Pophale) SiO2 
 PCOD9225403
Probable space group: C 2/M
;
_chemical_formula_sum "Si O2"
_cell_formula_units_Z 32
_cell_length_a 21.000000
_cell_length_b 18.000000
_cell_length_c 12.000000
_cell_angle_alpha 90.000000
_cell_angle_beta 130.000000
_cell_angle_gamma 90.000000
_cell_volume 3474.777594
_symmetry_space_group_name_H-M "C 2/M"
_symmetry_group_IT_number 12
_symmetry_cell_setting 'monoclinic'
loop_
_space_group_symop_operation_xyz
x,y,z
-x,y,-z
-x,-y,-z
x,-y,z
1/2+x,1/2+y,z
1/2-x,1/2+y,-z
1/2-x,1/2-y,-z
1/2+x,1/2-y,z
loop_
_atom_site_type_symbol
_atom_site_label
_atom_site_fract_x
_atom_site_fract_y
_atom_site_fract_z
Si Si1 0.307560 0.089184 0.796093
Si Si2 0.535637 0.670726 0.288362
Si Si3 0.782719 0.177295 0.109038
Si Si4 0.263273 0.324287 0.707902
Si Si5 0.364694 0.410851 0.013936
Si Si6 0.410263 0.255874 0.422892
Si Si7 0.799101 0.914373 0.541606
Si Si8 0.583767 0.213480 0.164886
O O1 0.280444 0.139534 0.872511
O O2 0.234375 0.095944 0.621282
O O3 0.386783 0.128927 0.825542
O O4 0.318324 0.000000 0.831086
O O5 0.449579 0.636075 0.141193
O O6 0.557307 0.688668 0.442527
O O7 0.605887 0.610353 0.337672
O O8 0.557680 0.749388 0.253152
O O9 0.805541 0.111993 0.049705
O O10 0.867326 0.201337 0.269842
O O11 0.750000 0.250000 0.000000
O O12 0.171515 0.293838 0.637540
O O13 0.251546 0.362602 0.575210
O O14 0.332358 0.259151 0.773564
O O15 0.312349 0.379847 0.848204
O O16 0.379764 0.500000 0.022787
O O17 0.500000 0.216093 0.500000
O O18 0.787729 0.000000 0.558048
O O19 0.500000 0.227320 0.000000
#
# Coordination Sequence:
#
# PCOD9225403 Si02
#       8
#     8   8   8   8   8   8   8   8
#     4  11  23  40  63  95 128 167 212 271 333 382
#     4  11  22  37  60  99 127 168 215 263 324 392
#     4  12  23  43  65  90 125 173 222 265 325 390
#     4  11  22  42  63  94 127 178 219 267 316 391
#     4  12  24  39  63  98 138 173 210 270 340 397
#     4  12  23  39  66  91 120 165 230 271 315 379
#     4  10  21  38  62  91 131 169 205 262 329 388
#     4  11  21  38  64  90 127 167 213 263 313 388
#
# _framework density 9.2092220000000005
#
# number of rings (size 3 to 8) (size 9 to 14) (size 15 to 20)
#    0.000    0.750    6.250    1.875    0.000    2.250 
#    0.000    2.500    0.000    1.500    0.000    0.000 
#    0.000    0.000    0.000    0.000    0.000    0.000 
#
# Total GULP energy -178151.800543 kJ/mol
# GULP energy per Si atom -5567.243767 kJ/mol
# Density = 0.918826 g / cm^3
# Si number density = 9.209222 Si / 1000 Ang^3
#
#
#
# Elastic Constant Matrix: (Units=GPa)
#
#
# Indices 1 2 3 4 5 6 
#
# 1 67.1209 35.2485 20.6512 0.0000 10.8538 0.0000
# 2 35.2485 109.5319 29.9367 0.0000 -3.8223 0.0000
# 3 20.6512 29.9367 95.0106 0.0000 5.6925 0.0000
# 4 0.0000 0.0000 0.0000 33.9340 0.0000 0.3812
# 5 10.8538 -3.8223 5.6925 0.0000 37.3590 0.0000
# 6 0.0000 0.0000 0.0000 0.3812 0.0000 23.2596
#
#
#
# Elastic Compliance Matrix: (Units=1/GPa)
#
#
# Indices 1 2 3 4 5 6 
#
# 1 0.019629 -0.005973 -0.002025 0.000000 -0.006005 0.000000
# 2 -0.005973 0.011893 -0.002650 0.000000 0.003356 0.000000
# 3 -0.002025 -0.002650 0.011890 0.000000 -0.001495 0.000000
# 4 0.000000 0.000000 0.000000 0.029474 0.000000 -0.000483
# 5 -0.006005 0.003356 -0.001495 0.000000 0.029083 0.000000
# 6 0.000000 0.000000 0.000000 -0.000483 0.000000 0.043001
#
#
# Mechanical properties :
#
#
# Convention : Reuss Voigt Hill
#
# Bulk Modulus (GPa) = 45.21519 49.25959 47.23739
# Shear Modulus (GPa) = 28.79529 31.29896 30.04712
#
# Velocity S-wave (km/s) = 3.95827 4.12676 4.04339
# Velocity P-wave (km/s) = 6.74483 7.03631 6.89211
#
# Compressibility (1/GPa) = 0.02211646
#
# Stress axis : x y z
#
# Youngs Moduli (GPa) = 50.94412 84.07988 84.10538
#
# Poissons Ratio (x) = 0.50222 0.17029
# Poissons Ratio (y) = 0.30430 0.22290
# Poissons Ratio (z) = 0.10315 0.22283
#
# Static dielectric constant tensor:
#      x y z
#    x 1.720320 0.000000 -0.041100 
#    y 0.000000 1.646100 0.000000 
#    z -0.041100 0.000000 1.638390 
# 
# From -- ./inp_files/168808.got.cif
#   From: 2010.05.17/outbox.ucp.g08.bks.cvg/sg12_85_cif.got.tgz:168808.got - 2010.06.11 11:47:21.
