data_PCOD9225183
_publ_section_title
;
Structure prediction by ZEFSAII (Michael W. Deem and Ramdas Pophale) SiO2 
 PCOD9225183
Probable space group: C 2/M
;
_chemical_formula_sum "Si O2"
_cell_formula_units_Z 25
_cell_length_a 30.000000
_cell_length_b 9.000000
_cell_length_c 12.000000
_cell_angle_alpha 90.000000
_cell_angle_beta 60.000000
_cell_angle_gamma 90.000000
_cell_volume 2805.922308
_symmetry_space_group_name_H-M "C 2/M"
_symmetry_group_IT_number 12
_symmetry_cell_setting 'monoclinic'
loop_
_space_group_symop_operation_xyz
x,y,z
-x,y,-z
-x,-y,-z
x,-y,z
1/2+x,1/2+y,z
1/2-x,1/2+y,-z
1/2-x,1/2-y,-z
1/2+x,1/2-y,z
loop_
_atom_site_type_symbol
_atom_site_label
_atom_site_fract_x
_atom_site_fract_y
_atom_site_fract_z
Si Si1 0.964945 0.777284 0.688543
Si Si2 0.924348 0.166216 0.369120
Si Si3 0.889219 0.821131 0.979547
Si Si4 0.869166 0.166895 0.657549
Si Si5 0.194060 0.322405 0.074971
Si Si6 0.442283 0.822608 0.114702
Si Si7 0.000000 0.500000 0.500000
O O1 0.936990 0.770778 0.842337
O O2 0.922001 0.846221 0.661934
O O3 0.020272 0.846906 0.640683
O O4 0.978070 0.625697 0.612377
O O5 0.885068 0.219598 0.514261
O O6 0.932342 0.270785 0.253361
O O7 0.908813 0.000000 0.352595
O O8 0.840117 0.748242 0.981375
O O9 0.885890 0.000000 0.981377
O O10 0.901770 0.759494 0.085383
O O11 0.833380 0.273339 0.775092
O O12 0.846945 0.000000 0.678225
O O13 0.195608 0.500000 0.064288
O O14 0.250000 0.250000 0.000000
O O15 0.437363 0.000000 0.111369
O O16 0.500000 0.781996 0.000000
#
# Coordination Sequence:
#
# PCOD9225183 Si02
#       7
#     8   8   8   8   8   8   2
#     4  11  21  31  50  75 113 153 190 232 282 335
#     4  11  21  34  53  77 114 156 196 233 277 336
#     4  11  23  39  59  82 114 151 196 240 286 341
#     4  10  21  36  55  82 113 148 191 235 290 344
#     4  11  23  40  65  90 116 144 185 238 297 348
#     4  11  24  36  53  80 116 160 202 240 278 332
#     4  12  24  28  46  78 120 148 194 236 286 336
#
# _framework density 8.9097259999999991
#
# number of rings (size 3 to 8) (size 9 to 14) (size 15 to 20)
#    0.000    1.120    3.200    4.800    6.720    2.560 
#    0.000    0.000    0.000    0.960    0.000    0.000 
#    0.000    0.000    0.000    0.000    0.000    0.000 
#
# Total GULP energy -139171.637371 kJ/mol
# GULP energy per Si atom -5566.865495 kJ/mol
# Density = 0.888945 g / cm^3
# Si number density = 8.909726 Si / 1000 Ang^3
#
#
#
# Elastic Constant Matrix: (Units=GPa)
#
#
# Indices 1 2 3 4 5 6 
#
# 1 75.8400 52.4670 54.2180 0.0000 -11.7152 0.0000
# 2 52.4670 144.1137 61.5597 0.0000 -2.1677 0.0000
# 3 54.2180 61.5597 111.7586 0.0000 7.6652 0.0000
# 4 0.0000 0.0000 0.0000 25.3732 0.0000 11.4162
# 5 -11.7152 -2.1677 7.6652 0.0000 16.8326 0.0000
# 6 0.0000 0.0000 0.0000 11.4162 0.0000 26.2863
#
#
#
# Elastic Compliance Matrix: (Units=1/GPa)
#
#
# Indices 1 2 3 4 5 6 
#
# 1 0.030879 -0.004746 -0.014243 0.000000 0.027366 0.000000
# 2 -0.004746 0.010014 -0.003175 0.000000 -0.000568 0.000000
# 3 -0.014243 -0.003175 0.018905 0.000000 -0.018930 0.000000
# 4 0.000000 0.000000 0.000000 0.048983 0.000000 -0.021274
# 5 0.027366 -0.000568 -0.018930 0.000000 0.087002 0.000000
# 6 0.000000 0.000000 0.000000 -0.021274 0.000000 0.047282
#
#
# Mechanical properties :
#
#
# Convention : Reuss Voigt Hill
#
# Bulk Modulus (GPa) = 64.64082 74.24462 69.44272
# Shear Modulus (GPa) = 17.09112 24.59624 20.84368
#
# Velocity S-wave (km/s) = 3.10034 3.71927 3.42382
# Velocity P-wave (km/s) = 7.01215 7.75883 7.39492
#
# Compressibility (1/GPa) = 0.01547010
#
# Stress axis : x y z
#
# Youngs Moduli (GPa) = 32.38483 99.85523 52.89694
#
# Poissons Ratio (x) = 0.47394 0.75340
# Poissons Ratio (y) = 0.15371 0.16793
# Poissons Ratio (z) = 0.46125 0.31701
#
# Static dielectric constant tensor:
#      x y z
#    x 1.604630 0.000000 0.010010 
#    y 0.000000 1.630770 0.000000 
#    z 0.010010 0.000000 1.608500 
# 
# From -- ./inp_files/186304.got.cif
#   From: 2010.05.17/outbox.ucp.g08.bks.cvg/sg12_94_cif.got.tgz:186304.got - 2010.06.11 11:47:21.
