data_PCOD9225799
_publ_section_title
;
Structure prediction by ZEFSAII (Michael W. Deem and Ramdas Pophale) SiO2 
 PCOD9225799
Probable space group: C 2/M
;
_chemical_formula_sum "Si O2"
_cell_formula_units_Z 25
_cell_length_a 15.000000
_cell_length_b 15.000000
_cell_length_c 12.000000
_cell_angle_alpha 90.000000
_cell_angle_beta 110.000000
_cell_angle_gamma 90.000000
_cell_volume 2537.170076
_symmetry_space_group_name_H-M "C 2/M"
_symmetry_group_IT_number 12
_symmetry_cell_setting 'monoclinic'
loop_
_space_group_symop_operation_xyz
x,y,z
-x,y,-z
-x,-y,-z
x,-y,z
1/2+x,1/2+y,z
1/2-x,1/2+y,-z
1/2-x,1/2-y,-z
1/2+x,1/2-y,z
loop_
_atom_site_type_symbol
_atom_site_label
_atom_site_fract_x
_atom_site_fract_y
_atom_site_fract_z
Si Si1 0.938951 0.396214 0.810836
Si Si2 0.580318 0.849942 0.450584
Si Si3 0.528549 0.349615 0.353281
Si Si4 0.405028 0.743233 0.121345
Si Si5 0.775539 0.101411 0.652098
Si Si6 0.302111 0.252476 0.852680
Si Si7 0.000000 0.000000 0.500000
O O1 0.944949 0.500000 0.850800
O O2 0.922302 0.395127 0.670901
O O3 0.852810 0.338023 0.828488
O O4 0.035691 0.336603 0.865969
O O5 0.500000 0.885475 0.500000
O O6 0.553867 0.746216 0.417705
O O7 0.683122 0.863902 0.547912
O O8 0.475583 0.323375 0.216012
O O9 0.629804 0.397946 0.382070
O O10 0.468373 0.419448 0.398921
O O11 0.307039 0.746135 0.151103
O O12 0.368702 0.717725 0.983701
O O13 0.799096 0.172361 0.757509
O O14 0.757998 0.000000 0.683394
#
# Coordination Sequence:
#
# PCOD9225799 Si02
#       7
#     8   8   8   8   8   8   2
#     4  11  24  43  72 103 134 181 235 291 347 411
#     4  11  23  42  67  93 138 175 217 279 354 402
#     4  11  23  42  64  95 131 172 212 280 331 403
#     4  10  24  46  67  96 137 180 222 280 357 398
#     4  12  24  40  64  96 129 176 222 269 332 413
#     4  11  24  44  70  97 136 179 228 285 342 412
#     4  12  24  40  68 102 128 168 238 268 330 412
#
# _framework density 9.8534980000000001
#
# number of rings (size 3 to 8) (size 9 to 14) (size 15 to 20)
#    0.000    0.960    4.800    3.360    0.000    4.480 
#    5.760    2.400    0.000    0.000    0.000    0.000 
#    0.000    0.000    0.000    0.000    0.000    0.000 
#
# Total GULP energy -139292.236657 kJ/mol
# GULP energy per Si atom -5571.689466 kJ/mol
# Density = 0.983107 g / cm^3
# Si number density = 9.853498 Si / 1000 Ang^3
#
#
#
# Elastic Constant Matrix: (Units=GPa)
#
#
# Indices 1 2 3 4 5 6 
#
# 1 89.7835 -3.7022 19.6060 0.0000 21.5680 0.0000
# 2 -3.7022 102.2199 15.7346 0.0000 14.3484 0.0000
# 3 19.6060 15.7346 102.8117 0.0000 25.5778 0.0000
# 4 0.0000 0.0000 0.0000 8.0576 0.0000 0.9193
# 5 21.5680 14.3484 25.5778 0.0000 35.2127 0.0000
# 6 0.0000 0.0000 0.0000 0.9193 0.0000 4.3915
#
#
#
# Elastic Compliance Matrix: (Units=1/GPa)
#
#
# Indices 1 2 3 4 5 6 
#
# 1 0.013387 0.001776 -0.000738 0.000000 -0.008387 0.000000
# 2 0.001776 0.010648 -0.000755 0.000000 -0.004878 0.000000
# 3 -0.000738 -0.000755 0.011954 0.000000 -0.007924 0.000000
# 4 0.000000 0.000000 0.000000 0.127144 0.000000 -0.026615
# 5 -0.008387 -0.004878 -0.007924 0.000000 0.041279 0.000000
# 6 0.000000 0.000000 0.000000 -0.026615 0.000000 0.233285
#
#
# Mechanical properties :
#
#
# Convention : Reuss Voigt Hill
#
# Bulk Modulus (GPa) = 27.35583 39.78798 33.57191
# Shear Modulus (GPa) = 11.12802 27.07747 19.10274
#
# Velocity S-wave (km/s) = 2.37886 3.71078 3.11680
# Velocity P-wave (km/s) = 4.63214 6.21236 5.47951
#
# Compressibility (1/GPa) = 0.03655528
#
# Stress axis : x y z
#
# Youngs Moduli (GPa) = 74.69896 93.91378 83.65397
#
# Poissons Ratio (x) = -0.16677 0.06174
# Poissons Ratio (y) = -0.13265 0.06312
# Poissons Ratio (z) = 0.05513 0.07087
#
# Static dielectric constant tensor:
#      x y z
#    x 1.751930 0.000000 -0.056620 
#    y 0.000000 1.705300 0.000000 
#    z -0.056620 0.000000 1.714340 
# 
# From -- ./inp_files/143632.got.cif
#   From: 2010.05.17/outbox.ucp.g08.bks.cvg/sg12_72_cif.got.tgz:143632.got - 2010.06.11 11:47:21.
