data_PCOD9225790
_publ_section_title
;
Structure prediction by ZEFSAII (Michael W. Deem and Ramdas Pophale) SiO2 
 PCOD9225790
Probable space group: C 2/M
;
_chemical_formula_sum "Si O2"
_cell_formula_units_Z 28
_cell_length_a 21.000000
_cell_length_b 30.000000
_cell_length_c 9.000000
_cell_angle_alpha 90.000000
_cell_angle_beta 150.000000
_cell_angle_gamma 90.000000
_cell_volume 2835.000000
_symmetry_space_group_name_H-M "C 2/M"
_symmetry_group_IT_number 12
_symmetry_cell_setting 'monoclinic'
loop_
_space_group_symop_operation_xyz
x,y,z
-x,y,-z
-x,-y,-z
x,-y,z
1/2+x,1/2+y,z
1/2-x,1/2+y,-z
1/2-x,1/2-y,-z
1/2+x,1/2-y,z
loop_
_atom_site_type_symbol
_atom_site_label
_atom_site_fract_x
_atom_site_fract_y
_atom_site_fract_z
Si Si1 0.377921 0.857970 0.349942
Si Si2 0.091068 0.500000 0.525865
Si Si3 0.641758 0.615921 0.343022
Si Si4 0.120063 0.747592 0.645043
Si Si5 0.615618 0.083610 0.349814
Si Si6 0.151943 0.000000 0.778171
Si Si7 0.361371 0.720282 0.654056
Si Si8 0.363456 0.398682 0.313945
O O1 0.500000 0.874464 0.500000
O O2 0.396743 0.805325 0.409149
O O3 0.375271 0.877821 0.509186
O O4 0.248233 0.872556 0.001429
O O5 0.082377 0.541898 0.393872
O O6 0.000000 0.500000 0.500000
O O7 0.238984 0.500000 0.875927
O O8 0.752769 0.587232 0.483120
O O9 0.662506 0.668536 0.352600
O O10 0.636179 0.614429 0.511923
O O11 0.500000 0.603016 0.000000
O O12 0.132817 0.771857 0.512255
O O13 0.000000 0.764695 0.500000
O O14 0.250000 0.750000 0.000000
O O15 0.500000 0.088323 0.000000
O O16 0.171466 0.951360 0.747363
O O17 0.000000 0.000000 0.500000
O O18 0.250000 0.750000 0.500000
O O19 0.500000 0.732624 0.000000
O O20 0.500000 0.393887 0.500000
#
# Coordination Sequence:
#
# PCOD9225790 Si02
#       8
#     8   4   8   8   8   4   8   8
#     4  11  23  41  65  95 131 176 225 279 334 399
#     4  12  27  48  74 102 141 176 224 273 333 401
#     4  11  26  43  66  99 135 176 224 279 339 398
#     4  11  24  40  64  97 129 170 229 285 332 390
#     4  12  26  44  67 101 138 176 223 279 335 400
#     4  10  24  42  72 100 129 175 221 259 330 388
#     4  11  24  43  65  93 134 181 221 274 345 409
#     4  11  23  43  69  95 133 175 225 271 333 400
#
# _framework density 9.8765429999999999
#
# number of rings (size 3 to 8) (size 9 to 14) (size 15 to 20)
#    0.000    0.857    1.429    4.929    4.000    9.714 
#    0.000    0.714    0.000    0.000    0.000    0.000 
#    0.000    0.000    0.000    0.000    0.000    0.000 
#
# Total GULP energy -156235.567610 kJ/mol
# GULP energy per Si atom -5579.841700 kJ/mol
# Density = 0.985406 g / cm^3
# Si number density = 9.876543 Si / 1000 Ang^3
#
#
#
# Elastic Constant Matrix: (Units=GPa)
#
#
# Indices 1 2 3 4 5 6 
#
# 1 164.8949 13.6688 62.7374 0.0000 1.5411 0.0000
# 2 13.6688 55.7788 -0.5127 0.0000 0.6945 0.0000
# 3 62.7374 -0.5127 160.2388 0.0000 -6.2415 0.0000
# 4 0.0000 0.0000 0.0000 26.6833 0.0000 0.5117
# 5 1.5411 0.6945 -6.2415 0.0000 42.3629 0.0000
# 6 0.0000 0.0000 0.0000 0.5117 0.0000 29.1330
#
#
#
# Elastic Compliance Matrix: (Units=1/GPa)
#
#
# Indices 1 2 3 4 5 6 
#
# 1 0.007324 -0.001813 -0.002899 0.000000 -0.000664 0.000000
# 2 -0.001813 0.018381 0.000764 0.000000 -0.000123 0.000000
# 3 -0.002899 0.000764 0.007424 0.000000 0.001187 0.000000
# 4 0.000000 0.000000 0.000000 0.037489 0.000000 -0.000658
# 5 -0.000664 -0.000123 0.001187 0.000000 0.023807 0.000000
# 6 0.000000 0.000000 0.000000 -0.000658 0.000000 0.034337
#
#
# Mechanical properties :
#
#
# Convention : Reuss Voigt Hill
#
# Bulk Modulus (GPa) = 39.63148 59.18882 49.41015
# Shear Modulus (GPa) = 34.46618 39.97045 37.21832
#
# Velocity S-wave (km/s) = 4.18167 4.50322 4.34542
# Velocity P-wave (km/s) = 6.58955 7.55434 7.08838
#
# Compressibility (1/GPa) = 0.02523247
#
# Stress axis : x y z
#
# Youngs Moduli (GPa) = 136.53694 54.40446 134.68987
#
# Poissons Ratio (x) = 0.09864 0.39049
# Poissons Ratio (y) = 0.24756 -0.10289
# Poissons Ratio (z) = 0.39585 -0.04156
#
# Static dielectric constant tensor:
#      x y z
#    x 1.688120 0.000000 0.013990 
#    y 0.000000 1.797270 0.000000 
#    z 0.013990 0.000000 1.683010 
# 
# From -- ./inp_files/91679.got.cif
#   From: 2010.05.17/outbox.ucp.g08.bks.cvg/sg12_46_cif.got.tgz:91679.got - 2010.06.11 11:47:21.
