data_PCOD9225828
_publ_section_title
;
Structure prediction by ZEFSAII (Michael W. Deem and Ramdas Pophale) SiO2 
 PCOD9225828
Probable space group: C 2/M
;
_chemical_formula_sum "Si O2"
_cell_formula_units_Z 28
_cell_length_a 12.000000
_cell_length_b 27.000000
_cell_length_c 15.000000
_cell_angle_alpha 90.000000
_cell_angle_beta 140.000000
_cell_angle_gamma 90.000000
_cell_volume 3123.947783
_symmetry_space_group_name_H-M "C 2/M"
_symmetry_group_IT_number 12
_symmetry_cell_setting 'monoclinic'
loop_
_space_group_symop_operation_xyz
x,y,z
-x,y,-z
-x,-y,-z
x,-y,z
1/2+x,1/2+y,z
1/2-x,1/2+y,-z
1/2-x,1/2-y,-z
1/2+x,1/2-y,z
loop_
_atom_site_type_symbol
_atom_site_label
_atom_site_fract_x
_atom_site_fract_y
_atom_site_fract_z
Si Si1 0.845875 0.108833 0.269351
Si Si2 0.699390 0.764384 0.604989
Si Si3 0.208031 0.165318 0.498569
Si Si4 0.469716 0.000000 0.134259
Si Si5 0.438719 0.893968 0.751249
Si Si6 0.301837 0.826404 0.978853
Si Si7 0.783256 0.000000 0.181369
Si Si8 0.509829 0.721086 0.912480
O O1 0.729126 0.106746 0.286195
O O2 0.732781 0.139183 0.127550
O O3 0.877046 0.052310 0.256030
O O4 0.025144 0.137572 0.391775
O O5 0.500000 0.773653 0.500000
O O6 0.769974 0.804801 0.579150
O O7 0.718581 0.709315 0.577510
O O8 0.816889 0.767954 0.763142
O O9 0.364349 0.127597 0.614045
O O10 0.489058 0.949667 0.201826
O O11 0.625605 0.000000 0.156699
O O12 0.299479 0.000000 0.967900
O O13 0.580514 0.857240 0.880382
O O14 0.119163 0.810762 0.909890
O O15 0.393814 0.773896 0.016625
O O16 0.500000 0.694059 0.000000
#
# Coordination Sequence:
#
# PCOD9225828 Si02
#       8
#     8   8   8   4   8   8   4   8
#     4  11  20  36  54  81 114 147 182 218 272 325
#     4  11  24  39  55  78 113 147 183 228 268 317
#     4  11  24  37  53  80 113 149 184 213 272 332
#     4   9  18  31  51  83 110 137 184 221 270 319
#     4  11  20  34  56  82 112 149 176 222 269 329
#     4  11  22  35  55  82 113 144 185 218 269 325
#     4   9  18  31  53  79 110 143 177 228 268 317
#     4  11  24  37  56  83 109 142 187 232 264 314
#
# _framework density 8.9630179999999999
#
# number of rings (size 3 to 8) (size 9 to 14) (size 15 to 20)
#    0.000    1.286    4.286    2.571    4.000    0.571 
#    0.000    2.143    0.000    0.000    0.000    6.000 
#    0.000    0.000    0.000    0.000    0.000    0.000 
#
# Total GULP energy -156316.077433 kJ/mol
# GULP energy per Si atom -5582.717051 kJ/mol
# Density = 0.894262 g / cm^3
# Si number density = 8.963018 Si / 1000 Ang^3
#
#
#
# Elastic Constant Matrix: (Units=GPa)
#
#
# Indices 1 2 3 4 5 6 
#
# 1 31.1282 5.8797 9.1630 0.0000 6.8021 0.0000
# 2 5.8797 100.0710 13.6539 0.0000 -6.0067 0.0000
# 3 9.1630 13.6539 89.5614 0.0000 -0.3867 0.0000
# 4 0.0000 0.0000 0.0000 30.2897 0.0000 -7.6647
# 5 6.8021 -6.0067 -0.3867 0.0000 18.0860 0.0000
# 6 0.0000 0.0000 0.0000 -7.6647 0.0000 34.4396
#
#
#
# Elastic Compliance Matrix: (Units=1/GPa)
#
#
# Indices 1 2 3 4 5 6 
#
# 1 0.036859 -0.002584 -0.003441 0.000000 -0.014794 0.000000
# 2 -0.002584 0.010594 -0.001331 0.000000 0.004462 0.000000
# 3 -0.003441 -0.001331 0.011725 0.000000 0.001103 0.000000
# 4 0.000000 0.000000 0.000000 0.034985 0.000000 0.007786
# 5 -0.014794 0.004462 0.001103 0.000000 0.062361 0.000000
# 6 0.000000 0.000000 0.000000 0.007786 0.000000 0.030769
#
#
# Mechanical properties :
#
#
# Convention : Reuss Voigt Hill
#
# Bulk Modulus (GPa) = 22.48938 30.90598 26.69768
# Shear Modulus (GPa) = 23.05968 29.36733 26.21350
#
# Velocity S-wave (km/s) = 3.59050 4.05192 3.82817
# Velocity P-wave (km/s) = 5.45544 6.25852 5.87073
#
# Compressibility (1/GPa) = 0.04446543
#
# Stress axis : x y z
#
# Youngs Moduli (GPa) = 27.13033 94.39096 85.28558
#
# Poissons Ratio (x) = 0.24392 0.29346
# Poissons Ratio (y) = 0.07011 0.11356
# Poissons Ratio (z) = 0.09335 0.12568
#
# Static dielectric constant tensor:
#      x y z
#    x 1.618220 0.000000 -0.023450 
#    y 0.000000 1.602570 0.000000 
#    z -0.023450 0.000000 1.659370 
# 
# From -- ./inp_files/209154.got.cif
#   From: 2010.05.17/outbox.ucp.g08.bks.cvg/sg12_105_cif.got.tgz:209154.got - 2010.06.11 11:47:21.
