data_PCOD9225604
_publ_section_title
;
Structure prediction by ZEFSAII (Michael W. Deem and Ramdas Pophale) SiO2 
 PCOD9225604
Probable space group: C 2/M
;
_chemical_formula_sum "Si O2"
_cell_formula_units_Z 28
_cell_length_a 30.000000
_cell_length_b 9.000000
_cell_length_c 12.000000
_cell_angle_alpha 90.000000
_cell_angle_beta 60.000000
_cell_angle_gamma 90.000000
_cell_volume 2805.922308
_symmetry_space_group_name_H-M "C 2/M"
_symmetry_group_IT_number 12
_symmetry_cell_setting 'monoclinic'
loop_
_space_group_symop_operation_xyz
x,y,z
-x,y,-z
-x,-y,-z
x,-y,z
1/2+x,1/2+y,z
1/2-x,1/2+y,-z
1/2-x,1/2-y,-z
1/2+x,1/2-y,z
loop_
_atom_site_type_symbol
_atom_site_label
_atom_site_fract_x
_atom_site_fract_y
_atom_site_fract_z
Si Si1 0.543224 0.669784 0.792822
Si Si2 0.655297 0.676239 0.302868
Si Si3 0.197578 0.823034 0.610284
Si Si4 0.649831 0.828002 0.074984
Si Si5 0.423407 0.330122 0.003338
Si Si6 0.727719 0.173895 0.789920
Si Si7 0.387510 0.827025 0.440129
O O1 0.557878 0.500000 0.743684
O O2 0.482862 0.669840 0.891823
O O3 0.558057 0.786042 0.680940
O O4 0.572929 0.707087 0.870512
O O5 0.649255 0.500000 0.320086
O O6 0.648836 0.727550 0.184828
O O7 0.712568 0.714759 0.275980
O O8 0.617072 0.761695 0.431518
O O9 0.250000 0.750000 0.500000
O O10 0.196886 0.771885 0.739698
O O11 0.152606 0.758409 0.589904
O O12 0.198757 0.000000 0.600189
O O13 0.608253 0.777864 0.035484
O O14 0.642936 0.000000 0.114387
O O15 0.703439 0.812100 0.942142
O O16 0.403824 0.500000 0.017346
O O17 0.723612 0.000000 0.761465
O O18 0.376168 0.000000 0.452454
#
# Coordination Sequence:
#
# PCOD9225604 Si02
#       7
#     8   8   8   8   8   8   8
#     4   9  19  38  64  91 118 150 190 238 289 347
#     4  11  23  40  60  80 113 159 202 241 285 344
#     4  12  23  36  57  84 117 154 192 237 286 338
#     4  11  23  38  58  86 119 152 194 244 291 342
#     4   9  19  38  63  90 118 150 192 237 288 347
#     4  10  22  39  59  85 116 154 197 241 291 346
#     4  12  24  38  58  87 121 155 193 238 293 349
#
# _framework density 9.9788940000000004
#
# number of rings (size 3 to 8) (size 9 to 14) (size 15 to 20)
#    0.000    1.429    1.429    5.571    0.000    5.143 
#    0.000    2.143    0.000    4.286    0.000    0.000 
#    0.000    0.000    0.000    0.000    0.000    0.000 
#
# Total GULP energy -156463.058920 kJ/mol
# GULP energy per Si atom -5587.966390 kJ/mol
# Density = 0.995618 g / cm^3
# Si number density = 9.978894 Si / 1000 Ang^3
#
#
#
# Elastic Constant Matrix: (Units=GPa)
#
#
# Indices 1 2 3 4 5 6 
#
# 1 16.8772 11.9960 10.0969 0.0000 0.7367 0.0000
# 2 11.9960 85.9446 44.2705 0.0000 8.6944 0.0000
# 3 10.0969 44.2705 86.1012 0.0000 6.2192 0.0000
# 4 0.0000 0.0000 0.0000 27.2021 0.0000 4.4031
# 5 0.7367 8.6944 6.2192 0.0000 20.7189 0.0000
# 6 0.0000 0.0000 0.0000 4.4031 0.0000 29.2341
#
#
#
# Elastic Compliance Matrix: (Units=1/GPa)
#
#
# Indices 1 2 3 4 5 6 
#
# 1 0.066921 -0.007379 -0.004196 0.000000 0.001977 0.000000
# 2 -0.007379 0.017023 -0.007554 0.000000 -0.004614 0.000000
# 3 -0.004196 -0.007554 0.016100 0.000000 -0.001513 0.000000
# 4 0.000000 0.000000 0.000000 0.037680 0.000000 -0.005675
# 5 0.001977 -0.004614 -0.001513 0.000000 0.050585 0.000000
# 6 0.000000 0.000000 0.000000 -0.005675 0.000000 0.035061
#
#
# Mechanical properties :
#
#
# Convention : Reuss Voigt Hill
#
# Bulk Modulus (GPa) = 16.18531 35.73886 25.96209
# Shear Modulus (GPa) = 17.71637 23.60167 20.65902
#
# Velocity S-wave (km/s) = 2.98265 3.44260 3.22084
# Velocity P-wave (km/s) = 4.47090 5.80931 5.18348
#
# Compressibility (1/GPa) = 0.06178441
#
# Stress axis : x y z
#
# Youngs Moduli (GPa) = 14.94308 58.74295 62.11250
#
# Poissons Ratio (x) = 0.43347 0.26065
# Poissons Ratio (y) = 0.11027 0.46921
# Poissons Ratio (z) = 0.06271 0.44376
#
# Static dielectric constant tensor:
#      x y z
#    x 1.680890 0.000000 -0.041600 
#    y 0.000000 1.680290 0.000000 
#    z -0.041600 0.000000 1.759480 
# 
# From -- ./inp_files/187241.got.cif
#   From: 2010.05.17/outbox.ucp.g08.bks.cvg/sg12_94_cif.got.tgz:187241.got - 2010.06.11 11:47:21.
