data_PCOD9225815
_publ_section_title
;
Structure prediction by ZEFSAII (Michael W. Deem and Ramdas Pophale) SiO2 
 PCOD9225815
Probable space group: C 2/M
;
_chemical_formula_sum "Si O2"
_cell_formula_units_Z 28
_cell_length_a 18.000000
_cell_length_b 18.000000
_cell_length_c 27.000000
_cell_angle_alpha 90.000000
_cell_angle_beta 160.000000
_cell_angle_gamma 90.000000
_cell_volume 2991.992214
_symmetry_space_group_name_H-M "C 2/M"
_symmetry_group_IT_number 12
_symmetry_cell_setting 'monoclinic'
loop_
_space_group_symop_operation_xyz
x,y,z
-x,y,-z
-x,-y,-z
x,-y,z
1/2+x,1/2+y,z
1/2-x,1/2+y,-z
1/2-x,1/2-y,-z
1/2+x,1/2-y,z
loop_
_atom_site_type_symbol
_atom_site_label
_atom_site_fract_x
_atom_site_fract_y
_atom_site_fract_z
Si Si1 0.010298 0.189712 0.209935
Si Si2 0.581077 0.283822 0.958376
Si Si3 0.659063 0.723359 0.743553
Si Si4 0.207916 0.076890 0.095808
Si Si5 0.005822 0.088819 0.298433
Si Si6 0.892394 0.634620 0.611389
Si Si7 0.372848 0.309711 0.469452
O O1 0.025046 0.188602 0.159599
O O2 0.020061 0.116719 0.250521
O O3 0.204655 0.244220 0.349601
O O4 0.768597 0.223267 0.067281
O O5 0.396665 0.255038 0.880518
O O6 0.705880 0.353052 0.059644
O O7 0.653627 0.646876 0.771813
O O8 0.499615 0.783782 0.669739
O O9 0.550404 0.713119 0.621602
O O10 0.406975 0.081144 0.257678
O O11 0.209941 0.000000 0.068176
O O12 0.000000 0.080282 0.000000
O O13 0.231049 0.109866 0.467274
O O14 0.962102 0.000000 0.275307
O O15 0.768821 0.633301 0.586705
O O16 0.500000 0.334899 0.500000
#
# Coordination Sequence:
#
# PCOD9225815 Si02
#       7
#     8   8   8   8   8   8   8
#     4  11  22  39  61  88 117 161 201 247 295 354
#     4  11  23  38  62  89 121 154 207 243 295 362
#     4  11  20  36  65  89 115 157 205 253 289 357
#     4  11  22  35  57  88 121 153 188 244 309 357
#     4  11  23  39  61  91 125 159 199 250 313 359
#     4  11  20  38  62  87 115 158 206 249 290 353
#     4  11  19  34  61  88 113 149 202 250 289 336
#
# _framework density 9.3583130000000008
#
# number of rings (size 3 to 8) (size 9 to 14) (size 15 to 20)
#    0.000    1.000    7.143    1.286    0.000    0.571 
#    0.000    1.429    0.000   19.714    0.000    0.000 
#    0.000    0.000    0.000    0.000    0.000    0.000 
#
# Total GULP energy -156035.332034 kJ/mol
# GULP energy per Si atom -5572.690430 kJ/mol
# Density = 0.933701 g / cm^3
# Si number density = 9.358313 Si / 1000 Ang^3
#
#
#
# Elastic Constant Matrix: (Units=GPa)
#
#
# Indices 1 2 3 4 5 6 
#
# 1 108.6921 35.8943 33.9931 0.0429 -3.6683 0.0110
# 2 35.8943 106.8304 24.7353 0.1422 -5.2365 0.0424
# 3 33.9931 24.7353 64.9016 0.1170 1.7917 0.0263
# 4 0.0429 0.1422 0.1170 -71.0151 0.0111 -43.2207
# 5 -3.6683 -5.2365 1.7917 0.0111 39.7803 -0.0036
# 6 0.0110 0.0424 0.0263 -43.2207 -0.0036 -9.0751
#
#
#
# Elastic Compliance Matrix: (Units=1/GPa)
#
#
# Indices 1 2 3 4 5 6 
#
# 1 0.011734 -0.002705 -0.005141 -0.000001 0.000957 -0.000009
# 2 -0.002705 0.010984 -0.002806 0.000004 0.001323 0.000019
# 3 -0.005141 -0.002806 0.019217 0.000000 -0.001709 0.000037
# 4 -0.000001 0.000004 0.000000 0.007417 -0.000005 -0.035324
# 5 0.000957 0.001323 -0.001709 -0.000005 0.025477 0.000015
# 6 -0.000009 0.000019 0.000037 -0.035324 0.000015 0.058040
#
#
# Mechanical properties :
#
#
# Convention : Reuss Voigt Hill
#
# Bulk Modulus (GPa) = 48.47166 52.18551 50.32858
# Shear Modulus (GPa) = 31.04616 4.32480 17.68548
#
# Velocity S-wave (km/s) = 4.07719 1.52174 3.07727
# Velocity P-wave (km/s) = 6.93675 5.57046 6.29081
#
# Compressibility (1/GPa) = 0.02063061
#
# Stress axis : x y z
#
# Youngs Moduli (GPa) = 85.22346 91.04112 52.03662
#
# Poissons Ratio (x) = 0.24628 0.26753
# Poissons Ratio (y) = 0.23055 0.14601
# Poissons Ratio (z) = 0.43815 0.25545
#
# Static dielectric constant tensor:
#      x y z
#    x 1.662220 0.000000 0.002000 
#    y 0.000000 1.676940 -0.000010 
#    z 0.002000 -0.000010 1.715620 
# 
# From -- ./inp_files/364501.got.cif
#   From: 2010.05.17/outbox.ucp.g08.bks.cvg/sg12_183_cif.got.tgz:364501.got - 2010.06.11 11:47:21.
