data_PCOD9225060
_publ_section_title
;
Structure prediction by ZEFSAII (Michael W. Deem and Ramdas Pophale) SiO2 
 PCOD9225060
Probable space group: C 2/M
;
_chemical_formula_sum "Si O2"
_cell_formula_units_Z 32
_cell_length_a 18.000000
_cell_length_b 9.000000
_cell_length_c 30.000000
_cell_angle_alpha 90.000000
_cell_angle_beta 40.000000
_cell_angle_gamma 90.000000
_cell_volume 3123.947783
_symmetry_space_group_name_H-M "C 2/M"
_symmetry_group_IT_number 12
_symmetry_cell_setting 'monoclinic'
loop_
_space_group_symop_operation_xyz
x,y,z
-x,y,-z
-x,-y,-z
x,-y,z
1/2+x,1/2+y,z
1/2-x,1/2+y,-z
1/2-x,1/2-y,-z
1/2+x,1/2-y,z
loop_
_atom_site_type_symbol
_atom_site_label
_atom_site_fract_x
_atom_site_fract_y
_atom_site_fract_z
Si Si1 0.988269 0.168659 0.276860
Si Si2 0.263088 0.172748 0.367245
Si Si3 0.033071 0.829641 0.357337
Si Si4 0.746014 0.175204 0.284750
Si Si5 0.918846 0.323972 0.493810
Si Si6 0.414416 0.319896 0.134404
Si Si7 0.672215 0.678098 0.998192
Si Si8 0.272306 0.821318 0.854272
O O1 0.972982 0.167176 0.337184
O O2 0.114425 0.224536 0.205940
O O3 0.896501 0.285997 0.301641
O O4 0.967105 0.000000 0.270027
O O5 0.215169 0.234205 0.342817
O O6 0.205163 0.266957 0.433084
O O7 0.240936 0.000000 0.383663
O O8 0.140473 0.717929 0.301393
O O9 0.959089 0.765741 0.432061
O O10 0.069971 0.000000 0.349738
O O11 0.862390 0.223180 0.206249
O O12 0.747865 0.000000 0.293299
O O13 0.921564 0.500000 0.483626
O O14 0.000000 0.296182 0.500000
O O15 0.416622 0.500000 0.133842
O O16 0.324315 0.279066 0.137511
O O17 0.541503 0.266299 0.064783
O O18 0.671311 0.500000 0.004195
O O19 0.721212 0.707266 0.926665
O O20 0.750000 0.750000 0.000000
O O21 0.295179 0.000000 0.839593
#
# Coordination Sequence:
#
# PCOD9225060 Si02
#       8
#     8   8   8   8   8   8   8   8
#     4  11  25  43  63  91 128 164 205 256 313 371
#     4  12  26  42  63  91 126 164 207 258 310 368
#     4  11  23  40  64  93 124 162 206 258 310 366
#     4  11  21  37  63  93 124 162 207 257 310 371
#     4  11  23  40  65  93 123 163 207 253 308 372
#     4   9  19  37  63  90 120 161 207 251 302 363
#     4  10  22  39  60  91 126 163 205 254 308 366
#     4  10  20  39  65  90 119 162 213 255 301 366
#
# _framework density 10.243449
#
# number of rings (size 3 to 8) (size 9 to 14) (size 15 to 20)
#    0.000    1.375    2.500    3.000    1.750    4.500 
#    0.000    1.250    0.000    1.500    0.000    0.000 
#    0.000    0.000    0.000    0.000    0.000    0.000 
#
# Total GULP energy -178661.744745 kJ/mol
# GULP energy per Si atom -5583.179523 kJ/mol
# Density = 1.022013 g / cm^3
# Si number density = 10.243449 Si / 1000 Ang^3
#
#
#
# Elastic Constant Matrix: (Units=GPa)
#
#
# Indices 1 2 3 4 5 6 
#
# 1 37.0440 6.3576 32.5107 0.0000 -9.6081 -0.0005
# 2 6.3576 38.1182 21.5361 -0.0001 5.4928 -0.0019
# 3 32.5107 21.5361 118.5580 -0.0001 0.0840 -0.0001
# 4 0.0000 -0.0001 -0.0001 22.1397 0.0000 -1.8087
# 5 -9.6081 5.4928 0.0840 0.0000 26.9565 -0.0001
# 6 -0.0005 -0.0019 -0.0001 -1.8087 -0.0001 26.9016
#
#
#
# Elastic Compliance Matrix: (Units=1/GPa)
#
#
# Indices 1 2 3 4 5 6 
#
# 1 0.040795 -0.002970 -0.010658 0.000000 0.015179 0.000000
# 2 -0.002970 0.030434 -0.004709 0.000000 -0.007245 0.000002
# 3 -0.010658 -0.004709 0.012215 0.000000 -0.002877 0.000000
# 4 0.000000 0.000000 0.000000 0.045417 0.000000 0.003054
# 5 0.015179 -0.007245 -0.002877 0.000000 0.043992 0.000000
# 6 0.000000 0.000002 0.000000 0.003054 0.000000 0.037378
#
#
# Mechanical properties :
#
#
# Convention : Reuss Voigt Hill
#
# Bulk Modulus (GPa) = 21.38092 34.94766 28.16429
# Shear Modulus (GPa) = 19.04799 24.08728 21.56763
#
# Velocity S-wave (km/s) = 3.05251 3.43263 3.24813
# Velocity P-wave (km/s) = 4.78360 5.72766 5.27679
#
# Compressibility (1/GPa) = 0.04677068
#
# Stress axis : x y z
#
# Youngs Moduli (GPa) = 24.51261 32.85804 81.86837
#
# Poissons Ratio (x) = 0.09758 0.87256
# Poissons Ratio (y) = 0.07280 0.38551
# Poissons Ratio (z) = 0.26126 0.15472
#
# Static dielectric constant tensor:
#      x y z
#    x 1.786130 0.000000 -0.025100 
#    y 0.000000 1.682940 0.000000 
#    z -0.025100 0.000000 1.736260 
# 
# From -- ./inp_files/378047.got.cif
#   From: 2010.05.17/outbox.ucp.g08.bks.cvg/sg12_190_cif.got.tgz:378047.got - 2010.06.11 11:47:21.
