data_PCOD9225154
_publ_section_title
;
Structure prediction by ZEFSAII (Michael W. Deem and Ramdas Pophale) SiO2 
 PCOD9225154
Probable space group: C 2/M
;
_chemical_formula_sum "Si O2"
_cell_formula_units_Z 28
_cell_length_a 21.000000
_cell_length_b 18.000000
_cell_length_c 21.000000
_cell_angle_alpha 90.000000
_cell_angle_beta 160.000000
_cell_angle_gamma 90.000000
_cell_volume 2714.955898
_symmetry_space_group_name_H-M "C 2/M"
_symmetry_group_IT_number 12
_symmetry_cell_setting 'monoclinic'
loop_
_space_group_symop_operation_xyz
x,y,z
-x,y,-z
-x,-y,-z
x,-y,z
1/2+x,1/2+y,z
1/2-x,1/2+y,-z
1/2-x,1/2-y,-z
1/2+x,1/2-y,z
loop_
_atom_site_type_symbol
_atom_site_label
_atom_site_fract_x
_atom_site_fract_y
_atom_site_fract_z
Si Si1 0.182680 0.737712 0.092585
Si Si2 0.260195 0.419188 0.205860
Si Si3 0.448542 0.916597 0.547871
Si Si4 0.291236 0.635245 0.788812
Si Si5 0.988460 0.699085 0.681295
Si Si6 0.203902 0.081763 0.609174
Si Si7 0.383152 0.225839 0.716964
O O1 0.161010 0.650887 0.083134
O O2 0.212670 0.781035 0.186640
O O3 0.360702 0.755539 0.217022
O O4 0.003272 0.763908 0.885059
O O5 0.190339 0.500000 0.119695
O O6 0.249800 0.414955 0.272330
O O7 0.479082 0.413307 0.394690
O O8 0.296434 0.871924 0.363318
O O9 0.641901 0.909044 0.691249
O O10 0.490533 0.883925 0.656372
O O11 0.382992 0.000000 0.488441
O O12 0.500000 0.608424 0.000000
O O13 0.785766 0.727082 0.469523
O O14 0.014476 0.708239 0.780293
O O15 0.295348 0.149597 0.659322
O O16 0.257790 0.000000 0.635659
#
# Coordination Sequence:
#
# PCOD9225154 Si02
#       7
#     8   8   8   8   8   8   8
#     4  11  22  35  60  86 116 150 190 235 289 341
#     4   9  19  35  56  85 123 152 179 234 292 337
#     4  10  22  39  59  84 115 152 189 233 293 346
#     4  10  21  35  58  90 116 145 184 238 292 344
#     4  10  23  41  56  82 115 152 193 245 276 334
#     4   9  19  35  57  85 116 154 189 226 286 343
#     4  11  22  38  61  82 113 154 198 234 281 333
#
# _framework density 10.313243
#
# number of rings (size 3 to 8) (size 9 to 14) (size 15 to 20)
#    0.000    2.000    1.429    3.000    4.000    3.429 
#    0.000    1.429    0.000    0.000    0.000    0.000 
#    0.000    0.000    0.000    0.000    0.000    0.000 
#
# Total GULP energy -156239.734203 kJ/mol
# GULP energy per Si atom -5579.990507 kJ/mol
# Density = 1.028977 g / cm^3
# Si number density = 10.313243 Si / 1000 Ang^3
#
#
#
# Elastic Constant Matrix: (Units=GPa)
#
#
# Indices 1 2 3 4 5 6 
#
# 1 27.4644 40.6891 6.4089 0.0185 -2.1973 -0.0084
# 2 40.6891 73.1090 7.3650 0.0004 -5.0764 -0.0200
# 3 6.4089 7.3650 80.7363 0.0349 6.4197 -0.0117
# 4 0.0185 0.0004 0.0349 7.8129 -0.0010 -5.3719
# 5 -2.1973 -5.0764 6.4197 -0.0010 17.7803 -0.0060
# 6 -0.0084 -0.0200 -0.0117 -5.3719 -0.0060 -1.5718
#
#
#
# Elastic Compliance Matrix: (Units=1/GPa)
#
#
# Indices 1 2 3 4 5 6 
#
# 1 0.210916 -0.117192 -0.005626 -0.000052 -0.005362 0.000606
# 2 -0.117192 0.079283 0.001464 -0.000007 0.007624 -0.000400
# 3 -0.005626 0.001464 0.013097 -0.000027 -0.005006 0.000027
# 4 -0.000052 -0.000007 -0.000027 0.038209 -0.000041 -0.130582
# 5 -0.005362 0.007624 -0.005006 -0.000041 0.059564 -0.000121
# 6 0.000606 -0.000400 0.000027 -0.130582 -0.000121 -0.189917
#
#
# Mechanical properties :
#
#
# Convention : Reuss Voigt Hill
#
# Bulk Modulus (GPa) = 16.50425 32.24840 24.37633
# Shear Modulus (GPa) = 10.54729 13.26073 11.90401
#
# Velocity S-wave (km/s) = 2.26375 2.53829 2.40494
# Velocity P-wave (km/s) = 3.85378 4.92534 4.42214
#
# Compressibility (1/GPa) = 0.06059044
#
# Stress axis : x y z
#
# Youngs Moduli (GPa) = 4.74121 12.61299 76.35288
#
# Poissons Ratio (x) = 1.47814 0.42952
# Poissons Ratio (y) = 0.55563 -0.11177
# Poissons Ratio (z) = 0.02667 -0.01846
#
# Static dielectric constant tensor:
#      x y z
#    x 1.745690 0.000000 0.035460 
#    y 0.000000 1.745690 -0.000010 
#    z 0.035460 -0.000010 1.742060 
# 
# From -- ./inp_files/322745.got.cif
#   From: 2010.05.17/outbox.ucp.g08.bks.cvg/sg12_162_cif.got.tgz:322745.got - 2010.06.11 11:47:21.
