data_PCOD9225206
_publ_section_title
;
Structure prediction by ZEFSAII (Michael W. Deem and Ramdas Pophale) SiO2 
 PCOD9225206
Probable space group: C 2/M
;
_chemical_formula_sum "Si O2"
_cell_formula_units_Z 30
_cell_length_a 24.000000
_cell_length_b 15.000000
_cell_length_c 18.000000
_cell_angle_alpha 90.000000
_cell_angle_beta 30.000000
_cell_angle_gamma 90.000000
_cell_volume 3240.000000
_symmetry_space_group_name_H-M "C 2/M"
_symmetry_group_IT_number 12
_symmetry_cell_setting 'monoclinic'
loop_
_space_group_symop_operation_xyz
x,y,z
-x,y,-z
-x,-y,-z
x,-y,z
1/2+x,1/2+y,z
1/2-x,1/2+y,-z
1/2-x,1/2-y,-z
1/2+x,1/2-y,z
loop_
_atom_site_type_symbol
_atom_site_label
_atom_site_fract_x
_atom_site_fract_y
_atom_site_fract_z
Si Si1 0.877461 0.205298 0.499129
Si Si2 0.056222 0.392674 0.639406
Si Si3 0.513381 0.605558 0.855582
Si Si4 0.500000 0.757189 0.000000
Si Si5 0.703661 0.111543 0.805212
Si Si6 0.588800 0.392813 0.187237
Si Si7 0.269491 0.398395 0.493457
Si Si8 0.177487 0.607258 0.012825
O O1 0.902955 0.312742 0.464206
O O2 0.815529 0.158432 0.641291
O O3 0.797893 0.174856 0.522239
O O4 0.993877 0.156302 0.344852
O O5 0.052359 0.500000 0.619454
O O6 0.147874 0.390534 0.599073
O O7 0.937150 0.365334 0.813307
O O8 0.495177 0.500000 0.901042
O O9 0.436604 0.621873 0.871074
O O10 0.638947 0.609064 0.677681
O O11 0.499600 0.685714 0.931160
O O12 0.395521 0.826914 0.116073
O O13 0.689859 0.126573 0.910341
O O14 0.699657 0.000000 0.797557
O O15 0.578620 0.500000 0.210510
O O16 0.711358 0.363475 0.071793
O O17 0.282400 0.500000 0.509715
O O18 0.174672 0.500000 0.020434
#
# Coordination Sequence:
#
# PCOD9225206 Si02
#       8
#     8   8   8   4   8   8   8   8
#     4  11  21  35  59  86 115 158 203 247 295 359
#     4  10  21  36  57  87 118 155 201 252 301 355
#     4   9  19  37  61  91 121 158 203 253 299 351
#     4  12  24  36  56  88 128 166 196 242 312 372
#     4  11  25  40  56  87 128 165 197 243 308 367
#     4   9  19  39  65  89 117 155 206 255 294 348
#     4   9  18  33  56  83 115 151 200 249 292 351
#     4   9  21  40  61  89 125 160 197 248 306 358
#
# _framework density 9.2592590000000001
#
# number of rings (size 3 to 8) (size 9 to 14) (size 15 to 20)
#    0.000    2.133    0.000    3.600    5.600    1.067 
#    0.000    2.667    0.000    0.000    0.000    1.867 
#    0.000    0.667    0.000    0.000    0.000    0.000 
#
# Total GULP energy -167189.818264 kJ/mol
# GULP energy per Si atom -5572.993942 kJ/mol
# Density = 0.923818 g / cm^3
# Si number density = 9.259259 Si / 1000 Ang^3
#
#
#
# Elastic Constant Matrix: (Units=GPa)
#
#
# Indices 1 2 3 4 5 6 
#
# 1 71.7783 33.3030 50.5190 0.0000 -14.1938 0.0000
# 2 33.3030 127.1064 43.2708 0.0000 4.5579 0.0000
# 3 50.5190 43.2708 108.0204 0.0000 -12.3838 0.0000
# 4 0.0000 0.0000 0.0000 35.1128 0.0000 3.5146
# 5 -14.1938 4.5579 -12.3838 0.0000 33.4966 0.0000
# 6 0.0000 0.0000 0.0000 3.5146 0.0000 27.0165
#
#
#
# Elastic Compliance Matrix: (Units=1/GPa)
#
#
# Indices 1 2 3 4 5 6 
#
# 1 0.022890 -0.003330 -0.008571 0.000000 0.006984 0.000000
# 2 -0.003330 0.009835 -0.002817 0.000000 -0.003791 0.000000
# 3 -0.008571 -0.002817 0.014642 0.000000 0.002165 0.000000
# 4 0.000000 0.000000 0.000000 0.028855 0.000000 -0.003754
# 5 0.006984 -0.003791 0.002165 0.000000 0.034129 0.000000
# 6 0.000000 0.000000 0.000000 -0.003754 0.000000 0.037503
#
#
# Mechanical properties :
#
#
# Convention : Reuss Voigt Hill
#
# Bulk Modulus (GPa) = 55.76555 62.34340 59.05448
# Shear Modulus (GPa) = 27.28260 31.11267 29.19764
#
# Velocity S-wave (km/s) = 3.84247 4.10333 3.97504
# Velocity P-wave (km/s) = 7.06151 7.49588 7.28194
#
# Compressibility (1/GPa) = 0.01793222
#
# Stress axis : x y z
#
# Youngs Moduli (GPa) = 43.68712 101.67987 68.29517
#
# Poissons Ratio (x) = 0.33861 0.58533
# Poissons Ratio (y) = 0.14548 0.19237
# Poissons Ratio (z) = 0.37442 0.28641
#
# Static dielectric constant tensor:
#      x y z
#    x 1.651690 0.000000 -0.009870 
#    y 0.000000 1.681140 0.000000 
#    z -0.009870 0.000000 1.653630 
# 
# From -- ./inp_files/289886.got.cif
#   From: 2010.05.17/outbox.ucp.g08.bks.cvg/sg12_145_cif.got.tgz:289886.got - 2010.06.11 11:47:21.
