data_PCOD9225976
_publ_section_title
;
Structure prediction by ZEFSAII (Michael W. Deem and Ramdas Pophale) SiO2 
 PCOD9225976
Probable space group: C 2/M
;
_chemical_formula_sum "Si O2"
_cell_formula_units_Z 24
_cell_length_a 21.000000
_cell_length_b 12.000000
_cell_length_c 30.000000
_cell_angle_alpha 90.000000
_cell_angle_beta 20.000000
_cell_angle_gamma 90.000000
_cell_volume 2585.672284
_symmetry_space_group_name_H-M "C 2/M"
_symmetry_group_IT_number 12
_symmetry_cell_setting 'monoclinic'
loop_
_space_group_symop_operation_xyz
x,y,z
-x,y,-z
-x,-y,-z
x,-y,z
1/2+x,1/2+y,z
1/2-x,1/2+y,-z
1/2-x,1/2-y,-z
1/2+x,1/2-y,z
loop_
_atom_site_type_symbol
_atom_site_label
_atom_site_fract_x
_atom_site_fract_y
_atom_site_fract_z
Si Si1 0.318393 0.500000 0.781421
Si Si2 0.613793 0.761373 0.045337
Si Si3 0.769740 0.370389 0.692631
Si Si4 0.678363 0.871269 0.448456
Si Si5 0.695343 0.364973 0.899745
Si Si6 0.034903 0.500000 0.051937
Si Si7 0.056696 0.216625 0.651079
O O1 0.453022 0.607717 0.698642
O O2 0.174546 0.500000 0.833204
O O3 0.178773 0.500000 0.915751
O O4 0.408494 0.707897 0.185587
O O5 0.581346 0.889291 0.050468
O O6 0.750000 0.750000 0.000000
O O7 0.685293 0.690535 0.955577
O O8 0.732870 0.500000 0.730583
O O9 0.797464 0.372157 0.620896
O O10 0.958770 0.333319 0.594771
O O11 0.851109 0.811307 0.360337
O O12 0.682310 0.000000 0.461630
O O13 0.705451 0.500000 0.894071
O O14 0.893639 0.310748 0.753580
O O15 0.500000 0.337313 0.000000
O O16 0.250000 0.250000 0.500000
#
# Coordination Sequence:
#
# PCOD9225976 Si02
#       7
#     4   8   8   8   8   4   8
#     4  11  24  48  66  93 134 179 227 272 325 404
#     4  12  25  41  69  99 130 168 227 275 329 394
#     4   9  20  37  65  92 128 167 210 267 330 383
#     4   9  19  39  61  94 126 167 215 265 321 389
#     4  11  26  46  67  96 135 175 218 273 333 390
#     4  11  26  44  70  95 132 179 221 270 339 394
#     4  12  25  39  68  95 130 171 222 273 324 386
#
# _framework density 9.2819190000000003
#
# number of rings (size 3 to 8) (size 9 to 14) (size 15 to 20)
#    0.000    1.333    2.500    3.500    8.167    0.000 
#    0.000    0.000    0.000    1.000    0.000    0.000 
#    0.000    0.000    0.000    0.000    0.000    0.000 
#
# Total GULP energy -133679.236602 kJ/mol
# GULP energy per Si atom -5569.968192 kJ/mol
# Density = 0.926079 g / cm^3
# Si number density = 9.281919 Si / 1000 Ang^3
#
#
#
# Elastic Constant Matrix: (Units=GPa)
#
#
# Indices 1 2 3 4 5 6 
#
# 1 139.9293 52.5542 42.5374 0.0029 -38.9549 0.0004
# 2 52.5542 139.1014 61.8590 0.0001 -19.0528 -0.0006
# 3 42.5374 61.8590 140.4140 0.0193 -30.8096 0.0110
# 4 0.0029 0.0001 0.0193 43.9513 0.0063 -9.3563
# 5 -38.9549 -19.0528 -30.8096 0.0063 44.9109 0.0011
# 6 0.0004 -0.0006 0.0110 -9.3563 0.0011 30.3067
#
#
#
# Elastic Compliance Matrix: (Units=1/GPa)
#
#
# Indices 1 2 3 4 5 6 
#
# 1 0.010398 -0.002767 -0.000247 -0.000002 0.007676 -0.000001
# 2 -0.002767 0.009740 -0.003617 0.000002 -0.000750 0.000002
# 3 -0.000247 -0.003617 0.009896 -0.000006 0.005040 -0.000006
# 4 -0.000002 0.000002 -0.000006 0.024353 -0.000009 0.007518
# 5 0.007676 -0.000750 0.005040 -0.000009 0.032064 -0.000006
# 6 -0.000001 0.000002 -0.000006 0.007518 -0.000006 0.035317
#
#
# Mechanical properties :
#
#
# Convention : Reuss Voigt Hill
#
# Bulk Modulus (GPa) = 59.62422 81.48288 70.55355
# Shear Modulus (GPa) = 35.55662 41.33337 38.44500
#
# Velocity S-wave (km/s) = 4.38124 4.72376 4.55572
# Velocity P-wave (km/s) = 7.60144 8.58723 8.10933
#
# Compressibility (1/GPa) = 0.01677171
#
# Stress axis : x y z
#
# Youngs Moduli (GPa) = 96.17641 102.66426 101.05056
#
# Poissons Ratio (x) = 0.28411 0.02491
# Poissons Ratio (y) = 0.26615 0.36553
# Poissons Ratio (z) = 0.02371 0.37136
#
# Static dielectric constant tensor:
#      x y z
#    x 1.665300 0.000000 0.054750 
#    y 0.000000 1.652470 0.000010 
#    z 0.054750 0.000010 1.728870 
# 
# From -- ./inp_files/381181.got.cif
#   From: 2010.05.17/outbox.ucp.g08.bks.cvg/sg12_191_cif.got.tgz:381181.got - 2010.06.11 11:47:21.
