data_PCOD9225774
_publ_section_title
;
Structure prediction by ZEFSAII (Michael W. Deem and Ramdas Pophale) SiO2 
 PCOD9225774
Probable space group: C 2/M
;
_chemical_formula_sum "Si O2"
_cell_formula_units_Z 32
_cell_length_a 12.000000
_cell_length_b 30.000000
_cell_length_c 18.000000
_cell_angle_alpha 90.000000
_cell_angle_beta 30.000000
_cell_angle_gamma 90.000000
_cell_volume 3240.000000
_symmetry_space_group_name_H-M "C 2/M"
_symmetry_group_IT_number 12
_symmetry_cell_setting 'monoclinic'
loop_
_space_group_symop_operation_xyz
x,y,z
-x,y,-z
-x,-y,-z
x,-y,z
1/2+x,1/2+y,z
1/2-x,1/2+y,-z
1/2-x,1/2-y,-z
1/2+x,1/2-y,z
loop_
_atom_site_type_symbol
_atom_site_label
_atom_site_fract_x
_atom_site_fract_y
_atom_site_fract_z
Si Si1 0.722673 0.805246 0.818263
Si Si2 0.808171 0.109451 0.674559
Si Si3 0.138186 0.949011 0.211940
Si Si4 0.024601 0.118579 0.899136
Si Si5 0.239251 0.707935 0.277334
Si Si6 0.374667 0.053887 0.925216
Si Si7 0.261634 0.049557 0.674766
Si Si8 0.232479 0.209281 0.567185
O O1 0.718324 0.841834 0.753632
O O2 0.718831 0.753121 0.794383
O O3 0.981571 0.811416 0.700061
O O4 0.500000 0.812435 0.000000
O O5 0.881597 0.085225 0.709196
O O6 0.606535 0.076369 0.766890
O O7 0.000000 0.112817 0.500000
O O8 0.919721 0.945376 0.286008
O O9 0.154770 0.000000 0.230846
O O10 0.335032 0.942591 0.037382
O O11 0.081013 0.168152 0.836876
O O12 0.226950 0.087555 0.754938
O O13 0.000000 0.123675 0.000000
O O14 0.815090 0.087648 0.995548
O O15 0.258982 0.722638 0.351623
O O16 0.985289 0.688573 0.410442
O O17 0.355097 0.000000 0.919287
O O18 0.500000 0.051906 0.500000
O O19 0.227328 0.000000 0.727175
O O20 0.250000 0.250000 0.500000
#
# Coordination Sequence:
#
# PCOD9225774 Si02
#       8
#     8   8   8   8   8   8   8   8
#     4  11  25  43  66  98 135 183 222 276 328 396
#     4  12  27  40  62  96 131 170 227 278 335 402
#     4   9  19  39  64  87 121 165 212 264 325 401
#     4  11  24  40  64  98 130 166 221 271 334 397
#     4  10  23  43  67 100 134 180 224 274 335 396
#     4  10  23  45  68  94 130 174 218 276 345 407
#     4   9  20  37  61  92 123 162 212 265 324 393
#     4   9  22  42  69  95 131 182 221 280 332 387
#
# _framework density 9.8765429999999999
#
# number of rings (size 3 to 8) (size 9 to 14) (size 15 to 20)
#    0.000    1.875    0.000    3.000   10.500    5.500 
#    2.250    1.250    0.000    0.000    0.000    0.000 
#    0.000    0.000    0.000    0.000    0.000    0.000 
#
# Total GULP energy -178160.187810 kJ/mol
# GULP energy per Si atom -5567.505869 kJ/mol
# Density = 0.985406 g / cm^3
# Si number density = 9.876543 Si / 1000 Ang^3
#
#
#
# Elastic Constant Matrix: (Units=GPa)
#
#
# Indices 1 2 3 4 5 6 
#
# 1 54.4231 28.3620 31.6014 0.0003 3.4852 -0.0001
# 2 28.3620 133.1421 60.9111 -0.0001 14.1871 0.0000
# 3 31.6014 60.9111 147.6930 0.0009 2.9200 -0.0004
# 4 0.0003 -0.0001 0.0009 32.1543 -0.0004 1.3766
# 5 3.4852 14.1871 2.9200 -0.0004 40.5082 0.0002
# 6 -0.0001 0.0000 -0.0004 1.3766 0.0002 27.9996
#
#
#
# Elastic Compliance Matrix: (Units=1/GPa)
#
#
# Indices 1 2 3 4 5 6 
#
# 1 0.021998 -0.003052 -0.003437 0.000000 -0.000576 0.000000
# 2 -0.003052 0.010052 -0.003433 0.000000 -0.003011 0.000000
# 3 -0.003437 -0.003433 0.008905 0.000000 0.000856 0.000000
# 4 0.000000 0.000000 0.000000 0.031166 0.000000 -0.001532
# 5 -0.000576 -0.003011 0.000856 0.000000 0.025729 0.000000
# 6 0.000000 0.000000 0.000000 -0.001532 0.000000 0.035790
#
#
# Mechanical properties :
#
#
# Convention : Reuss Voigt Hill
#
# Bulk Modulus (GPa) = 47.36878 64.11190 55.74034
# Shear Modulus (GPa) = 31.14865 34.42466 32.78666
#
# Velocity S-wave (km/s) = 3.97533 4.17915 4.07851
# Velocity P-wave (km/s) = 6.71591 7.47089 7.10344
#
# Compressibility (1/GPa) = 0.02111095
#
# Stress axis : x y z
#
# Youngs Moduli (GPa) = 45.45945 99.47858 112.29570
#
# Poissons Ratio (x) = 0.30365 0.38591
# Poissons Ratio (y) = 0.13876 0.38553
# Poissons Ratio (z) = 0.15622 0.34152
#
# Static dielectric constant tensor:
#      x y z
#    x 1.734790 0.000000 -0.057610 
#    y 0.000000 1.727400 0.000000 
#    z -0.057610 0.000000 1.725560 
# 
# From -- ./inp_files/266270.got.cif
#   From: 2010.05.17/outbox.ucp.g08.bks.cvg/sg12_134_cif.got.tgz:266270.got - 2010.06.11 11:47:21.
