data_PCOD9225659
_publ_section_title
;
Structure prediction by ZEFSAII (Michael W. Deem and Ramdas Pophale) SiO2 
 PCOD9225659
Probable space group: C 2/M
;
_chemical_formula_sum "Si O2"
_cell_formula_units_Z 28
_cell_length_a 15.000000
_cell_length_b 9.000000
_cell_length_c 24.000000
_cell_angle_alpha 90.000000
_cell_angle_beta 120.000000
_cell_angle_gamma 90.000000
_cell_volume 2805.922308
_symmetry_space_group_name_H-M "C 2/M"
_symmetry_group_IT_number 12
_symmetry_cell_setting 'monoclinic'
loop_
_space_group_symop_operation_xyz
x,y,z
-x,y,-z
-x,-y,-z
x,-y,z
1/2+x,1/2+y,z
1/2-x,1/2+y,-z
1/2-x,1/2-y,-z
1/2+x,1/2-y,z
loop_
_atom_site_type_symbol
_atom_site_label
_atom_site_fract_x
_atom_site_fract_y
_atom_site_fract_z
Si Si1 0.352910 0.320336 0.412385
Si Si2 0.425857 0.679966 0.558702
Si Si3 0.338825 0.822735 0.990507
Si Si4 0.937556 0.823654 0.220001
Si Si5 0.706621 0.821823 0.153433
Si Si6 0.496171 0.674749 0.884092
Si Si7 0.372228 0.178135 0.657640
O O1 0.353793 0.500000 0.411972
O O2 0.453752 0.275999 0.409630
O O3 0.372728 0.279545 0.483318
O O4 0.240997 0.272341 0.356634
O O5 0.419410 0.500000 0.563065
O O6 0.379830 0.761942 0.597075
O O7 0.445069 0.760004 0.048298
O O8 0.336986 0.000000 0.996268
O O9 0.250000 0.750000 0.000000
O O10 0.317249 0.789637 0.919152
O O11 0.823506 0.776824 0.203284
O O12 0.944139 0.803317 0.155379
O O13 0.031872 0.742032 0.278472
O O14 0.947488 0.000000 0.234093
O O15 0.618068 0.738337 0.158971
O O16 0.698444 0.000000 0.158637
O O17 0.494024 0.500000 0.895752
O O18 0.376092 0.000000 0.659688
#
# Coordination Sequence:
#
# PCOD9225659 Si02
#       7
#     8   8   8   8   8   8   8
#     4   8  17  34  57  83 112 145 185 227 273 339
#     4   9  17  35  60  82 108 149 188 222 276 338
#     4  11  21  37  62  89 118 150 187 236 290 341
#     4  10  23  43  58  75 112 156 193 229 277 339
#     4  10  22  41  61  83 113 150 189 232 286 344
#     4  11  23  40  61  88 116 147 190 238 287 343
#     4  11  22  35  54  84 115 143 185 236 281 326
#
# _framework density 9.9788940000000004
#
# number of rings (size 3 to 8) (size 9 to 14) (size 15 to 20)
#    0.000    2.000    1.429    3.000    0.000    5.714 
#    0.000    7.857    0.000    0.000    0.000    0.000 
#    0.000    0.000    0.000    0.000    0.000    0.000 
#
# Total GULP energy -156396.616401 kJ/mol
# GULP energy per Si atom -5585.593443 kJ/mol
# Density = 0.995618 g / cm^3
# Si number density = 9.978894 Si / 1000 Ang^3
#
#
#
# Elastic Constant Matrix: (Units=GPa)
#
#
# Indices 1 2 3 4 5 6 
#
# 1 94.9427 18.3725 17.4084 0.0000 38.1279 0.0000
# 2 18.3725 20.9523 9.0363 0.0000 8.3020 0.0000
# 3 17.4084 9.0363 19.7341 0.0000 32.7935 0.0000
# 4 0.0000 0.0000 0.0000 32.1105 0.0000 2.3277
# 5 38.1279 8.3020 32.7935 0.0000 36.3498 0.0000
# 6 0.0000 0.0000 0.0000 2.3277 0.0000 26.2462
#
#
#
# Elastic Compliance Matrix: (Units=1/GPa)
#
#
# Indices 1 2 3 4 5 6 
#
# 1 0.012238 -0.004437 -0.021802 0.000000 0.007846 0.000000
# 2 -0.004437 0.053425 0.016039 0.000000 -0.022018 0.000000
# 3 -0.021802 0.016039 -0.061393 0.000000 0.074592 0.000000
# 4 0.000000 0.000000 0.000000 0.031344 0.000000 -0.002780
# 5 0.007846 -0.022018 0.074592 0.000000 -0.042985 0.000000
# 6 0.000000 0.000000 0.000000 -0.002780 0.000000 0.038347
#
#
# Mechanical properties :
#
#
# Convention : Reuss Voigt Hill
#
# Bulk Modulus (GPa) = -61.99512 25.02926 -18.48293
# Shear Modulus (GPa) = 108.69586 24.99543 66.84565
#
# Velocity S-wave (km/s) = 7.38790 3.54279 5.79364
# Velocity P-wave (km/s) = 6.45324 5.41327 5.95599
#
# Compressibility (1/GPa) = -0.01613030
#
# Stress axis : x y z
#
# Youngs Moduli (GPa) = 81.71272 18.71781 -16.28855
#
# Poissons Ratio (x) = 0.08305 -0.35513
# Poissons Ratio (y) = 0.36257 0.26126
# Poissons Ratio (z) = 1.78153 -0.30022
#
# Static dielectric constant tensor:
#      x y z
#    x 1.737580 0.000000 0.017280 
#    y 0.000000 1.660260 0.000000 
#    z 0.017280 0.000000 1.695610 
# 
# From -- ./inp_files/309060.got.cif
#   From: 2010.05.17/outbox.ucp.g08.bks.cvg/sg12_155_cif.got.tgz:309060.got - 2010.06.11 11:47:21.
