data_PCOD9225667
_publ_section_title
;
Structure prediction by ZEFSAII (Michael W. Deem and Ramdas Pophale) SiO2 
 PCOD9225667
Probable space group: C 2/M
;
_chemical_formula_sum "Si O2"
_cell_formula_units_Z 32
_cell_length_a 15.000000
_cell_length_b 9.000000
_cell_length_c 24.000000
_cell_angle_alpha 90.000000
_cell_angle_beta 90.000000
_cell_angle_gamma 90.000000
_cell_volume 3240.000000
_symmetry_space_group_name_H-M "C 2/M"
_symmetry_group_IT_number 12
_symmetry_cell_setting 'monoclinic'
loop_
_space_group_symop_operation_xyz
x,y,z
-x,y,-z
-x,-y,-z
x,-y,z
1/2+x,1/2+y,z
1/2-x,1/2+y,-z
1/2-x,1/2-y,-z
1/2+x,1/2-y,z
loop_
_atom_site_type_symbol
_atom_site_label
_atom_site_fract_x
_atom_site_fract_y
_atom_site_fract_z
Si Si1 0.415652 0.325722 0.111331
Si Si2 0.909273 0.676429 0.876122
Si Si3 0.595833 0.672699 0.380135
Si Si4 0.735954 0.175401 0.688444
Si Si5 0.255202 0.675429 0.195465
Si Si6 0.653930 0.322161 0.009581
Si Si7 0.897463 0.173732 0.396983
Si Si8 0.346834 0.823355 0.507181
O O1 0.440554 0.500000 0.115119
O O2 0.491171 0.224278 0.137528
O O3 0.324387 0.305534 0.144890
O O4 0.402137 0.289678 0.046257
O O5 0.899936 0.500000 0.883374
O O6 0.840052 0.723763 0.828658
O O7 0.885812 0.755676 0.934219
O O8 0.611353 0.500000 0.397282
O O9 0.661743 0.703975 0.329396
O O10 0.492285 0.687325 0.366712
O O11 0.618247 0.774601 0.432715
O O12 0.718005 0.238521 0.749339
O O13 0.677259 0.253541 0.641207
O O14 0.719631 0.000000 0.686756
O O15 0.252073 0.500000 0.208712
O O16 0.661122 0.500000 0.013961
O O17 0.750000 0.250000 0.000000
O O18 0.903012 0.255531 0.456277
O O19 0.878100 0.000000 0.406581
O O20 0.250000 0.750000 0.500000
O O21 0.342299 0.000000 0.502344
#
# Coordination Sequence:
#
# PCOD9225667 Si02
#       8
#     8   8   8   8   8   8   8   8
#     4  10  22  41  62  88 123 163 201 246 307 368
#     4  11  23  40  62  93 125 159 203 253 304 363
#     4  10  23  42  63  90 126 162 200 249 305 366
#     4  11  24  42  64  90 120 158 209 259 300 357
#     4  10  23  44  63  83 121 163 203 253 308 361
#     4  11  21  37  62  91 125 163 201 247 305 367
#     4  11  23  41  65  92 124 165 202 247 309 364
#     4  12  23  37  62  94 127 163 201 248 304 363
#
# _framework density 9.8765429999999999
#
# number of rings (size 3 to 8) (size 9 to 14) (size 15 to 20)
#    0.000    1.250    2.500    3.375    0.000    8.000 
#    0.000    3.750    0.000    0.000    0.000    0.000 
#    0.000    0.000    0.000    0.000    0.000    0.000 
#
# Total GULP energy -178846.225651 kJ/mol
# GULP energy per Si atom -5588.944552 kJ/mol
# Density = 0.985406 g / cm^3
# Si number density = 9.876543 Si / 1000 Ang^3
#
#
#
# Elastic Constant Matrix: (Units=GPa)
#
#
# Indices 1 2 3 4 5 6 
#
# 1 49.9004 20.4575 -13.1143 0.0000 4.1481 0.0000
# 2 20.4575 56.5050 19.6565 0.0000 1.2757 0.0000
# 3 -13.1143 19.6565 54.4717 0.0000 2.2625 0.0000
# 4 0.0000 0.0000 0.0000 30.7060 0.0000 0.4140
# 5 4.1481 1.2757 2.2625 0.0000 9.1191 0.0000
# 6 0.0000 0.0000 0.0000 0.4140 0.0000 26.8593
#
#
#
# Elastic Compliance Matrix: (Units=1/GPa)
#
#
# Indices 1 2 3 4 5 6 
#
# 1 0.031548 -0.015938 0.013994 0.000000 -0.015593 0.000000
# 2 -0.015938 0.028300 -0.014334 0.000000 0.006847 0.000000
# 3 0.013994 -0.014334 0.027363 0.000000 -0.011150 0.000000
# 4 0.000000 0.000000 0.000000 0.032574 0.000000 -0.000502
# 5 -0.015593 0.006847 -0.011150 0.000000 0.118561 0.000000
# 6 0.000000 0.000000 0.000000 -0.000502 0.000000 0.037239
#
#
# Mechanical properties :
#
#
# Convention : Reuss Voigt Hill
#
# Bulk Modulus (GPa) = 18.29634 23.87518 21.08576
# Shear Modulus (GPa) = 15.32060 22.26204 18.79132
#
# Velocity S-wave (km/s) = 2.78799 3.36075 3.08768
# Velocity P-wave (km/s) = 4.43244 5.21273 4.83834
#
# Compressibility (1/GPa) = 0.05465574
#
# Stress axis : x y z
#
# Youngs Moduli (GPa) = 31.69759 35.33613 36.54579
#
# Poissons Ratio (x) = 0.56319 -0.51144
# Poissons Ratio (y) = 0.50520 0.52384
# Poissons Ratio (z) = -0.44359 0.50650
#
# Static dielectric constant tensor:
#      x y z
#    x 1.742120 0.000000 -0.022700 
#    y 0.000000 1.663920 0.000000 
#    z -0.022700 0.000000 1.658630 
# 
# From -- ./inp_files/338814.got.cif
#   From: 2010.05.17/outbox.ucp.g08.bks.cvg/sg12_170_cif.got.tgz:338814.got - 2010.06.11 11:47:21.
