data_PCOD9225387
_publ_section_title
;
Structure prediction by ZEFSAII (Michael W. Deem and Ramdas Pophale) SiO2 
 PCOD9225387
Probable space group: C 2/M
;
_chemical_formula_sum "Si O2"
_cell_formula_units_Z 32
_cell_length_a 15.000000
_cell_length_b 9.000000
_cell_length_c 30.000000
_cell_angle_alpha 90.000000
_cell_angle_beta 50.000000
_cell_angle_gamma 90.000000
_cell_volume 3102.479995
_symmetry_space_group_name_H-M "C 2/M"
_symmetry_group_IT_number 12
_symmetry_cell_setting 'monoclinic'
loop_
_space_group_symop_operation_xyz
x,y,z
-x,y,-z
-x,-y,-z
x,-y,z
1/2+x,1/2+y,z
1/2-x,1/2+y,-z
1/2-x,1/2-y,-z
1/2+x,1/2-y,z
loop_
_atom_site_type_symbol
_atom_site_label
_atom_site_fract_x
_atom_site_fract_y
_atom_site_fract_z
Si Si1 0.305028 0.825906 0.051945
Si Si2 0.662910 0.831794 0.252029
Si Si3 0.461931 0.325800 0.563065
Si Si4 0.126031 0.171042 0.881006
Si Si5 0.150485 0.673337 0.560412
Si Si6 0.090530 0.673785 0.080826
Si Si7 0.429806 0.667640 0.328665
Si Si8 0.761416 0.669984 0.672740
O O1 0.364401 0.737300 0.072751
O O2 0.175507 0.765207 0.085316
O O3 0.306653 0.000000 0.062127
O O4 0.366761 0.805484 0.984235
O O5 0.749960 0.822705 0.183024
O O6 0.561117 0.715259 0.282724
O O7 0.724570 0.807143 0.279587
O O8 0.613581 0.000000 0.269208
O O9 0.500000 0.295036 0.500000
O O10 0.484965 0.500000 0.563685
O O11 0.534082 0.221766 0.572779
O O12 0.332499 0.283245 0.619059
O O13 0.038668 0.264810 0.878802
O O14 0.086822 0.000000 0.895427
O O15 0.169444 0.500000 0.554227
O O16 0.250000 0.750000 0.500000
O O17 0.137088 0.732127 0.614346
O O18 0.098285 0.500000 0.088859
O O19 0.418693 0.500000 0.348917
O O20 0.370693 0.679535 0.299929
O O21 0.800783 0.500000 0.649823
#
# Coordination Sequence:
#
# PCOD9225387 Si02
#       8
#     8   8   8   8   8   8   8   8
#     4  10  21  38  61  90 126 166 209 260 316 372
#     4  10  23  43  62  86 121 164 206 254 306 359
#     4  11  23  38  59  90 122 151 193 245 298 361
#     4  11  23  38  60  90 126 166 211 259 310 371
#     4  12  24  39  60  87 122 158 195 244 299 361
#     4  10  21  38  61  91 126 164 209 261 316 373
#     4  11  23  40  64  92 119 155 201 248 305 365
#     4  10  22  41  63  86 117 156 196 243 302 363
#
# _framework density 10.314329000000001
#
# number of rings (size 3 to 8) (size 9 to 14) (size 15 to 20)
#    0.000    1.375    1.250    4.125    0.000    9.000 
#    0.000    1.250    0.000    0.000    0.000    0.000 
#    0.000    0.000    0.000    0.000    0.000    0.000 
#
# Total GULP energy -178699.211357 kJ/mol
# GULP energy per Si atom -5584.350355 kJ/mol
# Density = 1.029085 g / cm^3
# Si number density = 10.314329 Si / 1000 Ang^3
#
#
#
# Elastic Constant Matrix: (Units=GPa)
#
#
# Indices 1 2 3 4 5 6 
#
# 1 66.9117 21.8548 0.7874 0.0000 -11.1781 0.0000
# 2 21.8548 70.9085 29.1059 0.0000 0.2432 -0.0001
# 3 0.7874 29.1059 16.7124 0.0000 -3.6923 0.0000
# 4 0.0000 0.0000 0.0000 36.0243 0.0000 6.9546
# 5 -11.1781 0.2432 -3.6923 0.0000 2.5436 0.0000
# 6 0.0000 -0.0001 0.0000 6.9546 0.0000 33.6216
#
#
#
# Elastic Compliance Matrix: (Units=1/GPa)
#
#
# Indices 1 2 3 4 5 6 
#
# 1 0.001407 0.015948 -0.039470 0.000000 -0.052636 0.000000
# 2 0.015948 0.000812 0.019581 0.000000 0.098433 0.000000
# 3 -0.039470 0.019581 -0.016402 0.000000 -0.199140 0.000000
# 4 0.000000 0.000000 0.000000 0.028914 0.000000 -0.005981
# 5 -0.052636 0.098433 -0.199140 0.000000 -0.136654 0.000000
# 6 0.000000 0.000000 0.000000 -0.005981 0.000000 0.030980
#
#
# Mechanical properties :
#
#
# Convention : Reuss Voigt Hill
#
# Bulk Modulus (GPa) = -45.31959 28.66986 -8.32486
# Shear Modulus (GPa) = -55.29999 21.29020 -17.00490
#
# Velocity S-wave (km/s) = -5.18320 3.21607 -2.87424
# Velocity P-wave (km/s) = 7.60511 5.26489 3.88063
#
# Compressibility (1/GPa) = -0.02206551
#
# Stress axis : x y z
#
# Youngs Moduli (GPa) = 710.60702 1230.90765 -60.96697
#
# Poissons Ratio (x) = -19.63076 -2.40639
# Poissons Ratio (y) = -11.33290 1.19378
# Poissons Ratio (z) = 28.04791 -24.10208
#
# Static dielectric constant tensor:
#      x y z
#    x 2.085560 0.000000 -0.429650 
#    y 0.000000 1.713730 0.000000 
#    z -0.429650 0.000000 2.201150 
# 
# From -- ./inp_files/375481.got.cif
#   From: 2010.05.17/outbox.ucp.g08.bks.cvg/sg12_188_cif.got.tgz:375481.got - 2010.06.11 11:47:21.
