data_PCOD9226901
_publ_section_title
;
Structure prediction by ZEFSAII (Michael W. Deem and Ramdas Pophale) SiO2 
 PCOD9226901
Probable space group: P 2/C
;
_chemical_formula_sum "Si O2"
_cell_formula_units_Z 28
_cell_length_a 20.327903
_cell_length_b 13.699062
_cell_length_c 16.986534
_cell_angle_alpha 90.000000
_cell_angle_beta 19.424896
_cell_angle_gamma 90.000000
_cell_volume 1573.158534
_symmetry_space_group_name_H-M "P 2/C"
_symmetry_group_IT_number 13
_symmetry_cell_setting 'monoclinic'
loop_
_space_group_symop_operation_xyz
x,y,z
-x,y,1/2-z
-x,-y,-z
x,-y,1/2+z
loop_
_atom_site_type_symbol
_atom_site_label
_atom_site_fract_x
_atom_site_fract_y
_atom_site_fract_z
Si Si1 0.561173 0.165479 0.096327
Si Si2 0.043612 0.532055 0.793729
Si Si3 0.696054 0.622811 0.412357
Si Si4 0.050827 0.109603 0.921278
Si Si5 0.281025 0.393415 0.291635
Si Si6 0.071488 0.690115 0.884476
Si Si7 0.866963 0.797551 0.474811
O O1 0.500000 0.122425 0.250000
O O2 0.357223 0.172212 0.281676
O O3 0.645264 0.275822 0.014528
O O4 0.718519 0.115861 0.861612
O O5 0.221924 0.460016 0.621185
O O6 0.087713 0.636597 0.783071
O O7 0.000000 0.533062 0.750000
O O8 0.843012 0.492132 0.061894
O O9 0.499651 0.598245 0.582270
O O10 0.878645 0.648767 0.148800
O O11 0.952757 0.145644 0.951214
O O12 0.970870 0.193944 0.070532
O O13 0.000000 0.000000 0.000000
O O14 0.253999 0.345199 0.235240
O O15 0.150447 0.318101 0.491345
O O16 0.000000 0.818140 0.250000
#
# Coordination Sequence:
#
# PCOD9226901 Si02
#       7
#     4   4   4   4   4   4   4
#     4  10  19  31  56  86 113 129 170 236 284 319
#     4  11  22  31  47  75 113 149 180 206 252 327
#     4   9  19  32  53  79 108 141 175 215 270 324
#     4  10  21  38  57  79 106 145 185 230 284 337
#     4   9  18  31  54  78 106 141 175 220 268 322
#     4   9  20  37  50  75 106 141 182 228 267 320
#     4  10  18  31  54  85 113 132 170 231 287 319
#
# _framework density 17.798587000000001
#
# number of rings (size 3 to 8) (size 9 to 14) (size 15 to 20)
#    0.000    2.286    1.429    3.000    4.000    2.857 
#    0.000    0.714    0.000    0.000    0.000    0.000 
#    0.000    0.000    0.000    0.000    0.000    0.000 
#
# Total GULP energy -155997.420283 kJ/mol
# GULP energy per Si atom -5571.336439 kJ/mol
# Density = 1.775808 g / cm^3
# Si number density = 17.798587 Si / 1000 Ang^3
#
#
#
# Elastic Constant Matrix: (Units=GPa)
#
#
# Indices 1 2 3 4 5 6 
#
# 1 63.7170 42.2747 35.5440 0.0000 -18.1326 0.0000
# 2 42.2747 105.2055 40.6735 0.0000 -3.5517 0.0000
# 3 35.5440 40.6735 76.6201 0.0000 -17.6717 0.0000
# 4 0.0000 0.0000 0.0000 17.7935 0.0000 -12.0718
# 5 -18.1326 -3.5517 -17.6717 0.0000 23.5005 0.0000
# 6 0.0000 0.0000 0.0000 -12.0718 0.0000 27.3444
#
#
#
# Elastic Compliance Matrix: (Units=1/GPa)
#
#
# Indices 1 2 3 4 5 6 
#
# 1 0.029725 -0.009581 -0.004534 0.000000 0.018078 0.000000
# 2 -0.009581 0.015304 -0.005869 0.000000 -0.009493 0.000000
# 3 -0.004534 -0.005869 0.020880 0.000000 0.011316 0.000000
# 4 0.000000 0.000000 0.000000 0.080230 0.000000 0.035419
# 5 0.018078 -0.009493 0.011316 0.000000 0.063576 0.000000
# 6 0.000000 0.000000 0.000000 0.035419 0.000000 0.052207
#
#
# Mechanical properties :
#
#
# Convention : Reuss Voigt Hill
#
# Bulk Modulus (GPa) = 38.54833 53.61410 46.08122
# Shear Modulus (GPa) = 16.10120 22.19771 19.14945
#
# Velocity S-wave (km/s) = 3.01098 3.53535 3.28365
# Velocity P-wave (km/s) = 5.81318 6.84492 6.35004
#
# Compressibility (1/GPa) = 0.02594146
#
# Stress axis : x y z
#
# Youngs Moduli (GPa) = 33.64150 65.34381 47.89322
#
# Poissons Ratio (x) = 0.62609 0.21713
# Poissons Ratio (y) = 0.32233 0.28106
# Poissons Ratio (z) = 0.15252 0.38347
#
# Static dielectric constant tensor:
#      x y z
#    x 1.622070 0.000000 0.006600 
#    y 0.000000 1.636410 0.000000 
#    z 0.006600 0.000000 1.613290 
# 
# From -- ./inp_files/70658.got.cif
#   From: 2010.05.17/outbox.cif.g08.bks.cpg/sg13_36_cif.got.tgz:70658.got - 2010.06.03 16:44:36.
