data_PCOD9226522
_publ_section_title
;
Structure prediction by ZEFSAII (Michael W. Deem and Ramdas Pophale) SiO2 
 PCOD9226522
Probable space group: P 2/C
;
_chemical_formula_sum "Si O2"
_cell_formula_units_Z 30
_cell_length_a 18.859513
_cell_length_b 15.051295
_cell_length_c 5.470637
_cell_angle_alpha 90.000000
_cell_angle_beta 64.622879
_cell_angle_gamma 90.000000
_cell_volume 1403.051207
_symmetry_space_group_name_H-M "P 2/C"
_symmetry_group_IT_number 13
_symmetry_cell_setting 'monoclinic'
loop_
_space_group_symop_operation_xyz
x,y,z
-x,y,1/2-z
-x,-y,-z
x,-y,1/2+z
loop_
_atom_site_type_symbol
_atom_site_label
_atom_site_fract_x
_atom_site_fract_y
_atom_site_fract_z
Si Si1 0.213577 0.687893 0.187030
Si Si2 0.730670 0.678610 0.895622
Si Si3 0.159345 0.495921 0.269486
Si Si4 0.500000 0.059144 0.250000
Si Si5 0.407476 0.553084 0.387817
Si Si6 0.847251 0.943826 0.236836
Si Si7 0.330195 0.056518 0.547707
Si Si8 0.048144 0.769936 0.429137
O O1 0.249180 0.726064 0.382735
O O2 0.220011 0.579587 0.179859
O O3 0.121168 0.703297 0.318846
O O4 0.251929 0.724919 0.884908
O O5 0.790585 0.594337 0.804557
O O6 0.643827 0.641112 0.032166
O O7 0.112877 0.500177 0.588103
O O8 0.500000 0.000000 0.500000
O O9 0.414178 0.106509 0.386897
O O10 0.500000 0.570826 0.250000
O O11 0.389207 0.499388 0.663937
O O12 0.911046 0.866496 0.129154
O O13 0.856256 0.994101 0.483344
O O14 0.757919 0.906833 0.354018
O O15 0.332209 0.984367 0.320166
O O16 0.000000 0.759665 0.250000
O O17 0.000000 0.758200 0.750000
#
# Coordination Sequence:
#
# PCOD9226522 Si02
#       8
#     4   4   4   2   4   4   4   4
#     4  10  20  34  54  76 102 139 185 224 274 328
#     4  10  17  31  54  78 105 146 192 227 264 327
#     4   8  14  25  47  71  94 125 171 217 246 299
#     4   8  12  20  38  68 104 132 152 186 238 278
#     4  10  18  27  44  79 121 151 186 241 288 317
#     4  10  21  38  60  84 109 138 176 219 273 342
#     4   8  14  25  44  73 104 130 159 198 239 296
#     4  12  26  42  59  81 110 138 178 235 291 345
#
# _framework density 21.381971
#
# number of rings (size 3 to 8) (size 9 to 14) (size 15 to 20)
#    0.000    2.400    0.000    4.800    0.000    1.600 
#    0.000    0.000    0.000   21.600    3.467    0.000 
#    4.000    0.000    0.000    0.000    0.000    0.000 
#
# Total GULP energy -167139.466352 kJ/mol
# GULP energy per Si atom -5571.315545 kJ/mol
# Density = 2.133330 g / cm^3
# Si number density = 21.381971 Si / 1000 Ang^3
#
#
#
# Elastic Constant Matrix: (Units=GPa)
#
#
# Indices 1 2 3 4 5 6 
#
# 1 102.7677 3.0536 68.8391 0.0000 17.4171 0.0000
# 2 3.0536 35.7866 16.5189 0.0000 7.5059 0.0000
# 3 68.8391 16.5189 189.2562 0.0000 41.6212 0.0000
# 4 0.0000 0.0000 0.0000 13.9616 0.0000 -11.4997
# 5 17.4171 7.5059 41.6212 0.0000 44.0958 0.0000
# 6 0.0000 0.0000 0.0000 -11.4997 0.0000 28.1918
#
#
#
# Elastic Compliance Matrix: (Units=1/GPa)
#
#
# Indices 1 2 3 4 5 6 
#
# 1 0.012941 0.001224 -0.004598 0.000000 -0.000979 0.000000
# 2 0.001224 0.029601 -0.002290 0.000000 -0.003361 0.000000
# 3 -0.004598 -0.002290 0.008419 0.000000 -0.005740 0.000000
# 4 0.000000 0.000000 0.000000 0.107866 0.000000 0.043999
# 5 -0.000979 -0.003361 -0.005740 0.000000 0.029055 0.000000
# 6 0.000000 0.000000 0.000000 0.043999 0.000000 0.053419
#
#
# Mechanical properties :
#
#
# Convention : Reuss Voigt Hill
#
# Bulk Modulus (GPa) = 25.23248 56.07042 40.65145
# Shear Modulus (GPa) = 18.80840 33.20978 26.00909
#
# Velocity S-wave (km/s) = 2.96909 3.94530 3.49148
# Velocity P-wave (km/s) = 4.85597 6.85813 5.94199
#
# Compressibility (1/GPa) = 0.03963146
#
# Stress axis : x y z
#
# Youngs Moduli (GPa) = 77.27668 33.78288 118.78378
#
# Poissons Ratio (x) = -0.04134 0.54621
# Poissons Ratio (y) = -0.09457 0.27198
# Poissons Ratio (z) = 0.35535 0.07735
#
# Static dielectric constant tensor:
#      x y z
#    x 1.785150 0.000000 0.038600 
#    y 0.000000 1.481090 0.000000 
#    z 0.038600 0.000000 1.821540 
# 
# From -- ./inp_files/6424.got.cif
#   From: 2010.05.17/outbox.cif.g08.bks.cpg/sg13_4_cif.got.tgz:6424.got - 2010.06.03 16:44:36.
