data_PCOD9226606
_publ_section_title
;
Structure prediction by ZEFSAII (Michael W. Deem and Ramdas Pophale) SiO2 
 PCOD9226606
Probable space group: P 2/C
;
_chemical_formula_sum "Si O2"
_cell_formula_units_Z 24
_cell_length_a 11.990087
_cell_length_b 9.396854
_cell_length_c 15.631159
_cell_angle_alpha 90.000000
_cell_angle_beta 50.050537
_cell_angle_gamma 90.000000
_cell_volume 1350.116055
_symmetry_space_group_name_H-M "P 2/C"
_symmetry_group_IT_number 13
_symmetry_cell_setting 'monoclinic'
loop_
_space_group_symop_operation_xyz
x,y,z
-x,y,1/2-z
-x,-y,-z
x,-y,1/2+z
loop_
_atom_site_type_symbol
_atom_site_label
_atom_site_fract_x
_atom_site_fract_y
_atom_site_fract_z
Si Si1 0.415442 0.969906 0.631846
Si Si2 0.708319 0.380782 0.874150
Si Si3 0.696840 0.906557 0.052991
Si Si4 0.630386 0.303723 0.432419
Si Si5 0.803221 0.189856 0.684783
Si Si6 0.902078 0.152932 0.878906
O O1 0.364452 0.807648 0.648837
O O2 0.500000 0.000000 0.500000
O O3 0.539639 0.016765 0.636690
O O4 0.277554 0.069209 0.717406
O O5 0.717049 0.549947 0.879847
O O6 0.748817 0.332855 0.758083
O O7 0.808839 0.287300 0.889048
O O8 0.540514 0.339394 0.972607
O O9 0.752321 0.842375 0.114408
O O10 0.682160 0.781274 0.990641
O O11 0.801578 0.028183 0.963699
O O12 0.976672 0.188288 0.609807
O O13 0.000000 0.105380 0.750000
#
# Coordination Sequence:
#
# PCOD9226606 Si02
#       6
#     4   4   4   4   4   4
#     4  10  17  34  57  83 105 143 192 234 272 337
#     4  10  19  35  55  79 110 153 188 226 275 350
#     4  11  20  35  59  87 111 144 192 246 283 325
#     4  10  19  34  58  79 106 149 196 224 276 341
#     4  11  21  35  57  85 118 146 185 242 294 324
#     4  10  20  37  57  83 114 155 190 226 286 348
#
# _framework density 17.776249
#
# number of rings (size 3 to 8) (size 9 to 14) (size 15 to 20)
#    0.000    1.667    5.000    4.000    0.000    0.000 
#    0.000   10.000    3.667    0.000    0.000    0.000 
#    0.000    0.000    0.000    0.000    0.000    0.000 
#
# Total GULP energy -133727.456696 kJ/mol
# GULP energy per Si atom -5571.977362 kJ/mol
# Density = 1.773579 g / cm^3
# Si number density = 17.776249 Si / 1000 Ang^3
#
#
#
# Elastic Constant Matrix: (Units=GPa)
#
#
# Indices 1 2 3 4 5 6 
#
# 1 154.4528 70.0436 43.2140 0.0000 6.8196 0.0000
# 2 70.0436 162.1918 53.7944 0.0000 5.5931 0.0000
# 3 43.2140 53.7944 50.4894 0.0000 -3.6391 0.0000
# 4 0.0000 0.0000 0.0000 19.6607 0.0000 -6.8722
# 5 6.8196 5.5931 -3.6391 0.0000 30.6222 0.0000
# 6 0.0000 0.0000 0.0000 -6.8722 0.0000 16.8527
#
#
#
# Elastic Compliance Matrix: (Units=1/GPa)
#
#
# Indices 1 2 3 4 5 6 
#
# 1 0.009097 -0.001866 -0.005971 0.000000 -0.002395 0.000000
# 2 -0.001866 0.010194 -0.009450 0.000000 -0.002569 0.000000
# 3 -0.005971 -0.009450 0.035509 0.000000 0.007276 0.000000
# 4 0.000000 0.000000 0.000000 0.059318 0.000000 0.024189
# 5 -0.002395 -0.002569 0.007276 0.000000 0.034523 0.000000
# 6 0.000000 0.000000 0.000000 0.024189 0.000000 0.069202
#
#
# Mechanical properties :
#
#
# Convention : Reuss Voigt Hill
#
# Bulk Modulus (GPa) = 49.43703 77.91531 63.67617
# Shear Modulus (GPa) = 19.29326 26.76593 23.02960
#
# Velocity S-wave (km/s) = 3.29802 3.88456 3.60325
# Velocity P-wave (km/s) = 6.50951 8.00288 7.29451
#
# Compressibility (1/GPa) = 0.02022775
#
# Stress axis : x y z
#
# Youngs Moduli (GPa) = 109.92867 98.09678 28.16158
#
# Poissons Ratio (x) = 0.18301 0.16815
# Poissons Ratio (y) = 0.20508 0.26612
# Poissons Ratio (z) = 0.65637 0.92699
#
# Static dielectric constant tensor:
#      x y z
#    x 1.663790 0.000000 0.006010 
#    y 0.000000 1.623680 0.000000 
#    z 0.006010 0.000000 1.609360 
# 
# From -- ./inp_files/65896.got.cif
#   From: 2010.05.17/outbox.cif.g08.bks.cpg/sg13_33_cif.got.tgz:65896.got - 2010.06.03 16:44:36.
