data_PCOD9226460
_publ_section_title
;
Structure prediction by ZEFSAII (Michael W. Deem and Ramdas Pophale) SiO2 
 PCOD9226460
Probable space group: P 2/C
;
_chemical_formula_sum "Si O2"
_cell_formula_units_Z 24
_cell_length_a 9.640197
_cell_length_b 19.535785
_cell_length_c 5.633794
_cell_angle_alpha 90.000000
_cell_angle_beta 77.790325
_cell_angle_gamma 90.000000
_cell_volume 1037.006011
_symmetry_space_group_name_H-M "P 2/C"
_symmetry_group_IT_number 13
_symmetry_cell_setting 'monoclinic'
loop_
_space_group_symop_operation_xyz
x,y,z
-x,y,1/2-z
-x,-y,-z
x,-y,1/2+z
loop_
_atom_site_type_symbol
_atom_site_label
_atom_site_fract_x
_atom_site_fract_y
_atom_site_fract_z
Si Si1 0.748048 0.151288 0.161324
Si Si2 0.000000 0.554281 0.750000
Si Si3 0.861708 0.650597 0.145255
Si Si4 0.714076 0.525061 0.275941
Si Si5 0.500000 0.252872 0.750000
Si Si6 0.802200 0.809797 0.142956
Si Si7 0.500000 0.040768 0.250000
Si Si8 0.500000 0.735765 0.750000
O O1 0.831948 0.154764 0.380163
O O2 0.640712 0.087838 0.197811
O O3 0.642684 0.217617 0.195013
O O4 0.836622 0.156109 0.884390
O O5 0.109430 0.611182 0.606647
O O6 0.121065 0.504281 0.818379
O O7 0.734306 0.606558 0.302483
O O8 0.850414 0.731080 0.122494
O O9 0.000000 0.637352 0.250000
O O10 0.652034 0.493787 0.540714
O O11 0.368339 0.200726 0.792235
O O12 0.507776 0.296389 0.506686
O O13 0.500000 0.000000 0.500000
#
# Coordination Sequence:
#
# PCOD9226460 Si02
#       8
#     4   2   4   4   2   4   2   2
#     4   9  18  33  44  74 108 134 164 193 255 306
#     4  10  18  32  46  66 104 134 170 242 282 310
#     4  11  20  30  47  74 102 134 186 217 267 333
#     4  10  17  30  46  64  94 129 164 229 286 310
#     4   8  14  29  40  63  82 122 172 182 232 302
#     4  10  20  30  51  67 105 149 165 207 257 323
#     4  11  20  33  62  88 110 141 172 217 258 303
#     4   7  12  24  46  55  86 125 150 183 208 279
#
# _framework density 23.143549
#
# number of rings (size 3 to 8) (size 9 to 14) (size 15 to 20)
#    0.000    2.333    2.500    3.000    2.333    1.333 
#    0.000    0.000    0.000    0.000    0.000    4.667 
#    0.000   13.333    0.000    0.000    0.000    0.000 
#
# Total GULP energy -133615.235666 kJ/mol
# GULP energy per Si atom -5567.301486 kJ/mol
# Density = 2.309087 g / cm^3
# Si number density = 23.143549 Si / 1000 Ang^3
#
#
#
# Elastic Constant Matrix: (Units=GPa)
#
#
# Indices 1 2 3 4 5 6 
#
# 1 38.0710 9.6329 20.4130 0.0000 -4.5277 0.0000
# 2 9.6329 112.1340 62.7589 0.0000 2.7636 0.0000
# 3 20.4130 62.7589 241.1831 0.0000 23.4953 0.0000
# 4 0.0000 0.0000 0.0000 10.0348 0.0000 6.0685
# 5 -4.5277 2.7636 23.4953 0.0000 18.3959 0.0000
# 6 0.0000 0.0000 0.0000 6.0685 0.0000 21.9798
#
#
#
# Elastic Compliance Matrix: (Units=1/GPa)
#
#
# Indices 1 2 3 4 5 6 
#
# 1 0.029749 -0.000928 -0.003430 0.000000 0.011842 0.000000
# 2 -0.000928 0.010543 -0.002842 0.000000 0.001818 0.000000
# 3 -0.003430 -0.002842 0.005958 0.000000 -0.008027 0.000000
# 4 0.000000 0.000000 0.000000 0.119627 0.000000 -0.033029
# 5 0.011842 0.001818 -0.008027 0.000000 0.067254 0.000000
# 6 0.000000 0.000000 0.000000 -0.033029 0.000000 0.054615
#
#
# Mechanical properties :
#
#
# Convention : Reuss Voigt Hill
#
# Bulk Modulus (GPa) = 31.39652 64.11086 47.75369
# Shear Modulus (GPa) = 15.98652 29.98766 22.98709
#
# Velocity S-wave (km/s) = 2.63107 3.60352 3.15499
# Velocity P-wave (km/s) = 4.77760 6.71382 5.82670
#
# Compressibility (1/GPa) = 0.03185067
#
# Stress axis : x y z
#
# Youngs Moduli (GPa) = 33.61462 94.84556 167.84021
#
# Poissons Ratio (x) = 0.08799 0.57571
# Poissons Ratio (y) = 0.03118 0.47702
# Poissons Ratio (z) = 0.11530 0.26956
#
# Static dielectric constant tensor:
#      x y z
#    x 1.934620 0.000000 -0.044100 
#    y 0.000000 1.816300 0.000000 
#    z -0.044100 0.000000 2.708390 
# 
# From -- ./inp_files/3670.got.cif
#   From: 2010.05.17/outbox.cif.g08.bks.cpg/sg13_2_cif.got.tgz:3670.got - 2010.06.03 16:44:36.
