data_PCOD9226975
_publ_section_title
;
Structure prediction by ZEFSAII (Michael W. Deem and Ramdas Pophale) SiO2 
 PCOD9226975
Probable space group: P 2/C
;
_chemical_formula_sum "Si O2"
_cell_formula_units_Z 32
_cell_length_a 9.979952
_cell_length_b 10.244999
_cell_length_c 20.368687
_cell_angle_alpha 90.000000
_cell_angle_beta 46.242834
_cell_angle_gamma 90.000000
_cell_volume 1504.206547
_symmetry_space_group_name_H-M "P 2/C"
_symmetry_group_IT_number 13
_symmetry_cell_setting 'monoclinic'
loop_
_space_group_symop_operation_xyz
x,y,z
-x,y,1/2-z
-x,-y,-z
x,-y,1/2+z
loop_
_atom_site_type_symbol
_atom_site_label
_atom_site_fract_x
_atom_site_fract_y
_atom_site_fract_z
Si Si1 0.777965 0.503544 0.067774
Si Si2 0.178819 0.599096 0.082979
Si Si3 0.780270 0.375944 0.337951
Si Si4 0.296629 0.197449 0.753043
Si Si5 0.291891 0.867082 0.542513
Si Si6 0.750086 0.501102 0.220085
Si Si7 0.258510 0.131404 0.622548
Si Si8 0.718089 0.810654 0.097145
O O1 0.704745 0.454836 0.162367
O O2 0.727068 0.655495 0.080583
O O3 0.730939 0.424942 0.018349
O O4 0.000000 0.500000 0.000000
O O5 0.271000 0.509282 0.107007
O O6 0.186690 0.746777 0.104282
O O7 0.970350 0.539522 0.149253
O O8 0.738323 0.258525 0.401201
O O9 0.699611 0.396573 0.292441
O O10 0.000000 0.369038 0.250000
O O11 0.329013 0.354258 0.740830
O O12 0.201769 0.152416 0.717817
O O13 0.202586 0.168807 0.855745
O O14 0.505804 0.143062 0.678081
O O15 0.515310 0.867862 0.457233
O O16 0.208637 0.865975 0.496709
O O17 0.213072 0.991879 0.607367
#
# Coordination Sequence:
#
# PCOD9226975 Si02
#       8
#     4   4   4   4   4   4   4   4
#     4   9  17  30  51  76 103 138 171 218 271 308
#     4  10  18  32  53  78 103 136 178 214 267 306
#     4  10  19  33  51  77 104 137 168 217 268 311
#     4   9  17  31  51  78 102 133 176 217 258 307
#     4  10  21  37  52  76 111 141 179 215 266 314
#     4   9  18  31  51  76 109 132 171 223 261 313
#     4  10  21  35  54  78 106 142 181 223 253 313
#     4   9  17  31  53  74 102 139 174 210 262 319
#
# _framework density 21.273675000000001
#
# number of rings (size 3 to 8) (size 9 to 14) (size 15 to 20)
#    0.000    2.500    2.500    0.000    0.000    1.500 
#    2.250    1.250    0.000    8.250    0.000    0.000 
#    0.000    0.000    0.000    0.000    0.000    0.000 
#
# Total GULP energy -178329.009780 kJ/mol
# GULP energy per Si atom -5572.781556 kJ/mol
# Density = 2.122525 g / cm^3
# Si number density = 21.273675 Si / 1000 Ang^3
#
#
#
# Elastic Constant Matrix: (Units=GPa)
#
#
# Indices 1 2 3 4 5 6 
#
# 1 47.3744 9.8559 52.5360 0.0000 31.3284 0.0000
# 2 9.8559 77.1331 48.6139 0.0000 26.7749 0.0000
# 3 52.5360 48.6139 137.3859 0.0000 50.9480 0.0000
# 4 0.0000 0.0000 0.0000 31.0134 0.0000 3.3405
# 5 31.3284 26.7749 50.9480 0.0000 54.5981 0.0000
# 6 0.0000 0.0000 0.0000 3.3405 0.0000 22.4982
#
#
#
# Elastic Compliance Matrix: (Units=1/GPa)
#
#
# Indices 1 2 3 4 5 6 
#
# 1 0.047593 0.009583 -0.014864 0.000000 -0.018138 0.000000
# 2 0.009583 0.019234 -0.007544 0.000000 -0.007891 0.000000
# 3 -0.014864 -0.007544 0.016970 0.000000 -0.003607 0.000000
# 4 0.000000 0.000000 0.000000 0.032768 0.000000 -0.004865
# 5 -0.018138 -0.007891 -0.003607 0.000000 0.035959 0.000000
# 6 0.000000 0.000000 0.000000 -0.004865 0.000000 0.045170
#
#
# Mechanical properties :
#
#
# Convention : Reuss Voigt Hill
#
# Bulk Modulus (GPa) = 17.19790 53.76722 35.48256
# Shear Modulus (GPa) = 20.59931 31.68109 26.14020
#
# Velocity S-wave (km/s) = 3.11513 3.86322 3.50917
# Velocity P-wave (km/s) = 4.58698 6.72520 5.75624
#
# Compressibility (1/GPa) = 0.05814665
#
# Stress axis : x y z
#
# Youngs Moduli (GPa) = 21.01151 51.99078 58.92860
#
# Poissons Ratio (x) = -0.49823 0.87592
# Poissons Ratio (y) = -0.20136 0.44456
# Poissons Ratio (z) = 0.31232 0.39222
#
# Static dielectric constant tensor:
#      x y z
#    x 1.892510 0.000000 -0.027050 
#    y 0.000000 1.708720 0.000000 
#    z -0.027050 0.000000 1.861650 
# 
# From -- ./inp_files/78267.got.cif
#   From: 2010.05.17/outbox.cif.g08.bks.cpg/sg13_40_cif.got.tgz:78267.got - 2010.06.03 16:44:36.
