data_PCOD9226649
_publ_section_title
;
Structure prediction by ZEFSAII (Michael W. Deem and Ramdas Pophale) SiO2 
 PCOD9226649
Probable space group: P 2/C
;
_chemical_formula_sum "Si O2"
_cell_formula_units_Z 28
_cell_length_a 10.309930
_cell_length_b 13.909643
_cell_length_c 14.714029
_cell_angle_alpha 90.000000
_cell_angle_beta 44.427501
_cell_angle_gamma 90.000000
_cell_volume 1477.083991
_symmetry_space_group_name_H-M "P 2/C"
_symmetry_group_IT_number 13
_symmetry_cell_setting 'monoclinic'
loop_
_space_group_symop_operation_xyz
x,y,z
-x,y,1/2-z
-x,-y,-z
x,-y,1/2+z
loop_
_atom_site_type_symbol
_atom_site_label
_atom_site_fract_x
_atom_site_fract_y
_atom_site_fract_z
Si Si1 0.288264 0.524005 0.841942
Si Si2 0.232872 0.973853 0.055679
Si Si3 0.996315 0.423703 0.857835
Si Si4 0.692290 0.255896 0.205235
Si Si5 0.666804 0.079891 0.320884
Si Si6 0.013090 0.797002 0.093449
Si Si7 0.284751 0.923142 0.349884
O O1 0.500000 0.490938 0.750000
O O2 0.298127 0.629936 0.791520
O O3 0.169066 0.459051 0.833075
O O4 0.179874 0.539624 0.992796
O O5 0.447864 0.939589 0.942862
O O6 0.202680 0.048689 0.988528
O O7 0.110382 0.879379 0.104494
O O8 0.220238 0.030604 0.155540
O O9 0.000820 0.307518 0.854996
O O10 0.000000 0.456294 0.750000
O O11 0.500000 0.232571 0.250000
O O12 0.697716 0.192530 0.292699
O O13 0.856636 0.221737 0.058501
O O14 0.720853 0.022794 0.203037
O O15 0.824412 0.842534 0.150348
O O16 0.500000 0.896058 0.250000
#
# Coordination Sequence:
#
# PCOD9226649 Si02
#       7
#     4   4   4   4   4   4   4
#     4   9  21  42  68  91 119 162 209 258 321 377
#     4  10  20  33  53  82 116 154 196 243 287 351
#     4  10  23  41  63  95 126 154 205 269 313 377
#     4  10  17  36  61  83 111 155 201 244 294 363
#     4  10  19  33  54  80 117 147 196 244 283 350
#     4  11  21  35  58  81 115 159 198 234 306 364
#     4  10  21  37  49  75 117 155 194 244 286 346
#
# _framework density 18.956268000000001
#
# number of rings (size 3 to 8) (size 9 to 14) (size 15 to 20)
#    0.000    2.000    2.857    0.857    2.000    1.143 
#    0.000    4.286    0.000    0.000    0.000    0.000 
#    0.000    0.000    0.000    0.000    0.000    0.000 
#
# Total GULP energy -156269.289572 kJ/mol
# GULP energy per Si atom -5581.046056 kJ/mol
# Density = 1.891312 g / cm^3
# Si number density = 18.956268 Si / 1000 Ang^3
#
#
#
# Elastic Constant Matrix: (Units=GPa)
#
#
# Indices 1 2 3 4 5 6 
#
# 1 115.2876 42.5524 47.7974 0.0000 -1.2318 0.0000
# 2 42.5524 55.5783 25.2147 0.0000 3.4553 0.0000
# 3 47.7974 25.2147 48.0096 0.0000 -4.7395 0.0000
# 4 0.0000 0.0000 0.0000 17.9472 0.0000 1.4734
# 5 -1.2318 3.4553 -4.7395 0.0000 34.8332 0.0000
# 6 0.0000 0.0000 0.0000 1.4734 0.0000 26.5004
#
#
#
# Elastic Compliance Matrix: (Units=1/GPa)
#
#
# Indices 1 2 3 4 5 6 
#
# 1 0.016535 -0.006743 -0.012971 0.000000 -0.000511 0.000000
# 2 -0.006743 0.026959 -0.007838 0.000000 -0.003979 0.000000
# 3 -0.012971 -0.007838 0.038407 0.000000 0.005544 0.000000
# 4 0.000000 0.000000 0.000000 0.055975 0.000000 -0.003112
# 5 -0.000511 -0.003979 0.005544 0.000000 0.029839 0.000000
# 6 0.000000 0.000000 0.000000 -0.003112 0.000000 0.037908
#
#
# Mechanical properties :
#
#
# Convention : Reuss Voigt Hill
#
# Bulk Modulus (GPa) = 37.31902 50.00048 43.65975
# Shear Modulus (GPa) = 18.54192 22.74356 20.64274
#
# Velocity S-wave (km/s) = 3.13092 3.46756 3.30353
# Velocity P-wave (km/s) = 5.72711 6.51659 6.13457
#
# Compressibility (1/GPa) = 0.02679599
#
# Stress axis : x y z
#
# Youngs Moduli (GPa) = 60.47762 37.09348 26.03719
#
# Poissons Ratio (x) = 0.25013 0.33772
# Poissons Ratio (y) = 0.40782 0.20408
# Poissons Ratio (z) = 0.78444 0.29074
#
# Static dielectric constant tensor:
#      x y z
#    x 1.657610 0.000000 0.000080 
#    y 0.000000 1.636710 0.000000 
#    z 0.000080 0.000000 1.706100 
# 
# From -- ./inp_files/47626.got.cif
#   From: 2010.05.17/outbox.cif.g08.bks.cpg/sg13_24_cif.got.tgz:47626.got - 2010.06.03 16:44:36.
