data_PCOD9226465
_publ_section_title
;
Structure prediction by ZEFSAII (Michael W. Deem and Ramdas Pophale) SiO2 
 PCOD9226465
Probable space group: P 2/C
;
_chemical_formula_sum "Si O2"
_cell_formula_units_Z 18
_cell_length_a 13.481216
_cell_length_b 9.119237
_cell_length_c 5.584727
_cell_angle_alpha 90.000000
_cell_angle_beta 102.775613
_cell_angle_gamma 90.000000
_cell_volume 669.580213
_symmetry_space_group_name_H-M "P 2/C"
_symmetry_group_IT_number 13
_symmetry_cell_setting 'monoclinic'
loop_
_space_group_symop_operation_xyz
x,y,z
-x,y,1/2-z
-x,-y,-z
x,-y,1/2+z
loop_
_atom_site_type_symbol
_atom_site_label
_atom_site_fract_x
_atom_site_fract_y
_atom_site_fract_z
Si Si1 0.385694 0.817690 0.246392
Si Si2 0.000000 0.359546 0.250000
Si Si3 0.097215 0.844942 0.409572
Si Si4 0.800561 0.551395 0.146708
Si Si5 0.689863 0.141948 0.292179
O O1 0.500000 0.772610 0.250000
O O2 0.351695 0.771504 0.496088
O O3 0.376568 0.994577 0.262949
O O4 0.320027 0.783282 0.972474
O O5 0.095761 0.460992 0.347954
O O6 0.963929 0.255498 0.439950
O O7 0.159010 0.719030 0.293714
O O8 0.194068 0.915290 0.596200
O O9 0.000000 0.931936 0.250000
O O10 0.750580 0.480894 0.357414
#
# Coordination Sequence:
#
# PCOD9226465 Si02
#       5
#     4   2   4   4   4
#     4  10  20  42  60  74 100 128 168 235 280 309
#     4  10  18  32  48  66 108 158 182 192 252 270
#     4  11  20  31  48  76 116 145 172 216 235 297
#     4  10  17  30  47  67  96 151 180 201 239 278
#     4  10  21  32  58  83  99 132 179 211 261 321
#
# _framework density 26.882511999999998
#
# number of rings (size 3 to 8) (size 9 to 14) (size 15 to 20)
#    0.000    1.778    3.333    4.667    3.111    0.000 
#    0.000    4.444    0.000    0.000    0.000    0.000 
#    0.000  120.889    0.000    0.000    0.000    0.000 
#
# Total GULP energy -100423.444441 kJ/mol
# GULP energy per Si atom -5579.080247 kJ/mol
# Density = 2.682133 g / cm^3
# Si number density = 26.882512 Si / 1000 Ang^3
#
#
#
# Elastic Constant Matrix: (Units=GPa)
#
#
# Indices 1 2 3 4 5 6 
#
# 1 115.4249 10.5978 46.7973 0.0000 -12.9934 0.0000
# 2 10.5978 52.8766 29.6166 0.0000 -3.4227 0.0000
# 3 46.7973 29.6166 214.9908 0.0000 -30.8183 0.0000
# 4 0.0000 0.0000 0.0000 65.7823 0.0000 2.5737
# 5 -12.9934 -3.4227 -30.8183 0.0000 45.9796 0.0000
# 6 0.0000 0.0000 0.0000 2.5737 0.0000 31.1699
#
#
#
# Elastic Compliance Matrix: (Units=1/GPa)
#
#
# Indices 1 2 3 4 5 6 
#
# 1 0.009623 -0.000843 -0.001768 0.000000 0.001472 0.000000
# 2 -0.000843 0.020574 -0.002727 0.000000 -0.000535 0.000000
# 3 -0.001768 -0.002727 0.005876 0.000000 0.003236 0.000000
# 4 0.000000 0.000000 0.000000 0.015251 0.000000 -0.001259
# 5 0.001472 -0.000535 0.003236 0.000000 0.024294 0.000000
# 6 0.000000 0.000000 0.000000 -0.001259 0.000000 0.032186
#
#
# Mechanical properties :
#
#
# Convention : Reuss Voigt Hill
#
# Bulk Modulus (GPa) = 39.37567 61.92396 50.64981
# Shear Modulus (GPa) = 39.38685 48.33839 43.86262
#
# Velocity S-wave (km/s) = 3.83188 4.24504 4.04374
# Velocity P-wave (km/s) = 5.85293 6.86383 6.37844
#
# Compressibility (1/GPa) = 0.02539639
#
# Stress axis : x y z
#
# Youngs Moduli (GPa) = 103.91325 48.60517 170.19436
#
# Poissons Ratio (x) = 0.04100 0.30082
# Poissons Ratio (y) = 0.08765 0.46417
# Poissons Ratio (z) = 0.18367 0.13256
#
# Static dielectric constant tensor:
#      x y z
#    x 2.085770 0.000000 0.104610 
#    y 0.000000 2.216040 0.000000 
#    z 0.104610 0.000000 2.449810 
# 
# From -- ./inp_files/3062.got.cif
#   From: 2010.05.17/outbox.cif.g08.bks.cpg/sg13_2_cif.got.tgz:3062.got - 2010.06.03 16:44:36.
