data_PCOD9226445
_publ_section_title
;
Structure prediction by ZEFSAII (Michael W. Deem and Ramdas Pophale) SiO2 
 PCOD9226445
Probable space group: P 2/C
;
_chemical_formula_sum "Si O2"
_cell_formula_units_Z 32
_cell_length_a 9.703014
_cell_length_b 8.186641
_cell_length_c 17.093564
_cell_angle_alpha 90.000000
_cell_angle_beta 69.109052
_cell_angle_gamma 90.000000
_cell_volume 1268.566283
_symmetry_space_group_name_H-M "P 2/C"
_symmetry_group_IT_number 13
_symmetry_cell_setting 'monoclinic'
loop_
_space_group_symop_operation_xyz
x,y,z
-x,y,1/2-z
-x,-y,-z
x,-y,1/2+z
loop_
_atom_site_type_symbol
_atom_site_label
_atom_site_fract_x
_atom_site_fract_y
_atom_site_fract_z
Si Si1 0.344909 0.454968 0.493278
Si Si2 0.371267 0.172305 0.593468
Si Si3 0.095559 0.291565 0.071588
Si Si4 0.851475 0.892208 0.228343
Si Si5 0.557925 0.215067 0.150597
Si Si6 0.766166 0.230811 0.291379
Si Si7 0.105929 0.466874 0.806574
Si Si8 0.306192 0.930899 0.464843
O O1 0.500000 0.500000 0.500000
O O2 0.291554 0.323467 0.567856
O O3 0.228258 0.594564 0.517014
O O4 0.369196 0.370196 0.405006
O O5 0.291760 0.145614 0.690581
O O6 0.547524 0.184634 0.569559
O O7 0.335775 0.033317 0.537572
O O8 0.129787 0.234956 0.153693
O O9 0.963042 0.419832 0.110531
O O10 0.139366 0.137774 0.007483
O O11 0.863480 0.722277 0.175843
O O12 0.000000 0.892987 0.250000
O O13 0.822236 0.087747 0.221260
O O14 0.500000 0.225980 0.250000
O O15 0.397520 0.196905 0.142659
O O16 0.660035 0.060358 0.110648
O O17 0.767442 0.410756 0.251930
O O18 0.000000 0.456693 0.750000
#
# Coordination Sequence:
#
# PCOD9226445 Si02
#       8
#     4   4   4   4   4   4   4   4
#     4  11  19  31  60  85 118 150 184 252 306 351
#     4  10  17  29  50  84 111 143 186 230 293 355
#     4  11  18  35  56  91 118 147 200 242 306 363
#     4  11  19  30  51  86 125 150 183 236 305 360
#     4  11  24  40  55  84 119 157 204 250 305 366
#     4  11  19  35  59  83 123 159 188 247 307 356
#     4   9  21  31  50  90 124 152 188 245 303 360
#     4  10  18  32  53  77 110 148 189 238 287 352
#
# _framework density 25.225327
#
# number of rings (size 3 to 8) (size 9 to 14) (size 15 to 20)
#    0.000    1.500    5.000    4.125    0.000    0.000 
#    0.000    0.625    0.000    1.500    0.000    0.000 
#    0.000    0.000    0.000    0.000    0.000    0.000 
#
# Total GULP energy -178291.027607 kJ/mol
# GULP energy per Si atom -5571.594613 kJ/mol
# Density = 2.516791 g / cm^3
# Si number density = 25.225327 Si / 1000 Ang^3
#
#
#
# Elastic Constant Matrix: (Units=GPa)
#
#
# Indices 1 2 3 4 5 6 
#
# 1 28.4490 11.7706 17.6424 0.0000 0.1989 0.0000
# 2 11.7706 116.1177 30.6740 0.0000 -0.4255 0.0000
# 3 17.6424 30.6740 90.5936 0.0000 1.0003 0.0000
# 4 0.0000 0.0000 0.0000 34.8140 0.0000 -28.1929
# 5 0.1989 -0.4255 1.0003 0.0000 33.3809 0.0000
# 6 0.0000 0.0000 0.0000 -28.1929 0.0000 3.5059
#
#
#
# Elastic Compliance Matrix: (Units=1/GPa)
#
#
# Indices 1 2 3 4 5 6 
#
# 1 0.040493 -0.002221 -0.007133 0.000000 -0.000056 0.000000
# 2 -0.002221 0.009581 -0.002814 0.000000 0.000220 0.000000
# 3 -0.007133 -0.002814 0.013385 0.000000 -0.000394 0.000000
# 4 0.000000 0.000000 0.000000 -0.005211 0.000000 -0.041905
# 5 -0.000056 0.000220 -0.000394 0.000000 0.029972 0.000000
# 6 0.000000 0.000000 0.000000 -0.041905 0.000000 -0.051746
#
#
# Mechanical properties :
#
#
# Convention : Reuss Voigt Hill
#
# Bulk Modulus (GPa) = 25.56020 39.48158 32.52089
# Shear Modulus (GPa) = 67.70365 26.01172 46.85769
#
# Velocity S-wave (km/s) = 5.18631 3.21467 4.31462
# Velocity P-wave (km/s) = 6.78369 5.42811 6.14341
#
# Compressibility (1/GPa) = 0.03912333
#
# Stress axis : x y z
#
# Youngs Moduli (GPa) = 24.69543 104.37078 74.71255
#
# Poissons Ratio (x) = 0.23176 0.53294
# Poissons Ratio (y) = 0.05484 0.21025
# Poissons Ratio (z) = 0.17616 0.29371
#
# Static dielectric constant tensor:
#      x y z
#    x 2.363120 0.000000 0.194610 
#    y 0.000000 2.156160 0.000000 
#    z 0.194610 0.000000 2.096650 
# 
# From -- ./inp_files/78277.got.cif
#   From: 2010.05.17/outbox.cif.g08.bks.cpg/sg13_40_cif.got.tgz:78277.got - 2010.06.03 16:44:36.
