data_PCOD9226155
_publ_section_title
;
Structure prediction by ZEFSAII (Michael W. Deem and Ramdas Pophale) SiO2 
 PCOD9226155
Probable space group: P 2/C
;
_chemical_formula_sum "Si O2"
_cell_formula_units_Z 30
_cell_length_a 13.612618
_cell_length_b 15.455854
_cell_length_c 22.967755
_cell_angle_alpha 90.000000
_cell_angle_beta 159.558881
_cell_angle_gamma 90.000000
_cell_volume 1687.652092
_symmetry_space_group_name_H-M "P 2/C"
_symmetry_group_IT_number 13
_symmetry_cell_setting 'monoclinic'
loop_
_space_group_symop_operation_xyz
x,y,z
-x,y,1/2-z
-x,-y,-z
x,-y,1/2+z
loop_
_atom_site_type_symbol
_atom_site_label
_atom_site_fract_x
_atom_site_fract_y
_atom_site_fract_z
Si Si1 0.323193 0.967992 0.346245
Si Si2 0.893197 0.107207 0.122736
Si Si3 0.000000 0.843923 0.250000
Si Si4 0.306395 0.623638 0.353595
Si Si5 0.964001 0.472993 0.362996
Si Si6 0.492333 0.593497 0.812807
Si Si7 0.853827 0.694409 0.605570
Si Si8 0.691019 0.303917 0.525074
O O1 0.571631 0.929512 0.443639
O O2 0.112517 0.897845 0.257697
O O3 0.500000 0.000000 0.500000
O O4 0.117073 0.046561 0.213273
O O5 0.896684 0.207997 0.107329
O O6 0.000000 0.105303 0.250000
O O7 0.270167 0.788877 0.423155
O O8 0.233716 0.528967 0.290137
O O9 0.530348 0.671961 0.438593
O O10 0.394482 0.631311 0.470089
O O11 0.012970 0.674276 0.188490
O O12 0.788839 0.456309 0.324198
O O13 0.244381 0.529413 0.528586
O O14 0.037226 0.381477 0.375053
O O15 0.500000 0.618453 0.750000
O O16 0.520579 0.674387 0.872954
O O17 0.000000 0.688023 0.750000
#
# Coordination Sequence:
#
# PCOD9226155 Si02
#       8
#     4   4   2   4   4   4   4   4
#     4  10  16  28  46  67 106 147 164 196 255 330
#     4   9  18  29  42  70 101 146 168 198 252 315
#     4  10  16  30  50  74 106 138 170 214 264 328
#     4   9  18  35  48  77 105 138 177 216 266 317
#     4  11  22  36  57  75 102 146 182 224 269 318
#     4  11  23  39  54  74 104 142 189 227 268 312
#     4  11  21  30  51  76 114 139 179 219 259 317
#     4   9  20  32  53  75 102 138 180 219 266 316
#
# _framework density 17.776174999999999
#
# number of rings (size 3 to 8) (size 9 to 14) (size 15 to 20)
#    0.000    2.133    3.333    2.800    3.733    3.200 
#    0.000    0.000    0.000    0.000    0.000    0.000 
#    0.000    5.333    0.000    0.000    0.000    0.000 
#
# Total GULP energy -167122.298046 kJ/mol
# GULP energy per Si atom -5570.743268 kJ/mol
# Density = 1.773572 g / cm^3
# Si number density = 17.776175 Si / 1000 Ang^3
#
#
#
# Elastic Constant Matrix: (Units=GPa)
#
#
# Indices 1 2 3 4 5 6 
#
# 1 59.3395 17.6264 16.8919 0.0000 -2.0121 0.0000
# 2 17.6264 96.2408 22.7296 0.0000 -2.9579 0.0000
# 3 16.8919 22.7296 38.6447 0.0000 9.0204 0.0000
# 4 0.0000 0.0000 0.0000 12.9563 0.0000 8.6174
# 5 -2.0121 -2.9579 9.0204 0.0000 27.3322 0.0000
# 6 0.0000 0.0000 0.0000 8.6174 0.0000 11.5580
#
#
#
# Elastic Compliance Matrix: (Units=1/GPa)
#
#
# Indices 1 2 3 4 5 6 
#
# 1 0.019945 -0.001428 -0.008868 0.000000 0.004240 0.000000
# 2 -0.001428 0.012577 -0.007656 0.000000 0.003782 0.000000
# 3 -0.008868 -0.007656 0.037490 0.000000 -0.013854 0.000000
# 4 0.000000 0.000000 0.000000 0.153107 0.000000 -0.114153
# 5 0.004240 0.003782 -0.013854 0.000000 0.041881 0.000000
# 6 0.000000 0.000000 0.000000 -0.114153 0.000000 0.171630
#
#
# Mechanical properties :
#
#
# Convention : Reuss Voigt Hill
#
# Bulk Modulus (GPa) = 29.31916 34.30232 31.81074
# Shear Modulus (GPa) = 10.33270 19.50111 14.91690
#
# Velocity S-wave (km/s) = 2.41356 3.31575 2.89995
# Velocity P-wave (km/s) = 4.92913 5.83075 5.39879
#
# Compressibility (1/GPa) = 0.03410738
#
# Stress axis : x y z
#
# Youngs Moduli (GPa) = 50.13913 79.51332 26.67408
#
# Poissons Ratio (x) = 0.11356 0.23654
# Poissons Ratio (y) = 0.07161 0.20421
# Poissons Ratio (z) = 0.44462 0.60873
#
# Static dielectric constant tensor:
#      x y z
#    x 1.494770 0.000000 -0.023280 
#    y 0.000000 1.681080 0.000000 
#    z -0.023280 0.000000 1.613600 
# 
# From -- ./inp_files/87549.got.cif
#   From: 2010.05.17/outbox.cif.g08.bks.cpg/sg13_44_cif.got.tgz:87549.got - 2010.06.03 16:44:36.
