data_PCOD9226781
_publ_section_title
;
Structure prediction by ZEFSAII (Michael W. Deem and Ramdas Pophale) SiO2 
 PCOD9226781
Probable space group: P 2/C
;
_chemical_formula_sum "Si O2"
_cell_formula_units_Z 26
_cell_length_a 11.498618
_cell_length_b 14.463992
_cell_length_c 8.980504
_cell_angle_alpha 90.000000
_cell_angle_beta 75.812308
_cell_angle_gamma 90.000000
_cell_volume 1448.042998
_symmetry_space_group_name_H-M "P 2/C"
_symmetry_group_IT_number 13
_symmetry_cell_setting 'monoclinic'
loop_
_space_group_symop_operation_xyz
x,y,z
-x,y,1/2-z
-x,-y,-z
x,-y,1/2+z
loop_
_atom_site_type_symbol
_atom_site_label
_atom_site_fract_x
_atom_site_fract_y
_atom_site_fract_z
Si Si1 0.412635 0.959616 0.657008
Si Si2 0.204813 0.507563 0.931883
Si Si3 0.019284 0.366770 0.087705
Si Si4 0.500000 0.268118 0.750000
Si Si5 0.106408 0.773048 0.315430
Si Si6 0.308311 0.881525 0.408699
Si Si7 0.301794 0.628115 0.149182
O O1 0.500000 0.908319 0.750000
O O2 0.316875 0.909206 0.580161
O O3 0.500000 0.000000 0.500000
O O4 0.352105 0.038345 0.779522
O O5 0.267594 0.446688 0.786549
O O6 0.096135 0.569853 0.904900
O O7 0.135085 0.433732 0.058062
O O8 0.290560 0.574216 0.998349
O O9 0.000000 0.317067 0.250000
O O10 0.042039 0.299349 0.944766
O O11 0.402335 0.202219 0.857536
O O12 0.570852 0.328976 0.847826
O O13 0.181623 0.845011 0.389430
O O14 0.203075 0.710972 0.192535
O O15 0.000000 0.814493 0.250000
#
# Coordination Sequence:
#
# PCOD9226781 Si02
#       7
#     4   4   4   2   4   4   4
#     4   9  16  33  61  83 100 135 174 210 253 322
#     4  10  18  30  50  73  97 138 188 221 248 308
#     4  10  18  30  50  74 101 135 189 223 251 295
#     4  10  20  34  52  76 112 136 168 218 276 312
#     4  10  20  34  52  80 110 142 171 223 272 310
#     4  10  19  36  59  84 107 133 180 212 261 331
#     4  10  20  32  52  72 103 144 180 222 264 299
#
# _framework density 17.955268
#
# number of rings (size 3 to 8) (size 9 to 14) (size 15 to 20)
#    0.000    2.154    5.385    0.000    0.000    0.615 
#    0.000    5.385    0.000    0.000    0.000    0.000 
#    0.000    0.000    0.000    0.000    0.000    0.000 
#
# Total GULP energy -144749.207005 kJ/mol
# GULP energy per Si atom -5567.277193 kJ/mol
# Density = 1.791440 g / cm^3
# Si number density = 17.955268 Si / 1000 Ang^3
#
#
#
# Elastic Constant Matrix: (Units=GPa)
#
#
# Indices 1 2 3 4 5 6 
#
# 1 102.0025 32.6863 18.9051 0.0000 29.0191 0.0000
# 2 32.6863 46.6797 10.1034 0.0000 15.0524 0.0000
# 3 18.9051 10.1034 50.6946 0.0000 18.7657 0.0000
# 4 0.0000 0.0000 0.0000 9.3324 0.0000 19.1847
# 5 29.0191 15.0524 18.7657 0.0000 25.9921 0.0000
# 6 0.0000 0.0000 0.0000 19.1847 0.0000 19.4164
#
#
#
# Elastic Compliance Matrix: (Units=1/GPa)
#
#
# Indices 1 2 3 4 5 6 
#
# 1 0.015903 -0.006638 0.000739 0.000000 -0.014445 0.000000
# 2 -0.006638 0.029123 0.000233 0.000000 -0.009623 0.000000
# 3 0.000739 0.000233 0.026966 0.000000 -0.020430 0.000000
# 4 0.000000 0.000000 0.000000 -0.103913 0.000000 0.102673
# 5 -0.014445 -0.009623 -0.020430 0.000000 0.074923 0.000000
# 6 0.000000 0.000000 0.000000 0.102673 0.000000 -0.049945
#
#
# Mechanical properties :
#
#
# Convention : Reuss Voigt Hill
#
# Bulk Modulus (GPa) = 16.48464 35.86294 26.17379
# Shear Modulus (GPa) = 203.18088 20.12698 111.65393
#
# Velocity S-wave (km/s) = 10.64918 3.35169 7.89427
# Velocity P-wave (km/s) = 12.66522 5.91568 9.88441
#
# Compressibility (1/GPa) = 0.06066252
#
# Stress axis : x y z
#
# Youngs Moduli (GPa) = 62.88011 34.33685 37.08346
#
# Poissons Ratio (x) = 0.22793 -0.02742
# Poissons Ratio (y) = 0.41740 -0.00866
# Poissons Ratio (z) = -0.04649 -0.00802
#
# Static dielectric constant tensor:
#      x y z
#    x 1.645320 0.000000 0.023980 
#    y 0.000000 1.633070 0.000000 
#    z 0.023980 0.000000 1.624030 
# 
# From -- ./inp_files/16258.got.cif
#   From: 2010.05.17/outbox.cif.g08.bks.cpg/sg13_9_cif.got.tgz:16258.got - 2010.06.03 16:44:36.
