data_PCOD9226824
_publ_section_title
;
Structure prediction by ZEFSAII (Michael W. Deem and Ramdas Pophale) SiO2 
 PCOD9226824
Probable space group: P 2/C
;
_chemical_formula_sum "Si O2"
_cell_formula_units_Z 16
_cell_length_a 7.781965
_cell_length_b 17.961974
_cell_length_c 5.479111
_cell_angle_alpha 90.000000
_cell_angle_beta 118.808776
_cell_angle_gamma 90.000000
_cell_volume 671.077968
_symmetry_space_group_name_H-M "P 2/C"
_symmetry_group_IT_number 13
_symmetry_cell_setting 'monoclinic'
loop_
_space_group_symop_operation_xyz
x,y,z
-x,y,1/2-z
-x,-y,-z
x,-y,1/2+z
loop_
_atom_site_type_symbol
_atom_site_label
_atom_site_fract_x
_atom_site_fract_y
_atom_site_fract_z
Si Si1 0.000000 0.451521 0.250000
Si Si2 0.708019 0.799072 0.529322
Si Si3 0.500000 0.697479 0.750000
Si Si4 0.824356 0.335980 0.822359
Si Si5 0.271238 0.029999 0.344242
O O1 0.000000 0.500000 0.500000
O O2 0.167778 0.392109 0.441810
O O3 0.660799 0.750884 0.735606
O O4 0.836953 0.747658 0.439575
O O5 0.758916 0.882765 0.628592
O O6 0.500000 0.805240 0.250000
O O7 0.379021 0.654345 0.461988
O O8 0.000000 0.349356 0.750000
O O9 0.500000 0.000000 0.500000
O O10 0.190947 0.988626 0.524888
#
# Coordination Sequence:
#
# PCOD9226824 Si02
#       5
#     2   4   2   4   4
#     4  12  26  50  80 106 144 192 234 292 376 444
#     4  10  20  34  62  99 140 188 246 298 349 429
#     4  10  22  40  70 106 144 180 256 294 356 422
#     4  11  24  45  73 108 145 191 236 303 364 440
#     4  10  18  30  53  89 135 185 237 290 355 406
#
# _framework density 23.842237999999998
#
# number of rings (size 3 to 8) (size 9 to 14) (size 15 to 20)
#    0.000    1.500    3.750    3.000    3.500    0.000 
#    0.000    1.250    0.000    1.500    0.000    0.000 
#    0.000    0.000    0.000    0.000    0.000    0.000 
#
# Total GULP energy -89321.671801 kJ/mol
# GULP energy per Si atom -5582.604488 kJ/mol
# Density = 2.378797 g / cm^3
# Si number density = 23.842238 Si / 1000 Ang^3
#
#
#
# Elastic Constant Matrix: (Units=GPa)
#
#
# Indices 1 2 3 4 5 6 
#
# 1 96.3516 31.9429 27.7620 0.0000 -12.0033 0.0000
# 2 31.9429 164.3657 76.0326 0.0000 -10.2030 0.0000
# 3 27.7620 76.0326 205.8513 0.0000 -7.2361 0.0000
# 4 0.0000 0.0000 0.0000 50.0045 0.0000 -12.6844
# 5 -12.0033 -10.2030 -7.2361 0.0000 44.0997 0.0000
# 6 0.0000 0.0000 0.0000 -12.6844 0.0000 20.1267
#
#
#
# Elastic Compliance Matrix: (Units=1/GPa)
#
#
# Indices 1 2 3 4 5 6 
#
# 1 0.011503 -0.001687 -0.000837 0.000000 0.002603 0.000000
# 2 -0.001687 0.007655 -0.002569 0.000000 0.000891 0.000000
# 3 -0.000837 -0.002569 0.005925 0.000000 0.000150 0.000000
# 4 0.000000 0.000000 0.000000 0.023804 0.000000 0.015002
# 5 0.002603 0.000891 0.000150 0.000000 0.023615 0.000000
# 6 0.000000 0.000000 0.000000 0.015002 0.000000 0.059140
#
#
# Mechanical properties :
#
#
# Convention : Reuss Voigt Hill
#
# Bulk Modulus (GPa) = 67.12030 82.00486 74.56258
# Shear Modulus (GPa) = 34.06153 44.90158 39.48156
#
# Velocity S-wave (km/s) = 3.78381 4.34438 4.07375
# Velocity P-wave (km/s) = 6.87769 7.72233 7.31221
#
# Compressibility (1/GPa) = 0.01489862
#
# Stress axis : x y z
#
# Youngs Moduli (GPa) = 86.93124 130.62746 168.78217
#
# Poissons Ratio (x) = 0.22035 0.14124
# Poissons Ratio (y) = 0.14664 0.43356
# Poissons Ratio (z) = 0.07275 0.33555
#
# Static dielectric constant tensor:
#      x y z
#    x 1.939180 0.000000 0.009310 
#    y 0.000000 1.922970 0.000000 
#    z 0.009310 0.000000 1.955570 
# 
# From -- ./inp_files/1160.got.cif
#   From: 2010.05.17/outbox.cif.g08.bks.cpg/sg13_1_cif.got.tgz:1160.got - 2010.06.03 16:44:36.
