data_PCOD9226268
_publ_section_title
;
Structure prediction by ZEFSAII (Michael W. Deem and Ramdas Pophale) SiO2 
 PCOD9226268
Probable space group: P 2/C
;
_chemical_formula_sum "Si O2"
_cell_formula_units_Z 26
_cell_length_a 6.622909
_cell_length_b 9.712399
_cell_length_c 22.198818
_cell_angle_alpha 90.000000
_cell_angle_beta 126.391575
_cell_angle_gamma 90.000000
_cell_volume 1149.451918
_symmetry_space_group_name_H-M "P 2/C"
_symmetry_group_IT_number 13
_symmetry_cell_setting 'monoclinic'
loop_
_space_group_symop_operation_xyz
x,y,z
-x,y,1/2-z
-x,-y,-z
x,-y,1/2+z
loop_
_atom_site_type_symbol
_atom_site_label
_atom_site_fract_x
_atom_site_fract_y
_atom_site_fract_z
Si Si1 0.390065 0.655944 0.617117
Si Si2 0.052092 0.619415 0.842399
Si Si3 0.000000 0.369700 0.750000
Si Si4 0.449547 0.744437 0.137977
Si Si5 0.000000 0.856738 0.750000
Si Si6 0.267560 0.451994 0.501250
Si Si7 0.525732 0.953846 0.827279
Si Si8 0.500000 0.543863 0.250000
O O1 0.667024 0.638214 0.634641
O O2 0.217421 0.583565 0.535462
O O3 0.438352 0.571926 0.686675
O O4 0.344927 0.815059 0.625191
O O5 0.929561 0.755223 0.792950
O O6 0.936282 0.480246 0.792129
O O7 0.073617 0.601792 0.916957
O O8 0.752757 0.284261 0.691986
O O9 0.351666 0.668266 0.061251
O O10 0.370653 0.901870 0.130507
O O11 0.368216 0.664402 0.183496
O O12 0.244079 0.944792 0.804351
O O13 0.500000 0.500000 0.500000
O O14 0.500000 0.958538 0.750000
#
# Coordination Sequence:
#
# PCOD9226268 Si02
#       8
#     4   4   2   4   2   4   4   2
#     4   9  17  30  54  79 105 145 189 222 276 346
#     4   9  17  32  57  83 109 141 187 247 272 320
#     4  11  17  30  54  84 104 136 182 240 278 310
#     4  11  21  31  56  84 111 140 189 232 280 342
#     4   9  21  36  56  90 110 150 202 222 286 350
#     4   9  16  34  54  83 110 143 191 237 277 334
#     4  11  21  36  56  84 119 151 181 240 288 335
#     4  10  16  32  50  82  98 138 188 226 260 332
#
# _framework density 22.619477
#
# number of rings (size 3 to 8) (size 9 to 14) (size 15 to 20)
#    0.000    2.154    6.154    0.462    0.000    0.000 
#    0.000    6.923    0.000    9.231    0.000    0.000 
#    0.000    0.000    0.000    0.000    0.000    0.000 
#
# Total GULP energy -144887.898137 kJ/mol
# GULP energy per Si atom -5572.611467 kJ/mol
# Density = 2.256799 g / cm^3
# Si number density = 22.619477 Si / 1000 Ang^3
#
#
#
# Elastic Constant Matrix: (Units=GPa)
#
#
# Indices 1 2 3 4 5 6 
#
# 1 48.5116 20.1063 34.3950 0.0000 -10.8201 0.0000
# 2 20.1063 204.6115 70.4813 0.0000 -22.0120 0.0000
# 3 34.3950 70.4813 158.9809 0.0000 -39.0979 0.0000
# 4 0.0000 0.0000 0.0000 24.8774 0.0000 4.7626
# 5 -10.8201 -22.0120 -39.0979 0.0000 45.8496 0.0000
# 6 0.0000 0.0000 0.0000 4.7626 0.0000 25.0957
#
#
#
# Elastic Compliance Matrix: (Units=1/GPa)
#
#
# Indices 1 2 3 4 5 6 
#
# 1 0.024512 -0.000646 -0.004644 0.000000 0.001514 0.000000
# 2 -0.000646 0.005805 -0.002260 0.000000 0.000708 0.000000
# 3 -0.004644 -0.002260 0.009820 0.000000 0.006193 0.000000
# 4 0.000000 0.000000 0.000000 0.041713 0.000000 -0.007916
# 5 0.001514 0.000708 0.006193 0.000000 0.027788 0.000000
# 6 0.000000 0.000000 0.000000 -0.007916 0.000000 0.041350
#
#
# Mechanical properties :
#
#
# Convention : Reuss Voigt Hill
#
# Bulk Modulus (GPa) = 39.94179 73.56324 56.75251
# Shear Modulus (GPa) = 28.66420 38.30597 33.48508
#
# Velocity S-wave (km/s) = 3.56369 4.11967 3.85173
# Velocity P-wave (km/s) = 5.88469 7.43113 6.70266
#
# Compressibility (1/GPa) = 0.02503643
#
# Stress axis : x y z
#
# Youngs Moduli (GPa) = 40.79645 172.25415 101.83592
#
# Poissons Ratio (x) = 0.11128 0.47296
# Poissons Ratio (y) = 0.02635 0.23014
# Poissons Ratio (z) = 0.18947 0.38929
#
# Static dielectric constant tensor:
#      x y z
#    x 2.004200 0.000000 0.115560 
#    y 0.000000 1.834050 0.000000 
#    z 0.115560 0.000000 1.849650 
# 
# From -- ./inp_files/63886.got.cif
#   From: 2010.05.17/outbox.cif.g08.bks.cpg/sg13_32_cif.got.tgz:63886.got - 2010.06.03 16:44:36.
