data_PCOD9226005
_publ_section_title
;
Structure prediction by ZEFSAII (Michael W. Deem and Ramdas Pophale) SiO2 
 PCOD9226005
Probable space group: P 2/C
;
_chemical_formula_sum "Si O2"
_cell_formula_units_Z 26
_cell_length_a 32.622546
_cell_length_b 7.024095
_cell_length_c 5.348933
_cell_angle_alpha 90.000000
_cell_angle_beta 103.760943
_cell_angle_gamma 90.000000
_cell_volume 1190.494191
_symmetry_space_group_name_H-M "P 2/C"
_symmetry_group_IT_number 13
_symmetry_cell_setting 'monoclinic'
loop_
_space_group_symop_operation_xyz
x,y,z
-x,y,1/2-z
-x,-y,-z
x,-y,1/2+z
loop_
_atom_site_type_symbol
_atom_site_label
_atom_site_fract_x
_atom_site_fract_y
_atom_site_fract_z
Si Si1 0.796449 0.124414 0.655949
Si Si2 0.500000 0.130138 0.750000
Si Si3 0.622346 0.724038 0.036614
Si Si4 0.981498 0.781297 0.473171
Si Si5 0.285852 0.621021 0.466750
Si Si6 0.410984 0.287875 0.512370
Si Si7 0.886699 0.877574 0.379029
O O1 0.755955 0.255631 0.626713
O O2 0.842047 0.224671 0.763418
O O3 0.795321 0.031184 0.378332
O O4 0.458519 0.262165 0.674327
O O5 0.500000 0.000000 0.500000
O O6 0.605966 0.504164 0.044315
O O7 0.593660 0.800339 0.769993
O O8 0.670265 0.730361 0.014130
O O9 0.617585 0.800400 0.309395
O O10 0.931081 0.775617 0.403881
O O11 0.000000 0.698193 0.250000
O O12 0.000000 0.000000 0.500000
O O13 0.000000 0.697762 0.750000
O O14 0.286114 0.535192 0.745617
O O15 0.886876 0.959451 0.661928
#
# Coordination Sequence:
#
# PCOD9226005 Si02
#       7
#     4   2   4   4   4   4   4
#     4  10  23  38  54  84 123 160 184 235 319 368
#     4  12  26  42  56  84 132 162 180 218 282 364
#     4  10  19  37  65  87 103 135 194 256 269 306
#     4  10  14  20  36  63  89 134 180 224 273 329
#     4  12  21  40  67  89 118 151 209 259 285 346
#     4  10  20  38  61  87 110 143 189 226 281 310
#     4  10  16  27  42  63 105 146 174 223 285 361
#
# _framework density 21.839670000000002
#
# number of rings (size 3 to 8) (size 9 to 14) (size 15 to 20)
#    0.000    1.538    6.154    1.846    0.000    2.462 
#    0.000    4.615    0.000    0.000    0.000    0.000 
#    0.000    3.692    0.000    0.000    0.000    0.000 
#
# Total GULP energy -145052.118231 kJ/mol
# GULP energy per Si atom -5578.927624 kJ/mol
# Density = 2.178996 g / cm^3
# Si number density = 21.839670 Si / 1000 Ang^3
#
#
#
# Elastic Constant Matrix: (Units=GPa)
#
#
# Indices 1 2 3 4 5 6 
#
# 1 147.4413 -0.7246 -6.0635 0.0000 24.1312 0.0000
# 2 -0.7246 42.6442 -8.7921 0.0000 0.7010 0.0000
# 3 -6.0635 -8.7921 131.9703 0.0000 -12.9484 0.0000
# 4 0.0000 0.0000 0.0000 3.7151 0.0000 39.8703
# 5 24.1312 0.7010 -12.9484 0.0000 47.1602 0.0000
# 6 0.0000 0.0000 0.0000 39.8703 0.0000 -43.9801
#
#
#
# Elastic Compliance Matrix: (Units=1/GPa)
#
#
# Indices 1 2 3 4 5 6 
#
# 1 0.007404 0.000184 -0.000020 0.000000 -0.003797 0.000000
# 2 0.000184 0.023781 0.001592 0.000000 -0.000011 0.000000
# 3 -0.000020 0.001592 0.007894 0.000000 0.002154 0.000000
# 4 0.000000 0.000000 0.000000 0.025088 0.000000 0.022744
# 5 -0.003797 -0.000011 0.002154 0.000000 0.023739 0.000000
# 6 0.000000 0.000000 0.000000 0.022744 0.000000 -0.002119
#
#
# Mechanical properties :
#
#
# Convention : Reuss Voigt Hill
#
# Bulk Modulus (GPa) = 23.47934 32.32170 27.90052
# Shear Modulus (GPa) = 51.82863 23.88810 37.85837
#
# Velocity S-wave (km/s) = 4.87678 3.31084 4.16801
# Velocity P-wave (km/s) = 6.51803 5.42653 5.99716
#
# Compressibility (1/GPa) = 0.04259064
#
# Stress axis : x y z
#
# Youngs Moduli (GPa) = 135.06521 42.04980 126.67962
#
# Poissons Ratio (x) = -0.00774 0.00254
# Poissons Ratio (y) = -0.02486 -0.20165
# Poissons Ratio (z) = 0.00271 -0.06693
#
# Static dielectric constant tensor:
#      x y z
#    x 1.798690 0.000000 -0.010770 
#    y 0.000000 2.270320 0.000000 
#    z -0.010770 0.000000 1.840700 
# 
# From -- ./inp_files/7801.got.cif
#   From: 2010.05.17/outbox.cif.g08.bks.cpg/sg13_4_cif.got.tgz:7801.got - 2010.06.03 16:44:36.
