data_PCOD9226089
_publ_section_title
;
Structure prediction by ZEFSAII (Michael W. Deem and Ramdas Pophale) SiO2 
 PCOD9226089
Probable space group: P 2/C
;
_chemical_formula_sum "Si O2"
_cell_formula_units_Z 20
_cell_length_a 6.856170
_cell_length_b 22.362404
_cell_length_c 5.566565
_cell_angle_alpha 90.000000
_cell_angle_beta 78.514682
_cell_angle_gamma 90.000000
_cell_volume 836.378162
_symmetry_space_group_name_H-M "P 2/C"
_symmetry_group_IT_number 13
_symmetry_cell_setting 'monoclinic'
loop_
_space_group_symop_operation_xyz
x,y,z
-x,y,1/2-z
-x,-y,-z
x,-y,1/2+z
loop_
_atom_site_type_symbol
_atom_site_label
_atom_site_fract_x
_atom_site_fract_y
_atom_site_fract_z
Si Si1 0.374286 0.651274 0.530196
Si Si2 0.226542 0.477068 0.967962
Si Si3 0.272704 0.024050 0.554279
Si Si4 0.723163 0.166874 0.945791
Si Si5 0.735812 0.785162 0.940762
O O1 0.500000 0.653719 0.250000
O O2 0.242839 0.591914 0.537580
O O3 0.257706 0.713662 0.564511
O O4 0.500000 0.647621 0.750000
O O5 0.311471 0.486815 0.677493
O O6 0.000000 0.500000 0.000000
O O7 0.278235 0.095455 0.546339
O O8 0.500000 0.000000 0.500000
O O9 0.187090 0.997688 0.328915
O O10 0.811055 0.188343 0.672142
O O11 0.497478 0.193402 0.002098
O O12 0.814876 0.190781 0.169487
#
# Coordination Sequence:
#
# PCOD9226089 Si02
#       5
#     4   4   4   4   4
#     4  12  21  34  55  82 106 127 172 225 265 316
#     4  10  23  42  59  77 106 141 168 203 261 334
#     4  10  16  22  31  49  71 111 169 213 237 283
#     4  10  16  25  38  51  87 123 153 211 267 295
#     4  10  16  27  38  61  86 119 151 200 274 292
#
# _framework density 23.912625999999999
#
# number of rings (size 3 to 8) (size 9 to 14) (size 15 to 20)
#    0.000    1.600    4.000    7.200    0.000    2.400 
#    0.000    0.000    0.000    0.000    0.000    0.000 
#    0.000    0.000    0.000    0.000    0.000    0.000 
#
# Total GULP energy -111866.268329 kJ/mol
# GULP energy per Si atom -5593.313416 kJ/mol
# Density = 2.385820 g / cm^3
# Si number density = 23.912626 Si / 1000 Ang^3
#
#
#
# Elastic Constant Matrix: (Units=GPa)
#
#
# Indices 1 2 3 4 5 6 
#
# 1 69.7100 20.1934 60.6089 0.0000 13.9124 0.0000
# 2 20.1934 271.9256 87.5113 0.0000 22.3652 0.0000
# 3 60.6089 87.5113 294.3123 0.0000 21.9107 0.0000
# 4 0.0000 0.0000 0.0000 52.7628 0.0000 5.9631
# 5 13.9124 22.3652 21.9107 0.0000 54.6558 0.0000
# 6 0.0000 0.0000 0.0000 5.9631 0.0000 -76.9013
#
#
#
# Elastic Compliance Matrix: (Units=1/GPa)
#
#
# Indices 1 2 3 4 5 6 
#
# 1 0.017998 0.000048 -0.003482 0.000000 -0.003205 0.000000
# 2 0.000048 0.004147 -0.001150 0.000000 -0.001248 0.000000
# 3 -0.003482 -0.001150 0.004490 0.000000 -0.000443 0.000000
# 4 0.000000 0.000000 0.000000 0.018788 0.000000 0.001457
# 5 -0.003205 -0.001248 -0.000443 0.000000 0.019800 0.000000
# 6 0.000000 0.000000 0.000000 0.001457 0.000000 -0.012891
#
#
# Mechanical properties :
#
#
# Convention : Reuss Voigt Hill
#
# Bulk Modulus (GPa) = 57.25345 108.06391 82.65868
# Shear Modulus (GPa) = 74.26855 37.27905 55.77380
#
# Velocity S-wave (km/s) = 5.57904 3.95266 4.83473
# Velocity P-wave (km/s) = 8.09294 8.13146 8.11222
#
# Compressibility (1/GPa) = 0.01746619
#
# Stress axis : x y z
#
# Youngs Moduli (GPa) = 55.56037 241.15950 222.73168
#
# Poissons Ratio (x) = -0.01148 0.77556
# Poissons Ratio (y) = -0.00265 0.25611
# Poissons Ratio (z) = 0.19346 0.27730
#
# Static dielectric constant tensor:
#      x y z
#    x 1.747540 0.000000 0.084950 
#    y 0.000000 1.797490 0.000000 
#    z 0.084950 0.000000 1.852620 
# 
# From -- ./inp_files/1600.got.cif
#   From: 2010.05.17/outbox.cif.g08.bks.cpg/sg13_1_cif.got.tgz:1600.got - 2010.06.03 16:44:36.
