data_PCOD9226949
_publ_section_title
;
Structure prediction by ZEFSAII (Michael W. Deem and Ramdas Pophale) SiO2 
 PCOD9226949
Probable space group: P 2/C
;
_chemical_formula_sum "Si O2"
_cell_formula_units_Z 30
_cell_length_a 35.891472
_cell_length_b 7.141011
_cell_length_c 5.443761
_cell_angle_alpha 90.000000
_cell_angle_beta 74.146628
_cell_angle_gamma 90.000000
_cell_volume 1342.173982
_symmetry_space_group_name_H-M "P 2/C"
_symmetry_group_IT_number 13
_symmetry_cell_setting 'monoclinic'
loop_
_space_group_symop_operation_xyz
x,y,z
-x,y,1/2-z
-x,-y,-z
x,-y,1/2+z
loop_
_atom_site_type_symbol
_atom_site_label
_atom_site_fract_x
_atom_site_fract_y
_atom_site_fract_z
Si Si1 0.806193 0.621584 0.564142
Si Si2 0.606562 0.794922 0.500302
Si Si3 0.282059 0.378688 0.275766
Si Si4 0.000000 0.877298 0.750000
Si Si5 0.455711 0.571045 0.053804
Si Si6 0.085248 0.775552 0.524140
Si Si7 0.883898 0.795366 0.530746
Si Si8 0.361466 0.784508 0.555841
O O1 0.810742 0.518015 0.291730
O O2 0.762046 0.693893 0.654070
O O3 0.839059 0.778348 0.538799
O O4 0.560868 0.766947 0.522102
O O5 0.618901 0.705368 0.734229
O O6 0.620332 0.007900 0.494614
O O7 0.629511 0.706566 0.230380
O O8 0.286484 0.484117 0.530382
O O9 0.315756 0.226081 0.186552
O O10 0.040121 0.766007 0.669867
O O11 0.000000 0.000000 0.500000
O O12 0.441283 0.559357 0.357591
O O13 0.500000 0.500000 0.000000
O O14 0.109261 0.705752 0.714801
O O15 0.099057 0.994504 0.476629
O O16 0.093364 0.702090 0.237125
#
# Coordination Sequence:
#
# PCOD9226949 Si02
#       8
#     4   4   4   2   4   4   4   4
#     4  10  21  37  55  76 106 147 186 222 265 320
#     4  10  21  37  57  86 119 149 185 224 285 342
#     4  10  21  37  58  84 110 142 192 238 277 334
#     4  12  16  30  48  78 110 134 170 226 298 340
#     4  10  21  37  60  86 113 150 195 236 270 322
#     4  10  19  30  50  81 103 132 173 226 285 334
#     4  10  18  32  49  75 106 132 177 223 266 329
#     4  10  21  37  58  85 118 150 181 236 291 339
#
# _framework density 22.351797000000001
#
# number of rings (size 3 to 8) (size 9 to 14) (size 15 to 20)
#    0.000    1.867    2.667    2.400    0.000    3.200 
#    0.000    5.333    0.000   38.400    0.000   15.867 
#    0.000    0.000    0.000    0.000    0.000    0.000 
#
# Total GULP energy -167067.162310 kJ/mol
# GULP energy per Si atom -5568.905410 kJ/mol
# Density = 2.230092 g / cm^3
# Si number density = 22.351797 Si / 1000 Ang^3
#
#
#
# Elastic Constant Matrix: (Units=GPa)
#
#
# Indices 1 2 3 4 5 6 
#
# 1 126.8018 16.3990 20.7618 0.0000 -12.1925 0.0000
# 2 16.3990 62.0615 -11.5738 0.0000 -9.0460 0.0000
# 3 20.7618 -11.5738 168.0263 0.0000 31.5176 0.0000
# 4 0.0000 0.0000 0.0000 7.3690 0.0000 2.3250
# 5 -12.1925 -9.0460 31.5176 0.0000 55.6179 0.0000
# 6 0.0000 0.0000 0.0000 2.3250 0.0000 35.2677
#
#
#
# Elastic Compliance Matrix: (Units=1/GPa)
#
#
# Indices 1 2 3 4 5 6 
#
# 1 0.008696 -0.002250 -0.001699 0.000000 0.002503 0.000000
# 2 -0.002250 0.017162 0.001151 0.000000 0.001646 0.000000
# 3 -0.001699 0.001151 0.007022 0.000000 -0.004164 0.000000
# 4 0.000000 0.000000 0.000000 0.138587 0.000000 -0.009136
# 5 0.002503 0.001646 -0.004164 0.000000 0.021156 0.000000
# 6 0.000000 0.000000 0.000000 -0.009136 0.000000 0.028957
#
#
# Mechanical properties :
#
#
# Convention : Reuss Voigt Hill
#
# Bulk Modulus (GPa) = 36.64980 45.34042 40.99511
# Shear Modulus (GPa) = 21.16223 41.73775 31.44999
#
# Velocity S-wave (km/s) = 3.08032 4.32593 3.75513
# Velocity P-wave (km/s) = 5.39292 6.72908 6.09770
#
# Compressibility (1/GPa) = 0.02728528
#
# Stress axis : x y z
#
# Youngs Moduli (GPa) = 114.99304 58.26779 142.41325
#
# Poissons Ratio (x) = 0.13109 0.24197
# Poissons Ratio (y) = 0.25872 -0.16398
# Poissons Ratio (z) = 0.19538 -0.06709
#
# Static dielectric constant tensor:
#      x y z
#    x 2.107210 0.000000 -0.227920 
#    y 0.000000 1.760700 0.000000 
#    z -0.227920 0.000000 2.119410 
# 
# From -- ./inp_files/8093.got.cif
#   From: 2010.05.17/outbox.cif.g08.bks.cpg/sg13_5_cif.got.tgz:8093.got - 2010.06.03 16:44:36.
