data_PCOD9226653
_publ_section_title
;
Structure prediction by ZEFSAII (Michael W. Deem and Ramdas Pophale) SiO2 
 PCOD9226653
Probable space group: P 2/C
;
_chemical_formula_sum "Si O2"
_cell_formula_units_Z 26
_cell_length_a 22.611305
_cell_length_b 7.031422
_cell_length_c 17.545054
_cell_angle_alpha 90.000000
_cell_angle_beta 156.082185
_cell_angle_gamma 90.000000
_cell_volume 1130.927911
_symmetry_space_group_name_H-M "P 2/C"
_symmetry_group_IT_number 13
_symmetry_cell_setting 'monoclinic'
loop_
_space_group_symop_operation_xyz
x,y,z
-x,y,1/2-z
-x,-y,-z
x,-y,1/2+z
loop_
_atom_site_type_symbol
_atom_site_label
_atom_site_fract_x
_atom_site_fract_y
_atom_site_fract_z
Si Si1 0.249138 0.257467 0.287613
Si Si2 0.926347 0.594008 0.785604
Si Si3 0.743050 0.464119 0.824478
Si Si4 0.485880 0.074561 0.813390
Si Si5 0.000000 0.086529 0.250000
Si Si6 0.358800 0.485672 0.631202
Si Si7 0.744002 0.989320 0.345674
O O1 0.114431 0.329326 0.179029
O O2 0.316370 0.437255 0.321437
O O3 0.364187 0.162343 0.479922
O O4 0.220648 0.107410 0.187409
O O5 0.787770 0.479488 0.589960
O O6 0.941210 0.773302 0.746406
O O7 0.082674 0.493035 0.967624
O O8 0.669394 0.542613 0.814556
O O9 0.735919 0.235296 0.815207
O O10 0.500000 0.967660 0.750000
O O11 0.385307 0.257171 0.673240
O O12 0.408468 0.969046 0.791847
O O13 0.131077 0.977002 0.444132
O O14 0.500000 0.548584 0.750000
#
# Coordination Sequence:
#
# PCOD9226653 Si02
#       7
#     4   4   4   4   2   4   4
#     4  12  23  37  65  96 124 156 214 262 310 367
#     4  11  18  39  65  86 123 170 201 249 318 377
#     4  10  23  39  62  93 125 160 204 262 314 363
#     4  10  18  38  65  87 124 173 205 248 322 374
#     4  10  18  38  62  80 126 164 206 238 310 372
#     4  10  17  36  64  87 112 171 207 238 310 381
#     4  10  22  39  60  93 124 165 206 262 309 366
#
# _framework density 22.989971000000001
#
# number of rings (size 3 to 8) (size 9 to 14) (size 15 to 20)
#    0.000    1.538    7.692    0.923    0.000    4.923 
#    2.769    0.769    3.385    0.923    0.000    0.000 
#    0.000    0.000    0.000    0.000    0.000    0.000 
#
# Total GULP energy -145237.653090 kJ/mol
# GULP energy per Si atom -5586.063580 kJ/mol
# Density = 2.293764 g / cm^3
# Si number density = 22.989971 Si / 1000 Ang^3
#
#
#
# Elastic Constant Matrix: (Units=GPa)
#
#
# Indices 1 2 3 4 5 6 
#
# 1 214.0867 31.2963 30.2656 0.0000 -10.9301 0.0000
# 2 31.2963 78.4649 4.3460 0.0000 -10.4649 0.0000
# 3 30.2656 4.3460 57.4199 0.0000 -3.0477 0.0000
# 4 0.0000 0.0000 0.0000 1.4740 0.0000 -2.3334
# 5 -10.9301 -10.4649 -3.0477 0.0000 44.3125 0.0000
# 6 0.0000 0.0000 0.0000 -2.3334 0.0000 -13.8221
#
#
#
# Elastic Compliance Matrix: (Units=1/GPa)
#
#
# Indices 1 2 3 4 5 6 
#
# 1 0.005358 -0.001898 -0.002644 0.000000 0.000691 0.000000
# 2 -0.001898 0.013872 0.000100 0.000000 0.002815 0.000000
# 3 -0.002644 0.000100 0.018837 0.000000 0.000667 0.000000
# 4 0.000000 0.000000 0.000000 0.535341 0.000000 -0.090375
# 5 0.000691 0.002815 0.000667 0.000000 0.023448 0.000000
# 6 0.000000 0.000000 0.000000 -0.090375 0.000000 -0.057091
#
#
# Mechanical properties :
#
#
# Convention : Reuss Voigt Hill
#
# Bulk Modulus (GPa) = 34.26733 53.53192 43.89962
# Shear Modulus (GPa) = 8.95456 25.33045 17.14251
#
# Velocity S-wave (km/s) = 1.97571 3.32295 2.73362
# Velocity P-wave (km/s) = 4.48802 6.16912 5.39446
#
# Compressibility (1/GPa) = 0.02918232
#
# Stress axis : x y z
#
# Youngs Moduli (GPa) = 186.65367 72.09015 53.08756
#
# Poissons Ratio (x) = 0.13685 0.14034
# Poissons Ratio (y) = 0.35432 -0.00531
# Poissons Ratio (z) = 0.49343 -0.00721
#
# Static dielectric constant tensor:
#      x y z
#    x 1.894010 0.000000 0.016730 
#    y 0.000000 1.904160 0.000000 
#    z 0.016730 0.000000 1.920240 
# 
# From -- ./inp_files/57341.got.cif
#   From: 2010.05.17/outbox.cif.g08.bks.cpg/sg13_29_cif.got.tgz:57341.got - 2010.06.03 16:44:36.
