data_PCOD9226407
_publ_section_title
;
Structure prediction by ZEFSAII (Michael W. Deem and Ramdas Pophale) SiO2 
 PCOD9226407
Probable space group: P 2/C
;
_chemical_formula_sum "Si O2"
_cell_formula_units_Z 30
_cell_length_a 11.709954
_cell_length_b 17.699805
_cell_length_c 8.812848
_cell_angle_alpha 90.000000
_cell_angle_beta 105.042214
_cell_angle_gamma 90.000000
_cell_volume 1763.997092
_symmetry_space_group_name_H-M "P 2/C"
_symmetry_group_IT_number 13
_symmetry_cell_setting 'monoclinic'
loop_
_space_group_symop_operation_xyz
x,y,z
-x,y,1/2-z
-x,-y,-z
x,-y,1/2+z
loop_
_atom_site_type_symbol
_atom_site_label
_atom_site_fract_x
_atom_site_fract_y
_atom_site_fract_z
Si Si1 0.123610 0.035731 0.105470
Si Si2 0.364653 0.399153 0.740944
Si Si3 0.983046 0.717267 0.994606
Si Si4 0.907601 0.558112 0.891786
Si Si5 0.744813 0.506285 0.565782
Si Si6 0.000000 0.843495 0.750000
Si Si7 0.853580 0.894709 0.199906
Si Si8 0.807017 0.271313 0.702552
O O1 0.099794 0.097785 0.227975
O O2 0.180258 0.962465 0.199854
O O3 0.177284 0.077655 0.979769
O O4 0.000000 0.000000 0.000000
O O5 0.500000 0.383700 0.750000
O O6 0.351147 0.467667 0.857757
O O7 0.300768 0.428728 0.563847
O O8 0.299045 0.327340 0.793477
O O9 0.961733 0.640340 0.898639
O O10 0.015564 0.787778 0.898653
O O11 0.864928 0.729279 0.054430
O O12 0.088266 0.703428 0.148504
O O13 0.849820 0.531685 0.715086
O O14 0.800159 0.557189 0.975457
O O15 0.000000 0.500000 0.000000
O O16 0.790948 0.817696 0.225504
O O17 0.000000 0.882618 0.250000
#
# Coordination Sequence:
#
# PCOD9226407 Si02
#       8
#     4   4   4   4   4   2   4   4
#     4  10  17  28  45  70 105 148 177 204 255 326
#     4  11  23  41  60  78 104 142 195 243 277 315
#     4  11  22  32  49  78 118 146 171 221 271 339
#     4  11  22  34  52  80 113 149 179 216 273 340
#     4  10  22  38  57  78 103 142 191 230 274 327
#     4  12  20  28  48  76 116 150 176 212 262 328
#     4  10  17  30  47  71 108 143 176 209 264 334
#     4  11  21  35  51  77 108 147 177 221 278 323
#
# _framework density 17.006830999999998
#
# number of rings (size 3 to 8) (size 9 to 14) (size 15 to 20)
#    0.000    1.333    6.000    3.200    5.600    0.000 
#    0.000    0.000    0.000    0.000    0.000    0.933 
#    0.000    0.000    0.000    0.000    0.000    0.000 
#
# Total GULP energy -167136.697186 kJ/mol
# GULP energy per Si atom -5571.223240 kJ/mol
# Density = 1.696812 g / cm^3
# Si number density = 17.006831 Si / 1000 Ang^3
#
#
#
# Elastic Constant Matrix: (Units=GPa)
#
#
# Indices 1 2 3 4 5 6 
#
# 1 66.5705 34.9212 31.4878 0.0000 -12.3023 0.0000
# 2 34.9212 123.4340 37.9606 0.0000 -7.6997 0.0000
# 3 31.4878 37.9606 91.8046 0.0000 -19.3342 0.0000
# 4 0.0000 0.0000 0.0000 25.3632 0.0000 -8.6761
# 5 -12.3023 -7.6997 -19.3342 0.0000 18.7085 0.0000
# 6 0.0000 0.0000 0.0000 -8.6761 0.0000 15.5358
#
#
#
# Elastic Compliance Matrix: (Units=1/GPa)
#
#
# Indices 1 2 3 4 5 6 
#
# 1 0.020377 -0.004164 -0.003587 0.000000 0.007979 0.000000
# 2 -0.004164 0.010133 -0.003145 0.000000 -0.001818 0.000000
# 3 -0.003587 -0.003145 0.016174 0.000000 0.013062 0.000000
# 4 0.000000 0.000000 0.000000 0.048738 0.000000 0.027218
# 5 0.007979 -0.001818 0.013062 0.000000 0.071450 0.000000
# 6 0.000000 0.000000 0.000000 0.027218 0.000000 0.079568
#
#
# Mechanical properties :
#
#
# Convention : Reuss Voigt Hill
#
# Bulk Modulus (GPa) = 40.17129 54.50537 47.33833
# Shear Modulus (GPa) = 18.08131 23.75078 20.91604
#
# Velocity S-wave (km/s) = 3.26418 3.74109 3.51074
# Velocity P-wave (km/s) = 6.15455 7.12599 6.65801
#
# Compressibility (1/GPa) = 0.02489340
#
# Stress axis : x y z
#
# Youngs Moduli (GPa) = 49.07445 98.68453 61.82705
#
# Poissons Ratio (x) = 0.41094 0.22177
# Poissons Ratio (y) = 0.20435 0.19442
# Poissons Ratio (z) = 0.17602 0.31032
#
# Static dielectric constant tensor:
#      x y z
#    x 1.598510 0.000000 -0.027760 
#    y 0.000000 1.607730 0.000000 
#    z -0.027760 0.000000 1.633070 
# 
# From -- ./inp_files/17090.got.cif
#   From: 2010.05.17/outbox.cif.g08.bks.cpg/sg13_9_cif.got.tgz:17090.got - 2010.06.03 16:44:36.
