data_PCOD9226103
_publ_section_title
;
Structure prediction by ZEFSAII (Michael W. Deem and Ramdas Pophale) SiO2 
 PCOD9226103
Probable space group: P 2/C
;
_chemical_formula_sum "Si O2"
_cell_formula_units_Z 30
_cell_length_a 12.163869
_cell_length_b 26.626226
_cell_length_c 5.406269
_cell_angle_alpha 90.000000
_cell_angle_beta 66.719251
_cell_angle_gamma 90.000000
_cell_volume 1608.405764
_symmetry_space_group_name_H-M "P 2/C"
_symmetry_group_IT_number 13
_symmetry_cell_setting 'monoclinic'
loop_
_space_group_symop_operation_xyz
x,y,z
-x,y,1/2-z
-x,-y,-z
x,-y,1/2+z
loop_
_atom_site_type_symbol
_atom_site_label
_atom_site_fract_x
_atom_site_fract_y
_atom_site_fract_z
Si Si1 0.866389 0.912536 0.389216
Si Si2 0.636128 0.030165 0.978674
Si Si3 0.636504 0.478875 0.865117
Si Si4 0.379890 0.797743 0.527308
Si Si5 0.500000 0.122337 0.250000
Si Si6 0.636672 0.640755 0.361688
Si Si7 0.862433 0.152107 0.397707
Si Si8 0.364167 0.682915 0.639743
O O1 0.773354 0.955025 0.397343
O O2 0.848956 0.887773 0.678448
O O3 0.000000 0.932742 0.250000
O O4 0.855850 0.871983 0.176499
O O5 0.569626 0.083759 0.011358
O O6 0.610319 0.003185 0.263476
O O7 0.692850 0.503624 0.572564
O O8 0.633025 0.419087 0.845453
O O9 0.500000 0.500000 0.000000
O O10 0.500000 0.796885 0.250000
O O11 0.407507 0.841768 0.696503
O O12 0.251816 0.810994 0.521160
O O13 0.371141 0.742676 0.653168
O O14 0.499776 0.661070 0.501099
O O15 0.693671 0.658491 0.567747
O O16 0.692076 0.665915 0.069655
O O17 0.000000 0.172103 0.250000
#
# Coordination Sequence:
#
# PCOD9226103 Si02
#       8
#     4   4   4   4   2   4   4   4
#     4  10  21  42  65  85 108 141 180 217 267 325
#     4  12  26  42  59  84 115 143 173 213 278 332
#     4  10  16  23  38  58  81 134 192 218 251 314
#     4  12  24  37  63  86 112 143 195 229 270 337
#     4  12  26  40  60  82 110 150 174 230 268 324
#     4  10  17  30  40  61 106 132 174 232 269 310
#     4  10  22  41  64  87 114 145 178 228 278 321
#     4  10  19  30  44  69  96 134 166 224 271 313
#
# _framework density 18.652009
#
# number of rings (size 3 to 8) (size 9 to 14) (size 15 to 20)
#    0.000    1.333    2.667    6.800    1.867    0.533 
#    0.000    0.000    0.000    0.000    0.000    0.000 
#    0.000    0.000    0.000    0.000    0.000   49.333 
#
# Total GULP energy -167288.629637 kJ/mol
# GULP energy per Si atom -5576.287655 kJ/mol
# Density = 1.860956 g / cm^3
# Si number density = 18.652009 Si / 1000 Ang^3
#
#
#
# Elastic Constant Matrix: (Units=GPa)
#
#
# Indices 1 2 3 4 5 6 
#
# 1 86.6623 30.8700 20.0570 0.0000 0.0611 0.0000
# 2 30.8700 126.5820 28.1902 0.0000 7.5594 0.0000
# 3 20.0570 28.1902 91.0686 0.0000 27.0038 0.0000
# 4 0.0000 0.0000 0.0000 12.4569 0.0000 20.3077
# 5 0.0611 7.5594 27.0038 0.0000 28.9717 0.0000
# 6 0.0000 0.0000 0.0000 20.3077 0.0000 -0.0458
#
#
#
# Elastic Compliance Matrix: (Units=1/GPa)
#
#
# Indices 1 2 3 4 5 6 
#
# 1 0.013241 -0.002746 -0.003137 0.000000 0.003613 0.000000
# 2 -0.002746 0.009057 -0.002072 0.000000 -0.000426 0.000000
# 3 -0.003137 -0.002072 0.016792 0.000000 -0.015104 0.000000
# 4 0.000000 0.000000 0.000000 0.000111 0.000000 0.049174
# 5 0.003613 -0.000426 -0.015104 0.000000 0.048698 0.000000
# 6 0.000000 0.000000 0.000000 0.049174 0.000000 -0.030164
#
#
# Mechanical properties :
#
#
# Convention : Reuss Voigt Hill
#
# Bulk Modulus (GPa) = 43.14552 51.39415 47.26983
# Shear Modulus (GPa) = 61.44594 23.28959 42.36776
#
# Velocity S-wave (km/s) = 5.74586 3.53744 4.77118
# Velocity P-wave (km/s) = 8.19767 6.65572 7.46661
#
# Compressibility (1/GPa) = 0.02317738
#
# Stress axis : x y z
#
# Youngs Moduli (GPa) = 75.52400 110.41555 59.55246
#
# Poissons Ratio (x) = 0.30322 0.18684
# Poissons Ratio (y) = 0.20740 0.12342
# Poissons Ratio (z) = 0.23695 0.22883
#
# Static dielectric constant tensor:
#      x y z
#    x 1.669380 0.000000 0.016840 
#    y 0.000000 1.615400 0.000000 
#    z 0.016840 0.000000 1.760580 
# 
# From -- ./inp_files/4339.got.cif
#   From: 2010.05.17/outbox.cif.g08.bks.cpg/sg13_3_cif.got.tgz:4339.got - 2010.06.03 16:44:36.
