data_PCOD9226289
_publ_section_title
;
Structure prediction by ZEFSAII (Michael W. Deem and Ramdas Pophale) SiO2 
 PCOD9226289
Probable space group: P 2/C
;
_chemical_formula_sum "Si O2"
_cell_formula_units_Z 26
_cell_length_a 8.745652
_cell_length_b 8.734742
_cell_length_c 15.828114
_cell_angle_alpha 90.000000
_cell_angle_beta 77.253516
_cell_angle_gamma 90.000000
_cell_volume 1179.327816
_symmetry_space_group_name_H-M "P 2/C"
_symmetry_group_IT_number 13
_symmetry_cell_setting 'monoclinic'
loop_
_space_group_symop_operation_xyz
x,y,z
-x,y,1/2-z
-x,-y,-z
x,-y,1/2+z
loop_
_atom_site_type_symbol
_atom_site_label
_atom_site_fract_x
_atom_site_fract_y
_atom_site_fract_z
Si Si1 0.000000 0.192420 0.250000
Si Si2 0.912072 0.742730 0.346581
Si Si3 0.748459 0.542279 0.780583
Si Si4 0.223796 0.045646 0.092326
Si Si5 0.778701 0.586192 0.591455
Si Si6 0.108114 0.300524 0.991290
Si Si7 0.494065 0.224692 0.150875
O O1 0.856715 0.307989 0.254762
O O2 0.930203 0.091912 0.333460
O O3 0.829811 0.586449 0.325832
O O4 0.035268 0.718365 0.406967
O O5 0.000000 0.793646 0.250000
O O6 0.787936 0.863609 0.399521
O O7 0.728468 0.502334 0.684937
O O8 0.594744 0.611526 0.840698
O O9 0.385165 0.107029 0.113552
O O10 0.190849 0.145895 0.012719
O O11 0.957539 0.649319 0.566004
O O12 0.665283 0.732163 0.596369
O O13 0.779157 0.448780 0.523516
O O14 0.500000 0.181063 0.250000
#
# Coordination Sequence:
#
# PCOD9226289 Si02
#       7
#     2   4   4   4   4   4   4
#     4  10  16  32  60  88 112 154 210 258 304 356
#     4  12  23  39  63  95 131 168 215 265 325 395
#     4  10  18  37  62  88 121 161 214 264 308 377
#     4  11  23  39  62  94 129 170 207 262 325 387
#     4  10  20  39  65  97 119 163 215 275 314 370
#     4  11  23  38  65  99 129 163 215 274 323 372
#     4   9  22  40  65  93 127 168 218 260 325 383
#
# _framework density 22.046455999999999
#
# number of rings (size 3 to 8) (size 9 to 14) (size 15 to 20)
#    0.000    1.538    4.615    0.462    6.462    0.615 
#    0.000    3.077    3.385    0.000    0.000    0.000 
#    0.000    0.000    0.000    0.000    0.000    0.000 
#
# Total GULP energy -144942.749241 kJ/mol
# GULP energy per Si atom -5574.721125 kJ/mol
# Density = 2.199628 g / cm^3
# Si number density = 22.046456 Si / 1000 Ang^3
#
#
#
# Elastic Constant Matrix: (Units=GPa)
#
#
# Indices 1 2 3 4 5 6 
#
# 1 66.3157 10.4153 17.3072 0.0000 12.5248 0.0000
# 2 10.4153 49.6732 27.0517 0.0000 12.7395 0.0000
# 3 17.3072 27.0517 76.5380 0.0000 15.7929 0.0000
# 4 0.0000 0.0000 0.0000 24.4661 0.0000 -6.4271
# 5 12.5248 12.7395 15.7929 0.0000 35.7870 0.0000
# 6 0.0000 0.0000 0.0000 -6.4271 0.0000 27.4346
#
#
#
# Elastic Compliance Matrix: (Units=1/GPa)
#
#
# Indices 1 2 3 4 5 6 
#
# 1 0.016723 -0.001010 -0.002521 0.000000 -0.004381 0.000000
# 2 -0.001010 0.026010 -0.007841 0.000000 -0.005445 0.000000
# 3 -0.002521 -0.007841 0.017216 0.000000 -0.003924 0.000000
# 4 0.000000 0.000000 0.000000 0.043553 0.000000 0.010203
# 5 -0.004381 -0.005445 -0.003924 0.000000 0.033147 0.000000
# 6 0.000000 0.000000 0.000000 0.010203 0.000000 0.038841
#
#
# Mechanical properties :
#
#
# Convention : Reuss Voigt Hill
#
# Bulk Modulus (GPa) = 26.87724 33.56391 30.22057
# Shear Modulus (GPa) = 23.73765 26.72105 25.22935
#
# Velocity S-wave (km/s) = 3.28489 3.48520 3.38653
# Velocity P-wave (km/s) = 5.15800 5.60828 5.38784
#
# Compressibility (1/GPa) = 0.03720620
#
# Stress axis : x y z
#
# Youngs Moduli (GPa) = 59.79688 38.44662 58.08398
#
# Poissons Ratio (x) = 0.03884 0.14640
# Poissons Ratio (y) = 0.06041 0.45544
# Poissons Ratio (z) = 0.15072 0.30146
#
# Static dielectric constant tensor:
#      x y z
#    x 1.852990 0.000000 -0.012830 
#    y 0.000000 1.871910 0.000000 
#    z -0.012830 0.000000 1.912710 
# 
# From -- ./inp_files/63736.got.cif
#   From: 2010.05.17/outbox.cif.g08.bks.cpg/sg13_32_cif.got.tgz:63736.got - 2010.06.03 16:44:36.
