data_PCOD9226728
_publ_section_title
;
Structure prediction by ZEFSAII (Michael W. Deem and Ramdas Pophale) SiO2 
 PCOD9226728
Probable space group: P 2/C
;
_chemical_formula_sum "Si O2"
_cell_formula_units_Z 20
_cell_length_a 15.889181
_cell_length_b 7.421127
_cell_length_c 13.277600
_cell_angle_alpha 90.000000
_cell_angle_beta 152.812062
_cell_angle_gamma 90.000000
_cell_volume 715.356063
_symmetry_space_group_name_H-M "P 2/C"
_symmetry_group_IT_number 13
_symmetry_cell_setting 'monoclinic'
loop_
_space_group_symop_operation_xyz
x,y,z
-x,y,1/2-z
-x,-y,-z
x,-y,1/2+z
loop_
_atom_site_type_symbol
_atom_site_label
_atom_site_fract_x
_atom_site_fract_y
_atom_site_fract_z
Si Si1 0.090232 0.693104 0.156605
Si Si2 0.464368 0.455380 0.078354
Si Si3 0.144514 0.430583 0.496170
Si Si4 0.819669 0.962632 0.610823
Si Si5 0.508310 0.972394 0.625353
O O1 0.242470 0.542185 0.351996
O O2 0.116320 0.871760 0.250465
O O3 0.895907 0.615141 0.984855
O O4 0.112320 0.707589 0.058080
O O5 0.642430 0.558253 0.315199
O O6 0.481595 0.240658 0.116926
O O7 0.500000 0.500000 0.000000
O O8 0.000000 0.444282 0.250000
O O9 0.652696 0.894582 0.503795
O O10 0.697484 0.995844 0.382123
O O11 0.000000 0.884285 0.750000
O O12 0.500000 0.000000 0.500000
#
# Coordination Sequence:
#
# PCOD9226728 Si02
#       5
#     4   4   4   4   4
#     4   9  18  31  51  81 113 152 197 241 291 357
#     4   9  18  33  54  79 113 152 186 230 291 348
#     4  10  18  29  50  81 118 153 193 244 296 349
#     4  10  20  37  62  83 111 157 200 239 298 365
#     4  10  21  36  60  90 116 148 200 252 288 346
#
# _framework density 27.958106999999998
#
# number of rings (size 3 to 8) (size 9 to 14) (size 15 to 20)
#    0.000    2.400    0.000    3.000    0.000    3.200 
#    0.000    0.000    0.000   82.800    0.000   12.600 
#    0.000    0.000    0.000    0.000    0.000    0.000 
#
# Total GULP energy -111400.135754 kJ/mol
# GULP energy per Si atom -5570.006788 kJ/mol
# Density = 2.789447 g / cm^3
# Si number density = 27.958107 Si / 1000 Ang^3
#
#
#
# Elastic Constant Matrix: (Units=GPa)
#
#
# Indices 1 2 3 4 5 6 
#
# 1 169.6462 13.3159 73.8171 0.0000 -11.8684 0.0000
# 2 13.3159 52.7843 -3.3879 0.0000 -7.6821 0.0000
# 3 73.8171 -3.3879 152.3730 0.0000 -21.6853 0.0000
# 4 0.0000 0.0000 0.0000 -33.4459 0.0000 -2.2707
# 5 -11.8684 -7.6821 -21.6853 0.0000 84.6590 0.0000
# 6 0.0000 0.0000 0.0000 -2.2707 0.0000 22.9227
#
#
#
# Elastic Compliance Matrix: (Units=1/GPa)
#
#
# Indices 1 2 3 4 5 6 
#
# 1 0.007714 -0.002203 -0.003799 0.000000 -0.000092 0.000000
# 2 -0.002203 0.019900 0.001788 0.000000 0.001955 0.000000
# 3 -0.003799 0.001788 0.008708 0.000000 0.001860 0.000000
# 4 0.000000 0.000000 0.000000 -0.029699 0.000000 -0.002942
# 5 -0.000092 0.001955 0.001860 0.000000 0.012453 0.000000
# 6 0.000000 0.000000 0.000000 -0.002942 0.000000 0.043333
#
#
# Mechanical properties :
#
#
# Convention : Reuss Voigt Hill
#
# Bulk Modulus (GPa) = 35.85074 60.25484 48.05279
# Shear Modulus (GPa) = 62.39380 34.23106 48.31243
#
# Velocity S-wave (km/s) = 4.72920 3.50290 4.16147
# Velocity P-wave (km/s) = 6.53233 6.16109 6.34942
#
# Compressibility (1/GPa) = 0.02789343
#
# Stress axis : x y z
#
# Youngs Moduli (GPa) = 129.62980 50.25092 114.83886
#
# Poissons Ratio (x) = 0.11072 0.43630
# Poissons Ratio (y) = 0.28561 -0.20534
# Poissons Ratio (z) = 0.49249 -0.08985
#
# Static dielectric constant tensor:
#      x y z
#    x 2.170230 0.000000 0.092280 
#    y 0.000000 2.295860 0.000000 
#    z 0.092280 0.000000 2.094100 
# 
# From -- ./inp_files/37229.got.cif
#   From: 2010.05.17/outbox.cif.g08.bks.cpg/sg13_19_cif.got.tgz:37229.got - 2010.06.03 16:44:36.
