data_PCOD9226456
_publ_section_title
;
Structure prediction by ZEFSAII (Michael W. Deem and Ramdas Pophale) SiO2 
 PCOD9226456
Probable space group: P 2/C
;
_chemical_formula_sum "Si O2"
_cell_formula_units_Z 32
_cell_length_a 12.806960
_cell_length_b 19.804907
_cell_length_c 19.527201
_cell_angle_alpha 90.000000
_cell_angle_beta 159.552610
_cell_angle_gamma 90.000000
_cell_volume 1730.278773
_symmetry_space_group_name_H-M "P 2/C"
_symmetry_group_IT_number 13
_symmetry_cell_setting 'monoclinic'
loop_
_space_group_symop_operation_xyz
x,y,z
-x,y,1/2-z
-x,-y,-z
x,-y,1/2+z
loop_
_atom_site_type_symbol
_atom_site_label
_atom_site_fract_x
_atom_site_fract_y
_atom_site_fract_z
Si Si1 0.655424 0.402436 0.918918
Si Si2 0.425294 0.047777 0.558895
Si Si3 0.785387 0.074251 0.224100
Si Si4 0.385333 0.185755 0.780525
Si Si5 0.645556 0.712235 0.523289
Si Si6 0.650460 0.479142 0.519900
Si Si7 0.690190 0.647122 0.692450
Si Si8 0.985727 0.788025 0.913012
O O1 0.500000 0.400145 0.750000
O O2 0.593010 0.336283 0.926275
O O3 0.572015 0.466219 0.913654
O O4 0.011701 0.398392 0.128102
O O5 0.350634 0.075020 0.436265
O O6 0.618932 0.105693 0.713518
O O7 0.118763 0.045344 0.413890
O O8 0.592664 0.977519 0.650762
O O9 0.810282 0.147236 0.275207
O O10 0.103030 0.206703 0.562513
O O11 0.433928 0.223990 0.881975
O O12 0.699084 0.206614 0.935598
O O13 0.583207 0.668636 0.551452
O O14 0.000000 0.731072 0.750000
O O15 0.500000 0.500000 0.500000
O O16 0.556781 0.405281 0.434265
O O17 0.000000 0.481753 0.750000
O O18 0.802852 0.718438 0.792791
#
# Coordination Sequence:
#
# PCOD9226456 Si02
#       8
#     4   4   4   4   4   4   4   4
#     4  11  21  35  59  91 119 147 184 240 294 341
#     4   9  18  31  53  80 108 144 182 228 270 327
#     4   9  18  33  53  79 111 142 185 226 271 328
#     4  10  18  29  52  86 112 139 190 232 280 323
#     4  10  17  29  54  83 112 146 183 235 280 328
#     4  12  23  43  62  86 114 153 198 238 287 353
#     4  11  21  36  61  83 114 151 191 237 291 337
#     4  10  19  31  52  83 113 144 182 236 281 335
#
# _framework density 18.494128
#
# number of rings (size 3 to 8) (size 9 to 14) (size 15 to 20)
#    0.000    1.750    5.000    1.875    1.750    1.000 
#    0.000    0.000    8.250    0.000    0.000    0.000 
#    0.000    0.000    0.000    0.000    0.000    0.000 
#
# Total GULP energy -178270.544098 kJ/mol
# GULP energy per Si atom -5570.954503 kJ/mol
# Density = 1.845203 g / cm^3
# Si number density = 18.494128 Si / 1000 Ang^3
#
#
#
# Elastic Constant Matrix: (Units=GPa)
#
#
# Indices 1 2 3 4 5 6 
#
# 1 37.6855 32.3665 32.5205 0.0000 -7.5873 0.0000
# 2 32.3665 120.8241 60.8414 0.0000 -12.2744 0.0000
# 3 32.5205 60.8414 69.9883 0.0000 -19.5451 0.0000
# 4 0.0000 0.0000 0.0000 30.4771 0.0000 3.4233
# 5 -7.5873 -12.2744 -19.5451 0.0000 24.0400 0.0000
# 6 0.0000 0.0000 0.0000 3.4233 0.0000 14.8017
#
#
#
# Elastic Compliance Matrix: (Units=1/GPa)
#
#
# Indices 1 2 3 4 5 6 
#
# 1 0.044949 -0.002503 -0.019542 0.000000 -0.002980 0.000000
# 2 -0.002503 0.015124 -0.013000 0.000000 -0.003637 0.000000
# 3 -0.019542 -0.013000 0.040226 0.000000 0.019900 0.000000
# 4 0.000000 0.000000 0.000000 0.033687 0.000000 -0.007791
# 5 -0.002980 -0.003637 0.019900 0.000000 0.054979 0.000000
# 6 0.000000 0.000000 0.000000 -0.007791 0.000000 0.069361
#
#
# Mechanical properties :
#
#
# Convention : Reuss Voigt Hill
#
# Bulk Modulus (GPa) = 33.10221 53.32828 43.21524
# Shear Modulus (GPa) = 14.77171 20.71506 17.74338
#
# Velocity S-wave (km/s) = 2.82924 3.35040 3.10079
# Velocity P-wave (km/s) = 5.34887 6.62305 6.01977
#
# Compressibility (1/GPa) = 0.03020947
#
# Stress axis : x y z
#
# Youngs Moduli (GPa) = 22.24750 66.12185 24.85945
#
# Poissons Ratio (x) = 0.16553 0.48579
# Poissons Ratio (y) = 0.05569 0.32316
# Poissons Ratio (z) = 0.43475 0.85956
#
# Static dielectric constant tensor:
#      x y z
#    x 1.671720 0.000000 -0.013960 
#    y 0.000000 1.668500 0.000000 
#    z -0.013960 0.000000 1.645080 
# 
# From -- ./inp_files/80430.got.cif
#   From: 2010.05.17/outbox.cif.g08.bks.cpg/sg13_41_cif.got.tgz:80430.got - 2010.06.03 16:44:36.
