data_PCOD9226774
_publ_section_title
;
Structure prediction by ZEFSAII (Michael W. Deem and Ramdas Pophale) SiO2 
 PCOD9226774
Probable space group: P 2/C
;
_chemical_formula_sum "Si O2"
_cell_formula_units_Z 30
_cell_length_a 5.613236
_cell_length_b 11.403482
_cell_length_c 18.836927
_cell_angle_alpha 90.000000
_cell_angle_beta 75.994630
_cell_angle_gamma 90.000000
_cell_volume 1169.916338
_symmetry_space_group_name_H-M "P 2/C"
_symmetry_group_IT_number 13
_symmetry_cell_setting 'monoclinic'
loop_
_space_group_symop_operation_xyz
x,y,z
-x,y,1/2-z
-x,-y,-z
x,-y,1/2+z
loop_
_atom_site_type_symbol
_atom_site_label
_atom_site_fract_x
_atom_site_fract_y
_atom_site_fract_z
Si Si1 0.342252 0.920658 0.113566
Si Si2 0.770414 0.914326 0.525767
Si Si3 0.945047 0.878473 0.662401
Si Si4 0.500000 0.983333 0.250000
Si Si5 0.155821 0.387087 0.620846
Si Si6 0.384642 0.616431 0.335030
Si Si7 0.741399 0.396206 0.052423
Si Si8 0.810858 0.350863 0.382229
O O1 0.546432 0.005148 0.064780
O O2 0.112917 0.006982 0.142317
O O3 0.451937 0.903100 0.184625
O O4 0.267944 0.848713 0.046734
O O5 0.828461 0.848247 0.594008
O O6 0.000000 0.000000 0.500000
O O7 0.094350 0.760740 0.668746
O O8 0.726168 0.927383 0.725181
O O9 0.387227 0.323107 0.640535
O O10 0.219598 0.411699 0.534171
O O11 0.153366 0.519872 0.654809
O O12 0.889155 0.328792 0.653228
O O13 0.500000 0.585740 0.250000
O O14 0.316535 0.509496 0.393564
O O15 0.475490 0.332070 0.079019
O O16 0.009261 0.358263 0.062409
#
# Coordination Sequence:
#
# PCOD9226774 Si02
#       8
#     4   4   4   2   4   4   4   4
#     4   9  17  32  50  72 100 146 180 219 257 320
#     4   8  16  31  52  70  98 133 177 229 267 295
#     4  10  20  32  48  75 111 147 181 227 268 333
#     4  10  20  32  48  70 114 152 184 210 262 342
#     4  10  19  36  53  71 104 149 188 237 272 331
#     4  10  18  30  49  75 102 128 171 231 285 324
#     4  10  20  36  54  72 103 151 190 234 270 334
#     4  10  20  32  52  75 102 143 191 224 275 323
#
# _framework density 25.642859000000001
#
# number of rings (size 3 to 8) (size 9 to 14) (size 15 to 20)
#    0.000    2.400    0.000    4.800    3.733    0.000 
#    4.800    2.667    0.000    0.000    0.000    0.000 
#    2.000   32.267   20.000    0.000    0.000    0.000 
#
# Total GULP energy -167152.831767 kJ/mol
# GULP energy per Si atom -5571.761059 kJ/mol
# Density = 2.558449 g / cm^3
# Si number density = 25.642859 Si / 1000 Ang^3
#
#
#
# Elastic Constant Matrix: (Units=GPa)
#
#
# Indices 1 2 3 4 5 6 
#
# 1 173.1047 -12.8362 54.1055 0.0000 -23.7490 0.0000
# 2 -12.8362 22.7892 18.7376 0.0000 -2.4745 0.0000
# 3 54.1055 18.7376 186.5336 0.0000 19.3602 0.0000
# 4 0.0000 0.0000 0.0000 8.9381 0.0000 6.2104
# 5 -23.7490 -2.4745 19.3602 0.0000 80.0889 0.0000
# 6 0.0000 0.0000 0.0000 6.2104 0.0000 14.8708
#
#
#
# Elastic Compliance Matrix: (Units=1/GPa)
#
#
# Indices 1 2 3 4 5 6 
#
# 1 0.007866 0.007590 -0.003396 0.000000 0.003388 0.000000
# 2 0.007590 0.055735 -0.008424 0.000000 0.006009 0.000000
# 3 -0.003396 -0.008424 0.007512 0.000000 -0.003083 0.000000
# 4 0.000000 0.000000 0.000000 0.157617 0.000000 -0.065825
# 5 0.003388 0.006009 -0.003083 0.000000 0.014422 0.000000
# 6 0.000000 0.000000 0.000000 -0.065825 0.000000 0.094736
#
#
# Mechanical properties :
#
#
# Convention : Reuss Voigt Hill
#
# Bulk Modulus (GPa) = 15.96071 55.82682 35.89376
# Shear Modulus (GPa) = 13.61542 42.27426 27.94484
#
# Velocity S-wave (km/s) = 2.30676 4.06467 3.30475
# Velocity P-wave (km/s) = 3.65139 6.62170 5.34694
#
# Compressibility (1/GPa) = 0.06265387
#
# Stress axis : x y z
#
# Youngs Moduli (GPa) = 127.13249 17.94220 133.11886
#
# Poissons Ratio (x) = -0.13619 0.45202
# Poissons Ratio (y) = -0.96497 1.12138
# Poissons Ratio (z) = 0.43169 0.15114
#
# Static dielectric constant tensor:
#      x y z
#    x 2.079920 0.000000 0.124950 
#    y 0.000000 2.150070 0.000000 
#    z 0.124950 0.000000 2.052890 
# 
# From -- ./inp_files/61589.got.cif
#   From: 2010.05.17/outbox.cif.g08.bks.cpg/sg13_31_cif.got.tgz:61589.got - 2010.06.03 16:44:36.
