data_PCOD9226259
_publ_section_title
;
Structure prediction by ZEFSAII (Michael W. Deem and Ramdas Pophale) SiO2 
 PCOD9226259
Probable space group: P 2/C
;
_chemical_formula_sum "Si O2"
_cell_formula_units_Z 28
_cell_length_a 7.958490
_cell_length_b 9.817671
_cell_length_c 19.990947
_cell_angle_alpha 90.000000
_cell_angle_beta 119.531151
_cell_angle_gamma 90.000000
_cell_volume 1359.050572
_symmetry_space_group_name_H-M "P 2/C"
_symmetry_group_IT_number 13
_symmetry_cell_setting 'monoclinic'
loop_
_space_group_symop_operation_xyz
x,y,z
-x,y,1/2-z
-x,-y,-z
x,-y,1/2+z
loop_
_atom_site_type_symbol
_atom_site_label
_atom_site_fract_x
_atom_site_fract_y
_atom_site_fract_z
Si Si1 0.773998 0.033989 0.564715
Si Si2 0.691543 0.629231 0.258624
Si Si3 0.742332 0.797360 0.463037
Si Si4 0.631824 0.524697 0.382694
Si Si5 0.242722 0.995901 0.653619
Si Si6 0.206033 0.761744 0.549900
Si Si7 0.782534 0.094289 0.713695
O O1 0.736528 0.154531 0.504835
O O2 0.700569 0.071610 0.623887
O O3 0.701467 0.891932 0.519046
O O4 0.008118 0.017611 0.610810
O O5 0.500000 0.703812 0.250000
O O6 0.763541 0.561843 0.341830
O O7 0.586906 0.519722 0.189986
O O8 0.797950 0.747471 0.240256
O O9 0.638605 0.653725 0.433088
O O10 0.972304 0.764285 0.507224
O O11 0.699299 0.889446 0.389080
O O12 0.708563 0.388203 0.429779
O O13 0.277617 0.850434 0.627149
O O14 0.311181 0.015504 0.742808
O O15 0.000000 0.040940 0.750000
#
# Coordination Sequence:
#
# PCOD9226259 Si02
#       7
#     4   4   4   4   4   4   4
#     4   8  17  25  47  76 102 122 165 212 256 290
#     4   8  19  32  51  69  99 135 180 204 243 302
#     4   9  14  28  47  75  98 126 167 206 247 302
#     4   9  17  30  51  65 103 134 170 204 251 291
#     4   8  14  27  48  71  98 123 170 207 245 289
#     4   9  16  27  48  79  97 130 165 215 246 304
#     4  10  16  31  54  75  99 136 172 213 257 297
#
# _framework density 20.602616999999999
#
# number of rings (size 3 to 8) (size 9 to 14) (size 15 to 20)
#    0.857    2.286    1.429    2.143    0.000    0.000 
#    0.000    1.429   18.857    0.857    0.000    0.000 
#    0.000    0.000    0.000    0.000    0.000    0.000 
#
# Total GULP energy -155881.466983 kJ/mol
# GULP energy per Si atom -5567.195249 kJ/mol
# Density = 2.055572 g / cm^3
# Si number density = 20.602617 Si / 1000 Ang^3
#
#
#
# Elastic Constant Matrix: (Units=GPa)
#
#
# Indices 1 2 3 4 5 6 
#
# 1 52.7390 5.5882 18.0081 0.0000 -14.7522 0.0000
# 2 5.5882 123.4343 57.0516 0.0000 -16.9049 0.0000
# 3 18.0081 57.0516 123.5160 0.0000 -30.5582 0.0000
# 4 0.0000 0.0000 0.0000 30.3499 0.0000 3.5290
# 5 -14.7522 -16.9049 -30.5582 0.0000 24.0929 0.0000
# 6 0.0000 0.0000 0.0000 3.5290 0.0000 9.9383
#
#
#
# Elastic Compliance Matrix: (Units=1/GPa)
#
#
# Indices 1 2 3 4 5 6 
#
# 1 0.022992 0.001063 -0.000256 0.000000 0.014499 0.000000
# 2 0.001063 0.010400 -0.004361 0.000000 0.002417 0.000000
# 3 -0.000256 -0.004361 0.013628 0.000000 0.014069 0.000000
# 4 0.000000 0.000000 0.000000 0.034368 0.000000 -0.012204
# 5 0.014499 0.002417 0.014069 0.000000 0.069925 0.000000
# 6 0.000000 0.000000 0.000000 -0.012204 0.000000 0.104954
#
#
# Mechanical properties :
#
#
# Convention : Reuss Voigt Hill
#
# Bulk Modulus (GPa) = 25.05443 51.22056 38.13749
# Shear Modulus (GPa) = 18.07154 27.47899 22.77526
#
# Velocity S-wave (km/s) = 2.96488 3.65603 3.32844
# Velocity P-wave (km/s) = 4.88957 6.53737 5.77257
#
# Compressibility (1/GPa) = 0.03991311
#
# Stress axis : x y z
#
# Youngs Moduli (GPa) = 43.49372 96.15478 73.37663
#
# Poissons Ratio (x) = -0.10223 0.01879
# Poissons Ratio (y) = -0.04624 0.31997
# Poissons Ratio (z) = 0.01114 0.41929
#
# Static dielectric constant tensor:
#      x y z
#    x 1.772740 0.000000 0.028260 
#    y 0.000000 1.696090 0.000000 
#    z 0.028260 0.000000 1.823090 
# 
# From -- ./inp_files/77848.got.cif
#   From: 2010.05.17/outbox.cif.g08.bks.cpg/sg13_39_cif.got.tgz:77848.got - 2010.06.03 16:44:36.
