data_PCOD9226792
_publ_section_title
;
Structure prediction by ZEFSAII (Michael W. Deem and Ramdas Pophale) SiO2 
 PCOD9226792
Probable space group: P 2/C
;
_chemical_formula_sum "Si O2"
_cell_formula_units_Z 32
_cell_length_a 22.446876
_cell_length_b 15.271082
_cell_length_c 16.722197
_cell_angle_alpha 90.000000
_cell_angle_beta 17.584257
_cell_angle_gamma 90.000000
_cell_volume 1731.734225
_symmetry_space_group_name_H-M "P 2/C"
_symmetry_group_IT_number 13
_symmetry_cell_setting 'monoclinic'
loop_
_space_group_symop_operation_xyz
x,y,z
-x,y,1/2-z
-x,-y,-z
x,-y,1/2+z
loop_
_atom_site_type_symbol
_atom_site_label
_atom_site_fract_x
_atom_site_fract_y
_atom_site_fract_z
Si Si1 0.215743 0.839302 0.461419
Si Si2 0.563848 0.692793 0.254115
Si Si3 0.505349 0.154804 0.148263
Si Si4 0.462865 0.602591 0.048128
Si Si5 0.820297 0.801569 0.708625
Si Si6 0.812991 0.265707 0.666939
Si Si7 0.191527 0.262238 0.452953
Si Si8 0.563813 0.955965 0.074369
O O1 0.253125 0.760353 0.477639
O O2 0.223093 0.790884 0.367103
O O3 0.386543 0.909668 0.253030
O O4 0.000000 0.877919 0.750000
O O5 0.500000 0.657848 0.250000
O O6 0.580773 0.624520 0.303254
O O7 0.386427 0.754787 0.509469
O O8 0.500000 0.152470 0.250000
O O9 0.310450 0.190460 0.353458
O O10 0.568633 0.056908 0.042832
O O11 0.668685 0.224566 0.916253
O O12 0.650497 0.660462 0.774422
O O13 0.500000 0.500000 0.000000
O O14 0.270038 0.638015 0.247242
O O15 0.869771 0.783256 0.552612
O O16 0.975279 0.753408 0.567289
O O17 0.765751 0.902223 0.799550
O O18 0.000000 0.290831 0.750000
O O19 0.500000 0.948981 0.250000
#
# Coordination Sequence:
#
# PCOD9226792 Si02
#       8
#     4   4   4   4   4   4   4   4
#     4  10  18  30  51  76 103 135 173 217 270 329
#     4   9  17  32  53  77 106 136 169 218 279 331
#     4  10  21  36  53  76 106 145 192 230 270 328
#     4   9  20  39  58  80 110 139 179 232 280 339
#     4  10  19  34  55  78 108 143 182 227 276 333
#     4  10  20  34  55  76 101 142 178 219 280 340
#     4  10  21  38  58  78 108 149 185 227 285 344
#     4  10  20  33  51  77 110 144 184 237 277 315
#
# _framework density 18.478587000000001
#
# number of rings (size 3 to 8) (size 9 to 14) (size 15 to 20)
#    0.000    2.250    0.000    6.000    0.000    3.000 
#    0.000   10.000    0.000    0.000    0.000    0.000 
#    0.000    0.000    0.000    0.000    0.000    0.000 
#
# Total GULP energy -178220.506792 kJ/mol
# GULP energy per Si atom -5569.390837 kJ/mol
# Density = 1.843653 g / cm^3
# Si number density = 18.478587 Si / 1000 Ang^3
#
#
#
# Elastic Constant Matrix: (Units=GPa)
#
#
# Indices 1 2 3 4 5 6 
#
# 1 106.7142 43.2990 22.3645 0.0000 -4.1031 0.0000
# 2 43.2990 113.8436 8.5113 0.0000 -4.0175 0.0000
# 3 22.3645 8.5113 52.9680 0.0000 0.9325 0.0000
# 4 0.0000 0.0000 0.0000 30.2318 0.0000 -16.3904
# 5 -4.1031 -4.0175 0.9325 0.0000 30.2518 0.0000
# 6 0.0000 0.0000 0.0000 -16.3904 0.0000 37.7434
#
#
#
# Elastic Compliance Matrix: (Units=1/GPa)
#
#
# Indices 1 2 3 4 5 6 
#
# 1 0.012055 -0.004211 -0.004435 0.000000 0.001213 0.000000
# 2 -0.004211 0.010407 0.000091 0.000000 0.000808 0.000000
# 3 -0.004435 0.000091 0.020759 0.000000 -0.001229 0.000000
# 4 0.000000 0.000000 0.000000 0.043264 0.000000 0.018788
# 5 0.001213 0.000808 -0.001229 0.000000 0.033366 0.000000
# 6 0.000000 0.000000 0.000000 0.018788 0.000000 0.034653
#
#
# Mechanical properties :
#
#
# Convention : Reuss Voigt Hill
#
# Bulk Modulus (GPa) = 38.29527 46.87505 42.58516
# Shear Modulus (GPa) = 27.72896 32.93545 30.33221
#
# Velocity S-wave (km/s) = 3.87796 4.22638 4.05591
# Velocity P-wave (km/s) = 6.38910 7.01703 6.71041
#
# Compressibility (1/GPa) = 0.02611289
#
# Stress axis : x y z
#
# Youngs Moduli (GPa) = 82.95052 96.08755 48.17235
#
# Poissons Ratio (x) = 0.40460 0.21364
# Poissons Ratio (y) = 0.34928 -0.00440
# Poissons Ratio (z) = 0.36787 -0.00878
#
# Static dielectric constant tensor:
#      x y z
#    x 1.689560 0.000000 -0.001980 
#    y 0.000000 1.644380 0.000000 
#    z -0.001980 0.000000 1.703150 
# 
# From -- ./inp_files/57858.got.cif
#   From: 2010.05.17/outbox.cif.g08.bks.cpg/sg13_29_cif.got.tgz:57858.got - 2010.06.03 16:44:36.
