data_PCOD9226701
_publ_section_title
;
Structure prediction by ZEFSAII (Michael W. Deem and Ramdas Pophale) SiO2 
 PCOD9226701
Probable space group: P 2/C
;
_chemical_formula_sum "Si O2"
_cell_formula_units_Z 26
_cell_length_a 30.610513
_cell_length_b 6.919817
_cell_length_c 10.086521
_cell_angle_alpha 90.000000
_cell_angle_beta 145.462645
_cell_angle_gamma 90.000000
_cell_volume 1211.284985
_symmetry_space_group_name_H-M "P 2/C"
_symmetry_group_IT_number 13
_symmetry_cell_setting 'monoclinic'
loop_
_space_group_symop_operation_xyz
x,y,z
-x,y,1/2-z
-x,-y,-z
x,-y,1/2+z
loop_
_atom_site_type_symbol
_atom_site_label
_atom_site_fract_x
_atom_site_fract_y
_atom_site_fract_z
Si Si1 0.000000 0.000050 0.250000
Si Si2 0.781911 0.297007 0.454625
Si Si3 0.103925 0.024063 0.259810
Si Si4 0.335436 0.732351 0.609569
Si Si5 0.499982 0.316982 0.901975
Si Si6 0.261910 0.753867 0.154884
Si Si7 0.335421 0.732204 0.067812
O O1 0.941258 0.081808 0.217394
O O2 0.058740 0.918287 0.511088
O O3 0.867778 0.203339 0.669387
O O4 0.733865 0.229817 0.462667
O O5 0.768393 0.529761 0.420854
O O6 0.733968 0.229901 0.206483
O O7 0.184435 0.128253 0.461062
O O8 0.312567 0.803321 0.408732
O O9 0.338806 0.500077 0.597102
O O10 0.419498 0.790890 0.871318
O O11 0.500000 0.385222 0.750000
O O12 0.419437 0.209233 0.726037
O O13 0.500000 0.500000 0.000000
O O14 0.312680 0.803135 0.154695
#
# Coordination Sequence:
#
# PCOD9226701 Si02
#       7
#     2   4   4   4   4   4   4
#     4  10  24  42  62  90 112 146 180 226 282 366
#     4  10  19  36  59  84 111 151 187 235 281 332
#     4  11  22  42  64  83 118 144 182 229 290 346
#     4   9  18  30  51  80 115 151 198 237 280 325
#     4  10  18  28  48  79 119 162 199 244 287 323
#     4  10  21  36  57  88 113 147 195 237 273 342
#     4   9  18  30  51  80 115 151 198 237 280 325
#
# _framework density 21.46481
#
# number of rings (size 3 to 8) (size 9 to 14) (size 15 to 20)
#    0.000    2.154    1.538    1.846    6.462    0.000 
#    0.000    4.615    0.000    5.538    0.000    0.000 
#    0.000    0.000    0.000    0.000    0.000    0.000 
#
# Total GULP energy -144802.291894 kJ/mol
# GULP energy per Si atom -5569.318919 kJ/mol
# Density = 2.141595 g / cm^3
# Si number density = 21.464810 Si / 1000 Ang^3
#
#
#
# Elastic Constant Matrix: (Units=GPa)
#
#
# Indices 1 2 3 4 5 6 
#
# 1 163.9592 -4.5504 63.9897 0.0000 -24.4205 0.0000
# 2 -4.5504 68.1776 -4.1961 0.0000 0.5903 0.0000
# 3 63.9897 -4.1961 138.3921 0.0000 -18.7648 0.0000
# 4 0.0000 0.0000 0.0000 -13.0538 0.0000 10.2490
# 5 -24.4205 0.5903 -18.7648 0.0000 52.3309 0.0000
# 6 0.0000 0.0000 0.0000 10.2490 0.0000 -18.9294
#
#
#
# Elastic Compliance Matrix: (Units=1/GPa)
#
#
# Indices 1 2 3 4 5 6 
#
# 1 0.007734 0.000296 -0.003236 0.000000 0.002446 0.000000
# 2 0.000296 0.014706 0.000321 0.000000 0.000087 0.000000
# 3 -0.003236 0.000321 0.008962 0.000000 0.001700 0.000000
# 4 0.000000 0.000000 0.000000 -0.133251 0.000000 -0.072147
# 5 0.002446 0.000087 0.001700 0.000000 0.020859 0.000000
# 6 0.000000 0.000000 0.000000 -0.072147 0.000000 -0.091891
#
#
# Mechanical properties :
#
#
# Convention : Reuss Voigt Hill
#
# Bulk Modulus (GPa) = 38.21863 53.44613 45.83238
# Shear Modulus (GPa) = -31.46230 25.08860 -3.18685
#
# Velocity S-wave (km/s) = -3.83268 3.42252 -1.21980
# Velocity P-wave (km/s) = 1.31985 6.36959 4.40622
#
# Compressibility (1/GPa) = 0.02616525
#
# Stress axis : x y z
#
# Youngs Moduli (GPa) = 129.29329 67.99799 111.57994
#
# Poissons Ratio (x) = -0.02012 0.36103
# Poissons Ratio (y) = -0.03826 -0.03581
# Poissons Ratio (z) = 0.41834 -0.02182
#
# Static dielectric constant tensor:
#      x y z
#    x 1.755500 0.000000 0.014980 
#    y 0.000000 1.900000 0.000000 
#    z 0.014980 0.000000 1.764410 
# 
# From -- ./inp_files/24470.got.cif
#   From: 2010.05.17/outbox.cif.g08.bks.cpg/sg13_13_cif.got.tgz:24470.got - 2010.06.03 16:44:36.
