data_PCOD9226503
_publ_section_title
;
Structure prediction by ZEFSAII (Michael W. Deem and Ramdas Pophale) SiO2 
 PCOD9226503
Probable space group: P 2/C
;
_chemical_formula_sum "Si O2"
_cell_formula_units_Z 32
_cell_length_a 23.954673
_cell_length_b 14.583256
_cell_length_c 24.571509
_cell_angle_alpha 90.000000
_cell_angle_beta 11.811526
_cell_angle_gamma 90.000000
_cell_volume 1757.031258
_symmetry_space_group_name_H-M "P 2/C"
_symmetry_group_IT_number 13
_symmetry_cell_setting 'monoclinic'
loop_
_space_group_symop_operation_xyz
x,y,z
-x,y,1/2-z
-x,-y,-z
x,-y,1/2+z
loop_
_atom_site_type_symbol
_atom_site_label
_atom_site_fract_x
_atom_site_fract_y
_atom_site_fract_z
Si Si1 0.751860 0.326130 0.866496
Si Si2 0.980834 0.862816 0.993545
Si Si3 0.610935 0.414699 0.777171
Si Si4 0.145698 0.324835 0.286112
Si Si5 0.643585 0.970487 0.788138
Si Si6 0.896223 0.135324 0.695747
Si Si7 0.289828 0.530404 0.997805
Si Si8 0.198033 0.394420 0.357078
O O1 0.856257 0.222550 0.771611
O O2 0.762043 0.385485 0.911331
O O3 0.938209 0.376774 0.643346
O O4 0.439447 0.325081 0.144263
O O5 0.230086 0.928375 0.775929
O O6 0.088108 0.780490 0.855041
O O7 0.748754 0.925704 0.188131
O O8 0.871447 0.827390 0.156684
O O9 0.895487 0.367342 0.491035
O O10 0.682045 0.505400 0.744608
O O11 0.438221 0.451866 0.891400
O O12 0.428394 0.346268 0.987067
O O13 0.140382 0.377469 0.349196
O O14 0.813338 0.913866 0.580940
O O15 0.333895 0.941721 0.078033
O O16 0.000000 0.501870 0.250000
O O17 0.500000 0.557842 0.750000
#
# Coordination Sequence:
#
# PCOD9226503 Si02
#       8
#     4   4   4   4   4   4   4   4
#     4  11  20  33  57  79  98 137 184 212 258 320
#     4   9  20  29  48  69 108 150 175 197 239 290
#     4  11  24  35  51  77  99 138 184 211 266 323
#     4  12  21  32  51  76 114 144 170 214 243 300
#     4   9  19  29  47  68 104 151 178 191 239 294
#     4  10  17  31  46  72 103 133 180 205 238 299
#     4  11  23  42  59  71  99 132 173 234 279 308
#     4  11  20  35  48  73 113 143 171 201 256 309
#
# _framework density 18.212540000000001
#
# number of rings (size 3 to 8) (size 9 to 14) (size 15 to 20)
#    0.750    0.750    1.250    7.125    1.750    0.000 
#    0.000    0.000    0.000    0.000    0.000    0.000 
#    0.000   20.000    0.000    0.000    0.000    0.000 
#
# Total GULP energy -178630.768854 kJ/mol
# GULP energy per Si atom -5582.211527 kJ/mol
# Density = 1.817109 g / cm^3
# Si number density = 18.212540 Si / 1000 Ang^3
#
#
#
# Elastic Constant Matrix: (Units=GPa)
#
#
# Indices 1 2 3 4 5 6 
#
# 1 48.8878 4.5838 5.4573 0.0000 -5.7339 0.0000
# 2 4.5838 59.4830 -3.6421 0.0000 -1.1087 0.0000
# 3 5.4573 -3.6421 68.3712 0.0000 5.0962 0.0000
# 4 0.0000 0.0000 0.0000 28.1155 0.0000 2.9931
# 5 -5.7339 -1.1087 5.0962 0.0000 26.3873 0.0000
# 6 0.0000 0.0000 0.0000 2.9931 0.0000 4.9270
#
#
#
# Elastic Compliance Matrix: (Units=1/GPa)
#
#
# Indices 1 2 3 4 5 6 
#
# 1 0.021444 -0.001692 -0.002175 0.000000 0.005009 0.000000
# 2 -0.001692 0.017008 0.001030 0.000000 0.000148 0.000000
# 3 -0.002175 0.001030 0.015104 0.000000 -0.003346 0.000000
# 4 0.000000 0.000000 0.000000 0.038027 0.000000 -0.023101
# 5 0.005009 0.000148 -0.003346 0.000000 0.039638 0.000000
# 6 0.000000 0.000000 0.000000 -0.023101 0.000000 0.216997
#
#
# Mechanical properties :
#
#
# Convention : Reuss Voigt Hill
#
# Bulk Modulus (GPa) = 20.88514 21.05999 20.97257
# Shear Modulus (GPa) = 13.51890 23.24216 18.38053
#
# Velocity S-wave (km/s) = 2.72745 3.57622 3.18027
# Velocity P-wave (km/s) = 4.62720 5.35173 5.00260
#
# Compressibility (1/GPa) = 0.04788093
#
# Stress axis : x y z
#
# Youngs Moduli (GPa) = 46.63324 58.79673 66.20783
#
# Poissons Ratio (x) = 0.09950 0.14401
# Poissons Ratio (y) = 0.07892 -0.06820
# Poissons Ratio (z) = 0.10143 -0.06056
#
# Static dielectric constant tensor:
#      x y z
#    x 1.612500 0.000000 -0.003630 
#    y 0.000000 1.659160 0.000000 
#    z -0.003630 0.000000 1.660520 
# 
# From -- ./inp_files/89242.got.cif
#   From: 2010.05.17/outbox.cif.g08.bks.cpg/sg13_45_cif.got.tgz:89242.got - 2010.06.03 16:44:36.
