data_PCOD9226923
_publ_section_title
;
Structure prediction by ZEFSAII (Michael W. Deem and Ramdas Pophale) SiO2 
 PCOD9226923
Probable space group: P 2/C
;
_chemical_formula_sum "Si O2"
_cell_formula_units_Z 24
_cell_length_a 13.579368
_cell_length_b 7.028471
_cell_length_c 15.876201
_cell_angle_alpha 90.000000
_cell_angle_beta 40.188761
_cell_angle_gamma 90.000000
_cell_volume 977.808825
_symmetry_space_group_name_H-M "P 2/C"
_symmetry_group_IT_number 13
_symmetry_cell_setting 'monoclinic'
loop_
_space_group_symop_operation_xyz
x,y,z
-x,y,1/2-z
-x,-y,-z
x,-y,1/2+z
loop_
_atom_site_type_symbol
_atom_site_label
_atom_site_fract_x
_atom_site_fract_y
_atom_site_fract_z
Si Si1 0.816063 0.982374 0.057639
Si Si2 0.390419 0.587893 0.903230
Si Si3 0.380101 0.869868 0.663324
Si Si4 0.103849 0.564164 0.509179
Si Si5 0.422592 0.158154 0.894105
Si Si6 0.927245 0.124438 0.211605
O O1 0.734266 0.112428 0.179708
O O2 0.717321 0.982696 0.035586
O O3 0.194438 0.247300 0.915676
O O4 0.992525 0.004850 0.914210
O O5 0.500000 0.598710 0.750000
O O6 0.486824 0.717112 0.905811
O O7 0.216834 0.589304 0.978035
O O8 0.387822 0.372699 0.938811
O O9 0.253784 0.860276 0.673866
O O10 0.465208 0.070077 0.611538
O O11 0.000000 0.500000 0.500000
O O12 0.994980 0.665512 0.648517
O O13 0.500000 0.154810 0.750000
O O14 0.000000 0.056951 0.250000
#
# Coordination Sequence:
#
# PCOD9226923 Si02
#       6
#     4   4   4   4   4   4
#     4   8  18  34  57  87 118 150 198 250 290 356
#     4  10  18  31  56  90 118 143 193 257 296 340
#     4  11  19  34  62  88 109 159 203 239 296 367
#     4   9  19  35  59  90 121 157 198 249 298 357
#     4   8  16  31  53  86 119 140 188 254 292 337
#     4  10  22  38  57  84 125 164 194 250 314 351
#
# _framework density 24.544674000000001
#
# number of rings (size 3 to 8) (size 9 to 14) (size 15 to 20)
#    1.000    1.667    0.000    4.000    0.000    0.000 
#    0.000    1.667    0.000    4.000    0.000    0.000 
#    0.000    0.167    0.000    0.000    0.000    0.000 
#
# Total GULP energy -133644.993532 kJ/mol
# GULP energy per Si atom -5568.541397 kJ/mol
# Density = 2.448881 g / cm^3
# Si number density = 24.544674 Si / 1000 Ang^3
#
#
#
# Elastic Constant Matrix: (Units=GPa)
#
#
# Indices 1 2 3 4 5 6 
#
# 1 167.1043 44.1801 36.0375 0.0000 -39.6322 0.0000
# 2 44.1801 47.2244 4.0728 0.0000 -11.8921 0.0000
# 3 36.0375 4.0728 75.1130 0.0000 -20.8399 0.0000
# 4 0.0000 0.0000 0.0000 33.4300 0.0000 -12.9482
# 5 -39.6322 -11.8921 -20.8399 0.0000 53.6174 0.0000
# 6 0.0000 0.0000 0.0000 -12.9482 0.0000 42.9082
#
#
#
# Elastic Compliance Matrix: (Units=1/GPa)
#
#
# Indices 1 2 3 4 5 6 
#
# 1 0.009700 -0.007737 -0.003050 0.000000 0.004268 0.000000
# 2 -0.007737 0.028601 0.002617 0.000000 0.001642 0.000000
# 3 -0.003050 0.002617 0.015883 0.000000 0.004499 0.000000
# 4 0.000000 0.000000 0.000000 0.033872 0.000000 0.010222
# 5 0.004268 0.001642 0.004499 0.000000 0.023919 0.000000
# 6 0.000000 0.000000 0.000000 0.010222 0.000000 0.026390
#
#
# Mechanical properties :
#
#
# Convention : Reuss Voigt Hill
#
# Bulk Modulus (GPa) = 26.42432 50.89139 38.65786
# Shear Modulus (GPa) = 29.88289 39.66787 34.77538
#
# Velocity S-wave (km/s) = 3.49304 4.02450 3.76815
# Velocity P-wave (km/s) = 5.20169 6.50958 5.89204
#
# Compressibility (1/GPa) = 0.03784393
#
# Stress axis : x y z
#
# Youngs Moduli (GPa) = 103.09450 34.96361 62.96032
#
# Poissons Ratio (x) = 0.27050 0.19203
# Poissons Ratio (y) = 0.79760 -0.16474
# Poissons Ratio (z) = 0.31444 -0.09149
#
# Static dielectric constant tensor:
#      x y z
#    x 2.089710 0.000000 -0.035440 
#    y 0.000000 1.988640 0.000000 
#    z -0.035440 0.000000 2.073280 
# 
# From -- ./inp_files/65909.got.cif
#   From: 2010.05.17/outbox.cif.g08.bks.cpg/sg13_33_cif.got.tgz:65909.got - 2010.06.03 16:44:36.
