data_PCOD9226790
_publ_section_title
;
Structure prediction by ZEFSAII (Michael W. Deem and Ramdas Pophale) SiO2 
 PCOD9226790
Probable space group: P 2/C
;
_chemical_formula_sum "Si O2"
_cell_formula_units_Z 32
_cell_length_a 23.681543
_cell_length_b 6.663662
_cell_length_c 7.809870
_cell_angle_alpha 90.000000
_cell_angle_beta 112.125968
_cell_angle_gamma 90.000000
_cell_volume 1141.683244
_symmetry_space_group_name_H-M "P 2/C"
_symmetry_group_IT_number 13
_symmetry_cell_setting 'monoclinic'
loop_
_space_group_symop_operation_xyz
x,y,z
-x,y,1/2-z
-x,-y,-z
x,-y,1/2+z
loop_
_atom_site_type_symbol
_atom_site_label
_atom_site_fract_x
_atom_site_fract_y
_atom_site_fract_z
Si Si1 0.368647 0.593176 0.747687
Si Si2 0.135382 0.175400 0.486612
Si Si3 0.744207 0.083908 0.697299
Si Si4 0.110100 0.279806 0.063758
Si Si5 0.512819 0.264453 0.963023
Si Si6 0.763929 0.315068 0.363811
Si Si7 0.013104 0.233674 0.467700
Si Si8 0.388002 0.804648 0.409555
O O1 0.299191 0.570584 0.732818
O O2 0.374510 0.685195 0.567857
O O3 0.388607 0.362737 0.763147
O O4 0.415462 0.735160 0.906253
O O5 0.205161 0.185506 0.625258
O O6 0.121313 0.246998 0.279367
O O7 0.085786 0.265245 0.564866
O O8 0.119215 0.934970 0.478796
O O9 0.752391 0.195062 0.527181
O O10 0.674495 0.074831 0.684288
O O11 0.763145 0.852211 0.714593
O O12 0.168168 0.404607 0.059997
O O13 0.038893 0.341507 0.976731
O O14 0.500000 0.232999 0.750000
O O15 0.459399 0.138667 0.001597
O O16 0.500000 0.500000 0.000000
O O17 0.000000 0.255468 0.250000
O O18 0.000000 0.000000 0.500000
#
# Coordination Sequence:
#
# PCOD9226790 Si02
#       8
#     4   4   4   4   4   4   4   4
#     4  10  20  34  52  73  96 122 155 193 231 274
#     4   9  15  24  39  59  87 120 153 189 229 272
#     4  10  20  32  47  69  97 127 157 190 231 278
#     4   9  15  24  39  59  87 120 153 189 229 272
#     4  10  18  30  51  74  95 120 152 190 232 274
#     4  10  20  32  47  69  97 127 157 190 231 278
#     4   8  14  22  34  56  83 114 151 188 226 268
#     4  10  20  34  52  73  96 122 155 193 231 274
#
# _framework density 28.028787999999999
#
# number of rings (size 3 to 8) (size 9 to 14) (size 15 to 20)
#    0.000    2.500    0.000    6.375    0.000    5.000 
#    0.000    0.625    0.000    0.000    0.000    0.875 
#    0.000    0.000    0.000    0.000    0.000    0.000 
#
# Total GULP energy -178835.525203 kJ/mol
# GULP energy per Si atom -5588.610163 kJ/mol
# Density = 2.796499 g / cm^3
# Si number density = 28.028788 Si / 1000 Ang^3
#
#
#
# Elastic Constant Matrix: (Units=GPa)
#
#
# Indices 1 2 3 4 5 6 
#
# 1 280.3713 26.7290 44.1678 0.0000 58.0322 0.0000
# 2 26.7290 41.0213 7.4408 0.0000 7.2006 0.0000
# 3 44.1678 7.4408 122.3512 0.0000 0.6089 0.0000
# 4 0.0000 0.0000 0.0000 25.2641 0.0000 11.0370
# 5 58.0322 7.2006 0.6089 0.0000 50.0335 0.0000
# 6 0.0000 0.0000 0.0000 11.0370 0.0000 53.9909
#
#
#
# Elastic Compliance Matrix: (Units=1/GPa)
#
#
# Indices 1 2 3 4 5 6 
#
# 1 0.005226 -0.002084 -0.001731 0.000000 -0.005741 0.000000
# 2 -0.002084 0.026120 -0.000830 0.000000 -0.001332 0.000000
# 3 -0.001731 -0.000830 0.008839 0.000000 0.002020 0.000000
# 4 0.000000 0.000000 0.000000 0.043463 0.000000 -0.008885
# 5 -0.005741 -0.001332 0.002020 0.000000 0.026812 0.000000
# 6 0.000000 0.000000 0.000000 -0.008885 0.000000 0.020338
#
#
# Mechanical properties :
#
#
# Convention : Reuss Voigt Hill
#
# Bulk Modulus (GPa) = 32.36752 66.71323 49.54037
# Shear Modulus (GPa) = 33.24776 50.21813 41.73294
#
# Velocity S-wave (km/s) = 3.44786 4.23740 3.86285
# Velocity P-wave (km/s) = 5.23673 6.91332 6.13259
#
# Compressibility (1/GPa) = 0.03089517
#
# Stress axis : x y z
#
# Youngs Moduli (GPa) = 191.33726 38.28544 113.13998
#
# Poissons Ratio (x) = 0.07977 0.19589
# Poissons Ratio (y) = 0.39868 0.09387
# Poissons Ratio (z) = 0.33128 0.03176
#
# Static dielectric constant tensor:
#      x y z
#    x 2.288640 0.000000 0.113860 
#    y 0.000000 2.374330 0.000000 
#    z 0.113860 0.000000 2.159440 
# 
# From -- ./inp_files/23246.got.cif
#   From: 2010.05.17/outbox.cif.g08.bks.cpg/sg13_12_cif.got.tgz:23246.got - 2010.06.03 16:44:36.
