data_PCOD9226998
_publ_section_title
;
Structure prediction by ZEFSAII (Michael W. Deem and Ramdas Pophale) SiO2 
 PCOD9226998
Probable space group: P 2/C
;
_chemical_formula_sum "Si O2"
_cell_formula_units_Z 28
_cell_length_a 20.242907
_cell_length_b 14.462462
_cell_length_c 8.480364
_cell_angle_alpha 90.000000
_cell_angle_beta 146.914716
_cell_angle_gamma 90.000000
_cell_volume 1355.289839
_symmetry_space_group_name_H-M "P 2/C"
_symmetry_group_IT_number 13
_symmetry_cell_setting 'monoclinic'
loop_
_space_group_symop_operation_xyz
x,y,z
-x,y,1/2-z
-x,-y,-z
x,-y,1/2+z
loop_
_atom_site_type_symbol
_atom_site_label
_atom_site_fract_x
_atom_site_fract_y
_atom_site_fract_z
Si Si1 0.867864 0.281610 0.676012
Si Si2 0.132135 0.281610 0.204555
Si Si3 0.243221 0.895703 0.423709
Si Si4 0.634031 0.394824 0.208988
Si Si5 0.243221 0.895703 0.049176
Si Si6 0.634032 0.394825 0.827141
Si Si7 0.500000 0.894445 0.438147
O O1 0.863282 0.280634 0.476563
O O2 0.853281 0.177097 0.706903
O O3 0.751874 0.339486 0.501727
O O4 0.999999 0.318668 0.988043
O O5 0.146719 0.177098 0.293781
O O6 0.248125 0.339488 0.494230
O O7 0.373007 0.857850 0.745204
O O8 0.226022 0.000000 0.452044
O O9 0.245412 0.899306 0.240825
O O10 0.641615 0.499999 0.283231
O O11 0.636359 0.393853 0.022719
O O12 0.499999 0.358536 0.988583
O O13 0.373007 0.857850 0.246823
O O14 0.500000 0.108857 0.750000
O O15 0.500000 0.000000 0.500000
#
# Coordination Sequence:
#
# PCOD9226998 Si02
#       7
#     4   4   4   4   4   4   4
#     4  10  22  39  58  84 118 158 201 245 296 353
#     4  10  22  39  58  84 118 158 201 245 296 353
#     4  11  22  37  57  84 117 156 201 247 297 351
#     4   9  19  37  61  88 116 150 190 239 297 354
#     4  11  22  37  57  84 117 156 201 247 297 351
#     4   9  19  37  61  88 116 150 190 239 297 354
#     4  10  18  32  54  80 111 146 189 240 292 342
#
# _framework density 20.659786
#
# number of rings (size 3 to 8) (size 9 to 14) (size 15 to 20)
#    0.000    2.000    0.000    5.571    2.000    2.857 
#    0.000    0.000    0.000    0.000    0.000    0.000 
#    0.000    0.000    0.000    0.000    0.000    0.000 
#
# Total GULP energy -156330.806603 kJ/mol
# GULP energy per Si atom -5583.243093 kJ/mol
# Density = 2.061276 g / cm^3
# Si number density = 20.659786 Si / 1000 Ang^3
#
#
#
# Elastic Constant Matrix: (Units=GPa)
#
#
# Indices 1 2 3 4 5 6 
#
# 1 49.6697 21.3909 55.7358 0.0000 25.1339 0.0000
# 2 21.3909 78.4694 56.2790 0.0000 31.4189 0.0000
# 3 55.7358 56.2790 128.1951 0.0000 45.5804 0.0000
# 4 0.0000 0.0000 0.0000 25.8803 0.0000 0.4710
# 5 25.1339 31.4189 45.5804 0.0000 29.3364 0.0000
# 6 0.0000 0.0000 0.0000 0.4710 0.0000 25.3570
#
#
#
# Elastic Compliance Matrix: (Units=1/GPa)
#
#
# Indices 1 2 3 4 5 6 
#
# 1 0.045593 0.008003 -0.014299 0.000000 -0.025416 0.000000
# 2 0.008003 0.024210 -0.005476 0.000000 -0.024277 0.000000
# 3 -0.014299 -0.005476 0.022299 0.000000 -0.016531 0.000000
# 4 0.000000 0.000000 0.000000 0.038653 0.000000 -0.000718
# 5 -0.025416 -0.024277 -0.016531 0.000000 0.107547 0.000000
# 6 0.000000 0.000000 0.000000 -0.000718 0.000000 0.039450
#
#
# Mechanical properties :
#
#
# Convention : Reuss Voigt Hill
#
# Bulk Modulus (GPa) = 14.58621 58.12730 36.35675
# Shear Modulus (GPa) = 15.42497 24.30997 19.86747
#
# Velocity S-wave (km/s) = 2.73540 3.43400 3.10441
# Velocity P-wave (km/s) = 4.12941 6.62719 5.52140
#
# Compressibility (1/GPa) = 0.06855792
#
# Stress axis : x y z
#
# Youngs Moduli (GPa) = 21.93317 41.30490 44.84434
#
# Poissons Ratio (x) = -0.33058 0.64125
# Poissons Ratio (y) = -0.17554 0.24559
# Poissons Ratio (z) = 0.31363 0.22620
#
# Static dielectric constant tensor:
#      x y z
#    x 1.718040 0.000000 0.062150 
#    y 0.000000 1.713230 0.000000 
#    z 0.062150 0.000000 1.787050 
# 
# From -- ./inp_files/23626.got.cif
#   From: 2010.05.17/outbox.cif.g08.bks.cpg/sg13_12_cif.got.tgz:23626.got - 2010.06.03 16:44:36.
