data_PCOD9226920
_publ_section_title
;
Structure prediction by ZEFSAII (Michael W. Deem and Ramdas Pophale) SiO2 
 PCOD9226920
Probable space group: P 2/C
;
_chemical_formula_sum "Si O2"
_cell_formula_units_Z 32
_cell_length_a 22.096535
_cell_length_b 7.990206
_cell_length_c 16.067657
_cell_angle_alpha 90.000000
_cell_angle_beta 152.083546
_cell_angle_gamma 90.000000
_cell_volume 1328.161521
_symmetry_space_group_name_H-M "P 2/C"
_symmetry_group_IT_number 13
_symmetry_cell_setting 'monoclinic'
loop_
_space_group_symop_operation_xyz
x,y,z
-x,y,1/2-z
-x,-y,-z
x,-y,1/2+z
loop_
_atom_site_type_symbol
_atom_site_label
_atom_site_fract_x
_atom_site_fract_y
_atom_site_fract_z
Si Si1 0.347867 0.046110 0.565997
Si Si2 0.806278 0.343535 0.185951
Si Si3 0.683874 0.269563 0.359033
Si Si4 0.262433 0.170058 0.804432
Si Si5 0.490714 0.201996 0.492566
Si Si6 0.472335 0.557522 0.125855
Si Si7 0.905526 0.897964 0.947516
Si Si8 0.904640 0.339157 0.754615
O O1 0.500000 0.064879 0.750000
O O2 0.250912 0.204089 0.447200
O O3 0.324722 0.913962 0.611214
O O4 0.319281 0.954949 0.443345
O O5 0.847859 0.244620 0.318012
O O6 0.919790 0.463067 0.290178
O O7 0.682288 0.457357 0.058763
O O8 0.566883 0.397089 0.240182
O O9 0.811892 0.335407 0.560876
O O10 0.646558 0.250433 0.216935
O O11 0.382952 0.259056 0.906823
O O12 0.163686 0.273734 0.742243
O O13 0.192959 0.048865 0.652605
O O14 0.501158 0.304318 0.590582
O O15 0.500000 0.000000 0.500000
O O16 0.500000 0.625937 0.250000
O O17 0.979099 0.795090 0.108844
O O18 0.000000 0.000000 0.000000
#
# Coordination Sequence:
#
# PCOD9226920 Si02
#       8
#     4   4   4   4   4   4   4   4
#     4  10  18  31  56  85 126 177 214 261 331 404
#     4  11  21  33  61  93 131 171 226 279 326 405
#     4  11  23  39  61  91 138 174 221 272 349 417
#     4   9  19  37  60  89 132 174 219 270 334 405
#     4  12  25  39  62  98 136 177 221 279 345 411
#     4  12  25  42  61  99 140 180 223 279 352 422
#     4   9  19  37  58  95 127 172 231 274 332 400
#     4  10  20  36  64  95 128 176 221 281 338 402
#
# _framework density 24.093456
#
# number of rings (size 3 to 8) (size 9 to 14) (size 15 to 20)
#    0.000    1.500    2.500    4.500    1.750    0.000 
#    0.000    0.000    0.000    3.000    0.000    0.000 
#    0.000    0.000    0.000    0.000    0.000    0.375 
#
# Total GULP energy -178341.691752 kJ/mol
# GULP energy per Si atom -5573.177867 kJ/mol
# Density = 2.403862 g / cm^3
# Si number density = 24.093456 Si / 1000 Ang^3
#
#
#
# Elastic Constant Matrix: (Units=GPa)
#
#
# Indices 1 2 3 4 5 6 
#
# 1 62.0704 9.7206 13.4312 0.0000 -23.7293 0.0000
# 2 9.7206 96.2219 35.8772 0.0000 -14.0793 0.0000
# 3 13.4312 35.8772 133.9961 0.0000 -16.4454 0.0000
# 4 0.0000 0.0000 0.0000 79.1048 0.0000 -0.4636
# 5 -23.7293 -14.0793 -16.4454 0.0000 24.1744 0.0000
# 6 0.0000 0.0000 0.0000 -0.4636 0.0000 29.5359
#
#
#
# Elastic Compliance Matrix: (Units=1/GPa)
#
#
# Indices 1 2 3 4 5 6 
#
# 1 0.025928 0.001107 0.000335 0.000000 0.026324 0.000000
# 2 0.001107 0.012185 -0.002585 0.000000 0.006425 0.000000
# 3 0.000335 -0.002585 0.008704 0.000000 0.004745 0.000000
# 4 0.000000 0.000000 0.000000 0.012643 0.000000 0.000198
# 5 0.026324 0.006425 0.004745 0.000000 0.074175 0.000000
# 6 0.000000 0.000000 0.000000 0.000198 0.000000 0.033860
#
#
# Mechanical properties :
#
#
# Convention : Reuss Voigt Hill
#
# Bulk Modulus (GPa) = 22.45563 45.59403 34.02483
# Shear Modulus (GPa) = 27.08224 42.11364 34.59794
#
# Velocity S-wave (km/s) = 3.35632 4.18536 3.79356
# Velocity P-wave (km/s) = 4.93562 6.50548 5.77415
#
# Compressibility (1/GPa) = 0.04453226
#
# Stress axis : x y z
#
# Youngs Moduli (GPa) = 38.56793 82.07023 114.89359
#
# Poissons Ratio (x) = -0.09088 -0.03852
# Poissons Ratio (y) = -0.04271 0.29699
# Poissons Ratio (z) = -0.01293 0.21214
#
# Static dielectric constant tensor:
#      x y z
#    x 2.018160 0.000000 0.072330 
#    y 0.000000 2.039940 0.000000 
#    z 0.072330 0.000000 2.042620 
# 
# From -- ./inp_files/58814.got.cif
#   From: 2010.05.17/outbox.cif.g08.bks.cpg/sg13_30_cif.got.tgz:58814.got - 2010.06.03 16:44:36.
