data_PCOD9226874
_publ_section_title
;
Structure prediction by ZEFSAII (Michael W. Deem and Ramdas Pophale) SiO2 
 PCOD9226874
Probable space group: P 2/C
;
_chemical_formula_sum "Si O2"
_cell_formula_units_Z 24
_cell_length_a 10.317119
_cell_length_b 9.457284
_cell_length_c 15.546131
_cell_angle_alpha 90.000000
_cell_angle_beta 51.705169
_cell_angle_gamma 90.000000
_cell_volume 1190.485340
_symmetry_space_group_name_H-M "P 2/C"
_symmetry_group_IT_number 13
_symmetry_cell_setting 'monoclinic'
loop_
_space_group_symop_operation_xyz
x,y,z
-x,y,1/2-z
-x,-y,-z
x,-y,1/2+z
loop_
_atom_site_type_symbol
_atom_site_label
_atom_site_fract_x
_atom_site_fract_y
_atom_site_fract_z
Si Si1 0.388894 0.811970 0.215287
Si Si2 0.917251 0.060678 0.947689
Si Si3 0.213391 0.909966 0.754507
Si Si4 0.999348 0.661319 0.855239
Si Si5 0.958553 0.660926 0.165280
Si Si6 0.685775 0.152650 0.479999
O O1 0.500000 0.769584 0.250000
O O2 0.227504 0.716099 0.272244
O O3 0.329416 0.974725 0.251509
O O4 0.504849 0.804837 0.083856
O O5 0.928344 0.227341 0.932273
O O6 0.038726 0.994921 0.824563
O O7 0.740612 0.991443 0.005228
O O8 0.000000 0.000000 0.000000
O O9 0.151932 0.761963 0.820135
O O10 0.291293 0.875161 0.630263
O O11 0.017484 0.499771 0.874058
O O12 0.000000 0.664960 0.750000
O O13 0.825226 0.733341 0.951709
O O14 0.000000 0.668558 0.250000
#
# Coordination Sequence:
#
# PCOD9226874 Si02
#       6
#     4   4   4   4   4   4
#     4  11  22  36  54  84 117 144 181 238 287 329
#     4  10  18  31  52  79 108 143 184 227 274 332
#     4   9  18  34  54  75 104 145 186 225 273 335
#     4   8  17  35  58  81 108 144 189 231 273 335
#     4  10  20  38  59  82 111 150 189 226 278 345
#     4  10  18  34  57  81 107 144 190 237 278 326
#
# _framework density 20.159844
#
# number of rings (size 3 to 8) (size 9 to 14) (size 15 to 20)
#    0.000    2.333    0.000    6.000    0.000    0.667 
#    0.000   17.500    0.000    0.000    0.000    0.000 
#    0.000    0.000    0.000    0.000    0.000    0.000 
#
# Total GULP energy -133858.353580 kJ/mol
# GULP energy per Si atom -5577.431399 kJ/mol
# Density = 2.011396 g / cm^3
# Si number density = 20.159844 Si / 1000 Ang^3
#
#
#
# Elastic Constant Matrix: (Units=GPa)
#
#
# Indices 1 2 3 4 5 6 
#
# 1 75.9394 31.0830 6.7126 0.0000 -4.0390 0.0000
# 2 31.0830 168.0428 24.9868 0.0000 -16.9310 0.0000
# 3 6.7126 24.9868 63.4038 0.0000 -0.6433 0.0000
# 4 0.0000 0.0000 0.0000 7.3050 0.0000 -12.4366
# 5 -4.0390 -16.9310 -0.6433 0.0000 29.7466 0.0000
# 6 0.0000 0.0000 0.0000 -12.4366 0.0000 13.6300
#
#
#
# Elastic Compliance Matrix: (Units=1/GPa)
#
#
# Indices 1 2 3 4 5 6 
#
# 1 0.014269 -0.002513 -0.000515 0.000000 0.000496 0.000000
# 2 -0.002513 0.007161 -0.002519 0.000000 0.003680 0.000000
# 3 -0.000515 -0.002519 0.016808 0.000000 -0.001140 0.000000
# 4 0.000000 0.000000 0.000000 -0.247354 0.000000 -0.225697
# 5 0.000496 0.003680 -0.001140 0.000000 0.035755 0.000000
# 6 0.000000 0.000000 0.000000 -0.225697 0.000000 -0.132569
#
#
# Mechanical properties :
#
#
# Convention : Reuss Voigt Hill
#
# Bulk Modulus (GPa) = 36.84091 48.10563 42.47327
# Shear Modulus (GPa) = -17.49542 26.44322 4.47390
#
# Velocity S-wave (km/s) = -2.94910 3.62564 1.49132
# Velocity P-wave (km/s) = 2.59188 6.43746 4.90707
#
# Compressibility (1/GPa) = 0.02714374
#
# Stress axis : x y z
#
# Youngs Moduli (GPa) = 70.08294 139.64635 59.49717
#
# Poissons Ratio (x) = 0.35089 0.03066
# Poissons Ratio (y) = 0.17610 0.14986
# Poissons Ratio (z) = 0.03612 0.35173
#
# Static dielectric constant tensor:
#      x y z
#    x 1.729310 0.000000 0.024250 
#    y 0.000000 1.744440 0.000000 
#    z 0.024250 0.000000 1.769580 
# 
# From -- ./inp_files/65927.got.cif
#   From: 2010.05.17/outbox.cif.g08.bks.cpg/sg13_33_cif.got.tgz:65927.got - 2010.06.03 16:44:36.
