data_PCOD9226553
_publ_section_title
;
Structure prediction by ZEFSAII (Michael W. Deem and Ramdas Pophale) SiO2 
 PCOD9226553
Probable space group: P 2/C
;
_chemical_formula_sum "Si O2"
_cell_formula_units_Z 24
_cell_length_a 14.143583
_cell_length_b 11.291852
_cell_length_c 11.662887
_cell_angle_alpha 90.000000
_cell_angle_beta 34.449344
_cell_angle_gamma 90.000000
_cell_volume 1053.657620
_symmetry_space_group_name_H-M "P 2/C"
_symmetry_group_IT_number 13
_symmetry_cell_setting 'monoclinic'
loop_
_space_group_symop_operation_xyz
x,y,z
-x,y,1/2-z
-x,-y,-z
x,-y,1/2+z
loop_
_atom_site_type_symbol
_atom_site_label
_atom_site_fract_x
_atom_site_fract_y
_atom_site_fract_z
Si Si1 0.947153 0.727565 0.041245
Si Si2 0.623509 0.708846 0.019828
Si Si3 0.877325 0.921932 0.764926
Si Si4 0.694649 0.329798 0.209613
Si Si5 0.810264 0.816052 0.390300
Si Si6 0.827702 0.547431 0.964250
O O1 0.812944 0.732075 0.276985
O O2 0.880345 0.651890 0.000607
O O3 0.004166 0.863227 0.952217
O O4 0.118926 0.675160 0.920208
O O5 0.500000 0.713295 0.250000
O O6 0.747114 0.604195 0.933171
O O7 0.727375 0.829527 0.918967
O O8 0.571961 0.689874 0.939377
O O9 0.000000 0.913068 0.750000
O O10 0.794227 0.050907 0.858623
O O11 0.695880 0.457855 0.150862
O O12 0.694969 0.230887 0.108932
O O13 0.000000 0.812487 0.250000
O O14 0.000000 0.487071 0.750000
#
# Coordination Sequence:
#
# PCOD9226553 Si02
#       6
#     4   4   4   4   4   4
#     4  10  17  32  56  94 113 145 180 238 281 332
#     4  11  24  41  57  79 114 155 193 232 283 335
#     4  10  17  36  59  87 110 147 191 234 278 335
#     4  10  22  35  58  88 119 145 183 239 286 331
#     4   9  19  31  56  91 120 139 183 239 291 325
#     4  12  20  36  63  87 112 146 193 230 283 341
#
# _framework density 22.777795999999999
#
# number of rings (size 3 to 8) (size 9 to 14) (size 15 to 20)
#    0.000    1.667    5.000    2.500    2.333    2.000 
#    0.000    0.833    0.000    0.000    0.000    0.000 
#    0.000    0.000    0.000    0.000    0.000    0.000 
#
# Total GULP energy -133844.072233 kJ/mol
# GULP energy per Si atom -5576.836343 kJ/mol
# Density = 2.272595 g / cm^3
# Si number density = 22.777796 Si / 1000 Ang^3
#
#
#
# Elastic Constant Matrix: (Units=GPa)
#
#
# Indices 1 2 3 4 5 6 
#
# 1 36.4084 14.5916 22.0075 0.0000 15.6741 0.0000
# 2 14.5916 114.1281 36.2909 0.0000 23.4652 0.0000
# 3 22.0075 36.2909 157.2491 0.0000 45.9354 0.0000
# 4 0.0000 0.0000 0.0000 13.1375 0.0000 12.3952
# 5 15.6741 23.4652 45.9354 0.0000 37.5254 0.0000
# 6 0.0000 0.0000 0.0000 12.3952 0.0000 11.1965
#
#
#
# Elastic Compliance Matrix: (Units=1/GPa)
#
#
# Indices 1 2 3 4 5 6 
#
# 1 0.033817 -0.001566 -0.000827 0.000000 -0.012134 0.000000
# 2 -0.001566 0.010185 -0.000719 0.000000 -0.004834 0.000000
# 3 -0.000827 -0.000719 0.009976 0.000000 -0.011417 0.000000
# 4 0.000000 0.000000 0.000000 -1.709859 0.000000 1.892924
# 5 -0.012134 -0.004834 -0.011417 0.000000 0.048715 0.000000
# 6 0.000000 0.000000 0.000000 1.892924 0.000000 -2.006275
#
#
# Mechanical properties :
#
#
# Convention : Reuss Voigt Hill
#
# Bulk Modulus (GPa) = 20.94049 50.39618 35.66834
# Shear Modulus (GPa) = -1.39225 28.03159 13.31967
#
# Velocity S-wave (km/s) = -0.78266 3.51187 2.42082
# Velocity P-wave (km/s) = 2.89769 6.21430 4.84841
#
# Compressibility (1/GPa) = 0.04775437
#
# Stress axis : x y z
#
# Youngs Moduli (GPa) = 29.57058 98.18417 100.23964
#
# Poissons Ratio (x) = 0.15375 0.08289
# Poissons Ratio (y) = 0.04631 0.07209
# Poissons Ratio (z) = 0.02445 0.07061
#
# Static dielectric constant tensor:
#      x y z
#    x 1.821590 0.000000 -0.017250 
#    y 0.000000 1.862240 0.000000 
#    z -0.017250 0.000000 2.018860 
# 
# From -- ./inp_files/39091.got.cif
#   From: 2010.05.17/outbox.cif.g08.bks.cpg/sg13_20_cif.got.tgz:39091.got - 2010.06.03 16:44:36.
