data_PCOD9226584
_publ_section_title
;
Structure prediction by ZEFSAII (Michael W. Deem and Ramdas Pophale) SiO2 
 PCOD9226584
Probable space group: P 2/C
;
_chemical_formula_sum "Si O2"
_cell_formula_units_Z 24
_cell_length_a 8.094413
_cell_length_b 9.515775
_cell_length_c 19.421119
_cell_angle_alpha 90.000000
_cell_angle_beta 43.518747
_cell_angle_gamma 90.000000
_cell_volume 1030.067465
_symmetry_space_group_name_H-M "P 2/C"
_symmetry_group_IT_number 13
_symmetry_cell_setting 'monoclinic'
loop_
_space_group_symop_operation_xyz
x,y,z
-x,y,1/2-z
-x,-y,-z
x,-y,1/2+z
loop_
_atom_site_type_symbol
_atom_site_label
_atom_site_fract_x
_atom_site_fract_y
_atom_site_fract_z
Si Si1 0.146947 0.387671 0.411930
Si Si2 0.702813 0.548873 0.778565
Si Si3 0.383456 0.088258 0.971388
Si Si4 0.557039 0.656723 0.957500
Si Si5 0.783456 0.216822 0.761908
Si Si6 0.908164 0.175517 0.960865
O O1 0.129259 0.409466 0.335784
O O2 0.427145 0.418723 0.341920
O O3 0.072025 0.242241 0.469787
O O4 0.000000 0.500000 0.500000
O O5 0.727886 0.637580 0.840345
O O6 0.726202 0.382680 0.785056
O O7 0.567389 0.120196 0.853874
O O8 0.176578 0.984026 0.011039
O O9 0.334751 0.240866 0.018134
O O10 0.500000 0.000000 0.000000
O O11 0.305861 0.730650 0.010225
O O12 0.500000 0.500000 0.000000
O O13 0.000000 0.187846 0.750000
O O14 0.868379 0.190685 0.658204
#
# Coordination Sequence:
#
# PCOD9226584 Si02
#       6
#     4   4   4   4   4   4
#     4  10  20  39  66  92 124 169 223 275 324 378
#     4  10  21  34  63 101 124 168 217 278 318 389
#     4  10  20  34  59  89 133 170 199 262 330 397
#     4  10  17  33  58  93 129 160 207 269 323 382
#     4  12  19  35  66  93 131 171 216 262 346 392
#     4  10  21  36  63  90 125 172 211 267 327 394
#
# _framework density 23.299444999999999
#
# number of rings (size 3 to 8) (size 9 to 14) (size 15 to 20)
#    0.000    1.667    6.667    0.000    0.000    0.000 
#    0.000    0.000   47.667   13.000    0.000    0.000 
#    0.000    0.000    0.000    0.000    0.000    0.000 
#
# Total GULP energy -134272.106541 kJ/mol
# GULP energy per Si atom -5594.671106 kJ/mol
# Density = 2.324641 g / cm^3
# Si number density = 23.299445 Si / 1000 Ang^3
#
#
#
# Elastic Constant Matrix: (Units=GPa)
#
#
# Indices 1 2 3 4 5 6 
#
# 1 63.0832 30.0889 26.5487 0.0000 13.7476 0.0000
# 2 30.0889 169.5820 68.0123 0.0000 8.1990 0.0000
# 3 26.5487 68.0123 213.4111 0.0000 29.5182 0.0000
# 4 0.0000 0.0000 0.0000 42.7992 0.0000 2.0117
# 5 13.7476 8.1990 29.5182 0.0000 22.0451 0.0000
# 6 0.0000 0.0000 0.0000 2.0117 0.0000 23.3260
#
#
#
# Elastic Compliance Matrix: (Units=1/GPa)
#
#
# Indices 1 2 3 4 5 6 
#
# 1 0.019699 -0.002972 0.000053 0.000000 -0.011250 0.000000
# 2 -0.002972 0.007213 -0.002227 0.000000 0.002153 0.000000
# 3 0.000053 -0.002227 0.006479 0.000000 -0.007880 0.000000
# 4 0.000000 0.000000 0.000000 0.023460 0.000000 -0.002023
# 5 -0.011250 0.002153 -0.007880 0.000000 0.062127 0.000000
# 6 0.000000 0.000000 0.000000 -0.002023 0.000000 0.043045
#
#
# Mechanical properties :
#
#
# Convention : Reuss Voigt Hill
#
# Bulk Modulus (GPa) = 43.29321 77.26399 60.27860
# Shear Modulus (GPa) = 27.77524 39.06249 33.41886
#
# Velocity S-wave (km/s) = 3.45642 4.09900 3.79135
# Velocity P-wave (km/s) = 5.87799 7.45893 6.71515
#
# Compressibility (1/GPa) = 0.02309831
#
# Stress axis : x y z
#
# Youngs Moduli (GPa) = 50.76311 138.63385 154.35015
#
# Poissons Ratio (x) = 0.41209 -0.00813
# Poissons Ratio (y) = 0.15089 0.34370
# Poissons Ratio (z) = -0.00268 0.30870
#
# Static dielectric constant tensor:
#      x y z
#    x 2.077610 0.000000 0.024320 
#    y 0.000000 1.820000 0.000000 
#    z 0.024320 0.000000 1.866680 
# 
# From -- ./inp_files/86278.got.cif
#   From: 2010.05.17/outbox.cif.g08.bks.cpg/sg13_44_cif.got.tgz:86278.got - 2010.06.03 16:44:36.
