data_PCOD9226945
_publ_section_title
;
Structure prediction by ZEFSAII (Michael W. Deem and Ramdas Pophale) SiO2 
 PCOD9226945
Probable space group: P 2/C
;
_chemical_formula_sum "Si O2"
_cell_formula_units_Z 24
_cell_length_a 5.393928
_cell_length_b 11.540029
_cell_length_c 19.985130
_cell_angle_alpha 90.000000
_cell_angle_beta 79.157958
_cell_angle_gamma 90.000000
_cell_volume 1221.790148
_symmetry_space_group_name_H-M "P 2/C"
_symmetry_group_IT_number 13
_symmetry_cell_setting 'monoclinic'
loop_
_space_group_symop_operation_xyz
x,y,z
-x,y,1/2-z
-x,-y,-z
x,-y,1/2+z
loop_
_atom_site_type_symbol
_atom_site_label
_atom_site_fract_x
_atom_site_fract_y
_atom_site_fract_z
Si Si1 0.446506 0.815720 0.978149
Si Si2 0.658287 0.037402 0.586699
Si Si3 0.090112 0.520627 0.417996
Si Si4 0.728251 0.871079 0.291367
Si Si5 0.029282 0.234593 0.605538
Si Si6 0.419262 0.428048 0.071556
O O1 0.601037 0.707920 0.942368
O O2 0.315293 0.902978 0.932483
O O3 0.612439 0.895014 0.019164
O O4 0.231365 0.762132 0.036057
O O5 0.413044 0.049654 0.646401
O O6 0.880107 0.112956 0.608460
O O7 0.843500 0.479853 0.390911
O O8 0.000000 0.500000 0.500000
O O9 0.143677 0.654666 0.398989
O O10 0.340773 0.448153 0.393768
O O11 0.500000 0.847493 0.250000
O O12 0.000000 0.916756 0.250000
O O13 0.823808 0.763024 0.331562
O O14 0.500000 0.500000 0.000000
#
# Coordination Sequence:
#
# PCOD9226945 Si02
#       6
#     4   4   4   4   4   4
#     4  10  20  32  53  88 126 152 184 222 299 361
#     4  10  21  35  55  86 118 155 179 244 292 354
#     4  10  19  30  52  78 116 154 181 214 274 346
#     4  11  23  41  58  80 111 148 205 245 286 334
#     4  11  20  34  60  83 123 150 189 237 299 352
#     4  10  18  32  48  76 119 156 180 211 255 352
#
# _framework density 19.643308999999999
#
# number of rings (size 3 to 8) (size 9 to 14) (size 15 to 20)
#    0.000    1.667    5.000    2.500    2.333    0.000 
#    0.000    0.000    0.000    0.000    0.000    4.667 
#    0.000    0.000    0.000    0.000    0.000    0.000 
#
# Total GULP energy -133619.306664 kJ/mol
# GULP energy per Si atom -5567.471111 kJ/mol
# Density = 1.959860 g / cm^3
# Si number density = 19.643309 Si / 1000 Ang^3
#
#
#
# Elastic Constant Matrix: (Units=GPa)
#
#
# Indices 1 2 3 4 5 6 
#
# 1 107.4127 1.4930 11.5534 0.0000 16.8576 0.0000
# 2 1.4930 91.3400 17.4109 0.0000 18.2248 0.0000
# 3 11.5534 17.4109 37.4443 0.0000 13.1610 0.0000
# 4 0.0000 0.0000 0.0000 0.1231 0.0000 6.0441
# 5 16.8576 18.2248 13.1610 0.0000 23.1565 0.0000
# 6 0.0000 0.0000 0.0000 6.0441 0.0000 25.4260
#
#
#
# Elastic Compliance Matrix: (Units=1/GPa)
#
#
# Indices 1 2 3 4 5 6 
#
# 1 0.010750 0.001746 -0.001119 0.000000 -0.008565 0.000000
# 2 0.001746 0.013557 -0.003306 0.000000 -0.010062 0.000000
# 3 -0.001119 -0.003306 0.034225 0.000000 -0.016035 0.000000
# 4 0.000000 0.000000 0.000000 -0.761236 0.000000 0.180955
# 5 -0.008565 -0.010062 -0.016035 0.000000 0.066452 0.000000
# 6 0.000000 0.000000 0.000000 0.180955 0.000000 -0.003685
#
#
# Mechanical properties :
#
#
# Convention : Reuss Voigt Hill
#
# Bulk Modulus (GPa) = 18.80555 33.01240 25.90897
# Shear Modulus (GPa) = -8.10564 23.45711 7.67573
#
# Velocity S-wave (km/s) = -2.03356 3.45940 1.97890
# Velocity P-wave (km/s) = 2.02002 5.72704 4.29415
#
# Compressibility (1/GPa) = 0.05317579
#
# Stress axis : x y z
#
# Youngs Moduli (GPa) = 93.02263 73.76007 29.21845
#
# Poissons Ratio (x) = -0.12881 0.03269
# Poissons Ratio (y) = -0.16245 0.09660
# Poissons Ratio (z) = 0.10406 0.24386
#
# Static dielectric constant tensor:
#      x y z
#    x 1.691430 0.000000 0.045100 
#    y 0.000000 1.708530 0.000000 
#    z 0.045100 0.000000 1.741350 
# 
# From -- ./inp_files/61105.got.cif
#   From: 2010.05.17/outbox.cif.g08.bks.cpg/sg13_31_cif.got.tgz:61105.got - 2010.06.03 16:44:36.
