data_PCOD9226683
_publ_section_title
;
Structure prediction by ZEFSAII (Michael W. Deem and Ramdas Pophale) SiO2 
 PCOD9226683
Probable space group: P 2/C
;
_chemical_formula_sum "Si O2"
_cell_formula_units_Z 30
_cell_length_a 12.460571
_cell_length_b 24.093651
_cell_length_c 5.454352
_cell_angle_alpha 90.000000
_cell_angle_beta 113.382119
_cell_angle_gamma 90.000000
_cell_volume 1503.034433
_symmetry_space_group_name_H-M "P 2/C"
_symmetry_group_IT_number 13
_symmetry_cell_setting 'monoclinic'
loop_
_space_group_symop_operation_xyz
x,y,z
-x,y,1/2-z
-x,-y,-z
x,-y,1/2+z
loop_
_atom_site_type_symbol
_atom_site_label
_atom_site_fract_x
_atom_site_fract_y
_atom_site_fract_z
Si Si1 0.863959 0.850232 0.834891
Si Si2 0.365592 0.532018 0.487800
Si Si3 0.567504 0.341814 0.557803
Si Si4 0.000000 0.608000 0.750000
Si Si5 0.870215 0.807550 0.339477
Si Si6 0.863064 0.022709 0.164052
Si Si7 0.834827 0.680627 0.250262
Si Si8 0.871549 0.573086 0.031459
O O1 0.815530 0.814972 0.560884
O O2 0.858528 0.913802 0.746706
O O3 0.811958 0.839490 0.057814
O O4 0.999495 0.832228 0.000170
O O5 0.392598 0.508042 0.783546
O O6 0.416970 0.591902 0.467696
O O7 0.227099 0.543371 0.403807
O O8 0.500000 0.331810 0.750000
O O9 0.699077 0.318979 0.701164
O O10 0.500000 0.321743 0.250000
O O11 0.101091 0.568345 0.729725
O O12 0.924220 0.648543 0.509299
O O13 0.874875 0.743564 0.265775
O O14 0.000000 0.006836 0.250000
O O15 0.812852 0.987419 0.346409
O O16 0.840670 0.639304 0.023052
O O17 0.000000 0.562246 0.250000
#
# Coordination Sequence:
#
# PCOD9226683 Si02
#       8
#     4   4   4   2   4   4   4   4
#     4  10  19  30  42  73 104 143 189 233 276 313
#     4  11  25  41  64  88 115 140 179 228 285 335
#     4  11  26  45  68  87 114 145 189 236 273 348
#     4  10  20  36  62  82 118 144 188 222 264 340
#     4  10  20  29  46  68 105 131 175 232 272 322
#     4  10  18  26  41  57  92 147 203 234 256 312
#     4  10  23  37  60  86 112 152 187 229 295 332
#     4   9  22  36  55  84 115 151 184 217 266 348
#
# _framework density 19.959624999999999
#
# number of rings (size 3 to 8) (size 9 to 14) (size 15 to 20)
#    0.000    1.867    1.333    2.400   20.533    2.133 
#    0.000    0.000    0.000    0.000    0.000    0.000 
#    0.000    0.000    0.000    0.000    0.000   77.333 
#
# Total GULP energy -167130.455791 kJ/mol
# GULP energy per Si atom -5571.015193 kJ/mol
# Density = 1.991420 g / cm^3
# Si number density = 19.959625 Si / 1000 Ang^3
#
#
#
# Elastic Constant Matrix: (Units=GPa)
#
#
# Indices 1 2 3 4 5 6 
#
# 1 93.0905 9.3466 40.4677 0.0000 -9.9164 0.0000
# 2 9.3466 94.3367 27.6265 0.0000 -7.8121 0.0000
# 3 40.4677 27.6265 116.6864 0.0000 -33.3435 0.0000
# 4 0.0000 0.0000 0.0000 11.4922 0.0000 -3.7536
# 5 -9.9164 -7.8121 -33.3435 0.0000 34.4094 0.0000
# 6 0.0000 0.0000 0.0000 -3.7536 0.0000 1.8259
#
#
#
# Elastic Compliance Matrix: (Units=1/GPa)
#
#
# Indices 1 2 3 4 5 6 
#
# 1 0.012667 0.000035 -0.004641 0.000000 -0.000839 0.000000
# 2 0.000035 0.011390 -0.002720 0.000000 -0.000040 0.000000
# 3 -0.004641 -0.002720 0.014196 0.000000 0.011801 0.000000
# 4 0.000000 0.000000 0.000000 0.264823 0.000000 0.544392
# 5 -0.000839 -0.000040 0.011801 0.000000 0.040246 0.000000
# 6 0.000000 0.000000 0.000000 0.544392 0.000000 1.666759
#
#
# Mechanical properties :
#
#
# Convention : Reuss Voigt Hill
#
# Bulk Modulus (GPa) = 42.37301 50.99945 46.68623
# Shear Modulus (GPa) = 2.45990 24.65704 13.55847
#
# Velocity S-wave (km/s) = 1.11136 3.51856 2.60916
# Velocity P-wave (km/s) = 4.78772 6.48952 5.70246
#
# Compressibility (1/GPa) = 0.02359993
#
# Stress axis : x y z
#
# Youngs Moduli (GPa) = 78.94626 87.79485 70.44436
#
# Poissons Ratio (x) = -0.00304 0.32692
# Poissons Ratio (y) = -0.00273 0.19162
# Poissons Ratio (z) = 0.36638 0.23881
#
# Static dielectric constant tensor:
#      x y z
#    x 1.921900 0.000000 -0.163060 
#    y 0.000000 1.721280 0.000000 
#    z -0.163060 0.000000 1.950450 
# 
# From -- ./inp_files/4395.got.cif
#   From: 2010.05.17/outbox.cif.g08.bks.cpg/sg13_3_cif.got.tgz:4395.got - 2010.06.03 16:44:36.
