data_PCOD9226523
_publ_section_title
;
Structure prediction by ZEFSAII (Michael W. Deem and Ramdas Pophale) SiO2 
 PCOD9226523
Probable space group: P 2/C
;
_chemical_formula_sum "Si O2"
_cell_formula_units_Z 24
_cell_length_a 19.056298
_cell_length_b 7.423216
_cell_length_c 11.707426
_cell_angle_alpha 90.000000
_cell_angle_beta 144.195497
_cell_angle_gamma 90.000000
_cell_volume 968.866232
_symmetry_space_group_name_H-M "P 2/C"
_symmetry_group_IT_number 13
_symmetry_cell_setting 'monoclinic'
loop_
_space_group_symop_operation_xyz
x,y,z
-x,y,1/2-z
-x,-y,-z
x,-y,1/2+z
loop_
_atom_site_type_symbol
_atom_site_label
_atom_site_fract_x
_atom_site_fract_y
_atom_site_fract_z
Si Si1 0.322422 0.656734 0.262242
Si Si2 0.171682 0.861296 0.444874
Si Si3 0.883641 0.285638 0.172478
Si Si4 0.014252 0.198846 0.963196
Si Si5 0.569820 0.627854 0.453151
Si Si6 0.365408 0.953134 0.853973
O O1 0.457400 0.654256 0.390379
O O2 0.331478 0.509077 0.371735
O O3 0.298620 0.856795 0.279950
O O4 0.229142 0.619282 0.037301
O O5 0.099503 0.816042 0.465622
O O6 0.307366 0.850193 0.668564
O O7 0.114291 0.753282 0.263661
O O8 0.147014 0.071816 0.382755
O O9 0.925358 0.314840 0.357432
O O10 0.000000 0.325553 0.250000
O O11 0.000000 0.000000 0.000000
O O12 0.500000 0.568118 0.250000
O O13 0.632590 0.824053 0.533498
O O14 0.500000 0.000000 0.000000
#
# Coordination Sequence:
#
# PCOD9226523 Si02
#       6
#     4   4   4   4   4   4
#     4   9  21  39  59  84 122 150 192 248 292 351
#     4   9  16  29  50  82 117 148 191 242 287 346
#     4  10  17  31  54  82 116 156 192 237 297 353
#     4   9  15  27  49  80 112 154 188 230 291 347
#     4  10  21  39  61  84 114 156 195 241 300 350
#     4   9  19  36  58  87 114 149 197 243 290 352
#
# _framework density 24.77122
#
# number of rings (size 3 to 8) (size 9 to 14) (size 15 to 20)
#    0.000    2.667    3.333    0.000    2.333    0.667 
#    0.000    5.000    3.667    2.000    0.000    0.000 
#    0.000    0.000    0.000    0.000    0.000    0.000 
#
# Total GULP energy -133967.950061 kJ/mol
# GULP energy per Si atom -5581.997919 kJ/mol
# Density = 2.471484 g / cm^3
# Si number density = 24.771220 Si / 1000 Ang^3
#
#
#
# Elastic Constant Matrix: (Units=GPa)
#
#
# Indices 1 2 3 4 5 6 
#
# 1 43.1936 5.8861 35.5368 0.0000 -5.5920 0.0000
# 2 5.8861 74.8707 59.4946 0.0000 -12.2735 0.0000
# 3 35.5368 59.4946 278.5249 0.0000 -10.9361 0.0000
# 4 0.0000 0.0000 0.0000 37.6236 0.0000 -1.1439
# 5 -5.5920 -12.2735 -10.9361 0.0000 40.1022 0.0000
# 6 0.0000 0.0000 0.0000 -1.1439 0.0000 4.8378
#
#
#
# Elastic Compliance Matrix: (Units=1/GPa)
#
#
# Indices 1 2 3 4 5 6 
#
# 1 0.026255 0.001213 -0.003488 0.000000 0.003081 0.000000
# 2 0.001213 0.016814 -0.003576 0.000000 0.004340 0.000000
# 3 -0.003488 -0.003576 0.004788 0.000000 -0.000275 0.000000
# 4 0.000000 0.000000 0.000000 0.026772 0.000000 0.006330
# 5 0.003081 0.004340 -0.000275 0.000000 0.026619 0.000000
# 6 0.000000 0.000000 0.000000 0.006330 0.000000 0.208201
#
#
# Mechanical properties :
#
#
# Convention : Reuss Voigt Hill
#
# Bulk Modulus (GPa) = 27.65885 66.49159 47.07522
# Shear Modulus (GPa) = 15.00587 36.22417 25.61502
#
# Velocity S-wave (km/s) = 2.46393 3.82822 3.21917
# Velocity P-wave (km/s) = 4.39142 6.81475 5.73260
#
# Compressibility (1/GPa) = 0.03615479
#
# Stress axis : x y z
#
# Youngs Moduli (GPa) = 38.08830 59.47433 208.83850
#
# Poissons Ratio (x) = -0.07212 0.72840
# Poissons Ratio (y) = -0.04618 0.74678
# Poissons Ratio (z) = 0.13285 0.21267
#
# Static dielectric constant tensor:
#      x y z
#    x 1.972520 0.000000 0.006060 
#    y 0.000000 2.088560 0.000000 
#    z 0.006060 0.000000 2.016940 
# 
# From -- ./inp_files/41647.got.cif
#   From: 2010.05.17/outbox.cif.g08.bks.cpg/sg13_21_cif.got.tgz:41647.got - 2010.06.03 16:44:36.
