data_PCOD9226305
_publ_section_title
;
Structure prediction by ZEFSAII (Michael W. Deem and Ramdas Pophale) SiO2 
 PCOD9226305
Probable space group: P 2/C
;
_chemical_formula_sum "Si O2"
_cell_formula_units_Z 24
_cell_length_a 12.581406
_cell_length_b 8.444069
_cell_length_c 18.614463
_cell_angle_alpha 90.000000
_cell_angle_beta 28.757984
_cell_angle_gamma 90.000000
_cell_volume 951.429667
_symmetry_space_group_name_H-M "P 2/C"
_symmetry_group_IT_number 13
_symmetry_cell_setting 'monoclinic'
loop_
_space_group_symop_operation_xyz
x,y,z
-x,y,1/2-z
-x,-y,-z
x,-y,1/2+z
loop_
_atom_site_type_symbol
_atom_site_label
_atom_site_fract_x
_atom_site_fract_y
_atom_site_fract_z
Si Si1 0.270635 0.727262 0.600517
Si Si2 0.225456 0.935277 0.164752
Si Si3 0.909851 0.120345 0.111601
Si Si4 0.330093 0.327160 0.908493
Si Si5 0.868341 0.376715 0.028800
Si Si6 0.826814 0.598106 0.287351
O O1 0.339637 0.912528 0.562141
O O2 0.383898 0.673056 0.459762
O O3 0.278074 0.578950 0.653113
O O4 0.000000 0.741780 0.750000
O O5 0.185844 0.013892 0.267361
O O6 0.000000 0.918598 0.250000
O O7 0.313662 0.754220 0.109458
O O8 0.781946 0.242323 0.134089
O O9 0.105460 0.227691 0.029627
O O10 0.000000 0.000000 0.000000
O O11 0.500000 0.258962 0.750000
O O12 0.305838 0.512059 0.906156
O O13 0.000000 0.500000 0.000000
O O14 0.042530 0.341715 0.861272
O O15 0.000000 0.579938 0.250000
#
# Coordination Sequence:
#
# PCOD9226305 Si02
#       6
#     4   4   4   4   4   4
#     4  10  16  33  58  83 106 154 210 234 276 356
#     4  10  18  31  57  89 109 149 206 248 279 346
#     4  11  20  35  61  90 119 152 201 248 300 354
#     4  11  22  38  58  89 123 157 194 253 307 353
#     4  10  19  33  56  86 115 149 196 245 293 351
#     4  10  17  29  55  86 110 142 209 248 273 345
#
# _framework density 25.225199
#
# number of rings (size 3 to 8) (size 9 to 14) (size 15 to 20)
#    0.000    1.667    8.333    1.000    0.000    0.000 
#    0.000    0.833    0.000   10.000    0.000    0.000 
#    0.000    0.000    0.000    0.000    0.000    0.000 
#
# Total GULP energy -133665.094041 kJ/mol
# GULP energy per Si atom -5569.378918 kJ/mol
# Density = 2.516779 g / cm^3
# Si number density = 25.225199 Si / 1000 Ang^3
#
#
#
# Elastic Constant Matrix: (Units=GPa)
#
#
# Indices 1 2 3 4 5 6 
#
# 1 61.8793 31.4080 5.4656 0.0000 31.7706 0.0000
# 2 31.4080 211.5267 18.6879 0.0000 0.9534 0.0000
# 3 5.4656 18.6879 81.6654 0.0000 29.4663 0.0000
# 4 0.0000 0.0000 0.0000 25.8463 0.0000 -8.7853
# 5 31.7706 0.9534 29.4663 0.0000 46.0487 0.0000
# 6 0.0000 0.0000 0.0000 -8.7853 0.0000 25.8331
#
#
#
# Elastic Compliance Matrix: (Units=1/GPa)
#
#
# Indices 1 2 3 4 5 6 
#
# 1 0.032793 -0.005568 0.009363 0.000000 -0.028501 0.000000
# 2 -0.005568 0.005793 -0.002985 0.000000 0.005632 0.000000
# 3 0.009363 -0.002985 0.018996 0.000000 -0.018554 0.000000
# 4 0.000000 0.000000 0.000000 0.043747 0.000000 0.014878
# 5 -0.028501 0.005632 -0.018554 0.000000 0.053136 0.000000
# 6 0.000000 0.000000 0.000000 0.014878 0.000000 0.043770
#
#
# Mechanical properties :
#
#
# Convention : Reuss Voigt Hill
#
# Bulk Modulus (GPa) = 16.89132 51.79939 34.34535
# Shear Modulus (GPa) = 23.11098 39.51294 31.31196
#
# Velocity S-wave (km/s) = 3.03014 3.96208 3.52703
# Velocity P-wave (km/s) = 4.35351 6.44284 5.49833
#
# Compressibility (1/GPa) = 0.05920202
#
# Stress axis : x y z
#
# Youngs Moduli (GPa) = 30.49441 172.63413 52.64289
#
# Poissons Ratio (x) = 0.96121 -0.49290
# Poissons Ratio (y) = 0.16979 0.15713
# Poissons Ratio (z) = -0.28552 0.51529
#
# Static dielectric constant tensor:
#      x y z
#    x 1.872170 0.000000 0.037790 
#    y 0.000000 2.024140 0.000000 
#    z 0.037790 0.000000 2.102500 
# 
# From -- ./inp_files/68077.got.cif
#   From: 2010.05.17/outbox.cif.g08.bks.cpg/sg13_35_cif.got.tgz:68077.got - 2010.06.03 16:44:36.
