data_PCOD9226926
_publ_section_title
;
Structure prediction by ZEFSAII (Michael W. Deem and Ramdas Pophale) SiO2 
 PCOD9226926
Probable space group: P 2/C
;
_chemical_formula_sum "Si O2"
_cell_formula_units_Z 30
_cell_length_a 11.328400
_cell_length_b 7.105451
_cell_length_c 27.405656
_cell_angle_alpha 90.000000
_cell_angle_beta 31.450139
_cell_angle_gamma 90.000000
_cell_volume 1150.981077
_symmetry_space_group_name_H-M "P 2/C"
_symmetry_group_IT_number 13
_symmetry_cell_setting 'monoclinic'
loop_
_space_group_symop_operation_xyz
x,y,z
-x,y,1/2-z
-x,-y,-z
x,-y,1/2+z
loop_
_atom_site_type_symbol
_atom_site_label
_atom_site_fract_x
_atom_site_fract_y
_atom_site_fract_z
Si Si1 0.139752 0.814645 0.060011
Si Si2 0.224981 0.287069 0.418145
Si Si3 0.285088 0.764674 0.239161
Si Si4 0.707270 0.319478 0.262872
Si Si5 0.000000 0.114343 0.750000
Si Si6 0.753605 0.709217 0.053850
Si Si7 0.625684 0.830122 0.902291
Si Si8 0.208959 0.610868 0.567023
O O1 0.168381 0.612694 0.077378
O O2 0.885787 0.868473 0.164033
O O3 0.161617 0.778943 0.994989
O O4 0.373813 0.917832 0.991033
O O5 0.484640 0.238151 0.315099
O O6 0.228862 0.516766 0.420633
O O7 0.011473 0.219131 0.462161
O O8 0.307303 0.543485 0.240942
O O9 0.544710 0.832219 0.146382
O O10 0.156016 0.778383 0.233049
O O11 0.672890 0.261984 0.332081
O O12 0.965465 0.285434 0.157332
O O13 0.179916 0.983199 0.659085
O O14 0.687016 0.658540 0.022072
O O15 0.654168 0.675378 0.934138
#
# Coordination Sequence:
#
# PCOD9226926 Si02
#       8
#     4   4   4   4   2   4   4   4
#     4   9  20  34  59  83 111 148 194 229 290 340
#     4   8  16  33  57  87 112 143 180 241 283 333
#     4  10  23  36  52  87 114 156 187 236 284 348
#     4   9  18  35  60  82 116 147 192 232 291 341
#     4  12  26  36  54  80 122 156 194 240 294 334
#     4   9  18  33  53  85 122 138 182 235 289 334
#     4  11  21  38  55  83 113 154 187 242 282 348
#     4  10  18  31  57  89 112 150 183 234 289 342
#
# _framework density 26.064717999999999
#
# number of rings (size 3 to 8) (size 9 to 14) (size 15 to 20)
#    0.000    2.400    1.333    1.200    5.600    1.600 
#    0.000    5.333    0.000    3.200    6.933    0.000 
#    0.000    0.000    0.000    0.000    0.000    0.000 
#
# Total GULP energy -167654.753939 kJ/mol
# GULP energy per Si atom -5588.491798 kJ/mol
# Density = 2.600539 g / cm^3
# Si number density = 26.064718 Si / 1000 Ang^3
#
#
#
# Elastic Constant Matrix: (Units=GPa)
#
#
# Indices 1 2 3 4 5 6 
#
# 1 79.3295 -12.4444 37.8131 0.0000 -25.2484 0.0000
# 2 -12.4444 71.7678 14.5931 0.0000 -4.7436 0.0000
# 3 37.8131 14.5931 172.7348 0.0000 -52.2087 0.0000
# 4 0.0000 0.0000 0.0000 23.3373 0.0000 5.4150
# 5 -25.2484 -4.7436 -52.2087 0.0000 47.9619 0.0000
# 6 0.0000 0.0000 0.0000 5.4150 0.0000 -15.5788
#
#
#
# Elastic Compliance Matrix: (Units=1/GPa)
#
#
# Indices 1 2 3 4 5 6 
#
# 1 0.016237 0.003633 -0.001743 0.000000 0.007010 0.000000
# 2 0.003633 0.014991 -0.001543 0.000000 0.001715 0.000000
# 3 -0.001743 -0.001543 0.008909 0.000000 0.008628 0.000000
# 4 0.000000 0.000000 0.000000 0.039652 0.000000 0.013782
# 5 0.007010 0.001715 0.008628 0.000000 0.034101 0.000000
# 6 0.000000 0.000000 0.000000 0.013782 0.000000 -0.059399
#
#
# Mechanical properties :
#
#
# Convention : Reuss Voigt Hill
#
# Bulk Modulus (GPa) = 24.49091 44.86178 34.67634
# Shear Modulus (GPa) = 74.17572 30.06876 52.12224
#
# Velocity S-wave (km/s) = 5.34042 3.40018 4.47668
# Velocity P-wave (km/s) = 6.88791 5.71525 6.32880
#
# Compressibility (1/GPa) = 0.04083148
#
# Stress axis : x y z
#
# Youngs Moduli (GPa) = 61.58627 66.70665 112.24912
#
# Poissons Ratio (x) = -0.24236 0.19561
# Poissons Ratio (y) = -0.22376 0.17325
# Poissons Ratio (z) = 0.10732 0.10296
#
# Static dielectric constant tensor:
#      x y z
#    x 2.046250 0.000000 -0.009510 
#    y 0.000000 2.074870 0.000000 
#    z -0.009510 0.000000 2.141260 
# 
# From -- ./inp_files/96604.got.cif
#   From: 2010.05.17/outbox.cif.g08.bks.cpg/sg13_49_cif.got.tgz:96604.got - 2010.06.03 16:44:36.
