data_PCOD9226560
_publ_section_title
;
Structure prediction by ZEFSAII (Michael W. Deem and Ramdas Pophale) SiO2 
 PCOD9226560
Probable space group: P 2/C
;
_chemical_formula_sum "Si O2"
_cell_formula_units_Z 30
_cell_length_a 9.622756
_cell_length_b 8.715525
_cell_length_c 24.210141
_cell_angle_alpha 90.000000
_cell_angle_beta 60.088845
_cell_angle_gamma 90.000000
_cell_volume 1759.985494
_symmetry_space_group_name_H-M "P 2/C"
_symmetry_group_IT_number 13
_symmetry_cell_setting 'monoclinic'
loop_
_space_group_symop_operation_xyz
x,y,z
-x,y,1/2-z
-x,-y,-z
x,-y,1/2+z
loop_
_atom_site_type_symbol
_atom_site_label
_atom_site_fract_x
_atom_site_fract_y
_atom_site_fract_z
Si Si1 0.500000 0.928848 0.250000
Si Si2 0.226960 0.896241 0.447398
Si Si3 0.527224 0.278081 0.852285
Si Si4 0.704940 0.882068 0.413391
Si Si5 0.535678 0.635280 0.828814
Si Si6 0.726822 0.213980 0.196961
Si Si7 0.007394 0.041658 0.092896
Si Si8 0.459680 0.844881 0.942920
O O1 0.469776 0.825988 0.202849
O O2 0.646240 0.045685 0.213255
O O3 0.352191 0.759286 0.413293
O O4 0.125735 0.883983 0.523677
O O5 0.335694 0.048730 0.433341
O O6 0.108526 0.931534 0.420391
O O7 0.659878 0.218303 0.869336
O O8 0.547292 0.453843 0.832088
O O9 0.631828 0.801768 0.482717
O O10 0.885890 0.935256 0.388298
O O11 0.605025 0.040842 0.428145
O O12 0.375605 0.685673 0.826549
O O13 0.682341 0.708420 0.764396
O O14 0.519814 0.710561 0.892028
O O15 0.906611 0.174432 0.143409
#
# Coordination Sequence:
#
# PCOD9226560 Si02
#       8
#     2   4   4   4   4   4   4   4
#     4  10  18  34  58  76 100 136 198 236 252 314
#     4   9  17  32  59  81 109 140 183 233 267 320
#     4  11  20  36  54  86 107 146 185 228 275 335
#     4   9  19  31  58  79 107 138 185 231 275 314
#     4  10  20  32  56  78 113 143 189 223 275 334
#     4  10  18  34  56  84  98 146 189 234 265 321
#     4  10  17  32  59  85 107 134 185 234 278 314
#     4   9  16  35  53  81 103 146 190 224 257 331
#
# _framework density 17.045594999999999
#
# number of rings (size 3 to 8) (size 9 to 14) (size 15 to 20)
#    0.000    2.400    2.667    4.000    0.000    0.533 
#    0.000    3.333    2.933    1.600    0.000    0.000 
#    0.000    0.000    0.000    0.000    0.000    0.000 
#
# Total GULP energy -167149.398340 kJ/mol
# GULP energy per Si atom -5571.646611 kJ/mol
# Density = 1.700680 g / cm^3
# Si number density = 17.045595 Si / 1000 Ang^3
#
#
#
# Elastic Constant Matrix: (Units=GPa)
#
#
# Indices 1 2 3 4 5 6 
#
# 1 99.5497 36.3503 40.1040 0.0000 1.6299 0.0000
# 2 36.3503 107.5155 58.7171 0.0000 10.2261 0.0000
# 3 40.1040 58.7171 97.5875 0.0000 8.2422 0.0000
# 4 0.0000 0.0000 0.0000 11.6182 0.0000 2.8678
# 5 1.6299 10.2261 8.2422 0.0000 23.0825 0.0000
# 6 0.0000 0.0000 0.0000 2.8678 0.0000 11.1115
#
#
#
# Elastic Compliance Matrix: (Units=1/GPa)
#
#
# Indices 1 2 3 4 5 6 
#
# 1 0.012394 -0.002207 -0.003892 0.000000 0.001492 0.000000
# 2 -0.002207 0.014488 -0.007508 0.000000 -0.003582 0.000000
# 3 -0.003892 -0.007508 0.016559 0.000000 -0.002312 0.000000
# 4 0.000000 0.000000 0.000000 0.091929 0.000000 -0.023726
# 5 0.001492 -0.003582 -0.002312 0.000000 0.045630 0.000000
# 6 0.000000 0.000000 0.000000 -0.023726 0.000000 0.096120
#
#
# Mechanical properties :
#
#
# Convention : Reuss Voigt Hill
#
# Bulk Modulus (GPa) = 61.61923 63.88839 62.75381
# Shear Modulus (GPa) = 16.14244 20.46119 18.30181
#
# Velocity S-wave (km/s) = 3.08070 3.46841 3.28029
# Velocity P-wave (km/s) = 6.99160 7.32134 7.15837
#
# Compressibility (1/GPa) = 0.01622870
#
# Stress axis : x y z
#
# Youngs Moduli (GPa) = 80.68118 69.02241 60.38996
#
# Poissons Ratio (x) = 0.15234 0.23501
# Poissons Ratio (y) = 0.17807 0.45339
# Poissons Ratio (z) = 0.31398 0.51820
#
# Static dielectric constant tensor:
#      x y z
#    x 1.610050 0.000000 -0.009110 
#    y 0.000000 1.537750 0.000000 
#    z -0.009110 0.000000 1.638580 
# 
# From -- ./inp_files/84764.got.cif
#   From: 2010.05.17/outbox.cif.g08.bks.cpg/sg13_43_cif.got.tgz:84764.got - 2010.06.03 16:44:36.
