data_PCOD9226229
_publ_section_title
;
Structure prediction by ZEFSAII (Michael W. Deem and Ramdas Pophale) SiO2 
 PCOD9226229
Probable space group: P 2/C
;
_chemical_formula_sum "Si O2"
_cell_formula_units_Z 28
_cell_length_a 12.168566
_cell_length_b 12.342236
_cell_length_c 14.791844
_cell_angle_alpha 90.000000
_cell_angle_beta 40.028558
_cell_angle_gamma 90.000000
_cell_volume 1428.831140
_symmetry_space_group_name_H-M "P 2/C"
_symmetry_group_IT_number 13
_symmetry_cell_setting 'monoclinic'
loop_
_space_group_symop_operation_xyz
x,y,z
-x,y,1/2-z
-x,-y,-z
x,-y,1/2+z
loop_
_atom_site_type_symbol
_atom_site_label
_atom_site_fract_x
_atom_site_fract_y
_atom_site_fract_z
Si Si1 0.166605 0.953134 0.991038
Si Si2 0.796023 0.111263 0.695265
Si Si3 0.206306 0.642608 0.119763
Si Si4 0.620423 0.123206 0.981049
Si Si5 0.177072 0.629816 0.333187
Si Si6 0.354354 0.779796 0.765845
Si Si7 0.775878 0.565948 0.585342
O O1 0.202061 0.848166 0.905040
O O2 0.210231 0.051993 0.897051
O O3 0.288868 0.952213 0.001135
O O4 0.966046 0.937986 0.136800
O O5 0.644204 0.088435 0.862481
O O6 0.806529 0.240581 0.672566
O O7 0.268046 0.766220 0.079055
O O8 0.254543 0.596044 0.187040
O O9 0.000000 0.641924 0.250000
O O10 0.275708 0.586371 0.986007
O O11 0.432587 0.162682 0.129097
O O12 0.254861 0.555417 0.362288
O O13 0.976913 0.597280 0.459899
O O14 0.500000 0.792168 0.750000
O O15 0.308959 0.653867 0.794376
#
# Coordination Sequence:
#
# PCOD9226229 Si02
#       7
#     4   4   4   4   4   4   4
#     4  10  18  31  53  73  99 130 175 208 241 295
#     4  10  19  32  51  74 102 132 169 209 252 291
#     4   9  15  28  49  72  94 126 171 201 236 287
#     4  10  18  31  52  75  98 128 171 211 244 292
#     4   9  18  29  51  77  96 130 163 210 249 295
#     4  10  18  30  51  78  95 130 167 209 244 290
#     4  10  16  30  52  72 104 124 167 207 250 292
#
# _framework density 19.596437000000002
#
# number of rings (size 3 to 8) (size 9 to 14) (size 15 to 20)
#    0.000    2.286    4.286    2.143    0.000    0.571 
#    0.000    2.857    3.143    6.000    0.000    0.000 
#    0.000    0.000    0.000    0.000    0.000    0.000 
#
# Total GULP energy -155982.232305 kJ/mol
# GULP energy per Si atom -5570.794011 kJ/mol
# Density = 1.955184 g / cm^3
# Si number density = 19.596437 Si / 1000 Ang^3
#
#
#
# Elastic Constant Matrix: (Units=GPa)
#
#
# Indices 1 2 3 4 5 6 
#
# 1 25.4994 17.8341 8.2952 0.0000 16.0802 0.0000
# 2 17.8341 82.6798 19.0298 0.0000 29.3088 0.0000
# 3 8.2952 19.0298 84.6361 0.0000 9.1898 0.0000
# 4 0.0000 0.0000 0.0000 18.1615 0.0000 12.8703
# 5 16.0802 29.3088 9.1898 0.0000 20.8654 0.0000
# 6 0.0000 0.0000 0.0000 12.8703 0.0000 20.0284
#
#
#
# Elastic Compliance Matrix: (Units=1/GPa)
#
#
# Indices 1 2 3 4 5 6 
#
# 1 0.079892 0.009431 -0.001919 0.000000 -0.073971 0.000000
# 2 0.009431 0.025476 -0.002077 0.000000 -0.042138 0.000000
# 3 -0.001919 -0.002077 0.012595 0.000000 -0.001151 0.000000
# 4 0.000000 0.000000 0.000000 0.101103 0.000000 -0.064969
# 5 -0.073971 -0.042138 -0.001151 0.000000 0.164630 0.000000
# 6 0.000000 0.000000 0.000000 -0.064969 0.000000 0.091679
#
#
# Mechanical properties :
#
#
# Convention : Reuss Voigt Hill
#
# Bulk Modulus (GPa) = 7.76196 31.45926 19.61061
# Shear Modulus (GPa) = 9.85319 21.65481 15.75400
#
# Velocity S-wave (km/s) = 2.24476 3.32782 2.83843
# Velocity P-wave (km/s) = 3.26927 5.55466 4.55754
#
# Compressibility (1/GPa) = 0.12883337
#
# Stress axis : x y z
#
# Youngs Moduli (GPa) = 12.51686 39.25258 79.39444
#
# Poissons Ratio (x) = -0.37018 0.15234
# Poissons Ratio (y) = -0.11804 0.16490
# Poissons Ratio (z) = 0.02402 0.08153
#
# Static dielectric constant tensor:
#      x y z
#    x 1.716100 0.000000 -0.005700 
#    y 0.000000 1.700900 0.000000 
#    z -0.005700 0.000000 1.767850 
# 
# From -- ./inp_files/53516.got.cif
#   From: 2010.05.17/outbox.cif.g08.bks.cpg/sg13_27_cif.got.tgz:53516.got - 2010.06.03 16:44:36.
