data_PCOD9226012
_publ_section_title
;
Structure prediction by ZEFSAII (Michael W. Deem and Ramdas Pophale) SiO2 
 PCOD9226012
Probable space group: P 2/C
;
_chemical_formula_sum "Si O2"
_cell_formula_units_Z 28
_cell_length_a 31.629770
_cell_length_b 9.233968
_cell_length_c 5.454244
_cell_angle_alpha 90.000000
_cell_angle_beta 58.379020
_cell_angle_gamma 90.000000
_cell_volume 1356.505220
_symmetry_space_group_name_H-M "P 2/C"
_symmetry_group_IT_number 13
_symmetry_cell_setting 'monoclinic'
loop_
_space_group_symop_operation_xyz
x,y,z
-x,y,1/2-z
-x,-y,-z
x,-y,1/2+z
loop_
_atom_site_type_symbol
_atom_site_label
_atom_site_fract_x
_atom_site_fract_y
_atom_site_fract_z
Si Si1 0.052366 0.092887 0.541485
Si Si2 0.553041 0.252911 0.012392
Si Si3 0.839196 0.904094 0.728136
Si Si4 0.364701 0.504332 0.778078
Si Si5 0.305370 0.854697 0.761007
Si Si6 0.413341 0.179641 0.090169
Si Si7 0.733322 0.819854 0.122665
O O1 0.106008 0.165603 0.417164
O O2 0.000000 0.172568 0.750000
O O3 0.051848 0.027700 0.265472
O O4 0.500000 0.317041 0.250000
O O5 0.567508 0.147515 0.194776
O O6 0.594867 0.375584 0.854504
O O7 0.550917 0.177701 0.753370
O O8 0.836202 0.989294 0.476624
O O9 0.791291 0.801749 0.892750
O O10 0.335390 0.500236 0.617049
O O11 0.396467 0.652007 0.674242
O O12 0.361667 0.891980 0.663864
O O13 0.299672 0.780197 0.513635
O O14 0.276146 0.005799 0.826116
O O15 0.283496 0.768056 0.058881
#
# Coordination Sequence:
#
# PCOD9226012 Si02
#       7
#     4   4   4   4   4   4   4
#     4   8  14  20  29  45  67  92 114 146 189 223
#     4  10  19  31  46  64  83  97 110 131 168 217
#     4  10  14  23  36  51  70  89 124 157 192 227
#     4   8  16  27  41  59  82 100 113 128 162 205
#     4  10  18  28  41  57  77  92 123 156 189 219
#     4  10  19  29  42  63  80  98 116 142 174 211
#     4  10  17  28  41  57  69  98 128 164 199 208
#
# _framework density 20.641276000000001
#
# number of rings (size 3 to 8) (size 9 to 14) (size 15 to 20)
#    0.000    2.571    2.857    1.286    0.000    5.143 
#    0.000    0.000    0.000    0.000    0.000   40.000 
#    0.000    0.000    0.000    0.000    0.000    0.000 
#
# Total GULP energy -155902.147875 kJ/mol
# GULP energy per Si atom -5567.933853 kJ/mol
# Density = 2.059430 g / cm^3
# Si number density = 20.641276 Si / 1000 Ang^3
#
#
#
# Elastic Constant Matrix: (Units=GPa)
#
#
# Indices 1 2 3 4 5 6 
#
# 1 90.4191 4.0270 37.9360 0.0000 12.2748 0.0000
# 2 4.0270 40.6893 2.7716 0.0000 4.9731 0.0000
# 3 37.9360 2.7716 118.3890 0.0000 27.1174 0.0000
# 4 0.0000 0.0000 0.0000 0.0883 0.0000 2.0409
# 5 12.2748 4.9731 27.1174 0.0000 68.3635 0.0000
# 6 0.0000 0.0000 0.0000 2.0409 0.0000 9.5317
#
#
#
# Elastic Compliance Matrix: (Units=1/GPa)
#
#
# Indices 1 2 3 4 5 6 
#
# 1 0.012845 -0.000920 -0.003940 0.000000 -0.000677 0.000000
# 2 -0.000920 0.024867 0.000098 0.000000 -0.001683 0.000000
# 3 -0.003940 0.000098 0.010500 0.000000 -0.003465 0.000000
# 4 0.000000 0.000000 0.000000 -2.867712 0.000000 0.614028
# 5 -0.000677 -0.001683 -0.003465 0.000000 0.016246 0.000000
# 6 0.000000 0.000000 0.000000 0.614028 0.000000 -0.026562
#
#
# Mechanical properties :
#
#
# Convention : Reuss Voigt Hill
#
# Bulk Modulus (GPa) = 25.84708 37.66295 31.75501
# Shear Modulus (GPa) = -1.78101 29.24755 13.73327
#
# Velocity S-wave (km/s) = -0.92990 3.76832 2.58220
# Velocity P-wave (km/s) = 3.37584 6.10079 4.93031
#
# Compressibility (1/GPa) = 0.03868910
#
# Stress axis : x y z
#
# Youngs Moduli (GPa) = 77.84932 40.21466 95.23395
#
# Poissons Ratio (x) = 0.03701 0.37518
# Poissons Ratio (y) = 0.07164 -0.00935
# Poissons Ratio (z) = 0.30669 -0.00395
#
# Static dielectric constant tensor:
#      x y z
#    x 1.850860 0.000000 0.060250 
#    y 0.000000 1.767580 0.000000 
#    z 0.060250 0.000000 1.834560 
# 
# From -- ./inp_files/8172.got.cif
#   From: 2010.05.17/outbox.cif.g08.bks.cpg/sg13_5_cif.got.tgz:8172.got - 2010.06.03 16:44:36.
