data_PCOD9226236
_publ_section_title
;
Structure prediction by ZEFSAII (Michael W. Deem and Ramdas Pophale) SiO2 
 PCOD9226236
Probable space group: P 2/C
;
_chemical_formula_sum "Si O2"
_cell_formula_units_Z 28
_cell_length_a 19.595081
_cell_length_b 13.926391
_cell_length_c 5.401140
_cell_angle_alpha 90.000000
_cell_angle_beta 73.846897
_cell_angle_gamma 90.000000
_cell_volume 1415.722948
_symmetry_space_group_name_H-M "P 2/C"
_symmetry_group_IT_number 13
_symmetry_cell_setting 'monoclinic'
loop_
_space_group_symop_operation_xyz
x,y,z
-x,y,1/2-z
-x,-y,-z
x,-y,1/2+z
loop_
_atom_site_type_symbol
_atom_site_label
_atom_site_fract_x
_atom_site_fract_y
_atom_site_fract_z
Si Si1 0.382584 0.751437 0.154365
Si Si2 0.249653 0.964814 0.674743
Si Si3 0.420199 0.539612 0.075215
Si Si4 0.413648 0.959009 0.986404
Si Si5 0.803498 0.562654 0.700535
Si Si6 0.293314 0.750444 0.742485
Si Si7 0.030405 0.609196 0.969308
O O1 0.424935 0.653610 0.073843
O O2 0.351361 0.748127 0.462700
O O3 0.422157 0.851564 0.075890
O O4 0.325328 0.750891 0.987510
O O5 0.255988 0.852846 0.732811
O O6 0.215484 0.981579 0.441973
O O7 0.328781 0.013014 0.559149
O O8 0.384719 0.499310 0.360600
O O9 0.500000 0.500000 0.000000
O O10 0.438987 0.971321 0.680228
O O11 0.792875 0.497828 0.464679
O O12 0.754413 0.656501 0.741252
O O13 0.885200 0.598691 0.615884
O O14 0.000000 0.655046 0.750000
O O15 0.000000 0.655055 0.250000
O O16 0.000000 0.500000 0.000000
#
# Coordination Sequence:
#
# PCOD9226236 Si02
#       7
#     4   4   4   4   4   4   4
#     4  12  21  35  57  81 106 149 175 208 270 329
#     4  10  16  32  51  70 107 142 173 208 255 321
#     4  10  23  42  60  78 102 142 192 224 244 300
#     4  10  16  30  53  77 105 131 175 212 257 318
#     4  12  23  35  47  75 113 149 175 226 261 311
#     4  12  23  32  51  83 117 144 172 212 274 336
#     4  10  16  32  56  66  86 141 196 219 262 296
#
# _framework density 19.777882999999999
#
# number of rings (size 3 to 8) (size 9 to 14) (size 15 to 20)
#    0.000    1.143    8.571    1.714    0.000    3.429 
#    0.000    0.000    0.000    0.000    0.000   12.000 
#    0.000    3.429    0.000    0.000    0.000    0.000 
#
# Total GULP energy -156335.903924 kJ/mol
# GULP energy per Si atom -5583.425140 kJ/mol
# Density = 1.973287 g / cm^3
# Si number density = 19.777883 Si / 1000 Ang^3
#
#
#
# Elastic Constant Matrix: (Units=GPa)
#
#
# Indices 1 2 3 4 5 6 
#
# 1 31.5018 7.1822 11.0033 0.0000 -0.4012 0.0000
# 2 7.1822 103.9093 6.3915 0.0000 -12.3225 0.0000
# 3 11.0033 6.3915 126.0050 0.0000 27.0669 0.0000
# 4 0.0000 0.0000 0.0000 22.0496 0.0000 5.0874
# 5 -0.4012 -12.3225 27.0669 0.0000 21.7494 0.0000
# 6 0.0000 0.0000 0.0000 5.0874 0.0000 5.2850
#
#
#
# Elastic Compliance Matrix: (Units=1/GPa)
#
#
# Indices 1 2 3 4 5 6 
#
# 1 0.033484 -0.001549 -0.003807 0.000000 0.004478 0.000000
# 2 -0.001549 0.010963 -0.002387 0.000000 0.009154 0.000000
# 3 -0.003807 -0.002387 0.011868 0.000000 -0.016192 0.000000
# 4 0.000000 0.000000 0.000000 0.058301 0.000000 -0.056120
# 5 0.004478 0.009154 -0.016192 0.000000 0.071398 0.000000
# 6 0.000000 0.000000 0.000000 -0.056120 0.000000 0.243235
#
#
# Mechanical properties :
#
#
# Convention : Reuss Voigt Hill
#
# Bulk Modulus (GPa) = 24.49285 34.50779 29.50032
# Shear Modulus (GPa) = 10.90879 25.60609 18.25744
#
# Velocity S-wave (km/s) = 2.35109 3.60207 3.04159
# Velocity P-wave (km/s) = 4.44758 5.89792 5.22334
#
# Compressibility (1/GPa) = 0.04082825
#
# Stress axis : x y z
#
# Youngs Moduli (GPa) = 29.86474 91.21435 84.26021
#
# Poissons Ratio (x) = 0.14131 0.32081
# Poissons Ratio (y) = 0.04627 0.20113
# Poissons Ratio (z) = 0.11371 0.21773
#
# Static dielectric constant tensor:
#      x y z
#    x 1.745420 0.000000 0.069590 
#    y 0.000000 1.671870 0.000000 
#    z 0.069590 0.000000 1.936730 
# 
# From -- ./inp_files/6901.got.cif
#   From: 2010.05.17/outbox.cif.g08.bks.cpg/sg13_4_cif.got.tgz:6901.got - 2010.06.03 16:44:36.
