data_PCOD9226164
_publ_section_title
;
Structure prediction by ZEFSAII (Michael W. Deem and Ramdas Pophale) SiO2 
 PCOD9226164
Probable space group: P 2/C
;
_chemical_formula_sum "Si O2"
_cell_formula_units_Z 24
_cell_length_a 10.560471
_cell_length_b 8.228719
_cell_length_c 20.077604
_cell_angle_alpha 90.000000
_cell_angle_beta 136.505974
_cell_angle_gamma 90.000000
_cell_volume 1200.858636
_symmetry_space_group_name_H-M "P 2/C"
_symmetry_group_IT_number 13
_symmetry_cell_setting 'monoclinic'
loop_
_space_group_symop_operation_xyz
x,y,z
-x,y,1/2-z
-x,-y,-z
x,-y,1/2+z
loop_
_atom_site_type_symbol
_atom_site_label
_atom_site_fract_x
_atom_site_fract_y
_atom_site_fract_z
Si Si1 0.969623 0.997558 0.130631
Si Si2 0.000000 0.748934 0.750000
Si Si3 0.343556 0.817455 0.055130
Si Si4 0.686568 0.218586 0.606245
Si Si5 0.844167 0.674157 0.307237
Si Si6 0.786009 0.520170 0.572476
Si Si7 0.500000 0.717307 0.250000
O O1 0.828823 0.902596 0.126170
O O2 0.099186 0.858259 0.151040
O O3 0.062619 0.134367 0.212862
O O4 0.840769 0.082557 0.027278
O O5 0.156752 0.637544 0.843783
O O6 0.503159 0.864984 0.063489
O O7 0.425353 0.821269 0.159606
O O8 0.299256 0.631915 0.017000
O O9 0.781432 0.300677 0.707020
O O10 0.658980 0.369805 0.545935
O O11 0.672552 0.619443 0.285932
O O12 0.020874 0.559796 0.376778
#
# Coordination Sequence:
#
# PCOD9226164 Si02
#       7
#     4   2   4   4   4   4   2
#     4  10  18  32  57  86 107 140 173 224 279 321
#     4  10  16  28  52  92 110 122 170 220 276 332
#     4  10  22  33  55  79 110 145 182 220 262 319
#     4  10  17  34  54  87 113 138 163 231 279 330
#     4  10  19  36  59  75 114 146 178 216 269 324
#     4  10  18  32  57  86 107 140 173 224 279 321
#     4  10  24  40  52  72 108 158 190 220 250 308
#
# _framework density 19.985700000000001
#
# number of rings (size 3 to 8) (size 9 to 14) (size 15 to 20)
#    0.000    2.000    3.333    2.000    0.000    1.333 
#    0.000    0.000    0.000    8.000    0.000    0.000 
#    0.000    0.000    0.000    0.000    0.000    0.000 
#
# Total GULP energy -133857.448494 kJ/mol
# GULP energy per Si atom -5577.393687 kJ/mol
# Density = 1.994021 g / cm^3
# Si number density = 19.985700 Si / 1000 Ang^3
#
#
#
# Elastic Constant Matrix: (Units=GPa)
#
#
# Indices 1 2 3 4 5 6 
#
# 1 70.4730 5.6924 20.4472 0.0000 0.0268 0.0000
# 2 5.6924 59.4192 21.0034 0.0000 -10.3952 0.0000
# 3 20.4472 21.0034 87.2367 0.0000 -12.0829 0.0000
# 4 0.0000 0.0000 0.0000 20.2117 0.0000 5.4240
# 5 0.0268 -10.3952 -12.0829 0.0000 19.8026 0.0000
# 6 0.0000 0.0000 0.0000 5.4240 0.0000 9.0478
#
#
#
# Elastic Compliance Matrix: (Units=1/GPa)
#
#
# Indices 1 2 3 4 5 6 
#
# 1 0.015348 -0.000584 -0.003825 0.000000 -0.002661 0.000000
# 2 -0.000584 0.019526 -0.003435 0.000000 0.008155 0.000000
# 3 -0.003825 -0.003435 0.014132 0.000000 0.006825 0.000000
# 4 0.000000 0.000000 0.000000 0.058962 0.000000 -0.035347
# 5 -0.002661 0.008155 0.006825 0.000000 0.058947 0.000000
# 6 0.000000 0.000000 0.000000 -0.035347 0.000000 0.131714
#
#
# Mechanical properties :
#
#
# Convention : Reuss Voigt Hill
#
# Bulk Modulus (GPa) = 30.01362 34.60166 32.30764
# Shear Modulus (GPa) = 15.36456 21.14481 18.25469
#
# Velocity S-wave (km/s) = 2.77569 3.25622 3.02551
# Velocity P-wave (km/s) = 5.03217 5.61142 5.32967
#
# Compressibility (1/GPa) = 0.03331821
#
# Stress axis : x y z
#
# Youngs Moduli (GPa) = 65.15543 51.21278 70.76144
#
# Poissons Ratio (x) = 0.02989 0.27069
# Poissons Ratio (y) = 0.03803 0.24306
# Poissons Ratio (z) = 0.24925 0.17591
#
# Static dielectric constant tensor:
#      x y z
#    x 1.729340 0.000000 0.014050 
#    y 0.000000 1.723070 0.000000 
#    z 0.014050 0.000000 1.718160 
# 
# From -- ./inp_files/52918.got.cif
#   From: 2010.05.17/outbox.cif.g08.bks.cpg/sg13_27_cif.got.tgz:52918.got - 2010.06.03 16:44:36.
