data_PCOD9226277
_publ_section_title
;
Structure prediction by ZEFSAII (Michael W. Deem and Ramdas Pophale) SiO2 
 PCOD9226277
Probable space group: P 2/C
;
_chemical_formula_sum "Si O2"
_cell_formula_units_Z 26
_cell_length_a 5.227337
_cell_length_b 13.779256
_cell_length_c 19.965709
_cell_angle_alpha 90.000000
_cell_angle_beta 64.830115
_cell_angle_gamma 90.000000
_cell_volume 1301.559191
_symmetry_space_group_name_H-M "P 2/C"
_symmetry_group_IT_number 13
_symmetry_cell_setting 'monoclinic'
loop_
_space_group_symop_operation_xyz
x,y,z
-x,y,1/2-z
-x,-y,-z
x,-y,1/2+z
loop_
_atom_site_type_symbol
_atom_site_label
_atom_site_fract_x
_atom_site_fract_y
_atom_site_fract_z
Si Si1 0.500000 0.315993 0.750000
Si Si2 0.994126 0.660128 0.110555
Si Si3 0.836679 0.515233 0.837321
Si Si4 0.212688 0.170291 0.677472
Si Si5 0.435008 0.893143 0.480614
Si Si6 0.338802 0.644210 0.836365
Si Si7 0.134213 0.222193 0.473527
O O1 0.352627 0.246933 0.712169
O O2 0.708053 0.375646 0.678933
O O3 0.211870 0.578512 0.110410
O O4 0.050013 0.762464 0.141846
O O5 0.998396 0.689429 0.032943
O O6 0.553269 0.572119 0.850602
O O7 0.000000 0.485660 0.750000
O O8 0.051094 0.588754 0.849694
O O9 0.439336 0.113838 0.608698
O O10 0.000000 0.112746 0.750000
O O11 0.614826 0.822234 0.509157
O O12 0.112558 0.856173 0.512848
O O13 0.500000 0.000000 0.500000
O O14 0.500000 0.672306 0.750000
O O15 0.261050 0.733917 0.892067
#
# Coordination Sequence:
#
# PCOD9226277 Si02
#       7
#     2   4   4   4   4   4   4
#     4  10  16  32  54  82 120 154 194 232 312 362
#     4  10  21  31  57  86 122 158 198 242 305 353
#     4  10  21  35  56  87 119 160 209 251 284 339
#     4   9  19  34  55  87 120 157 186 240 302 371
#     4  11  23  42  65  90 117 152 197 250 310 368
#     4  10  23  40  59  83 120 167 210 248 285 338
#     4  11  23  42  62  87 120 158 198 249 308 367
#
# _framework density 19.976040999999999
#
# number of rings (size 3 to 8) (size 9 to 14) (size 15 to 20)
#    0.000    1.846    1.538    2.769    5.385    1.231 
#    0.000    1.538    0.000    0.000    0.000    0.000 
#    0.000    0.000    0.000    0.000    0.000    0.000 
#
# Total GULP energy -145030.324118 kJ/mol
# GULP energy per Si atom -5578.089389 kJ/mol
# Density = 1.993058 g / cm^3
# Si number density = 19.976041 Si / 1000 Ang^3
#
#
#
# Elastic Constant Matrix: (Units=GPa)
#
#
# Indices 1 2 3 4 5 6 
#
# 1 76.9376 -5.3463 11.8273 0.0000 3.5302 0.0000
# 2 -5.3463 40.4126 35.5066 0.0000 1.5544 0.0000
# 3 11.8273 35.5066 96.6796 0.0000 2.7777 0.0000
# 4 0.0000 0.0000 0.0000 12.4863 0.0000 11.0040
# 5 3.5302 1.5544 2.7777 0.0000 22.3454 0.0000
# 6 0.0000 0.0000 0.0000 11.0040 0.0000 22.2017
#
#
#
# Elastic Compliance Matrix: (Units=1/GPa)
#
#
# Indices 1 2 3 4 5 6 
#
# 1 0.013977 0.004989 -0.003481 0.000000 -0.002122 0.000000
# 2 0.004989 0.038331 -0.014641 0.000000 -0.001635 0.000000
# 3 -0.003481 -0.014641 0.016159 0.000000 -0.000440 0.000000
# 4 0.000000 0.000000 0.000000 0.142202 0.000000 -0.070480
# 5 -0.002122 -0.001635 -0.000440 0.000000 0.045256 0.000000
# 6 0.000000 0.000000 0.000000 -0.070480 0.000000 0.079974
#
#
# Mechanical properties :
#
#
# Convention : Reuss Voigt Hill
#
# Bulk Modulus (GPa) = 23.69599 33.11167 28.40383
# Shear Modulus (GPa) = 13.28969 22.87616 18.08292
#
# Velocity S-wave (km/s) = 2.58210 3.38772 3.01197
# Velocity P-wave (km/s) = 4.55825 5.64924 5.13281
#
# Compressibility (1/GPa) = 0.04220123
#
# Stress axis : x y z
#
# Youngs Moduli (GPa) = 71.54724 26.08835 61.88496
#
# Poissons Ratio (x) = -0.13016 0.21544
# Poissons Ratio (y) = -0.35697 0.90606
# Poissons Ratio (z) = 0.24907 0.38196
#
# Static dielectric constant tensor:
#      x y z
#    x 1.796500 0.000000 -0.046260 
#    y 0.000000 1.696550 0.000000 
#    z -0.046260 0.000000 1.751710 
# 
# From -- ./inp_files/73389.got.cif
#   From: 2010.05.17/outbox.cif.g08.bks.cpg/sg13_37_cif.got.tgz:73389.got - 2010.06.03 16:44:36.
