data_PCOD9226757
_publ_section_title
;
Structure prediction by ZEFSAII (Michael W. Deem and Ramdas Pophale) SiO2 
 PCOD9226757
Probable space group: P 2/C
;
_chemical_formula_sum "Si O2"
_cell_formula_units_Z 28
_cell_length_a 5.136889
_cell_length_b 18.102476
_cell_length_c 18.796836
_cell_angle_alpha 90.000000
_cell_angle_beta 75.138105
_cell_angle_gamma 90.000000
_cell_volume 1689.451911
_symmetry_space_group_name_H-M "P 2/C"
_symmetry_group_IT_number 13
_symmetry_cell_setting 'monoclinic'
loop_
_space_group_symop_operation_xyz
x,y,z
-x,y,1/2-z
-x,-y,-z
x,-y,1/2+z
loop_
_atom_site_type_symbol
_atom_site_label
_atom_site_fract_x
_atom_site_fract_y
_atom_site_fract_z
Si Si1 0.720254 0.591036 0.043646
Si Si2 0.219370 0.244152 0.003589
Si Si3 0.624338 0.779205 0.604817
Si Si4 0.176127 0.490833 0.598417
Si Si5 0.000000 0.575732 0.750000
Si Si6 0.340550 0.913234 0.469040
Si Si7 0.500000 0.680583 0.750000
Si Si8 0.749456 0.064085 0.066252
O O1 0.449776 0.553929 0.092147
O O2 0.967730 0.562871 0.073442
O O3 0.710839 0.678743 0.037589
O O4 0.760386 0.556876 0.961734
O O5 0.385537 0.235499 0.065506
O O6 0.904184 0.241406 0.045897
O O7 0.300334 0.172007 0.951802
O O8 0.582937 0.731197 0.677613
O O9 0.645885 0.867073 0.619414
O O10 0.055655 0.525506 0.677615
O O11 0.745838 0.628209 0.754389
O O12 0.604877 0.920921 0.499639
O O13 0.071496 0.929610 0.535397
O O14 0.332614 0.979539 0.412499
#
# Coordination Sequence:
#
# PCOD9226757 Si02
#       8
#     4   4   4   4   2   4   2   4
#     4  10  19  33  50  71  94 119 155 198 241 283
#     4  10  18  30  48  69  95 120 154 199 244 277
#     4  10  19  29  44  68  96 128 155 190 232 279
#     4  10  21  34  50  68  92 124 155 192 241 287
#     4  12  24  38  52  70  96 128 162 194 234 294
#     4   8  14  24  41  63  87 117 144 178 222 267
#     4  12  22  32  48  68  94 126 162 188 224 280
#     4   8  14  25  39  60  91 118 145 174 215 265
#
# _framework density 16.573422999999998
#
# number of rings (size 3 to 8) (size 9 to 14) (size 15 to 20)
#    0.000    2.286    0.000    4.286    0.000    2.286 
#    0.000    0.000    0.000    0.000    0.000    2.000 
#    0.000    0.000    0.000    0.000    0.000    0.000 
#
# Total GULP energy -156053.105480 kJ/mol
# GULP energy per Si atom -5573.325196 kJ/mol
# Density = 1.653570 g / cm^3
# Si number density = 16.573423 Si / 1000 Ang^3
#
#
#
# Elastic Constant Matrix: (Units=GPa)
#
#
# Indices 1 2 3 4 5 6 
#
# 1 69.8300 -3.5277 -11.8208 0.0000 -5.8266 0.0000
# 2 -3.5277 136.4370 21.3920 0.0000 -5.6060 0.0000
# 3 -11.8208 21.3920 37.8199 0.0000 -7.3248 0.0000
# 4 0.0000 0.0000 0.0000 6.3409 0.0000 -0.5299
# 5 -5.8266 -5.6060 -7.3248 0.0000 11.7646 0.0000
# 6 0.0000 0.0000 0.0000 -0.5299 0.0000 18.7612
#
#
#
# Elastic Compliance Matrix: (Units=1/GPa)
#
#
# Indices 1 2 3 4 5 6 
#
# 1 0.016740 -0.000271 0.007922 0.000000 0.013094 0.000000
# 2 -0.000271 0.008060 -0.004464 0.000000 0.000927 0.000000
# 3 0.007922 -0.004464 0.036149 0.000000 0.024303 0.000000
# 4 0.000000 0.000000 0.000000 0.158080 0.000000 0.004465
# 5 0.013094 0.000927 0.024303 0.000000 0.107059 0.000000
# 6 0.000000 0.000000 0.000000 0.004465 0.000000 0.053428
#
#
# Mechanical properties :
#
#
# Convention : Reuss Voigt Hill
#
# Bulk Modulus (GPa) = 14.85399 28.46377 21.65888
# Shear Modulus (GPa) = 12.63949 23.24289 17.94119
#
# Velocity S-wave (km/s) = 2.76458 3.74895 3.29375
# Velocity P-wave (km/s) = 4.37865 5.99593 5.24994
#
# Compressibility (1/GPa) = 0.06732198
#
# Stress axis : x y z
#
# Youngs Moduli (GPa) = 59.73597 124.06262 27.66316
#
# Poissons Ratio (x) = 0.03364 -0.21914
# Poissons Ratio (y) = 0.01620 0.12350
# Poissons Ratio (z) = -0.47321 0.55387
#
# Static dielectric constant tensor:
#      x y z
#    x 1.560530 0.000000 -0.001320 
#    y 0.000000 1.606890 0.000000 
#    z -0.001320 0.000000 1.512510 
# 
# From -- ./inp_files/44278.got.cif
#   From: 2010.05.17/outbox.cif.g08.bks.cpg/sg13_23_cif.got.tgz:44278.got - 2010.06.03 16:44:36.
