data_PCOD9226152
_publ_section_title
;
Structure prediction by ZEFSAII (Michael W. Deem and Ramdas Pophale) SiO2 
 PCOD9226152
Probable space group: P 2/C
;
_chemical_formula_sum "Si O2"
_cell_formula_units_Z 24
_cell_length_a 23.516142
_cell_length_b 11.271357
_cell_length_c 29.688984
_cell_angle_alpha 90.000000
_cell_angle_beta 8.563578
_cell_angle_gamma 90.000000
_cell_volume 1171.796181
_symmetry_space_group_name_H-M "P 2/C"
_symmetry_group_IT_number 13
_symmetry_cell_setting 'monoclinic'
loop_
_space_group_symop_operation_xyz
x,y,z
-x,y,1/2-z
-x,-y,-z
x,-y,1/2+z
loop_
_atom_site_type_symbol
_atom_site_label
_atom_site_fract_x
_atom_site_fract_y
_atom_site_fract_z
Si Si1 0.413014 0.188732 0.102759
Si Si2 0.488172 0.235885 0.947674
Si Si3 0.625622 0.938407 0.199099
Si Si4 0.766814 0.686294 0.978794
Si Si5 0.910675 0.383605 0.541378
Si Si6 0.534217 0.989449 0.865961
O O1 0.074091 0.096036 0.352595
O O2 0.237391 0.311483 0.259199
O O3 0.591497 0.120454 0.005237
O O4 0.638421 0.214487 0.880247
O O5 0.766697 0.292697 0.692937
O O6 0.385278 0.108747 0.006488
O O7 0.108465 0.319692 0.247357
O O8 0.500000 0.990312 0.250000
O O9 0.445751 0.807425 0.343716
O O10 0.457585 0.010282 0.372886
O O11 0.000000 0.698702 0.750000
O O12 0.431038 0.596511 0.227611
O O13 0.000000 0.500000 0.500000
O O14 0.000000 0.000000 0.500000
#
# Coordination Sequence:
#
# PCOD9226152 Si02
#       6
#     4   4   4   4   4   4
#     4  10  20  32  53  82 113 147 182 228 289 339
#     4  11  18  32  59  80 110 142 192 229 285 337
#     4  10  16  27  49  79 113 139 179 224 279 327
#     4   9  16  30  50  79 100 137 185 234 270 319
#     4  10  21  35  51  79 114 146 188 244 286 321
#     4  10  18  32  48  83 120 141 169 235 290 342
#
# _framework density 20.481376999999998
#
# number of rings (size 3 to 8) (size 9 to 14) (size 15 to 20)
#    0.000    2.000    8.333    0.500    0.000    0.667 
#    0.000    0.000    0.000    0.000   17.333    0.000 
#    0.000    0.000    0.000    0.000    0.000    0.000 
#
# Total GULP energy -133635.692496 kJ/mol
# GULP energy per Si atom -5568.153854 kJ/mol
# Density = 2.043476 g / cm^3
# Si number density = 20.481377 Si / 1000 Ang^3
#
#
#
# Elastic Constant Matrix: (Units=GPa)
#
#
# Indices 1 2 3 4 5 6 
#
# 1 140.7741 26.9373 -0.2854 0.0000 15.6160 0.0000
# 2 26.9373 50.2259 -1.9065 0.0000 -3.6080 0.0000
# 3 -0.2854 -1.9065 20.2612 0.0000 3.5518 0.0000
# 4 0.0000 0.0000 0.0000 7.2099 0.0000 -7.2079
# 5 15.6160 -3.6080 3.5518 0.0000 23.8421 0.0000
# 6 0.0000 0.0000 0.0000 -7.2079 0.0000 19.5898
#
#
#
# Elastic Compliance Matrix: (Units=1/GPa)
#
#
# Indices 1 2 3 4 5 6 
#
# 1 0.008842 -0.005192 0.000810 0.000000 -0.006698 0.000000
# 2 -0.005192 0.023217 0.000924 0.000000 0.006777 0.000000
# 3 0.000810 0.000924 0.050850 0.000000 -0.007966 0.000000
# 4 0.000000 0.000000 0.000000 0.219403 0.000000 0.080728
# 5 -0.006698 0.006777 -0.007966 0.000000 0.048542 0.000000
# 6 0.000000 0.000000 0.000000 0.080728 0.000000 0.080750
#
#
# Mechanical properties :
#
#
# Convention : Reuss Voigt Hill
#
# Bulk Modulus (GPa) = 13.15943 28.97244 21.06593
# Shear Modulus (GPa) = 10.77929 22.56273 16.67101
#
# Velocity S-wave (km/s) = 2.29661 3.32267 2.85609
# Velocity P-wave (km/s) = 3.67036 5.37556 4.60262
#
# Compressibility (1/GPa) = 0.07599115
#
# Stress axis : x y z
#
# Youngs Moduli (GPa) = 113.09958 43.07238 19.66556
#
# Poissons Ratio (x) = 0.22365 -0.01593
# Poissons Ratio (y) = 0.58726 -0.01816
# Poissons Ratio (z) = -0.09162 -0.03978
#
# Static dielectric constant tensor:
#      x y z
#    x 1.824280 0.000000 -0.061950 
#    y 0.000000 1.734810 0.000000 
#    z -0.061950 0.000000 1.847140 
# 
# From -- ./inp_files/53752.got.cif
#   From: 2010.05.17/outbox.cif.g08.bks.cpg/sg13_27_cif.got.tgz:53752.got - 2010.06.03 16:44:36.
