data_PCOD9226782
_publ_section_title
;
Structure prediction by ZEFSAII (Michael W. Deem and Ramdas Pophale) SiO2 
 PCOD9226782
Probable space group: P 2/C
;
_chemical_formula_sum "Si O2"
_cell_formula_units_Z 30
_cell_length_a 22.209461
_cell_length_b 7.626873
_cell_length_c 8.751768
_cell_angle_alpha 90.000000
_cell_angle_beta 107.437810
_cell_angle_gamma 90.000000
_cell_volume 1414.321618
_symmetry_space_group_name_H-M "P 2/C"
_symmetry_group_IT_number 13
_symmetry_cell_setting 'monoclinic'
loop_
_space_group_symop_operation_xyz
x,y,z
-x,y,1/2-z
-x,-y,-z
x,-y,1/2+z
loop_
_atom_site_type_symbol
_atom_site_label
_atom_site_fract_x
_atom_site_fract_y
_atom_site_fract_z
Si Si1 0.804723 0.257864 0.932119
Si Si2 0.229336 0.449771 0.302633
Si Si3 0.263685 0.742225 0.537395
Si Si4 0.044422 0.094340 0.157993
Si Si5 0.872183 0.098711 0.535870
Si Si6 0.586064 0.902580 0.558716
Si Si7 0.500000 0.112462 0.250000
Si Si8 0.331257 0.099647 0.639615
O O1 0.814923 0.420855 0.829160
O O2 0.847824 0.088804 0.952126
O O3 0.731875 0.196899 0.855304
O O4 0.807308 0.330162 0.105678
O O5 0.273769 0.578870 0.434541
O O6 0.265765 0.329928 0.210610
O O7 0.307018 0.910988 0.558159
O O8 0.190982 0.803969 0.459463
O O9 0.082007 0.952705 0.290515
O O10 0.000000 0.189795 0.250000
O O11 0.093020 0.190326 0.080619
O O12 0.000000 0.000000 0.000000
O O13 0.548059 0.798739 0.663799
O O14 0.622498 0.050914 0.686285
O O15 0.540289 0.994398 0.399182
O O16 0.634707 0.810153 0.479111
#
# Coordination Sequence:
#
# PCOD9226782 Si02
#       8
#     4   4   4   4   4   4   2   4
#     4  10  20  32  49  74 103 130 159 191 241 297
#     4  10  20  32  44  70 108 135 156 190 230 298
#     4  10  20  32  49  74 103 130 159 191 241 297
#     4   9  18  30  48  78  98 115 158 214 246 268
#     4  10  18  33  54  74  96 128 162 199 238 287
#     4   9  16  27  46  68 102 128 156 200 248 280
#     4   8  16  28  40  68 104 128 152 200 256 282
#     4  10  18  30  50  75 100 128 160 199 238 287
#
# _framework density 21.211582
#
# number of rings (size 3 to 8) (size 9 to 14) (size 15 to 20)
#    0.000    2.400    0.000    3.200    0.000    4.267 
#    0.000    0.000    0.000    0.000    0.000  235.200 
#    0.000  985.600    0.000    0.000    0.000    0.000 
#
# Total GULP energy -167094.295693 kJ/mol
# GULP energy per Si atom -5569.809856 kJ/mol
# Density = 2.116330 g / cm^3
# Si number density = 21.211582 Si / 1000 Ang^3
#
#
#
# Elastic Constant Matrix: (Units=GPa)
#
#
# Indices 1 2 3 4 5 6 
#
# 1 83.7780 7.1565 44.3638 0.0000 -14.2879 0.0000
# 2 7.1565 32.5489 -4.9801 0.0000 -1.9239 0.0000
# 3 44.3638 -4.9801 124.4854 0.0000 -0.8273 0.0000
# 4 0.0000 0.0000 0.0000 30.9733 0.0000 -6.5789
# 5 -14.2879 -1.9239 -0.8273 0.0000 47.6770 0.0000
# 6 0.0000 0.0000 0.0000 -6.5789 0.0000 -6.1528
#
#
#
# Elastic Compliance Matrix: (Units=1/GPa)
#
#
# Indices 1 2 3 4 5 6 
#
# 1 0.016208 -0.004198 -0.005914 0.000000 0.004585 0.000000
# 2 -0.004198 0.032076 0.002780 0.000000 0.000085 0.000000
# 3 -0.005914 0.002780 0.010242 0.000000 -0.001482 0.000000
# 4 0.000000 0.000000 0.000000 0.026310 0.000000 -0.028133
# 5 0.004585 0.000085 -0.001482 0.000000 0.022326 0.000000
# 6 0.000000 0.000000 0.000000 -0.028133 0.000000 -0.132448
#
#
# Mechanical properties :
#
#
# Convention : Reuss Voigt Hill
#
# Bulk Modulus (GPa) = 22.79808 37.09921 29.94865
# Shear Modulus (GPa) = 1249.98526 27.45100 638.71813
#
# Velocity S-wave (km/s) = 24.30171 3.60133 17.37157
# Velocity P-wave (km/s) = 28.25247 5.90092 20.40861
#
# Compressibility (1/GPa) = 0.04386334
#
# Stress axis : x y z
#
# Youngs Moduli (GPa) = 61.69618 31.17578 97.63760
#
# Poissons Ratio (x) = 0.13086 0.57741
# Poissons Ratio (y) = 0.25897 -0.27140
# Poissons Ratio (z) = 0.36486 -0.08666
#
# Static dielectric constant tensor:
#      x y z
#    x 1.896240 0.000000 -0.007710 
#    y 0.000000 1.689860 0.000000 
#    z -0.007710 0.000000 1.802250 
# 
# From -- ./inp_files/23965.got.cif
#   From: 2010.05.17/outbox.cif.g08.bks.cpg/sg13_12_cif.got.tgz:23965.got - 2010.06.03 16:44:36.
