data_PCOD9226712
_publ_section_title
;
Structure prediction by ZEFSAII (Michael W. Deem and Ramdas Pophale) SiO2 
 PCOD9226712
Probable space group: P 2/C
;
_chemical_formula_sum "Si O2"
_cell_formula_units_Z 28
_cell_length_a 5.433352
_cell_length_b 11.700518
_cell_length_c 24.978474
_cell_angle_alpha 90.000000
_cell_angle_beta 134.126750
_cell_angle_gamma 90.000000
_cell_volume 1139.837873
_symmetry_space_group_name_H-M "P 2/C"
_symmetry_group_IT_number 13
_symmetry_cell_setting 'monoclinic'
loop_
_space_group_symop_operation_xyz
x,y,z
-x,y,1/2-z
-x,-y,-z
x,-y,1/2+z
loop_
_atom_site_type_symbol
_atom_site_label
_atom_site_fract_x
_atom_site_fract_y
_atom_site_fract_z
Si Si1 0.327924 0.975513 0.172874
Si Si2 0.787267 0.929444 0.011353
Si Si3 0.761803 0.122364 0.151214
Si Si4 0.248700 0.373968 0.664553
Si Si5 0.384710 0.382220 0.877464
Si Si6 0.910293 0.408418 0.054407
Si Si7 0.640523 0.641420 0.626706
O O1 0.500000 0.914600 0.250000
O O2 0.597066 0.045032 0.174516
O O3 0.067563 0.062923 0.164377
O O4 0.079177 0.899483 0.098222
O O5 0.551783 0.853719 0.937822
O O6 0.500000 0.000000 0.000000
O O7 0.000000 0.000000 0.000000
O O8 0.861831 0.251966 0.179504
O O9 0.500000 0.415317 0.750000
O O10 0.478899 0.318679 0.653815
O O11 0.929364 0.314965 0.644495
O O12 0.053463 0.471821 0.599595
O O13 0.260032 0.510640 0.842008
O O14 0.675989 0.406238 0.966226
O O15 0.687134 0.362373 0.069500
O O16 0.258516 0.344018 0.092275
#
# Coordination Sequence:
#
# PCOD9226712 Si02
#       7
#     4   4   4   4   4   4   4
#     4  10  19  33  50  71  98 132 161 186 227 286
#     4   8  16  30  49  67  92 122 155 193 226 268
#     4  10  19  32  47  73 102 125 158 199 238 279
#     4  10  18  29  45  67  90 115 151 200 245 282
#     4  10  19  33  48  66  92 126 167 204 232 282
#     4  10  19  33  50  67  92 127 169 202 230 283
#     4  10  18  30  48  69  93 125 161 198 240 278
#
# _framework density 24.564899
#
# number of rings (size 3 to 8) (size 9 to 14) (size 15 to 20)
#    0.000    2.286    0.000    6.000    0.000    0.000 
#    0.000   17.143    0.000    0.000    0.000   11.000 
#    0.000    0.000    0.000    0.000    0.000    0.000 
#
# Total GULP energy -156001.179762 kJ/mol
# GULP energy per Si atom -5571.470706 kJ/mol
# Density = 2.450899 g / cm^3
# Si number density = 24.564899 Si / 1000 Ang^3
#
#
#
# Elastic Constant Matrix: (Units=GPa)
#
#
# Indices 1 2 3 4 5 6 
#
# 1 221.4588 17.7448 16.0212 0.0000 -6.5703 0.0000
# 2 17.7448 36.0281 -4.6367 0.0000 -8.3857 0.0000
# 3 16.0212 -4.6367 139.6579 0.0000 -39.3926 0.0000
# 4 0.0000 0.0000 0.0000 -5.4930 0.0000 4.3176
# 5 -6.5703 -8.3857 -39.3926 0.0000 35.5521 0.0000
# 6 0.0000 0.0000 0.0000 4.3176 0.0000 22.5990
#
#
#
# Elastic Compliance Matrix: (Units=1/GPa)
#
#
# Indices 1 2 3 4 5 6 
#
# 1 0.004764 -0.002597 -0.000810 0.000000 -0.000630 0.000000
# 2 -0.002597 0.032637 0.004971 0.000000 0.012726 0.000000
# 3 -0.000810 0.004971 0.011211 0.000000 0.013444 0.000000
# 4 0.000000 0.000000 0.000000 -0.158280 0.000000 0.030240
# 5 -0.000630 0.012726 0.013444 0.000000 0.045910 0.000000
# 6 0.000000 0.000000 0.000000 0.030240 0.000000 0.038472
#
#
# Mechanical properties :
#
#
# Convention : Reuss Voigt Hill
#
# Bulk Modulus (GPa) = 19.32804 50.60039 34.96421
# Shear Modulus (GPa) = -447.72391 35.06597 -206.32897
#
# Velocity S-wave (km/s) = -13.51508 3.78230 -9.17473
# Velocity P-wave (km/s) = 15.35115 6.30221 9.89798
#
# Compressibility (1/GPa) = 0.05173831
#
# Stress axis : x y z
#
# Youngs Moduli (GPa) = 209.92741 30.63988 89.20175
#
# Poissons Ratio (x) = 0.07958 0.07230
# Poissons Ratio (y) = 0.54522 -0.44344
# Poissons Ratio (z) = 0.17014 -0.15232
#
# Static dielectric constant tensor:
#      x y z
#    x 2.008610 0.000000 -0.002270 
#    y 0.000000 1.973620 0.000000 
#    z -0.002270 0.000000 2.016160 
# 
# From -- ./inp_files/61686.got.cif
#   From: 2010.05.17/outbox.cif.g08.bks.cpg/sg13_31_cif.got.tgz:61686.got - 2010.06.03 16:44:36.
