data_PCOD9226446
_publ_section_title
;
Structure prediction by ZEFSAII (Michael W. Deem and Ramdas Pophale) SiO2 
 PCOD9226446
Probable space group: P 2/C
;
_chemical_formula_sum "Si O2"
_cell_formula_units_Z 32
_cell_length_a 18.588146
_cell_length_b 8.409418
_cell_length_c 14.065396
_cell_angle_alpha 90.000000
_cell_angle_beta 32.653232
_cell_angle_gamma 90.000000
_cell_volume 1186.282965
_symmetry_space_group_name_H-M "P 2/C"
_symmetry_group_IT_number 13
_symmetry_cell_setting 'monoclinic'
loop_
_space_group_symop_operation_xyz
x,y,z
-x,y,1/2-z
-x,-y,-z
x,-y,1/2+z
loop_
_atom_site_type_symbol
_atom_site_label
_atom_site_fract_x
_atom_site_fract_y
_atom_site_fract_z
Si Si1 0.251666 0.090063 0.867802
Si Si2 0.755897 0.256664 0.130875
Si Si3 0.208950 0.250883 0.630667
Si Si4 0.455176 0.392237 0.449162
Si Si5 0.127174 0.426372 0.175943
Si Si6 0.234031 0.416902 0.855707
Si Si7 0.198540 0.097268 0.154696
Si Si8 0.526483 0.230787 0.611475
O O1 0.176586 0.241177 0.906406
O O2 0.407888 0.139697 0.688430
O O3 0.219660 0.919867 0.861045
O O4 0.222334 0.080776 0.013258
O O5 0.598020 0.306112 0.304339
O O6 0.824527 0.410333 0.100956
O O7 0.804558 0.250382 0.968030
O O8 0.364334 0.278804 0.484087
O O9 0.146264 0.422896 0.722900
O O10 0.157030 0.082449 0.726699
O O11 0.366049 0.410258 0.643410
O O12 0.460492 0.575986 0.407599
O O13 0.119118 0.262526 0.241761
O O14 0.000000 0.442783 0.250000
O O15 0.244210 0.419479 0.962206
O O16 0.332456 0.147521 0.060889
O O17 0.500000 0.194859 0.750000
#
# Coordination Sequence:
#
# PCOD9226446 Si02
#       8
#     4   4   4   4   4   4   4   4
#     4   9  18  32  50  74 108 144 177 205 242 298
#     4  10  19  33  53  76 109 151 178 200 242 306
#     4  10  20  35  56  81 104 136 180 213 250 310
#     4  12  20  31  51  80 115 144 166 208 257 306
#     4  10  21  40  62  75  93 132 179 227 270 307
#     4  10  22  36  48  78 112 135 175 218 258 307
#     4   9  18  34  55  79 101 130 176 221 249 300
#     4  10  17  29  51  76 107 143 174 204 245 303
#
# _framework density 26.975013000000001
#
# number of rings (size 3 to 8) (size 9 to 14) (size 15 to 20)
#    0.000    2.000    2.500    2.250    0.000    3.000 
#    2.250    0.625    0.000    0.750    0.000    0.000 
#    0.000    0.000    0.000    0.000    0.000    0.000 
#
# Total GULP energy -178457.705527 kJ/mol
# GULP energy per Si atom -5576.803298 kJ/mol
# Density = 2.691362 g / cm^3
# Si number density = 26.975013 Si / 1000 Ang^3
#
#
#
# Elastic Constant Matrix: (Units=GPa)
#
#
# Indices 1 2 3 4 5 6 
#
# 1 47.8841 30.5068 20.2810 0.0000 -0.5220 0.0000
# 2 30.5068 333.9016 11.8795 0.0000 -6.7027 0.0000
# 3 20.2810 11.8795 65.6563 0.0000 -7.5301 0.0000
# 4 0.0000 0.0000 0.0000 -3.4038 0.0000 20.5795
# 5 -0.5220 -6.7027 -7.5301 0.0000 29.0487 0.0000
# 6 0.0000 0.0000 0.0000 20.5795 0.0000 12.6560
#
#
#
# Elastic Compliance Matrix: (Units=1/GPa)
#
#
# Indices 1 2 3 4 5 6 
#
# 1 0.025465 -0.002093 -0.007720 0.000000 -0.002026 0.000000
# 2 -0.002093 0.003195 0.000153 0.000000 0.000739 0.000000
# 3 -0.007720 0.000153 0.018114 0.000000 0.004592 0.000000
# 4 0.000000 0.000000 0.000000 -0.027124 0.000000 0.044106
# 5 -0.002026 0.000739 0.004592 0.000000 0.035750 0.000000
# 6 0.000000 0.000000 0.000000 0.044106 0.000000 0.007295
#
#
# Mechanical properties :
#
#
# Convention : Reuss Voigt Hill
#
# Bulk Modulus (GPa) = 36.42207 63.64184 50.03195
# Shear Modulus (GPa) = 54.84542 33.31181 44.07862
#
# Velocity S-wave (km/s) = 4.51399 3.51795 4.04673
# Velocity P-wave (km/s) = 6.37962 6.33604 6.35787
#
# Compressibility (1/GPa) = 0.02745588
#
# Stress axis : x y z
#
# Youngs Moduli (GPa) = 39.27034 312.94196 55.20462
#
# Poissons Ratio (x) = 0.65486 0.42616
# Poissons Ratio (y) = 0.08218 -0.00845
# Poissons Ratio (z) = 0.30316 -0.04789
#
# Static dielectric constant tensor:
#      x y z
#    x 2.147360 0.000000 -0.001820 
#    y 0.000000 2.179510 0.000000 
#    z -0.001820 0.000000 2.212780 
# 
# From -- ./inp_files/71123.got.cif
#   From: 2010.05.17/outbox.cif.g08.bks.cpg/sg13_36_cif.got.tgz:71123.got - 2010.06.03 16:44:36.
