data_PCOD9226797
_publ_section_title
;
Structure prediction by ZEFSAII (Michael W. Deem and Ramdas Pophale) SiO2 
 PCOD9226797
Probable space group: P 2/C
;
_chemical_formula_sum "Si O2"
_cell_formula_units_Z 24
_cell_length_a 9.280291
_cell_length_b 19.460895
_cell_length_c 15.139198
_cell_angle_alpha 90.000000
_cell_angle_beta 24.798807
_cell_angle_gamma 90.000000
_cell_volume 1146.806265
_symmetry_space_group_name_H-M "P 2/C"
_symmetry_group_IT_number 13
_symmetry_cell_setting 'monoclinic'
loop_
_space_group_symop_operation_xyz
x,y,z
-x,y,1/2-z
-x,-y,-z
x,-y,1/2+z
loop_
_atom_site_type_symbol
_atom_site_label
_atom_site_fract_x
_atom_site_fract_y
_atom_site_fract_z
Si Si1 0.226022 0.051773 0.483485
Si Si2 0.097887 0.676385 0.440958
Si Si3 0.105070 0.830864 0.439458
Si Si4 0.200616 0.458828 0.809229
Si Si5 0.020188 0.587466 0.642340
Si Si6 0.834249 0.087413 0.247982
O O1 0.500000 0.043984 0.250000
O O2 0.433483 0.069236 0.457794
O O3 0.981479 0.113353 0.587292
O O4 0.031730 0.980601 0.604104
O O5 0.500000 0.680702 0.250000
O O6 0.007163 0.753558 0.466973
O O7 0.043772 0.617845 0.396410
O O8 0.911935 0.642789 0.629354
O O9 0.500000 0.834788 0.250000
O O10 0.898084 0.852316 0.642241
O O11 0.599012 0.439117 0.595307
O O12 0.187215 0.516255 0.741916
O O13 0.000000 0.500000 0.000000
O O14 0.000000 0.619079 0.750000
O O15 0.000000 0.103900 0.250000
#
# Coordination Sequence:
#
# PCOD9226797 Si02
#       6
#     4   4   4   4   4   4
#     4  10  20  35  54  77 103 136 178 216 258 324
#     4   8  17  32  51  70  97 137 177 210 256 320
#     4  10  19  35  55  74 101 143 182 217 260 317
#     4   9  17  32  50  73 100 135 177 214 258 320
#     4  10  18  30  51  78 105 134 172 225 275 317
#     4  11  21  34  54  80 106 133 169 222 273 318
#
# _framework density 20.927683999999999
#
# number of rings (size 3 to 8) (size 9 to 14) (size 15 to 20)
#    0.000    2.333    0.000    6.000    0.000    0.667 
#    0.000   10.000    0.000    7.000    0.000    0.000 
#    0.000    0.000    0.000    0.000    0.000    0.000 
#
# Total GULP energy -133639.483671 kJ/mol
# GULP energy per Si atom -5568.311820 kJ/mol
# Density = 2.088005 g / cm^3
# Si number density = 20.927684 Si / 1000 Ang^3
#
#
#
# Elastic Constant Matrix: (Units=GPa)
#
#
# Indices 1 2 3 4 5 6 
#
# 1 57.9404 -9.3275 -7.3419 0.0000 -4.0683 0.0000
# 2 -9.3275 106.9598 1.8435 0.0000 -2.6494 0.0000
# 3 -7.3419 1.8435 42.3880 0.0000 -7.1929 0.0000
# 4 0.0000 0.0000 0.0000 13.5208 0.0000 -5.4504
# 5 -4.0683 -2.6494 -7.1929 0.0000 22.2289 0.0000
# 6 0.0000 0.0000 0.0000 -5.4504 0.0000 23.6960
#
#
#
# Elastic Compliance Matrix: (Units=1/GPa)
#
#
# Indices 1 2 3 4 5 6 
#
# 1 0.018362 0.001653 0.003928 0.000000 0.004829 0.000000
# 2 0.001653 0.009528 0.000123 0.000000 0.001478 0.000000
# 3 0.003928 0.000123 0.025808 0.000000 0.009085 0.000000
# 4 0.000000 0.000000 0.000000 0.081519 0.000000 0.018750
# 5 0.004829 0.001478 0.009085 0.000000 0.048986 0.000000
# 6 0.000000 0.000000 0.000000 0.018750 0.000000 0.046514
#
#
# Mechanical properties :
#
#
# Convention : Reuss Voigt Hill
#
# Bulk Modulus (GPa) = 15.35961 19.73737 17.54849
# Shear Modulus (GPa) = 20.74592 26.69674 23.72133
#
# Velocity S-wave (km/s) = 3.15193 3.57552 3.37039
# Velocity P-wave (km/s) = 4.53889 5.14757 4.85278
#
# Compressibility (1/GPa) = 0.06510583
#
# Stress axis : x y z
#
# Youngs Moduli (GPa) = 54.46027 104.95419 38.74742
#
# Poissons Ratio (x) = -0.17351 -0.15220
# Poissons Ratio (y) = -0.09003 -0.00476
# Poissons Ratio (z) = -0.21391 -0.01288
#
# Static dielectric constant tensor:
#      x y z
#    x 1.870600 0.000000 -0.038600 
#    y 0.000000 1.764820 0.000000 
#    z -0.038600 0.000000 1.831270 
# 
# From -- ./inp_files/48046.got.cif
#   From: 2010.05.17/outbox.cif.g08.bks.cpg/sg13_25_cif.got.tgz:48046.got - 2010.06.03 16:44:36.
