data_PCOD9226262
_publ_section_title
;
Structure prediction by ZEFSAII (Michael W. Deem and Ramdas Pophale) SiO2 
 PCOD9226262
Probable space group: P 2/C
;
_chemical_formula_sum "Si O2"
_cell_formula_units_Z 24
_cell_length_a 16.431849
_cell_length_b 14.929214
_cell_length_c 8.765640
_cell_angle_alpha 90.000000
_cell_angle_beta 152.150938
_cell_angle_gamma 90.000000
_cell_volume 1004.517991
_symmetry_space_group_name_H-M "P 2/C"
_symmetry_group_IT_number 13
_symmetry_cell_setting 'monoclinic'
loop_
_space_group_symop_operation_xyz
x,y,z
-x,y,1/2-z
-x,-y,-z
x,-y,1/2+z
loop_
_atom_site_type_symbol
_atom_site_label
_atom_site_fract_x
_atom_site_fract_y
_atom_site_fract_z
Si Si1 0.071695 0.327924 0.198386
Si Si2 0.687552 0.459997 0.770712
Si Si3 0.255751 0.164724 0.428122
Si Si4 0.361575 0.970051 0.643955
Si Si5 0.628252 0.796210 0.701960
Si Si6 0.000000 0.598828 0.250000
Si Si7 0.500000 0.335417 0.250000
O O1 0.244180 0.391185 0.487299
O O2 0.109131 0.221875 0.267020
O O3 0.000000 0.351059 0.250000
O O4 0.989591 0.350036 0.896615
O O5 0.500000 0.500000 0.500000
O O6 0.650983 0.398026 0.564595
O O7 0.829676 0.535356 0.972912
O O8 0.272489 0.214790 0.292770
O O9 0.250157 0.056261 0.407344
O O10 0.435066 0.179435 0.817964
O O11 0.500000 0.937517 0.750000
O O12 0.273002 0.880785 0.557516
O O13 0.500000 0.000000 0.000000
O O14 0.586594 0.722880 0.759234
#
# Coordination Sequence:
#
# PCOD9226262 Si02
#       7
#     4   4   4   4   4   2   2
#     4  12  28  50  76 105 148 204 257 321 394 460
#     4  12  28  47  77 112 149 195 256 320 391 471
#     4  10  21  39  61 100 148 186 241 304 370 451
#     4  10  16  31  58  99 146 183 223 300 375 439
#     4  10  20  34  65 107 148 184 238 308 378 447
#     4  12  30  56  76 106 158 202 256 332 396 458
#     4  12  24  40  72 116 144 194 254 308 382 476
#
# _framework density 23.892057999999999
#
# number of rings (size 3 to 8) (size 9 to 14) (size 15 to 20)
#    0.000    1.000    6.667    1.500    4.667    0.000 
#    0.000    0.000    0.000    1.000    0.000    1.167 
#    0.000    0.000    0.000    0.000    0.000    0.000 
#
# Total GULP energy -133843.165904 kJ/mol
# GULP energy per Si atom -5576.798579 kJ/mol
# Density = 2.383768 g / cm^3
# Si number density = 23.892058 Si / 1000 Ang^3
#
#
#
# Elastic Constant Matrix: (Units=GPa)
#
#
# Indices 1 2 3 4 5 6 
#
# 1 121.5085 57.6481 51.2232 0.0000 -19.8720 0.0000
# 2 57.6481 112.3380 37.1711 0.0000 3.0894 0.0000
# 3 51.2232 37.1711 74.3258 0.0000 -12.4938 0.0000
# 4 0.0000 0.0000 0.0000 38.6766 0.0000 -33.2738
# 5 -19.8720 3.0894 -12.4938 0.0000 36.9307 0.0000
# 6 0.0000 0.0000 0.0000 -33.2738 0.0000 55.6446
#
#
#
# Elastic Compliance Matrix: (Units=1/GPa)
#
#
# Indices 1 2 3 4 5 6 
#
# 1 0.014471 -0.005559 -0.006156 0.000000 0.006169 0.000000
# 2 -0.005559 0.013095 -0.003610 0.000000 -0.005308 0.000000
# 3 -0.006156 -0.003610 0.020142 0.000000 0.003803 0.000000
# 4 0.000000 0.000000 0.000000 0.053249 0.000000 0.031841
# 5 0.006169 -0.005308 0.003803 0.000000 0.032128 0.000000
# 6 0.000000 0.000000 0.000000 0.031841 0.000000 0.037011
#
#
# Mechanical properties :
#
#
# Convention : Reuss Voigt Hill
#
# Bulk Modulus (GPa) = 58.62469 66.69524 62.65997
# Shear Modulus (GPa) = 24.22105 37.05904 30.64004
#
# Velocity S-wave (km/s) = 3.18743 3.94268 3.58500
# Velocity P-wave (km/s) = 6.17550 6.97869 6.58935
#
# Compressibility (1/GPa) = 0.01705766
#
# Stress axis : x y z
#
# Youngs Moduli (GPa) = 69.10198 76.36604 49.64817
#
# Poissons Ratio (x) = 0.42451 0.30564
# Poissons Ratio (y) = 0.38413 0.17923
# Poissons Ratio (z) = 0.42540 0.27569
#
# Static dielectric constant tensor:
#      x y z
#    x 1.949960 0.000000 0.059250 
#    y 0.000000 1.974420 0.000000 
#    z 0.059250 0.000000 1.980790 
# 
# From -- ./inp_files/22012.got.cif
#   From: 2010.05.17/outbox.cif.g08.bks.cpg/sg13_12_cif.got.tgz:22012.got - 2010.06.03 16:44:36.
