data_PCOD9226106
_publ_section_title
;
Structure prediction by ZEFSAII (Michael W. Deem and Ramdas Pophale) SiO2 
 PCOD9226106
Probable space group: P 2/C
;
_chemical_formula_sum "Si O2"
_cell_formula_units_Z 18
_cell_length_a 24.810603
_cell_length_b 7.135302
_cell_length_c 5.449094
_cell_angle_alpha 90.000000
_cell_angle_beta 123.073283
_cell_angle_gamma 90.000000
_cell_volume 808.358754
_symmetry_space_group_name_H-M "P 2/C"
_symmetry_group_IT_number 13
_symmetry_cell_setting 'monoclinic'
loop_
_space_group_symop_operation_xyz
x,y,z
-x,y,1/2-z
-x,-y,-z
x,-y,1/2+z
loop_
_atom_site_type_symbol
_atom_site_label
_atom_site_fract_x
_atom_site_fract_y
_atom_site_fract_z
Si Si1 0.500000 0.622611 0.250000
Si Si2 0.307509 0.290401 0.698369
Si Si3 0.160531 0.620537 0.911686
Si Si4 0.972809 0.788876 0.932369
Si Si5 0.641448 0.277408 0.175073
O O1 0.500000 0.500000 0.500000
O O2 0.566614 0.734198 0.423570
O O3 0.232699 0.301266 0.578568
O O4 0.317786 0.206376 0.454652
O O5 0.336835 0.502258 0.747776
O O6 0.344475 0.201166 0.019594
O O7 0.153661 0.491411 0.651195
O O8 0.103890 0.772741 0.760125
O O9 0.000000 0.702935 0.750000
O O10 0.000000 0.703187 0.250000
O O11 0.000000 0.000000 0.000000
#
# Coordination Sequence:
#
# PCOD9226106 Si02
#       5
#     2   4   4   4   4
#     4  12  16  20  34  52  74 128 178 188 224 292
#     4  10  16  27  38  59  91 120 152 213 245 282
#     4  12  21  32  55  80 100 128 171 218 265 300
#     4  10  23  42  57  73 102 135 165 203 266 324
#     4  10  16  25  36  54  90 126 164 204 236 288
#
# _framework density 22.267341999999999
#
# number of rings (size 3 to 8) (size 9 to 14) (size 15 to 20)
#    0.000    1.333    8.889    1.333    0.000    2.667 
#    0.000    0.000    0.000    0.000    0.000    0.000 
#    0.000    0.000    0.000    0.000    0.000  151.111 
#
# Total GULP energy -100488.554596 kJ/mol
# GULP energy per Si atom -5582.697478 kJ/mol
# Density = 2.221666 g / cm^3
# Si number density = 22.267342 Si / 1000 Ang^3
#
#
#
# Elastic Constant Matrix: (Units=GPa)
#
#
# Indices 1 2 3 4 5 6 
#
# 1 89.6508 -10.7052 29.2113 0.0000 2.0296 0.0000
# 2 -10.7052 61.8991 -9.0920 0.0000 3.9608 0.0000
# 3 29.2113 -9.0920 123.0409 0.0000 -20.9173 0.0000
# 4 0.0000 0.0000 0.0000 -16.2315 0.0000 4.0409
# 5 2.0296 3.9608 -20.9173 0.0000 90.6318 0.0000
# 6 0.0000 0.0000 0.0000 4.0409 0.0000 -16.5369
#
#
#
# Elastic Compliance Matrix: (Units=1/GPa)
#
#
# Indices 1 2 3 4 5 6 
#
# 1 0.012360 0.001766 -0.002981 0.000000 -0.001042 0.000000
# 2 0.001766 0.016603 0.000705 0.000000 -0.000602 0.000000
# 3 -0.002981 0.000705 0.009257 0.000000 0.002172 0.000000
# 4 0.000000 0.000000 0.000000 -0.065599 0.000000 -0.016030
# 5 -0.001042 -0.000602 0.002172 0.000000 0.011585 0.000000
# 6 0.000000 0.000000 0.000000 -0.016030 0.000000 -0.064388
#
#
# Mechanical properties :
#
#
# Convention : Reuss Voigt Hill
#
# Bulk Modulus (GPa) = 26.88128 32.60212 29.74170
# Shear Modulus (GPa) = -74.89135 29.25112 -22.82012
#
# Velocity S-wave (km/s) = -5.80567 3.62834 -3.20476
# Velocity P-wave (km/s) = 5.73087 5.67681 0.55529
#
# Compressibility (1/GPa) = 0.03720062
#
# Stress axis : x y z
#
# Youngs Moduli (GPa) = 80.90449 60.23026 108.03203
#
# Poissons Ratio (x) = -0.10639 0.32205
# Poissons Ratio (y) = -0.14291 -0.07617
# Poissons Ratio (z) = 0.24118 -0.04247
#
# Static dielectric constant tensor:
#      x y z
#    x 1.818930 0.000000 -0.049730 
#    y 0.000000 1.886570 0.000000 
#    z -0.049730 0.000000 1.836830 
# 
# From -- ./inp_files/5813.got.cif
#   From: 2010.05.17/outbox.cif.g08.bks.cpg/sg13_3_cif.got.tgz:5813.got - 2010.06.03 16:44:36.
