data_PCOD9226872
_publ_section_title
;
Structure prediction by ZEFSAII (Michael W. Deem and Ramdas Pophale) SiO2 
 PCOD9226872
Probable space group: P 2/C
;
_chemical_formula_sum "Si O2"
_cell_formula_units_Z 24
_cell_length_a 21.659386
_cell_length_b 11.790349
_cell_length_c 24.207669
_cell_angle_alpha 90.000000
_cell_angle_beta 11.064393
_cell_angle_gamma 90.000000
_cell_volume 1186.391762
_symmetry_space_group_name_H-M "P 2/C"
_symmetry_group_IT_number 13
_symmetry_cell_setting 'monoclinic'
loop_
_space_group_symop_operation_xyz
x,y,z
-x,y,1/2-z
-x,-y,-z
x,-y,1/2+z
loop_
_atom_site_type_symbol
_atom_site_label
_atom_site_fract_x
_atom_site_fract_y
_atom_site_fract_z
Si Si1 0.451569 0.818341 0.630556
Si Si2 0.631618 0.960728 0.009804
Si Si3 0.332189 0.430009 0.215757
Si Si4 0.662551 0.355975 0.415410
Si Si5 0.276543 0.153972 0.729953
Si Si6 0.788412 0.180925 0.534529
O O1 0.377840 0.686354 0.709924
O O2 0.645640 0.826407 0.402567
O O3 0.619762 0.903696 0.525969
O O4 0.094516 0.868620 0.935694
O O5 0.509492 0.936067 0.054117
O O6 0.381177 0.895205 0.269262
O O7 0.979667 0.902524 0.704222
O O8 0.370620 0.386020 0.119634
O O9 0.000000 0.500000 0.500000
O O10 0.593746 0.524212 0.004490
O O11 0.371085 0.268350 0.680463
O O12 0.982584 0.283958 0.146603
O O13 0.500000 0.225684 0.750000
#
# Coordination Sequence:
#
# PCOD9226872 Si02
#       6
#     4   4   4   4   4   4
#     4  11  20  31  53  84 119 150 179 214 289 361
#     4  11  21  36  55  83 113 145 191 237 289 340
#     4  10  18  33  54  85 121 152 177 227 297 364
#     4   9  20  33  54  83 117 149 190 232 290 349
#     4  10  18  31  51  82 119 148 174 223 280 357
#     4  11  24  41  60  81 107 154 205 254 291 328
#
# _framework density 20.229406000000001
#
# number of rings (size 3 to 8) (size 9 to 14) (size 15 to 20)
#    0.000    1.667    1.667    5.500    2.333    0.000 
#    0.000    0.000    0.000    1.000    4.333    0.000 
#    0.000    0.000    0.000    0.000    0.000    0.000 
#
# Total GULP energy -133676.263472 kJ/mol
# GULP energy per Si atom -5569.844311 kJ/mol
# Density = 2.018336 g / cm^3
# Si number density = 20.229406 Si / 1000 Ang^3
#
#
#
# Elastic Constant Matrix: (Units=GPa)
#
#
# Indices 1 2 3 4 5 6 
#
# 1 35.2859 19.5799 21.1629 0.0000 3.0276 0.0000
# 2 19.5799 159.9972 39.0621 0.0000 -8.3263 0.0000
# 3 21.1629 39.0621 106.4083 0.0000 -3.1542 0.0000
# 4 0.0000 0.0000 0.0000 26.2969 0.0000 6.0279
# 5 3.0276 -8.3263 -3.1542 0.0000 25.9256 0.0000
# 6 0.0000 0.0000 0.0000 6.0279 0.0000 13.1921
#
#
#
# Elastic Compliance Matrix: (Units=1/GPa)
#
#
# Indices 1 2 3 4 5 6 
#
# 1 0.033996 -0.003035 -0.005815 0.000000 -0.005652 0.000000
# 2 -0.003035 0.007231 -0.001979 0.000000 0.002436 0.000000
# 3 -0.005815 -0.001979 0.011323 0.000000 0.001421 0.000000
# 4 0.000000 0.000000 0.000000 0.042476 0.000000 -0.019409
# 5 -0.005652 0.002436 0.001421 0.000000 0.040187 0.000000
# 6 0.000000 0.000000 0.000000 -0.019409 0.000000 0.084671
#
#
# Mechanical properties :
#
#
# Convention : Reuss Voigt Hill
#
# Bulk Modulus (GPa) = 32.36919 51.25568 41.81243
# Shear Modulus (GPa) = 19.85387 27.87538 23.86462
#
# Velocity S-wave (km/s) = 3.13619 3.71612 3.43840
# Velocity P-wave (km/s) = 5.39908 6.61853 6.03966
#
# Compressibility (1/GPa) = 0.03089358
#
# Stress axis : x y z
#
# Youngs Moduli (GPa) = 29.41495 138.28594 88.31765
#
# Poissons Ratio (x) = 0.41968 0.51355
# Poissons Ratio (y) = 0.08927 0.17476
# Poissons Ratio (z) = 0.17104 0.27364
#
# Static dielectric constant tensor:
#      x y z
#    x 1.731400 0.000000 0.017400 
#    y 0.000000 1.892100 0.000000 
#    z 0.017400 0.000000 1.770350 
# 
# From -- ./inp_files/89540.got.cif
#   From: 2010.05.17/outbox.cif.g08.bks.cpg/sg13_45_cif.got.tgz:89540.got - 2010.06.03 16:44:36.
