data_PCOD9226239
_publ_section_title
;
Structure prediction by ZEFSAII (Michael W. Deem and Ramdas Pophale) SiO2 
 PCOD9226239
Probable space group: P 2/C
;
_chemical_formula_sum "Si O2"
_cell_formula_units_Z 30
_cell_length_a 28.194669
_cell_length_b 8.720540
_cell_length_c 15.995804
_cell_angle_alpha 90.000000
_cell_angle_beta 24.590335
_cell_angle_gamma 90.000000
_cell_volume 1636.600868
_symmetry_space_group_name_H-M "P 2/C"
_symmetry_group_IT_number 13
_symmetry_cell_setting 'monoclinic'
loop_
_space_group_symop_operation_xyz
x,y,z
-x,y,1/2-z
-x,-y,-z
x,-y,1/2+z
loop_
_atom_site_type_symbol
_atom_site_label
_atom_site_fract_x
_atom_site_fract_y
_atom_site_fract_z
Si Si1 0.063603 0.581915 0.514381
Si Si2 0.577999 0.578596 0.495642
Si Si3 0.769612 0.842094 0.640257
Si Si4 0.724757 0.379970 0.369439
Si Si5 0.812071 0.638416 0.898769
Si Si6 0.000000 0.326574 0.750000
Si Si7 0.653675 0.622418 0.712982
Si Si8 0.220398 0.203784 0.870691
O O1 0.171202 0.504707 0.295847
O O2 0.022005 0.442553 0.639216
O O3 0.117812 0.717235 0.483305
O O4 0.946443 0.637106 0.659861
O O5 0.615624 0.476499 0.514229
O O6 0.447037 0.622803 0.693131
O O7 0.611968 0.476427 0.359960
O O8 0.663073 0.722187 0.351532
O O9 0.744254 0.747747 0.766469
O O10 0.891099 0.779416 0.415197
O O11 0.683984 0.785351 0.704851
O O12 0.774079 0.022264 0.645553
O O13 0.732587 0.310336 0.449058
O O14 0.762499 0.470862 0.004024
O O15 0.796105 0.741755 0.006930
#
# Coordination Sequence:
#
# PCOD9226239 Si02
#       8
#     4   4   4   4   4   2   4   4
#     4  10  17  34  51  73 101 142 176 220 258 319
#     4   8  17  35  53  76  96 136 172 225 255 314
#     4  10  20  33  50  80 107 145 169 223 265 332
#     4   9  20  33  52  75 106 132 179 223 275 302
#     4  11  18  32  53  78  99 138 180 228 259 319
#     4  10  16  30  54  70 102 134 190 218 250 298
#     4   9  17  33  57  74  99 129 187 213 255 309
#     4  10  20  32  54  76 109 142 181 211 276 319
#
# _framework density 18.330674999999999
#
# number of rings (size 3 to 8) (size 9 to 14) (size 15 to 20)
#    0.000    2.400    2.667    2.000    1.867    1.067 
#    0.000    3.333    0.000    0.000    0.000    0.000 
#    0.000    0.000    0.000    0.000    0.000    0.000 
#
# Total GULP energy -167095.689747 kJ/mol
# GULP energy per Si atom -5569.856325 kJ/mol
# Density = 1.828895 g / cm^3
# Si number density = 18.330675 Si / 1000 Ang^3
#
#
#
# Elastic Constant Matrix: (Units=GPa)
#
#
# Indices 1 2 3 4 5 6 
#
# 1 133.3846 46.9320 29.2699 0.0000 -22.8180 0.0000
# 2 46.9320 132.4118 25.7815 0.0000 -19.4231 0.0000
# 3 29.2699 25.7815 48.1783 0.0000 -20.7627 0.0000
# 4 0.0000 0.0000 0.0000 5.9592 0.0000 -3.2974
# 5 -22.8180 -19.4231 -20.7627 0.0000 31.5345 0.0000
# 6 0.0000 0.0000 0.0000 -3.2974 0.0000 12.9506
#
#
#
# Elastic Compliance Matrix: (Units=1/GPa)
#
#
# Indices 1 2 3 4 5 6 
#
# 1 0.009575 -0.002280 -0.003094 0.000000 0.003487 0.000000
# 2 -0.002280 0.009197 -0.002522 0.000000 0.002355 0.000000
# 3 -0.003094 -0.002522 0.031206 0.000000 0.016754 0.000000
# 4 0.000000 0.000000 0.000000 0.195327 0.000000 0.049733
# 5 0.003487 0.002355 0.016754 0.000000 0.046716 0.000000
# 6 0.000000 0.000000 0.000000 0.049733 0.000000 0.089879
#
#
# Mechanical properties :
#
#
# Convention : Reuss Voigt Hill
#
# Bulk Modulus (GPa) = 29.25209 57.54906 43.40058
# Shear Modulus (GPa) = 12.22238 24.22162 18.22200
#
# Velocity S-wave (km/s) = 2.58499 3.63901 3.15631
# Velocity P-wave (km/s) = 4.99021 7.00854 6.08366
#
# Compressibility (1/GPa) = 0.03418559
#
# Stress axis : x y z
#
# Youngs Moduli (GPa) = 104.44138 108.73598 32.04535
#
# Poissons Ratio (x) = 0.24789 0.09916
# Poissons Ratio (y) = 0.23810 0.08080
# Poissons Ratio (z) = 0.32319 0.27419
#
# Static dielectric constant tensor:
#      x y z
#    x 1.678270 0.000000 0.002990 
#    y 0.000000 1.593180 0.000000 
#    z 0.002990 0.000000 1.681590 
# 
# From -- ./inp_files/59402.got.cif
#   From: 2010.05.17/outbox.cif.g08.bks.cpg/sg13_30_cif.got.tgz:59402.got - 2010.06.03 16:44:36.
