data_PCOD9226740
_publ_section_title
;
Structure prediction by ZEFSAII (Michael W. Deem and Ramdas Pophale) SiO2 
 PCOD9226740
Probable space group: P 2/C
;
_chemical_formula_sum "Si O2"
_cell_formula_units_Z 20
_cell_length_a 6.639583
_cell_length_b 21.927128
_cell_length_c 5.505790
_cell_angle_alpha 90.000000
_cell_angle_beta 78.928055
_cell_angle_gamma 90.000000
_cell_volume 786.651577
_symmetry_space_group_name_H-M "P 2/C"
_symmetry_group_IT_number 13
_symmetry_cell_setting 'monoclinic'
loop_
_space_group_symop_operation_xyz
x,y,z
-x,y,1/2-z
-x,-y,-z
x,-y,1/2+z
loop_
_atom_site_type_symbol
_atom_site_label
_atom_site_fract_x
_atom_site_fract_y
_atom_site_fract_z
Si Si1 0.237012 0.477393 0.466011
Si Si2 0.631417 0.149409 0.470460
Si Si3 0.729276 0.663785 0.439743
Si Si4 0.740461 0.285939 0.434704
Si Si5 0.747553 0.974517 0.151021
O O1 0.318169 0.518355 0.670724
O O2 0.259019 0.408905 0.556302
O O3 0.000000 0.500000 0.500000
O O4 0.500000 0.139226 0.250000
O O5 0.746748 0.213083 0.414900
O O6 0.765310 0.090566 0.510876
O O7 0.500000 0.157877 0.750000
O O8 0.497498 0.690571 0.502686
O O9 0.822195 0.687380 0.667243
O O10 0.817152 0.688759 0.170363
O O11 0.500000 0.983420 0.250000
O O12 0.818772 0.979560 0.417496
#
# Coordination Sequence:
#
# PCOD9226740 Si02
#       5
#     4   4   4   4   4
#     4  10  21  37  54  70  87 111 142 179 220 274
#     4  11  16  25  39  53  82 114 151 193 221 259
#     4  10  18  32  48  65  90 112 142 182 222 272
#     4  10  18  30  43  68  90 119 148 184 228 264
#     4   9  16  23  31  49  73 108 153 198 222 235
#
# _framework density 25.424219000000001
#
# number of rings (size 3 to 8) (size 9 to 14) (size 15 to 20)
#    0.000    2.000    4.000    4.200    0.000    0.000 
#    0.000   12.000    0.000    0.000    0.000    0.000 
#    0.000    0.000    0.000    0.000    0.000    0.000 
#
# Total GULP energy -111765.951565 kJ/mol
# GULP energy per Si atom -5588.297578 kJ/mol
# Density = 2.536635 g / cm^3
# Si number density = 25.424219 Si / 1000 Ang^3
#
#
#
# Elastic Constant Matrix: (Units=GPa)
#
#
# Indices 1 2 3 4 5 6 
#
# 1 80.9608 15.3428 71.3641 0.0000 22.9423 0.0000
# 2 15.3428 178.6914 41.9760 0.0000 21.3539 0.0000
# 3 71.3641 41.9760 252.3634 0.0000 32.9882 0.0000
# 4 0.0000 0.0000 0.0000 22.1233 0.0000 70.1530
# 5 22.9423 21.3539 32.9882 0.0000 73.8611 0.0000
# 6 0.0000 0.0000 0.0000 70.1530 0.0000 -85.9375
#
#
#
# Elastic Compliance Matrix: (Units=1/GPa)
#
#
# Indices 1 2 3 4 5 6 
#
# 1 0.017207 -0.000038 -0.004421 0.000000 -0.003360 0.000000
# 2 -0.000038 0.005949 -0.000802 0.000000 -0.001350 0.000000
# 3 -0.004421 -0.000802 0.005455 0.000000 -0.000831 0.000000
# 4 0.000000 0.000000 0.000000 0.012596 0.000000 0.010282
# 5 -0.003360 -0.001350 -0.000831 0.000000 0.015344 0.000000
# 6 0.000000 0.000000 0.000000 0.010282 0.000000 -0.003243
#
#
# Mechanical properties :
#
#
# Convention : Reuss Voigt Hill
#
# Bulk Modulus (GPa) = 55.27847 85.48682 70.38265
# Shear Modulus (GPa) = 71.57193 27.56490 49.56841
#
# Velocity S-wave (km/s) = 5.31152 3.29629 4.42028
# Velocity P-wave (km/s) = 7.70752 6.94151 7.33452
#
# Compressibility (1/GPa) = 0.01809023
#
# Stress axis : x y z
#
# Youngs Moduli (GPa) = 58.11466 168.08726 183.32782
#
# Poissons Ratio (x) = 0.00631 0.81041
# Poissons Ratio (y) = 0.00218 0.14712
# Poissons Ratio (z) = 0.25690 0.13489
#
# Static dielectric constant tensor:
#      x y z
#    x 1.845310 0.000000 0.115630 
#    y 0.000000 1.949370 0.000000 
#    z 0.115630 0.000000 1.903630 
# 
# From -- ./inp_files/2097.got.cif
#   From: 2010.05.17/outbox.cif.g08.bks.cpg/sg13_2_cif.got.tgz:2097.got - 2010.06.03 16:44:36.
