data_PCOD9226890
_publ_section_title
;
Structure prediction by ZEFSAII (Michael W. Deem and Ramdas Pophale) SiO2 
 PCOD9226890
Probable space group: P 2/C
;
_chemical_formula_sum "Si O2"
_cell_formula_units_Z 20
_cell_length_a 9.678357
_cell_length_b 6.511390
_cell_length_c 20.324086
_cell_angle_alpha 90.000000
_cell_angle_beta 72.082970
_cell_angle_gamma 90.000000
_cell_volume 1218.699224
_symmetry_space_group_name_H-M "P 2/C"
_symmetry_group_IT_number 13
_symmetry_cell_setting 'monoclinic'
loop_
_space_group_symop_operation_xyz
x,y,z
-x,y,1/2-z
-x,-y,-z
x,-y,1/2+z
loop_
_atom_site_type_symbol
_atom_site_label
_atom_site_fract_x
_atom_site_fract_y
_atom_site_fract_z
Si Si1 0.828958 0.331576 0.962720
Si Si2 0.422141 0.379775 0.330854
Si Si3 0.447844 0.636608 0.069826
Si Si4 0.654311 0.001302 0.571228
Si Si5 0.833622 0.376584 0.588995
O O1 0.724325 0.358079 0.915814
O O2 0.998398 0.335773 0.921155
O O3 0.816621 0.511924 0.019795
O O4 0.759752 0.129230 0.007598
O O5 0.500000 0.369294 0.250000
O O6 0.505671 0.529421 0.369435
O O7 0.259025 0.473980 0.350419
O O8 0.414418 0.162669 0.369091
O O9 0.530607 0.855653 0.056267
O O10 0.500000 0.500000 0.000000
O O11 0.754353 0.160059 0.595752
#
# Coordination Sequence:
#
# PCOD9226890 Si02
#       5
#     4   4   4   4   4
#     4  10  18  31  53  85 109 133 171 226 270 313
#     4  10  22  37  53  75 108 148 181 215 264 325
#     4  11  19  34  56  84 107 135 177 226 267 308
#     4  10  18  31  54  80 111 136 178 218 268 318
#     4   9  19  33  53  78 111 139 172 217 274 313
#
# _framework density 16.410938999999999
#
# number of rings (size 3 to 8) (size 9 to 14) (size 15 to 20)
#    0.000    2.000    6.000    1.200    0.000    3.200 
#    0.000    1.000    0.000    0.000    0.000    0.000 
#    0.000    0.000    0.000    0.000    0.000    0.000 
#
# Total GULP energy -111357.510148 kJ/mol
# GULP energy per Si atom -5567.875507 kJ/mol
# Density = 1.637359 g / cm^3
# Si number density = 16.410939 Si / 1000 Ang^3
#
#
#
# Elastic Constant Matrix: (Units=GPa)
#
#
# Indices 1 2 3 4 5 6 
#
# 1 162.9951 53.8563 47.2195 0.0000 -6.2049 0.0000
# 2 53.8563 114.2587 41.7819 0.0000 -1.8601 0.0000
# 3 47.2195 41.7819 82.8041 0.0000 -13.8270 0.0000
# 4 0.0000 0.0000 0.0000 7.0471 0.0000 3.8060
# 5 -6.2049 -1.8601 -13.8270 0.0000 14.6190 0.0000
# 6 0.0000 0.0000 0.0000 3.8060 0.0000 24.8208
#
#
#
# Elastic Compliance Matrix: (Units=1/GPa)
#
#
# Indices 1 2 3 4 5 6 
#
# 1 0.007912 -0.002549 -0.003229 0.000000 -0.000020 0.000000
# 2 -0.002549 0.011804 -0.005264 0.000000 -0.004559 0.000000
# 3 -0.003229 -0.005264 0.019278 0.000000 0.016194 0.000000
# 4 0.000000 0.000000 0.000000 0.154715 0.000000 -0.023724
# 5 -0.000020 -0.004559 0.016194 0.000000 0.083131 0.000000
# 6 0.000000 0.000000 0.000000 -0.023724 0.000000 0.043927
#
#
# Mechanical properties :
#
#
# Convention : Reuss Voigt Hill
#
# Bulk Modulus (GPa) = 59.13454 71.75260 65.44357
# Shear Modulus (GPa) = 14.34769 23.77741 19.06255
#
# Velocity S-wave (km/s) = 2.96002 3.81054 3.41189
# Velocity P-wave (km/s) = 6.91333 7.94844 7.44888
#
# Compressibility (1/GPa) = 0.01691059
#
# Stress axis : x y z
#
# Youngs Moduli (GPa) = 126.38938 84.71568 51.87168
#
# Poissons Ratio (x) = 0.21593 0.16750
# Poissons Ratio (y) = 0.32215 0.27305
# Poissons Ratio (z) = 0.40813 0.44594
#
# Static dielectric constant tensor:
#      x y z
#    x 1.590890 0.000000 -0.008450 
#    y 0.000000 1.571840 0.000000 
#    z -0.008450 0.000000 1.525650 
# 
# From -- ./inp_files/62420.got.cif
#   From: 2010.05.17/outbox.cif.g08.bks.cpg/sg13_32_cif.got.tgz:62420.got - 2010.06.03 16:44:36.
