data_PCOD9226579
_publ_section_title
;
Structure prediction by ZEFSAII (Michael W. Deem and Ramdas Pophale) SiO2 
 PCOD9226579
Probable space group: P 2/C
;
_chemical_formula_sum "Si O2"
_cell_formula_units_Z 28
_cell_length_a 11.810222
_cell_length_b 7.212860
_cell_length_c 13.744717
_cell_angle_alpha 90.000000
_cell_angle_beta 59.180632
_cell_angle_gamma 90.000000
_cell_volume 1005.510722
_symmetry_space_group_name_H-M "P 2/C"
_symmetry_group_IT_number 13
_symmetry_cell_setting 'monoclinic'
loop_
_space_group_symop_operation_xyz
x,y,z
-x,y,1/2-z
-x,-y,-z
x,-y,1/2+z
loop_
_atom_site_type_symbol
_atom_site_label
_atom_site_fract_x
_atom_site_fract_y
_atom_site_fract_z
Si Si1 0.557523 0.801559 0.010097
Si Si2 0.187457 0.968209 0.064675
Si Si3 0.602294 0.329827 0.292505
Si Si4 0.099248 0.154374 0.818254
Si Si5 0.010934 0.426777 0.136495
Si Si6 0.370088 0.900577 0.241862
Si Si7 0.189128 0.624077 0.934194
O O1 0.563144 0.654700 0.920923
O O2 0.703282 0.868320 0.982412
O O3 0.438888 0.755352 0.136799
O O4 0.500000 0.000000 0.000000
O O5 0.168448 0.902167 0.185386
O O6 0.030343 0.972556 0.106346
O O7 0.239621 0.802784 0.971665
O O8 0.500000 0.341684 0.250000
O O9 0.717542 0.444417 0.192682
O O10 0.652332 0.116242 0.276041
O O11 0.047600 0.363799 0.830152
O O12 0.221782 0.149534 0.838035
O O13 0.938098 0.331993 0.077321
O O14 0.000000 0.343898 0.250000
O O15 0.154753 0.475123 0.031574
O O16 0.500000 0.918631 0.250000
#
# Coordination Sequence:
#
# PCOD9226579 Si02
#       7
#     4   4   4   4   4   4   4
#     4  10  18  33  57  86 123 156 193 237 293 357
#     4  10  17  33  57  87 112 151 195 237 290 356
#     4  10  20  33  55  87 118 152 195 237 288 359
#     4  10  18  33  60  82 115 154 191 238 301 346
#     4  10  20  38  60  84 113 156 200 254 298 344
#     4  10  20  35  57  86 121 158 195 236 296 366
#     4  10  20  36  60  87 111 154 206 238 297 356
#
# _framework density 27.846544999999999
#
# number of rings (size 3 to 8) (size 9 to 14) (size 15 to 20)
#    0.000    2.000    5.714    2.571    0.000    0.000 
#    0.000   12.857    0.000    1.714    0.000    0.000 
#    0.000    0.000    0.000    0.000    0.000    0.000 
#
# Total GULP energy -156094.672891 kJ/mol
# GULP energy per Si atom -5574.809746 kJ/mol
# Density = 2.778317 g / cm^3
# Si number density = 27.846545 Si / 1000 Ang^3
#
#
#
# Elastic Constant Matrix: (Units=GPa)
#
#
# Indices 1 2 3 4 5 6 
#
# 1 145.0637 56.0960 51.0881 0.0000 -10.8319 0.0000
# 2 56.0960 79.3659 16.0993 0.0000 -5.1152 0.0000
# 3 51.0881 16.0993 172.0511 0.0000 -12.5068 0.0000
# 4 0.0000 0.0000 0.0000 -12.0779 0.0000 0.1808
# 5 -10.8319 -5.1152 -12.5068 0.0000 54.8224 0.0000
# 6 0.0000 0.0000 0.0000 0.1808 0.0000 -10.8240
#
#
#
# Elastic Compliance Matrix: (Units=1/GPa)
#
#
# Indices 1 2 3 4 5 6 
#
# 1 0.010450 -0.006843 -0.002399 0.000000 0.000879 0.000000
# 2 -0.006843 0.017372 0.000433 0.000000 0.000368 0.000000
# 3 -0.002399 0.000433 0.006561 0.000000 0.001063 0.000000
# 4 0.000000 0.000000 0.000000 -0.082816 0.000000 -0.001383
# 5 0.000879 0.000368 0.001063 0.000000 0.018691 0.000000
# 6 0.000000 0.000000 0.000000 -0.001383 0.000000 -0.092411
#
#
# Mechanical properties :
#
#
# Convention : Reuss Voigt Hill
#
# Bulk Modulus (GPa) = 59.64316 71.44973 65.54645
# Shear Modulus (GPa) = -50.53266 24.59725 -12.96771
#
# Velocity S-wave (km/s) = -4.26453 2.97528 -2.16031
# Velocity P-wave (km/s) = 1.66832 6.12513 4.16737
#
# Compressibility (1/GPa) = 0.01676638
#
# Stress axis : x y z
#
# Youngs Moduli (GPa) = 95.69279 57.56292 152.40916
#
# Poissons Ratio (x) = 0.39390 0.36560
# Poissons Ratio (y) = 0.65482 -0.06600
# Poissons Ratio (z) = 0.22955 -0.02493
#
# Static dielectric constant tensor:
#      x y z
#    x 3.413370 0.000000 -0.129860 
#    y 0.000000 2.183960 0.000000 
#    z -0.129860 0.000000 2.447710 
# 
# From -- ./inp_files/50246.got.cif
#   From: 2010.05.17/outbox.cif.g08.bks.cpg/sg13_26_cif.got.tgz:50246.got - 2010.06.03 16:44:36.
