data_PCOD9226107
_publ_section_title
;
Structure prediction by ZEFSAII (Michael W. Deem and Ramdas Pophale) SiO2 
 PCOD9226107
Probable space group: P 2/C
;
_chemical_formula_sum "Si O2"
_cell_formula_units_Z 26
_cell_length_a 20.272355
_cell_length_b 16.612561
_cell_length_c 5.448739
_cell_angle_alpha 90.000000
_cell_angle_beta 117.260503
_cell_angle_gamma 90.000000
_cell_volume 1631.195143
_symmetry_space_group_name_H-M "P 2/C"
_symmetry_group_IT_number 13
_symmetry_cell_setting 'monoclinic'
loop_
_space_group_symop_operation_xyz
x,y,z
-x,y,1/2-z
-x,-y,-z
x,-y,1/2+z
loop_
_atom_site_type_symbol
_atom_site_label
_atom_site_fract_x
_atom_site_fract_y
_atom_site_fract_z
Si Si1 0.663823 0.402130 0.515732
Si Si2 0.918596 0.728135 0.063294
Si Si3 0.899269 0.546601 0.932941
Si Si4 0.085018 0.031104 0.609825
Si Si5 0.500000 0.553644 0.750000
Si Si6 0.275696 0.583958 0.881052
Si Si7 0.086201 0.215604 0.444607
O O1 0.575537 0.395211 0.377375
O O2 0.680364 0.498821 0.538271
O O3 0.698612 0.371587 0.321296
O O4 0.703971 0.372786 0.830719
O O5 0.929796 0.636516 0.000767
O O6 0.882786 0.733708 0.272463
O O7 0.000000 0.767054 0.250000
O O8 0.879564 0.770722 0.766501
O O9 0.918953 0.498133 0.213817
O O10 0.810172 0.560040 0.778967
O O11 0.086757 0.123278 0.528675
O O12 0.118202 0.981592 0.437217
O O13 0.000000 0.000000 0.500000
O O14 0.500000 0.500000 0.500000
O O15 0.000000 0.240148 0.250000
#
# Coordination Sequence:
#
# PCOD9226107 Si02
#       7
#     4   4   4   4   2   4   4
#     4  10  16  25  36  56  72  94 107 144 201 236
#     4  10  23  34  44  59  76 105 121 160 223 250
#     4  12  21  33  49  57  67  93 140 185 206 244
#     4  10  17  24  44  72  83 102 119 133 156 221
#     4  12  16  20  34  52  78  92 110 122 178 280
#     4  10  16  27  39  53  68  87 119 160 199 221
#     4  10  18  32  45  59  90 100 114 141 186 253
#
# _framework density 15.939233
#
# number of rings (size 3 to 8) (size 9 to 14) (size 15 to 20)
#    0.000    1.538    7.692    1.846    4.308    0.615 
#    0.000    0.000    0.000    0.000    0.000    0.000 
#    0.000    0.000    0.000    0.000    0.000    0.000 
#
# Total GULP energy -144833.616655 kJ/mol
# GULP energy per Si atom -5570.523717 kJ/mol
# Density = 1.590295 g / cm^3
# Si number density = 15.939233 Si / 1000 Ang^3
#
#
#
# Elastic Constant Matrix: (Units=GPa)
#
#
# Indices 1 2 3 4 5 6 
#
# 1 47.6456 2.6651 35.9527 0.0000 -14.1993 0.0000
# 2 2.6651 55.4289 27.4557 0.0000 -12.9724 0.0000
# 3 35.9527 27.4557 133.6510 0.0000 -52.3304 0.0000
# 4 0.0000 0.0000 0.0000 16.5033 0.0000 -9.4273
# 5 -14.1993 -12.9724 -52.3304 0.0000 41.2793 0.0000
# 6 0.0000 0.0000 0.0000 -9.4273 0.0000 3.4667
#
#
#
# Elastic Compliance Matrix: (Units=1/GPa)
#
#
# Indices 1 2 3 4 5 6 
#
# 1 0.026652 0.002546 -0.007525 0.000000 0.000429 0.000000
# 2 0.002546 0.020424 -0.004020 0.000000 0.002198 0.000000
# 3 -0.007525 -0.004020 0.017521 0.000000 0.018360 0.000000
# 4 0.000000 0.000000 0.000000 -0.109490 0.000000 -0.297747
# 5 0.000429 0.002198 0.018360 0.000000 0.048338 0.000000
# 6 0.000000 0.000000 0.000000 -0.297747 0.000000 -0.521230
#
#
# Mechanical properties :
#
#
# Convention : Reuss Voigt Hill
#
# Bulk Modulus (GPa) = 21.45933 40.98584 31.22258
# Shear Modulus (GPa) = -10.32513 23.62668 6.65078
#
# Velocity S-wave (km/s) = -2.54791 3.85424 2.04491
# Velocity P-wave (km/s) = 2.19923 6.75104 5.02061
#
# Compressibility (1/GPa) = 0.04659979
#
# Stress axis : x y z
#
# Youngs Moduli (GPa) = 37.52130 48.96112 57.07514
#
# Poissons Ratio (x) = -0.12466 0.42946
# Poissons Ratio (y) = -0.09553 0.22944
# Poissons Ratio (z) = 0.28233 0.19682
#
# Static dielectric constant tensor:
#      x y z
#    x 1.626460 0.000000 0.101040 
#    y 0.000000 1.522320 0.000000 
#    z 0.101040 0.000000 2.425870 
# 
# From -- ./inp_files/7015.got.cif
#   From: 2010.05.17/outbox.cif.g08.bks.cpg/sg13_4_cif.got.tgz:7015.got - 2010.06.03 16:44:36.
