data_PCOD9226138
_publ_section_title
;
Structure prediction by ZEFSAII (Michael W. Deem and Ramdas Pophale) SiO2 
 PCOD9226138
Probable space group: P 2/C
;
_chemical_formula_sum "Si O2"
_cell_formula_units_Z 24
_cell_length_a 9.120356
_cell_length_b 12.660712
_cell_length_c 9.898413
_cell_angle_alpha 90.000000
_cell_angle_beta 100.163276
_cell_angle_gamma 90.000000
_cell_volume 1125.037262
_symmetry_space_group_name_H-M "P 2/C"
_symmetry_group_IT_number 13
_symmetry_cell_setting 'monoclinic'
loop_
_space_group_symop_operation_xyz
x,y,z
-x,y,1/2-z
-x,-y,-z
x,-y,1/2+z
loop_
_atom_site_type_symbol
_atom_site_label
_atom_site_fract_x
_atom_site_fract_y
_atom_site_fract_z
Si Si1 0.500000 0.361054 0.250000
Si Si2 0.815832 0.629132 0.459419
Si Si3 0.757584 0.514642 0.192767
Si Si4 0.131879 0.865699 0.019517
Si Si5 0.000000 0.998940 0.250000
Si Si6 0.474442 0.087958 0.603668
Si Si7 0.470098 0.309760 0.948787
O O1 0.643672 0.434215 0.248587
O O2 0.520437 0.295661 0.388994
O O3 0.849622 0.572689 0.323842
O O4 0.838867 0.552535 0.590549
O O5 0.900356 0.740437 0.487709
O O6 0.634143 0.650322 0.428234
O O7 0.650687 0.602001 0.105691
O O8 0.308446 0.873463 0.055415
O O9 0.084128 0.923953 0.871910
O O10 0.077000 0.922742 0.149297
O O11 0.500000 0.034828 0.750000
O O12 0.570363 0.195515 0.617036
O O13 0.500000 0.000000 0.500000
#
# Coordination Sequence:
#
# PCOD9226138 Si02
#       7
#     2   4   4   4   2   4   4
#     4  10  16  26  46  74 108 166 202 214 266 356
#     4  10  19  31  54  83 120 146 203 240 296 352
#     4  11  16  31  49  82 123 163 187 231 286 383
#     4  10  22  42  66  92 111 162 211 269 305 360
#     4  10  22  46  72  82 110 156 236 270 298 350
#     4  11  23  37  57  92 135 157 187 249 324 390
#     4  10  18  29  49  75 121 167 193 226 278 370
#
# _framework density 21.332625
#
# number of rings (size 3 to 8) (size 9 to 14) (size 15 to 20)
#    0.000    1.667    3.333    4.000    1.167    0.000 
#    3.000    3.333    0.000    3.000    0.000    0.000 
#    0.000    0.000    0.000    0.000    0.000    0.000 
#
# Total GULP energy -133935.859753 kJ/mol
# GULP energy per Si atom -5580.660823 kJ/mol
# Density = 2.128407 g / cm^3
# Si number density = 21.332625 Si / 1000 Ang^3
#
#
#
# Elastic Constant Matrix: (Units=GPa)
#
#
# Indices 1 2 3 4 5 6 
#
# 1 21.6375 27.7334 14.3532 0.0000 1.7091 0.0000
# 2 27.7334 136.6693 78.5665 0.0000 -4.9605 0.0000
# 3 14.3532 78.5665 182.1599 0.0000 -7.6651 0.0000
# 4 0.0000 0.0000 0.0000 47.6315 0.0000 3.5995
# 5 1.7091 -4.9605 -7.6651 0.0000 13.9536 0.0000
# 6 0.0000 0.0000 0.0000 3.5995 0.0000 19.6143
#
#
#
# Elastic Compliance Matrix: (Units=1/GPa)
#
#
# Indices 1 2 3 4 5 6 
#
# 1 0.064636 -0.013751 0.000306 0.000000 -0.012637 0.000000
# 2 -0.013751 0.012674 -0.004220 0.000000 0.003872 0.000000
# 3 0.000306 -0.004220 0.007392 0.000000 0.002523 0.000000
# 4 0.000000 0.000000 0.000000 0.021290 0.000000 -0.003907
# 5 -0.012637 0.003872 0.002523 0.000000 0.075976 0.000000
# 6 0.000000 0.000000 0.000000 -0.003907 0.000000 0.051700
#
#
# Mechanical properties :
#
#
# Convention : Reuss Voigt Hill
#
# Bulk Modulus (GPa) = 20.25421 64.64143 42.44782
# Shear Modulus (GPa) = 17.51593 30.89411 24.20502
#
# Velocity S-wave (km/s) = 2.86857 3.80966 3.37211
# Velocity P-wave (km/s) = 4.52622 7.05116 5.92476
#
# Compressibility (1/GPa) = 0.04937246
#
# Stress axis : x y z
#
# Youngs Moduli (GPa) = 15.47121 78.90392 135.28604
#
# Poissons Ratio (x) = 1.08499 -0.04141
# Poissons Ratio (y) = 0.21274 0.57088
# Poissons Ratio (z) = -0.00474 0.33296
#
# Static dielectric constant tensor:
#      x y z
#    x 1.775780 0.000000 0.003430 
#    y 0.000000 1.836770 0.000000 
#    z 0.003430 0.000000 1.696280 
# 
# From -- ./inp_files/15893.got.cif
#   From: 2010.05.17/outbox.cif.g08.bks.cpg/sg13_8_cif.got.tgz:15893.got - 2010.06.03 16:44:36.
