data_PCOD9226880
_publ_section_title
;
Structure prediction by ZEFSAII (Michael W. Deem and Ramdas Pophale) SiO2 
 PCOD9226880
Probable space group: P 2/C
;
_chemical_formula_sum "Si O2"
_cell_formula_units_Z 24
_cell_length_a 27.989684
_cell_length_b 6.570222
_cell_length_c 20.041907
_cell_angle_alpha 90.000000
_cell_angle_beta 159.988587
_cell_angle_gamma 90.000000
_cell_volume 1261.265088
_symmetry_space_group_name_H-M "P 2/C"
_symmetry_group_IT_number 13
_symmetry_cell_setting 'monoclinic'
loop_
_space_group_symop_operation_xyz
x,y,z
-x,y,1/2-z
-x,-y,-z
x,-y,1/2+z
loop_
_atom_site_type_symbol
_atom_site_label
_atom_site_fract_x
_atom_site_fract_y
_atom_site_fract_z
Si Si1 0.771270 0.903536 0.854901
Si Si2 0.631583 0.732942 0.113107
Si Si3 0.846432 0.213811 0.072142
Si Si4 0.934495 0.029732 0.816046
Si Si5 0.094571 0.308729 0.608386
Si Si6 0.637211 0.476689 0.251560
O O1 0.716074 0.699434 0.814550
O O2 0.663810 0.025624 0.665131
O O3 0.920881 0.865786 0.017726
O O4 0.801062 0.062734 0.953365
O O5 0.773953 0.650932 0.266956
O O6 0.603628 0.644323 0.150473
O O7 0.499431 0.640059 0.900427
O O8 0.000000 0.289329 0.250000
O O9 0.859154 0.075369 0.154719
O O10 0.739332 0.402129 0.935369
O O11 0.855998 0.190499 0.759852
O O12 0.990953 0.845025 0.934766
O O13 0.000000 0.500000 0.500000
#
# Coordination Sequence:
#
# PCOD9226880 Si02
#       6
#     4   4   4   4   4   4
#     4   9  17  31  52  76 102 131 162 211 267 306
#     4   9  19  32  49  80 106 127 174 214 251 313
#     4   9  19  32  48  76 105 130 168 210 256 315
#     4   9  19  33  49  76 104 129 173 218 255 307
#     4  10  19  33  54  74  99 138 176 215 256 302
#     4  10  18  31  53  77 105 134 161 212 267 305
#
# _framework density 19.028514000000001
#
# number of rings (size 3 to 8) (size 9 to 14) (size 15 to 20)
#    0.000    2.667    0.000    2.500    0.000    3.333 
#    0.000    0.000    0.000    6.000    0.000    0.000 
#    0.000    0.000    0.000    0.000    0.000    0.000 
#
# Total GULP energy -133611.173140 kJ/mol
# GULP energy per Si atom -5567.132214 kJ/mol
# Density = 1.898520 g / cm^3
# Si number density = 19.028514 Si / 1000 Ang^3
#
#
#
# Elastic Constant Matrix: (Units=GPa)
#
#
# Indices 1 2 3 4 5 6 
#
# 1 50.3252 3.1018 11.6867 0.0000 0.1475 0.0000
# 2 3.1018 28.3716 19.3182 0.0000 8.8323 0.0000
# 3 11.6867 19.3182 53.5739 0.0000 -6.0797 0.0000
# 4 0.0000 0.0000 0.0000 25.8823 0.0000 1.2217
# 5 0.1475 8.8323 -6.0797 0.0000 13.7613 0.0000
# 6 0.0000 0.0000 0.0000 1.2217 0.0000 30.1366
#
#
#
# Elastic Compliance Matrix: (Units=1/GPa)
#
#
# Indices 1 2 3 4 5 6 
#
# 1 0.021208 0.004126 -0.006780 0.000000 -0.005871 0.000000
# 2 0.004126 0.083397 -0.039007 0.000000 -0.070804 0.000000
# 3 -0.006780 -0.039007 0.039016 0.000000 0.042345 0.000000
# 4 0.000000 0.000000 0.000000 0.038711 0.000000 -0.001569
# 5 -0.005871 -0.070804 0.042345 0.000000 0.136882 0.000000
# 6 0.000000 0.000000 0.000000 -0.001569 0.000000 0.033246
#
#
# Mechanical properties :
#
#
# Convention : Reuss Voigt Hill
#
# Bulk Modulus (GPa) = 16.58439 22.27600 19.43019
# Shear Modulus (GPa) = 10.96775 20.50032 15.73403
#
# Velocity S-wave (km/s) = 2.40341 3.28586 2.87865
# Velocity P-wave (km/s) = 4.05417 5.11154 4.61325
#
# Compressibility (1/GPa) = 0.06029767
#
# Stress axis : x y z
#
# Youngs Moduli (GPa) = 47.15154 11.99086 25.63063
#
# Poissons Ratio (x) = -0.04947 0.17378
# Poissons Ratio (y) = -0.19453 0.99977
# Poissons Ratio (z) = 0.31970 0.46773
#
# Static dielectric constant tensor:
#      x y z
#    x 1.743420 0.000000 -0.013270 
#    y 0.000000 1.675290 0.000000 
#    z -0.013270 0.000000 1.734920 
# 
# From -- ./inp_files/77161.got.cif
#   From: 2010.05.17/outbox.cif.g08.bks.cpg/sg13_39_cif.got.tgz:77161.got - 2010.06.03 16:44:36.
