data_PCOD9226453
_publ_section_title
;
Structure prediction by ZEFSAII (Michael W. Deem and Ramdas Pophale) SiO2 
 PCOD9226453
Probable space group: P 2/C
;
_chemical_formula_sum "Si O2"
_cell_formula_units_Z 28
_cell_length_a 13.852081
_cell_length_b 6.890248
_cell_length_c 11.609172
_cell_angle_alpha 90.000000
_cell_angle_beta 90.340065
_cell_angle_gamma 90.000000
_cell_volume 1108.009470
_symmetry_space_group_name_H-M "P 2/C"
_symmetry_group_IT_number 13
_symmetry_cell_setting 'monoclinic'
loop_
_space_group_symop_operation_xyz
x,y,z
-x,y,1/2-z
-x,-y,-z
x,-y,1/2+z
loop_
_atom_site_type_symbol
_atom_site_label
_atom_site_fract_x
_atom_site_fract_y
_atom_site_fract_z
Si Si1 0.409829 0.732693 0.321383
Si Si2 0.871916 0.824902 0.518910
Si Si3 0.758475 0.167156 0.244608
Si Si4 0.056617 0.175688 0.138851
Si Si5 0.698987 0.378801 0.897562
Si Si6 0.425465 0.301526 0.396886
Si Si7 0.365346 0.174799 0.065760
O O1 0.500000 0.812604 0.250000
O O2 0.324017 0.674198 0.234092
O O3 0.447557 0.528653 0.374781
O O4 0.373503 0.859173 0.428794
O O5 0.813397 0.906835 0.630290
O O6 0.801629 0.681843 0.450034
O O7 0.970749 0.725306 0.566182
O O8 0.904069 0.001193 0.438478
O O9 0.848544 0.278508 0.307431
O O10 0.662641 0.260153 0.189424
O O11 0.706844 0.056256 0.351794
O O12 0.000000 0.095376 0.250000
O O13 0.677846 0.606114 0.921882
O O14 0.618916 0.273718 0.977261
O O15 0.525245 0.188175 0.388445
#
# Coordination Sequence:
#
# PCOD9226453 Si02
#       7
#     4   4   4   4   4   4   4
#     4  11  16  28  46  76 121 151 184 214 247 315
#     4   9  20  38  61  79 104 135 180 246 285 319
#     4  10  19  33  58  85 106 142 188 222 274 336
#     4   9  19  41  65  81  95 133 191 241 289 332
#     4  10  18  30  52  84 112 146 187 223 266 319
#     4  10  17  29  53  78 114 157 188 208 251 326
#     4  11  19  29  51  85 116 155 183 211 262 333
#
# _framework density 25.270543
#
# number of rings (size 3 to 8) (size 9 to 14) (size 15 to 20)
#    0.000    2.000    4.286    1.286    0.000    0.000 
#    7.714    0.714    0.000   12.000    0.000    0.000 
#    0.000    0.000    0.000    0.000    0.000    0.000 
#
# Total GULP energy -156330.369547 kJ/mol
# GULP energy per Si atom -5583.227484 kJ/mol
# Density = 2.521303 g / cm^3
# Si number density = 25.270543 Si / 1000 Ang^3
#
#
#
# Elastic Constant Matrix: (Units=GPa)
#
#
# Indices 1 2 3 4 5 6 
#
# 1 215.8708 32.5013 75.2392 0.0000 32.2017 0.0000
# 2 32.5013 60.4264 32.0151 0.0000 4.0581 0.0000
# 3 75.2392 32.0151 185.8718 0.0000 -9.9439 0.0000
# 4 0.0000 0.0000 0.0000 23.0052 0.0000 -1.0517
# 5 32.2017 4.0581 -9.9439 0.0000 77.7460 0.0000
# 6 0.0000 0.0000 0.0000 -1.0517 0.0000 33.9249
#
#
#
# Elastic Compliance Matrix: (Units=1/GPa)
#
#
# Indices 1 2 3 4 5 6 
#
# 1 0.006127 -0.001893 -0.002300 0.000000 -0.002733 0.000000
# 2 -0.001893 0.018940 -0.002524 0.000000 -0.000527 0.000000
# 3 -0.002300 -0.002524 0.006851 0.000000 0.001961 0.000000
# 4 0.000000 0.000000 0.000000 0.043530 0.000000 0.001350
# 5 -0.002733 -0.000527 0.001961 0.000000 0.014273 0.000000
# 6 0.000000 0.000000 0.000000 0.001350 0.000000 0.029519
#
#
# Mechanical properties :
#
#
# Convention : Reuss Voigt Hill
#
# Bulk Modulus (GPa) = 54.10481 82.40889 68.25685
# Shear Modulus (GPa) = 36.01392 48.42946 42.22169
#
# Velocity S-wave (km/s) = 3.77919 4.38246 4.09196
# Velocity P-wave (km/s) = 6.36394 7.63475 7.02813
#
# Compressibility (1/GPa) = 0.01848264
#
# Stress axis : x y z
#
# Youngs Moduli (GPa) = 163.21614 52.79803 145.96779
#
# Poissons Ratio (x) = 0.09996 0.33576
# Poissons Ratio (y) = 0.30900 0.36845
# Poissons Ratio (z) = 0.37543 0.13327
#
# Static dielectric constant tensor:
#      x y z
#    x 1.986670 0.000000 0.018040 
#    y 0.000000 2.039440 0.000000 
#    z 0.018040 0.000000 2.095240 
# 
# From -- ./inp_files/33254.got.cif
#   From: 2010.05.17/outbox.cif.g08.bks.cpg/sg13_17_cif.got.tgz:33254.got - 2010.06.03 16:44:36.
