data_PCOD9226112
_publ_section_title
;
Structure prediction by ZEFSAII (Michael W. Deem and Ramdas Pophale) SiO2 
 PCOD9226112
Probable space group: P 2/C
;
_chemical_formula_sum "Si O2"
_cell_formula_units_Z 32
_cell_length_a 5.556154
_cell_length_b 13.959757
_cell_length_c 20.994855
_cell_angle_alpha 90.000000
_cell_angle_beta 91.993311
_cell_angle_gamma 90.000000
_cell_volume 1627.429332
_symmetry_space_group_name_H-M "P 2/C"
_symmetry_group_IT_number 13
_symmetry_cell_setting 'monoclinic'
loop_
_space_group_symop_operation_xyz
x,y,z
-x,y,1/2-z
-x,-y,-z
x,-y,1/2+z
loop_
_atom_site_type_symbol
_atom_site_label
_atom_site_fract_x
_atom_site_fract_y
_atom_site_fract_z
Si Si1 0.757179 0.985599 0.588455
Si Si2 0.250742 0.884191 0.287073
Si Si3 0.706343 0.381439 0.850697
Si Si4 0.205495 0.334156 0.830814
Si Si5 0.254438 0.528005 0.534683
Si Si6 0.745074 0.971339 0.939578
Si Si7 0.771793 0.276291 0.520484
Si Si8 0.723719 0.197767 0.942394
O O1 0.747631 0.061105 0.645416
O O2 0.505602 0.929661 0.587500
O O3 0.013536 0.933154 0.590600
O O4 0.756506 0.030652 0.516703
O O5 0.500000 0.901269 0.250000
O O6 0.229875 0.771739 0.302435
O O7 0.000000 0.911835 0.250000
O O8 0.447203 0.389834 0.816960
O O9 0.731934 0.465851 0.901759
O O10 0.948902 0.378906 0.813423
O O11 0.709990 0.274554 0.884382
O O12 0.213256 0.325981 0.908970
O O13 0.500000 0.500000 0.500000
O O14 0.248980 0.642911 0.533311
O O15 0.000000 0.500000 0.500000
O O16 0.735931 0.086348 0.923571
O O17 0.522074 0.218262 0.521730
O O18 0.026876 0.221941 0.519364
#
# Coordination Sequence:
#
# PCOD9226112 Si02
#       8
#     4   4   4   4   4   4   4   4
#     4  10  20  35  51  73  95 123 169 205 261 306
#     4  12  24  37  52  71  99 136 175 219 250 300
#     4  10  17  26  44  62  93 127 156 199 228 296
#     4  10  18  30  43  61  83 122 166 195 242 274
#     4  12  16  27  38  65  95 129 168 179 229 273
#     4  10  19  32  54  73  95 126 161 214 252 320
#     4  10  18  26  42  63  93 129 155 194 227 296
#     4  10  16  25  38  62  87 118 154 183 241 277
#
# _framework density 19.662913
#
# number of rings (size 3 to 8) (size 9 to 14) (size 15 to 20)
#    0.000    1.500    5.000    5.250    0.000    0.000 
#    0.000    0.000    0.000    0.000    0.000    0.000 
#    0.000    0.000    0.000   38.250    0.000    0.750 
#
# Total GULP energy -178503.175992 kJ/mol
# GULP energy per Si atom -5578.224250 kJ/mol
# Density = 1.961816 g / cm^3
# Si number density = 19.662913 Si / 1000 Ang^3
#
#
#
# Elastic Constant Matrix: (Units=GPa)
#
#
# Indices 1 2 3 4 5 6 
#
# 1 244.5604 15.4522 37.2967 0.0000 -9.7909 0.0000
# 2 15.4522 40.0343 18.1306 0.0000 -6.9547 0.0000
# 3 37.2967 18.1306 69.8449 0.0000 -18.8928 0.0000
# 4 0.0000 0.0000 0.0000 24.2441 0.0000 -0.3591
# 5 -9.7909 -6.9547 -18.8928 0.0000 20.0488 0.0000
# 6 0.0000 0.0000 0.0000 -0.3591 0.0000 17.4257
#
#
#
# Elastic Compliance Matrix: (Units=1/GPa)
#
#
# Indices 1 2 3 4 5 6 
#
# 1 0.004471 -0.000741 -0.002247 0.000000 -0.000191 0.000000
# 2 -0.000741 0.028657 -0.005975 0.000000 0.003948 0.000000
# 3 -0.002247 -0.005975 0.021756 0.000000 0.017332 0.000000
# 4 0.000000 0.000000 0.000000 0.041260 0.000000 0.000850
# 5 -0.000191 0.003948 0.017332 0.000000 0.067488 0.000000
# 6 0.000000 0.000000 0.000000 0.000850 0.000000 0.057404
#
#
# Mechanical properties :
#
#
# Convention : Reuss Voigt Hill
#
# Bulk Modulus (GPa) = 27.05774 55.13317 41.09546
# Shear Modulus (GPa) = 19.89812 31.24772 25.57292
#
# Velocity S-wave (km/s) = 3.18459 3.99076 3.61025
# Velocity P-wave (km/s) = 5.22616 7.02389 6.19063
#
# Compressibility (1/GPa) = 0.03695800
#
# Stress axis : x y z
#
# Youngs Moduli (GPa) = 223.67463 34.89608 45.96354
#
# Poissons Ratio (x) = 0.02587 0.10326
# Poissons Ratio (y) = 0.16582 0.27463
# Poissons Ratio (z) = 0.50249 0.20850
#
# Static dielectric constant tensor:
#      x y z
#    x 1.923320 0.000000 0.014940 
#    y 0.000000 1.803260 0.000000 
#    z 0.014940 0.000000 1.723500 
# 
# From -- ./inp_files/61616.got.cif
#   From: 2010.05.17/outbox.cif.g08.bks.cpg/sg13_31_cif.got.tgz:61616.got - 2010.06.03 16:44:36.
