data_PCOD9226366
_publ_section_title
;
Structure prediction by ZEFSAII (Michael W. Deem and Ramdas Pophale) SiO2 
 PCOD9226366
Probable space group: P 2/C
;
_chemical_formula_sum "Si O2"
_cell_formula_units_Z 24
_cell_length_a 6.952323
_cell_length_b 24.530380
_cell_length_c 5.504491
_cell_angle_alpha 90.000000
_cell_angle_beta 78.073672
_cell_angle_gamma 90.000000
_cell_volume 918.489294
_symmetry_space_group_name_H-M "P 2/C"
_symmetry_group_IT_number 13
_symmetry_cell_setting 'monoclinic'
loop_
_space_group_symop_operation_xyz
x,y,z
-x,y,1/2-z
-x,-y,-z
x,-y,1/2+z
loop_
_atom_site_type_symbol
_atom_site_label
_atom_site_fract_x
_atom_site_fract_y
_atom_site_fract_z
Si Si1 0.271075 0.683401 0.091026
Si Si2 0.280349 0.845572 0.769922
Si Si3 0.276021 0.356411 0.089513
Si Si4 0.237933 0.028824 0.188273
Si Si5 0.730596 0.806952 0.227864
Si Si6 0.272579 0.480450 0.271186
O O1 0.192721 0.648703 0.339729
O O2 0.253629 0.745049 0.187319
O O3 0.499385 0.665000 0.000597
O O4 0.190455 0.676865 0.840087
O O5 0.500000 0.821379 0.750000
O O6 0.296201 0.908140 0.685760
O O7 0.186704 0.815432 0.563628
O O8 0.193734 0.842140 0.064004
O O9 0.270807 0.418352 0.181732
O O10 0.000000 0.027818 0.250000
O O11 0.301273 0.999118 0.420238
O O12 0.500000 0.820935 0.250000
O O13 0.500000 0.498680 0.250000
O O14 0.189662 0.486234 0.564088
#
# Coordination Sequence:
#
# PCOD9226366 Si02
#       6
#     4   4   4   4   4   4
#     4  10  17  24  36  50  71 102 137 173 218 280
#     4  10  21  32  49  75  99 123 150 185 234 278
#     4  10  17  24  34  48  65  99 142 181 228 278
#     4  10  21  38  58  76  97 126 158 188 221 267
#     4  10  18  29  43  63  94 119 143 181 232 281
#     4  10  18  23  29  40  61  88 128 186 243 265
#
# _framework density 26.129864000000001
#
# number of rings (size 3 to 8) (size 9 to 14) (size 15 to 20)
#    0.000    2.000    3.333    3.000    9.333    0.667 
#    0.000    0.000    0.000    0.000    0.000    0.000 
#    0.000    0.000    0.000    0.000    0.000    0.000 
#
# Total GULP energy -134258.971372 kJ/mol
# GULP energy per Si atom -5594.123807 kJ/mol
# Density = 2.607039 g / cm^3
# Si number density = 26.129864 Si / 1000 Ang^3
#
#
#
# Elastic Constant Matrix: (Units=GPa)
#
#
# Indices 1 2 3 4 5 6 
#
# 1 99.5130 -18.0640 52.5753 0.0000 6.1144 0.0000
# 2 -18.0640 142.1438 85.2561 0.0000 11.1567 0.0000
# 3 52.5753 85.2561 326.7927 0.0000 22.2580 0.0000
# 4 0.0000 0.0000 0.0000 59.2236 0.0000 11.7691
# 5 6.1144 11.1567 22.2580 0.0000 51.5687 0.0000
# 6 0.0000 0.0000 0.0000 11.7691 0.0000 -149.8112
#
#
#
# Elastic Compliance Matrix: (Units=1/GPa)
#
#
# Indices 1 2 3 4 5 6 
#
# 1 0.012148 0.003263 -0.002740 0.000000 -0.000964 0.000000
# 2 0.003263 0.009257 -0.002861 0.000000 -0.001155 0.000000
# 3 -0.002740 -0.002861 0.004310 0.000000 -0.000916 0.000000
# 4 0.000000 0.000000 0.000000 0.016626 0.000000 0.001306
# 5 -0.000964 -0.001155 -0.000916 0.000000 0.020151 0.000000
# 6 0.000000 0.000000 0.000000 0.001306 0.000000 -0.006572
#
#
# Mechanical properties :
#
#
# Convention : Reuss Voigt Hill
#
# Bulk Modulus (GPa) = 47.53397 89.77604 68.65501
# Shear Modulus (GPa) = 73.95593 22.10836 48.03215
#
# Velocity S-wave (km/s) = 5.32585 2.91193 4.29209
# Velocity P-wave (km/s) = 7.48669 6.76299 7.13402
#
# Compressibility (1/GPa) = 0.02103759
#
# Stress axis : x y z
#
# Youngs Moduli (GPa) = 82.31767 108.03192 232.03324
#
# Poissons Ratio (x) = -0.35249 0.63578
# Poissons Ratio (y) = -0.26859 0.66390
# Poissons Ratio (z) = 0.22555 0.30910
#
# Static dielectric constant tensor:
#      x y z
#    x 2.021740 0.000000 -0.090080 
#    y 0.000000 1.963960 0.000000 
#    z -0.090080 0.000000 2.055730 
# 
# From -- ./inp_files/2414.got.cif
#   From: 2010.05.17/outbox.cif.g08.bks.cpg/sg13_2_cif.got.tgz:2414.got - 2010.06.03 16:44:36.
