data_PCOD9226197
_publ_section_title
;
Structure prediction by ZEFSAII (Michael W. Deem and Ramdas Pophale) SiO2 
 PCOD9226197
Probable space group: P 2/C
;
_chemical_formula_sum "Si O2"
_cell_formula_units_Z 28
_cell_length_a 34.198667
_cell_length_b 6.832544
_cell_length_c 5.298494
_cell_angle_alpha 90.000000
_cell_angle_beta 72.587633
_cell_angle_gamma 90.000000
_cell_volume 1181.333288
_symmetry_space_group_name_H-M "P 2/C"
_symmetry_group_IT_number 13
_symmetry_cell_setting 'monoclinic'
loop_
_space_group_symop_operation_xyz
x,y,z
-x,y,1/2-z
-x,-y,-z
x,-y,1/2+z
loop_
_atom_site_type_symbol
_atom_site_label
_atom_site_fract_x
_atom_site_fract_y
_atom_site_fract_z
Si Si1 0.045575 0.730135 0.267359
Si Si2 0.747739 0.868223 0.287283
Si Si3 0.628335 0.204055 0.381463
Si Si4 0.661077 0.240617 0.816677
Si Si5 0.078062 0.711014 0.704059
Si Si6 0.161521 0.133242 0.900051
Si Si7 0.454092 0.631534 0.313429
O O1 0.050382 0.809494 0.540485
O O2 0.059279 0.504054 0.280376
O O3 0.000000 0.742904 0.250000
O O4 0.075477 0.802086 0.987583
O O5 0.707455 0.740529 0.321247
O O6 0.792879 0.775576 0.177127
O O7 0.745446 0.972189 0.564434
O O8 0.655183 0.310759 0.543468
O O9 0.582145 0.213654 0.571673
O O10 0.647898 0.989501 0.308431
O O11 0.631251 0.300520 0.100977
O O12 0.124071 0.718419 0.511383
O O13 0.158477 0.019882 0.639489
O O14 0.500000 0.715401 0.250000
O O15 0.450451 0.472419 0.547914
#
# Coordination Sequence:
#
# PCOD9226197 Si02
#       7
#     4   4   4   4   4   4   4
#     4  10  19  33  58  76  93 128 175 220 250 284
#     4  10  16  30  48  74 102 130 167 197 238 304
#     4  10  18  30  52  78 101 128 166 213 256 292
#     4  10  17  30  50  81 103 121 162 212 267 297
#     4  10  18  32  51  78 100 125 170 211 247 295
#     4  10  21  32  50  75 105 138 167 195 248 307
#     4  10  21  37  53  72 100 142 183 206 238 303
#
# _framework density 23.702029
#
# number of rings (size 3 to 8) (size 9 to 14) (size 15 to 20)
#    0.000    2.000    2.857    3.857    0.000    0.000 
#    0.000    2.857    0.000   14.571   22.286    0.000 
#    0.000    0.000    0.000    0.000    0.000    0.000 
#
# Total GULP energy -156271.536518 kJ/mol
# GULP energy per Si atom -5581.126304 kJ/mol
# Density = 2.364808 g / cm^3
# Si number density = 23.702029 Si / 1000 Ang^3
#
#
#
# Elastic Constant Matrix: (Units=GPa)
#
#
# Indices 1 2 3 4 5 6 
#
# 1 131.8427 -13.1673 6.6217 0.0000 -21.8598 0.0000
# 2 -13.1673 55.8220 -21.6647 0.0000 -2.3062 0.0000
# 3 6.6217 -21.6647 129.4230 0.0000 21.3476 0.0000
# 4 0.0000 0.0000 0.0000 -17.6158 0.0000 -24.0191
# 5 -21.8598 -2.3062 21.3476 0.0000 63.9086 0.0000
# 6 0.0000 0.0000 0.0000 -24.0191 0.0000 18.1994
#
#
#
# Elastic Compliance Matrix: (Units=1/GPa)
#
#
# Indices 1 2 3 4 5 6 
#
# 1 0.008319 0.001846 -0.000632 0.000000 0.003123 0.000000
# 2 0.001846 0.019578 0.003135 0.000000 0.000291 0.000000
# 3 -0.000632 0.003135 0.008785 0.000000 -0.003037 0.000000
# 4 0.000000 0.000000 0.000000 -0.020278 0.000000 -0.026762
# 5 0.003123 0.000291 -0.003037 0.000000 0.017741 0.000000
# 6 0.000000 0.000000 0.000000 -0.026762 0.000000 0.019627
#
#
# Mechanical properties :
#
#
# Convention : Reuss Voigt Hill
#
# Bulk Modulus (GPa) = 22.03614 28.96301 25.49957
# Shear Modulus (GPa) = 83.05626 35.91831 59.48728
#
# Velocity S-wave (km/s) = 5.92604 3.89705 5.01522
# Velocity P-wave (km/s) = 7.49274 5.70048 6.65720
#
# Compressibility (1/GPa) = 0.04538000
#
# Stress axis : x y z
#
# Youngs Moduli (GPa) = 120.21116 51.07724 113.83460
#
# Poissons Ratio (x) = -0.09429 0.07191
# Poissons Ratio (y) = -0.22192 -0.35686
# Poissons Ratio (z) = 0.07594 -0.16012
#
# Static dielectric constant tensor:
#      x y z
#    x 1.914660 0.000000 0.039360 
#    y 0.000000 -0.887040 0.000000 
#    z 0.039360 0.000000 1.971710 
# 
# From -- ./inp_files/8044.got.cif
#   From: 2010.05.17/outbox.cif.g08.bks.cpg/sg13_5_cif.got.tgz:8044.got - 2010.06.03 16:44:36.
