data_PCOD9226950
_publ_section_title
;
Structure prediction by ZEFSAII (Michael W. Deem and Ramdas Pophale) SiO2 
 PCOD9226950
Probable space group: P 2/C
;
_chemical_formula_sum "Si O2"
_cell_formula_units_Z 28
_cell_length_a 12.980429
_cell_length_b 8.978707
_cell_length_c 21.726317
_cell_angle_alpha 90.000000
_cell_angle_beta 144.197957
_cell_angle_gamma 90.000000
_cell_volume 1481.272198
_symmetry_space_group_name_H-M "P 2/C"
_symmetry_group_IT_number 13
_symmetry_cell_setting 'monoclinic'
loop_
_space_group_symop_operation_xyz
x,y,z
-x,y,1/2-z
-x,-y,-z
x,-y,1/2+z
loop_
_atom_site_type_symbol
_atom_site_label
_atom_site_fract_x
_atom_site_fract_y
_atom_site_fract_z
Si Si1 0.691307 0.185872 0.362416
Si Si2 0.892632 0.605070 0.052044
Si Si3 0.637045 0.358958 0.909137
Si Si4 0.094093 0.894244 0.360709
Si Si5 0.255565 0.647639 0.180644
Si Si6 0.589176 0.023772 0.926974
Si Si7 0.792480 0.989195 0.298130
O O1 0.500000 0.246967 0.250000
O O2 0.807461 0.308024 0.452510
O O3 0.650408 0.059576 0.393756
O O4 0.781251 0.107501 0.347749
O O5 0.906261 0.726894 0.112525
O O6 0.087084 0.560139 0.124329
O O7 0.760413 0.473443 0.004604
O O8 0.718755 0.353204 0.880004
O O9 0.434720 0.406489 0.799814
O O10 0.626548 0.197478 0.934917
O O11 0.973389 0.990871 0.348848
O O12 0.000000 0.898934 0.250000
O O13 0.291651 0.956266 0.461429
O O14 0.227036 0.821942 0.184022
O O15 0.380394 0.993715 0.828459
#
# Coordination Sequence:
#
# PCOD9226950 Si02
#       7
#     4   4   4   4   4   4   4
#     4   9  17  30  50  80 110 130 163 202 259 315
#     4  10  21  32  51  77 105 138 163 212 259 301
#     4  10  18  32  49  76 107 134 164 199 250 322
#     4  10  22  37  53  73  99 137 183 219 250 289
#     4   9  18  30  50  74 109 139 158 193 256 319
#     4   9  18  33  54  76 102 136 167 208 257 305
#     4   9  17  33  55  77 104 136 165 208 256 314
#
# _framework density 18.902670000000001
#
# number of rings (size 3 to 8) (size 9 to 14) (size 15 to 20)
#    0.000    2.571    1.429    0.429    4.000    2.286 
#    0.000    0.714    0.000    7.714    0.000    0.000 
#    0.000    0.000    0.000    0.000    0.000    0.000 
#
# Total GULP energy -156263.422013 kJ/mol
# GULP energy per Si atom -5580.836500 kJ/mol
# Density = 1.885965 g / cm^3
# Si number density = 18.902670 Si / 1000 Ang^3
#
#
#
# Elastic Constant Matrix: (Units=GPa)
#
#
# Indices 1 2 3 4 5 6 
#
# 1 11.8716 -0.1545 4.3203 0.0000 9.8394 0.0000
# 2 -0.1545 35.2136 11.5311 0.0000 8.3418 0.0000
# 3 4.3203 11.5311 84.6933 0.0000 1.2438 0.0000
# 4 0.0000 0.0000 0.0000 26.7550 0.0000 10.2887
# 5 9.8394 8.3418 1.2438 0.0000 26.3053 0.0000
# 6 0.0000 0.0000 0.0000 10.2887 0.0000 8.6889
#
#
#
# Elastic Compliance Matrix: (Units=1/GPa)
#
#
# Indices 1 2 3 4 5 6 
#
# 1 0.132349 0.016093 -0.008146 0.000000 -0.054223 0.000000
# 2 0.016093 0.034108 -0.005221 0.000000 -0.016589 0.000000
# 3 -0.008146 -0.005221 0.012874 0.000000 0.004094 0.000000
# 4 0.000000 0.000000 0.000000 0.068625 0.000000 -0.081261
# 5 -0.054223 -0.016589 0.004094 0.000000 0.063364 0.000000
# 6 0.000000 0.000000 0.000000 -0.081261 0.000000 0.211313
#
#
# Mechanical properties :
#
#
# Convention : Reuss Voigt Hill
#
# Bulk Modulus (GPa) = 5.41177 18.13025 11.77101
# Shear Modulus (GPa) = 8.63894 20.08862 14.36378
#
# Velocity S-wave (km/s) = 2.14013 3.26351 2.75958
# Velocity P-wave (km/s) = 2.99600 4.87984 4.04900
#
# Compressibility (1/GPa) = 0.18478229
#
# Stress axis : x y z
#
# Youngs Moduli (GPa) = 7.55580 29.31848 77.67850
#
# Poissons Ratio (x) = -0.47182 0.63277
# Poissons Ratio (y) = -0.12160 0.40557
# Poissons Ratio (z) = 0.06155 0.15308
#
# Static dielectric constant tensor:
#      x y z
#    x 1.640340 0.000000 0.030150 
#    y 0.000000 1.657300 0.000000 
#    z 0.030150 0.000000 1.685440 
# 
# From -- ./inp_files/50088.got.cif
#   From: 2010.05.17/outbox.cif.g08.bks.cpg/sg13_26_cif.got.tgz:50088.got - 2010.06.03 16:44:36.
