data_PCOD9226043
_publ_section_title
;
Structure prediction by ZEFSAII (Michael W. Deem and Ramdas Pophale) SiO2 
 PCOD9226043
Probable space group: P 2/C
;
_chemical_formula_sum "Si O2"
_cell_formula_units_Z 20
_cell_length_a 7.019610
_cell_length_b 22.369636
_cell_length_c 5.386284
_cell_angle_alpha 90.000000
_cell_angle_beta 101.828518
_cell_angle_gamma 90.000000
_cell_volume 827.827396
_symmetry_space_group_name_H-M "P 2/C"
_symmetry_group_IT_number 13
_symmetry_cell_setting 'monoclinic'
loop_
_space_group_symop_operation_xyz
x,y,z
-x,y,1/2-z
-x,-y,-z
x,-y,1/2+z
loop_
_atom_site_type_symbol
_atom_site_label
_atom_site_fract_x
_atom_site_fract_y
_atom_site_fract_z
Si Si1 0.264965 0.532672 0.185053
Si Si2 0.778774 0.329538 0.735527
Si Si3 0.233481 0.279956 0.264061
Si Si4 0.774758 0.975294 0.956000
Si Si5 0.873782 0.158126 0.468018
O O1 0.500000 0.530327 0.250000
O O2 0.198742 0.501282 0.420778
O O3 0.213698 0.602340 0.172686
O O4 0.696937 0.324456 0.434315
O O5 0.000000 0.308682 0.750000
O O6 0.310872 0.291875 0.561190
O O7 0.000000 0.287008 0.250000
O O8 0.256298 0.214533 0.148218
O O9 0.772860 0.904607 0.999585
O O10 0.690109 0.009752 0.166747
O O11 0.000000 0.000000 0.000000
O O12 0.000000 0.172377 0.750000
O O13 0.000000 0.146989 0.250000
#
# Coordination Sequence:
#
# PCOD9226043 Si02
#       5
#     4   4   4   4   4
#     4  10  21  36  54  75  95 118 148 184 229 277
#     4  10  19  33  48  68  96 119 152 188 218 273
#     4   9  18  28  41  62  85 121 154 189 220 262
#     4  10  15  22  29  47  70 103 149 196 213 258
#     4  11  16  23  36  50  77 110 153 196 220 254
#
# _framework density 24.159623
#
# number of rings (size 3 to 8) (size 9 to 14) (size 15 to 20)
#    0.000    2.000    4.000    4.200    0.000    0.800 
#    0.000    0.000    0.000    0.000    0.000    0.000 
#    0.000    0.000    0.000    0.000    0.000   20.000 
#
# Total GULP energy -111726.027406 kJ/mol
# GULP energy per Si atom -5586.301370 kJ/mol
# Density = 2.410463 g / cm^3
# Si number density = 24.159623 Si / 1000 Ang^3
#
#
#
# Elastic Constant Matrix: (Units=GPa)
#
#
# Indices 1 2 3 4 5 6 
#
# 1 71.0127 -18.8617 32.5096 0.0000 1.5291 0.0000
# 2 -18.8617 167.0376 71.4507 0.0000 2.9840 0.0000
# 3 32.5096 71.4507 227.8280 0.0000 6.9952 0.0000
# 4 0.0000 0.0000 0.0000 47.8524 0.0000 6.4404
# 5 1.5291 2.9840 6.9952 0.0000 34.8831 0.0000
# 6 0.0000 0.0000 0.0000 6.4404 0.0000 22.4489
#
#
#
# Elastic Compliance Matrix: (Units=1/GPa)
#
#
# Indices 1 2 3 4 5 6 
#
# 1 0.016523 0.003321 -0.003389 0.000000 -0.000329 0.000000
# 2 0.003321 0.007583 -0.002845 0.000000 -0.000224 0.000000
# 3 -0.003389 -0.002845 0.005789 0.000000 -0.000769 0.000000
# 4 0.000000 0.000000 0.000000 0.021737 0.000000 -0.006236
# 5 -0.000329 -0.000224 -0.000769 0.000000 0.028855 0.000000
# 6 0.000000 0.000000 0.000000 -0.006236 0.000000 0.046335
#
#
# Mechanical properties :
#
#
# Convention : Reuss Voigt Hill
#
# Bulk Modulus (GPa) = 41.54839 70.67506 56.11172
# Shear Modulus (GPa) = 35.54424 46.42220 40.98322
#
# Velocity S-wave (km/s) = 3.83982 4.38822 4.12315
# Velocity P-wave (km/s) = 6.07402 7.41567 6.77812
#
# Compressibility (1/GPa) = 0.02406832
#
# Stress axis : x y z
#
# Youngs Moduli (GPa) = 60.52229 131.87858 172.74767
#
# Poissons Ratio (x) = -0.43802 0.58548
# Poissons Ratio (y) = -0.20102 0.49149
# Poissons Ratio (z) = 0.20512 0.37521
#
# Static dielectric constant tensor:
#      x y z
#    x 1.907880 0.000000 -0.113020 
#    y 0.000000 1.880580 0.000000 
#    z -0.113020 0.000000 1.986250 
# 
# From -- ./inp_files/2091.got.cif
#   From: 2010.05.17/outbox.cif.g08.bks.cpg/sg13_2_cif.got.tgz:2091.got - 2010.06.03 16:44:36.
