data_PCOD9226336
_publ_section_title
;
Structure prediction by ZEFSAII (Michael W. Deem and Ramdas Pophale) SiO2 
 PCOD9226336
Probable space group: P 2/C
;
_chemical_formula_sum "Si O2"
_cell_formula_units_Z 22
_cell_length_a 26.065360
_cell_length_b 9.091946
_cell_length_c 14.633021
_cell_angle_alpha 90.000000
_cell_angle_beta 162.123691
_cell_angle_gamma 90.000000
_cell_volume 1064.488006
_symmetry_space_group_name_H-M "P 2/C"
_symmetry_group_IT_number 13
_symmetry_cell_setting 'monoclinic'
loop_
_space_group_symop_operation_xyz
x,y,z
-x,y,1/2-z
-x,-y,-z
x,-y,1/2+z
loop_
_atom_site_type_symbol
_atom_site_label
_atom_site_fract_x
_atom_site_fract_y
_atom_site_fract_z
Si Si1 0.130641 0.302625 0.107795
Si Si2 0.904943 0.846345 0.353797
Si Si3 0.224899 0.802388 0.159636
Si Si4 0.000000 0.545159 0.750000
Si Si5 0.000000 0.944693 0.250000
Si Si6 0.556749 0.057816 0.194528
Si Si7 0.500000 0.193513 0.750000
O O1 0.031807 0.278952 0.034554
O O2 0.331240 0.289052 0.452074
O O3 0.060419 0.442375 0.934866
O O4 0.070992 0.161027 0.947697
O O5 0.847136 0.818467 0.359649
O O6 0.153696 0.656232 0.993221
O O7 0.000000 0.000000 0.500000
O O8 0.420948 0.821283 0.494312
O O9 0.263155 0.133093 0.990723
O O10 0.148196 0.942969 0.976283
O O11 0.539543 0.918389 0.233581
O O12 0.500000 0.000000 0.000000
#
# Coordination Sequence:
#
# PCOD9226336 Si02
#       7
#     4   4   4   2   2   4   2
#     4  11  23  42  65 100 131 180 227 278 345 406
#     4  12  21  38  71 102 133 168 231 293 342 395
#     4  11  22  42  66  99 137 176 230 280 340 401
#     4  10  28  44  68  90 144 194 224 266 352 434
#     4  10  16  34  68  86 126 160 228 280 314 400
#     4  12  23  38  69 109 132 169 225 300 346 388
#     4  12  22  42  66 104 136 164 234 294 338 400
#
# _framework density 20.667214000000001
#
# number of rings (size 3 to 8) (size 9 to 14) (size 15 to 20)
#    0.000    0.727    7.273    1.091    5.091    0.727 
#    3.273    0.909    0.000    0.000    0.000    0.000 
#    0.000    0.000    0.000    0.000    0.000    0.000 
#
# Total GULP energy -122890.250002 kJ/mol
# GULP energy per Si atom -5585.920455 kJ/mol
# Density = 2.062017 g / cm^3
# Si number density = 20.667214 Si / 1000 Ang^3
#
#
#
# Elastic Constant Matrix: (Units=GPa)
#
#
# Indices 1 2 3 4 5 6 
#
# 1 83.3700 20.0202 38.4505 0.0000 -0.1979 0.0000
# 2 20.0202 105.7719 43.8608 0.0000 3.9511 0.0000
# 3 38.4505 43.8608 169.1337 0.0000 23.5070 0.0000
# 4 0.0000 0.0000 0.0000 38.4855 0.0000 -11.0954
# 5 -0.1979 3.9511 23.5070 0.0000 39.3581 0.0000
# 6 0.0000 0.0000 0.0000 -11.0954 0.0000 16.0346
#
#
#
# Elastic Compliance Matrix: (Units=1/GPa)
#
#
# Indices 1 2 3 4 5 6 
#
# 1 0.013741 -0.001417 -0.003038 0.000000 0.002026 0.000000
# 2 -0.001417 0.010754 -0.002525 0.000000 0.000422 0.000000
# 3 -0.003038 -0.002525 0.007879 0.000000 -0.004468 0.000000
# 4 0.000000 0.000000 0.000000 0.032459 0.000000 0.022461
# 5 0.002026 0.000422 -0.004468 0.000000 0.028044 0.000000
# 6 0.000000 0.000000 0.000000 0.022461 0.000000 0.077907
#
#
# Mechanical properties :
#
#
# Convention : Reuss Voigt Hill
#
# Bulk Modulus (GPa) = 54.30743 62.54874 58.42809
# Shear Modulus (GPa) = 26.19425 35.83859 31.01642
#
# Velocity S-wave (km/s) = 3.56396 4.16875 3.87816
# Velocity P-wave (km/s) = 6.57799 7.31448 6.95599
#
# Compressibility (1/GPa) = 0.01841369
#
# Stress axis : x y z
#
# Youngs Moduli (GPa) = 72.77557 92.98970 126.92099
#
# Poissons Ratio (x) = 0.13174 0.38558
# Poissons Ratio (y) = 0.10310 0.32051
# Poissons Ratio (z) = 0.22109 0.23482
#
# Static dielectric constant tensor:
#      x y z
#    x 1.823210 0.000000 0.004790 
#    y 0.000000 1.722830 0.000000 
#    z 0.004790 0.000000 1.783640 
# 
# From -- ./inp_files/59477.got.cif
#   From: 2010.05.17/outbox.cif.g08.bks.cpg/sg13_30_cif.got.tgz:59477.got - 2010.06.03 16:44:36.
