data_PCOD9226218
_publ_section_title
;
Structure prediction by ZEFSAII (Michael W. Deem and Ramdas Pophale) SiO2 
 PCOD9226218
Probable space group: P 2/C
;
_chemical_formula_sum "Si O2"
_cell_formula_units_Z 32
_cell_length_a 12.528910
_cell_length_b 24.873090
_cell_length_c 5.450430
_cell_angle_alpha 90.000000
_cell_angle_beta 76.054350
_cell_angle_gamma 90.000000
_cell_volume 1648.467627
_symmetry_space_group_name_H-M "P 2/C"
_symmetry_group_IT_number 13
_symmetry_cell_setting 'monoclinic'
loop_
_space_group_symop_operation_xyz
x,y,z
-x,y,1/2-z
-x,-y,-z
x,-y,1/2+z
loop_
_atom_site_type_symbol
_atom_site_label
_atom_site_fract_x
_atom_site_fract_y
_atom_site_fract_z
Si Si1 0.724714 0.371916 0.652566
Si Si2 0.070760 0.147478 0.461134
Si Si3 0.882089 0.559877 0.423100
Si Si4 0.752785 0.759294 0.602428
Si Si5 0.320271 0.483023 0.934639
Si Si6 0.105659 0.331334 0.310885
Si Si7 0.874346 0.977361 0.565711
Si Si8 0.626562 0.736845 0.187403
O O1 0.794826 0.405454 0.810709
O O2 0.683289 0.420195 0.502664
O O3 0.813246 0.338269 0.458079
O O4 0.634620 0.327201 0.756614
O O5 0.168705 0.190222 0.399293
O O6 0.116507 0.086655 0.445358
O O7 0.000000 0.152340 0.250000
O O8 0.000000 0.156036 0.750000
O O9 0.802037 0.510617 0.547508
O O10 0.918860 0.608069 0.584815
O O11 0.000000 0.540558 0.250000
O O12 0.832994 0.706857 0.532620
O O13 0.687701 0.764454 0.383492
O O14 0.679016 0.749047 0.888697
O O15 0.373448 0.488635 0.638188
O O16 0.000000 0.304549 0.250000
O O17 0.822863 0.001008 0.346172
O O18 0.000000 0.000000 0.500000
O O19 0.500000 0.752528 0.250000
#
# Coordination Sequence:
#
# PCOD9226218 Si02
#       8
#     4   4   4   4   4   4   4   4
#     4  10  21  36  54  77 105 140 185 236 288 355
#     4  12  21  34  57  89 136 181 199 237 283 342
#     4  11  20  31  51  74 114 150 179 212 274 355
#     4  11  25  40  59  91 117 151 205 246 302 359
#     4  10  21  33  50  75 105 138 172 224 274 337
#     4  11  20  34  50  77 114 154 181 219 269 355
#     4  10  16  30  50  80 124 182 218 233 254 312
#     4  11  24  45  67  82 105 148 204 270 323 356
#
# _framework density 19.411967000000001
#
# number of rings (size 3 to 8) (size 9 to 14) (size 15 to 20)
#    0.000    1.250    6.250    1.500    0.000    4.000 
#    0.000    0.000    0.000    3.000    0.000    0.000 
#    0.000   10.000    0.000    0.000    0.000    0.000 
#
# Total GULP energy -178250.807257 kJ/mol
# GULP energy per Si atom -5570.337727 kJ/mol
# Density = 1.936778 g / cm^3
# Si number density = 19.411967 Si / 1000 Ang^3
#
#
#
# Elastic Constant Matrix: (Units=GPa)
#
#
# Indices 1 2 3 4 5 6 
#
# 1 57.3278 27.1213 28.5827 0.0000 7.9726 0.0000
# 2 27.1213 98.5439 21.3569 0.0000 -9.0375 0.0000
# 3 28.5827 21.3569 95.0941 0.0000 21.9510 0.0000
# 4 0.0000 0.0000 0.0000 24.5711 0.0000 5.5697
# 5 7.9726 -9.0375 21.9510 0.0000 26.0030 0.0000
# 6 0.0000 0.0000 0.0000 5.5697 0.0000 9.1634
#
#
#
# Elastic Compliance Matrix: (Units=1/GPa)
#
#
# Indices 1 2 3 4 5 6 
#
# 1 0.023196 -0.005940 -0.004372 0.000000 -0.005486 0.000000
# 2 -0.005940 0.013365 -0.003365 0.000000 0.009307 0.000000
# 3 -0.004372 -0.003365 0.015583 0.000000 -0.012983 0.000000
# 4 0.000000 0.000000 0.000000 0.047202 0.000000 -0.028690
# 5 -0.005486 0.009307 -0.012983 0.000000 0.054334 0.000000
# 6 0.000000 0.000000 0.000000 -0.028690 0.000000 0.126569
#
#
# Mechanical properties :
#
#
# Convention : Reuss Voigt Hill
#
# Bulk Modulus (GPa) = 40.33607 45.00971 42.67289
# Shear Modulus (GPa) = 15.82958 23.54116 19.68537
#
# Velocity S-wave (km/s) = 2.85871 3.48618 3.18792
# Velocity P-wave (km/s) = 5.63209 6.28025 5.96498
#
# Compressibility (1/GPa) = 0.02479171
#
# Stress axis : x y z
#
# Youngs Moduli (GPa) = 43.11045 74.82125 64.17403
#
# Poissons Ratio (x) = 0.44442 0.28056
# Poissons Ratio (y) = 0.25606 0.21592
# Poissons Ratio (z) = 0.18847 0.25175
#
# Static dielectric constant tensor:
#      x y z
#    x 1.719470 0.000000 0.034140 
#    y 0.000000 1.712860 0.000000 
#    z 0.034140 0.000000 1.801330 
# 
# From -- ./inp_files/4422.got.cif
#   From: 2010.05.17/outbox.cif.g08.bks.cpg/sg13_3_cif.got.tgz:4422.got - 2010.06.03 16:44:36.
