data_PCOD9226737
_publ_section_title
;
Structure prediction by ZEFSAII (Michael W. Deem and Ramdas Pophale) SiO2 
 PCOD9226737
Probable space group: P 2/C
;
_chemical_formula_sum "Si O2"
_cell_formula_units_Z 26
_cell_length_a 21.452116
_cell_length_b 11.755079
_cell_length_c 5.627390
_cell_angle_alpha 90.000000
_cell_angle_beta 121.644437
_cell_angle_gamma 90.000000
_cell_volume 1208.079980
_symmetry_space_group_name_H-M "P 2/C"
_symmetry_group_IT_number 13
_symmetry_cell_setting 'monoclinic'
loop_
_space_group_symop_operation_xyz
x,y,z
-x,y,1/2-z
-x,-y,-z
x,-y,1/2+z
loop_
_atom_site_type_symbol
_atom_site_label
_atom_site_fract_x
_atom_site_fract_y
_atom_site_fract_z
Si Si1 0.415908 0.772370 0.081817
Si Si2 0.253149 0.490277 0.256297
Si Si3 0.315858 0.005283 0.381717
Si Si4 0.146148 0.280802 0.042296
Si Si5 0.808328 0.269085 0.866657
Si Si6 0.000000 0.430264 0.750000
Si Si7 0.633362 0.761656 0.016724
O O1 0.500000 0.809243 0.250000
O O2 0.399628 0.715015 0.304072
O O3 0.399628 0.715015 0.794439
O O4 0.359258 0.877121 0.968517
O O5 0.293522 0.500000 0.587044
O O6 0.214302 0.369059 0.178604
O O7 0.190719 0.590620 0.131438
O O8 0.373792 0.900306 0.497584
O O9 0.274257 1.000000 0.548515
O O10 0.156002 0.223575 0.319498
O O11 0.156002 0.223575 0.804508
O O12 0.071767 0.351609 0.893534
O O13 0.721176 0.250021 0.692352
O O14 0.000000 0.500000 0.500000
#
# Coordination Sequence:
#
# PCOD9226737 Si02
#       7
#     4   4   4   4   4   2   4
#     4  10  19  31  46  66  93 122 148 180 227 284
#     4   8  14  25  39  56  79 107 139 175 205 243
#     4   8  16  27  41  61  86 116 146 176 210 267
#     4  10  19  30  45  65  92 123 153 186 219 266
#     4  10  18  30  43  61  92 121 152 189 223 257
#     4  12  20  30  48  72  98 128 160 188 224 268
#     4  10  19  29  44  65  88 122 154 183 222 270
#
# _framework density 21.521754000000001
#
# number of rings (size 3 to 8) (size 9 to 14) (size 15 to 20)
#    0.000    2.462    0.000    5.077    0.000    5.538 
#    0.000    0.000    0.000    0.000    0.000    0.000 
#    0.000  110.769    0.000  124.615    0.000    4.154 
#
# Total GULP energy -144757.454359 kJ/mol
# GULP energy per Si atom -5567.594398 kJ/mol
# Density = 2.147277 g / cm^3
# Si number density = 21.521754 Si / 1000 Ang^3
#
#
#
# Elastic Constant Matrix: (Units=GPa)
#
#
# Indices 1 2 3 4 5 6 
#
# 1 113.6928 5.2116 79.1034 0.0000 -50.0148 0.0000
# 2 5.2116 18.0201 3.2112 0.0000 3.7783 0.0000
# 3 79.1034 3.2112 177.8759 0.0000 -71.2223 0.0000
# 4 0.0000 0.0000 0.0000 4.4928 0.0000 4.1121
# 5 -50.0148 3.7783 -71.2223 0.0000 70.5929 0.0000
# 6 0.0000 0.0000 0.0000 4.1121 0.0000 6.6696
#
#
#
# Elastic Compliance Matrix: (Units=1/GPa)
#
#
# Indices 1 2 3 4 5 6 
#
# 1 0.014609 -0.005044 -0.003613 0.000000 0.006975 0.000000
# 2 -0.005044 0.059369 -0.002570 0.000000 -0.009344 0.000000
# 3 -0.003613 -0.002570 0.010579 0.000000 0.008251 0.000000
# 4 0.000000 0.000000 0.000000 0.510841 0.000000 -0.314952
# 5 0.006975 -0.009344 0.008251 0.000000 0.027932 0.000000
# 6 0.000000 0.000000 0.000000 -0.314952 0.000000 0.344113
#
#
# Mechanical properties :
#
#
# Convention : Reuss Voigt Hill
#
# Bulk Modulus (GPa) = 16.10216 53.84902 34.97559
# Shear Modulus (GPa) = 4.94756 31.15523 18.05140
#
# Velocity S-wave (km/s) = 1.51785 3.80888 2.89926
# Velocity P-wave (km/s) = 3.25113 6.66472 5.24349
#
# Compressibility (1/GPa) = 0.06210346
#
# Stress axis : x y z
#
# Youngs Moduli (GPa) = 68.45082 16.84367 94.53029
#
# Poissons Ratio (x) = 0.08496 0.34151
# Poissons Ratio (y) = 0.34525 0.24297
# Poissons Ratio (z) = 0.24729 0.04329
#
# Static dielectric constant tensor:
#      x y z
#    x 1.815400 0.000000 -0.135970 
#    y 0.000000 1.861340 0.000000 
#    z -0.135970 0.000000 1.887380 
# 
# From -- ./inp_files/5134.got.cif
#   From: 2010.05.17/outbox.cif.g08.bks.cpg/sg13_3_cif.got.tgz:5134.got - 2010.06.03 16:44:36.
