data_PCOD9226652
_publ_section_title
;
Structure prediction by ZEFSAII (Michael W. Deem and Ramdas Pophale) SiO2 
 PCOD9226652
Probable space group: P 2/C
;
_chemical_formula_sum "Si O2"
_cell_formula_units_Z 28
_cell_length_a 8.716239
_cell_length_b 19.459239
_cell_length_c 15.857547
_cell_angle_alpha 90.000000
_cell_angle_beta 149.879034
_cell_angle_gamma 90.000000
_cell_volume 1349.724901
_symmetry_space_group_name_H-M "P 2/C"
_symmetry_group_IT_number 13
_symmetry_cell_setting 'monoclinic'
loop_
_space_group_symop_operation_xyz
x,y,z
-x,y,1/2-z
-x,-y,-z
x,-y,1/2+z
loop_
_atom_site_type_symbol
_atom_site_label
_atom_site_fract_x
_atom_site_fract_y
_atom_site_fract_z
Si Si1 0.363782 0.075830 0.426319
Si Si2 0.971565 0.459379 0.636778
Si Si3 0.335509 0.414890 0.259440
Si Si4 0.619649 0.834335 0.902000
Si Si5 0.714322 0.327278 0.678499
Si Si6 0.277283 0.287644 0.333434
Si Si7 0.780582 0.826219 0.229337
O O1 0.471321 0.106524 0.388045
O O2 0.507960 0.124084 0.569429
O O3 0.000000 0.074097 0.250000
O O4 0.500000 0.000000 0.500000
O O5 0.088036 0.525018 0.641572
O O6 0.193114 0.393587 0.723777
O O7 0.000000 0.474722 0.750000
O O8 0.622464 0.440442 0.452217
O O9 0.500000 0.401486 0.250000
O O10 0.191484 0.344397 0.224281
O O11 0.500000 0.831941 0.750000
O O12 0.510510 0.764829 0.899795
O O13 0.984421 0.844964 0.084615
O O14 0.430279 0.332006 0.480935
O O15 0.679674 0.251750 0.701164
O O16 0.000000 0.322716 0.750000
O O17 0.000000 0.250407 0.250000
O O18 0.000000 0.826166 0.250000
#
# Coordination Sequence:
#
# PCOD9226652 Si02
#       7
#     4   4   4   4   4   4   4
#     4  11  22  41  69  99 131 174 222 247 296 376
#     4  11  22  39  61  81 113 164 212 254 309 394
#     4  12  25  40  57  87 123 157 203 271 330 365
#     4  11  22  40  65  99 132 164 206 267 323 362
#     4  10  17  36  62  84 113 158 213 252 302 370
#     4  12  23  38  65  93 120 160 218 258 305 391
#     4   9  17  36  64  87 124 171 207 251 309 374
#
# _framework density 20.744968
#
# number of rings (size 3 to 8) (size 9 to 14) (size 15 to 20)
#    0.000    1.143    7.143    3.429    2.000    0.000 
#    0.000    3.571    0.000    0.000    0.000    0.000 
#    0.000    0.000    0.000    0.000    0.000    0.000 
#
# Total GULP energy -156162.320611 kJ/mol
# GULP energy per Si atom -5577.225736 kJ/mol
# Density = 2.069775 g / cm^3
# Si number density = 20.744968 Si / 1000 Ang^3
#
#
#
# Elastic Constant Matrix: (Units=GPa)
#
#
# Indices 1 2 3 4 5 6 
#
# 1 57.8256 25.1533 34.0631 0.0000 1.1892 0.0000
# 2 25.1533 134.1800 25.4763 0.0000 13.0622 0.0000
# 3 34.0631 25.4763 100.1968 0.0000 -3.3485 0.0000
# 4 0.0000 0.0000 0.0000 23.1991 0.0000 7.4172
# 5 1.1892 13.0622 -3.3485 0.0000 22.2305 0.0000
# 6 0.0000 0.0000 0.0000 7.4172 0.0000 20.5993
#
#
#
# Elastic Compliance Matrix: (Units=1/GPa)
#
#
# Indices 1 2 3 4 5 6 
#
# 1 0.022675 -0.002865 -0.007000 0.000000 -0.000584 0.000000
# 2 -0.002865 0.008769 -0.001430 0.000000 -0.005215 0.000000
# 3 -0.007000 -0.001430 0.012829 0.000000 0.003147 0.000000
# 4 0.000000 0.000000 0.000000 0.048713 0.000000 -0.017540
# 5 -0.000584 -0.005215 0.003147 0.000000 0.048552 0.000000
# 6 0.000000 0.000000 0.000000 -0.017540 0.000000 0.054861
#
#
# Mechanical properties :
#
#
# Convention : Reuss Voigt Hill
#
# Bulk Modulus (GPa) = 46.11779 51.28753 48.70266
# Shear Modulus (GPa) = 22.10282 27.03976 24.57129
#
# Velocity S-wave (km/s) = 3.26767 3.61423 3.44531
# Velocity P-wave (km/s) = 6.04285 6.49565 6.27333
#
# Compressibility (1/GPa) = 0.02168361
#
# Stress axis : x y z
#
# Youngs Moduli (GPa) = 44.10185 114.04035 77.95004
#
# Poissons Ratio (x) = 0.32670 0.54563
# Poissons Ratio (y) = 0.12634 0.11146
# Poissons Ratio (z) = 0.30870 0.16307
#
# Static dielectric constant tensor:
#      x y z
#    x 1.748590 0.000000 0.001460 
#    y 0.000000 1.778080 0.000000 
#    z 0.001460 0.000000 1.817920 
# 
# From -- ./inp_files/48247.got.cif
#   From: 2010.05.17/outbox.cif.g08.bks.cpg/sg13_25_cif.got.tgz:48247.got - 2010.06.03 16:44:36.
