data_PCOD9226181
_publ_section_title
;
Structure prediction by ZEFSAII (Michael W. Deem and Ramdas Pophale) SiO2 
 PCOD9226181
Probable space group: P 2/C
;
_chemical_formula_sum "Si O2"
_cell_formula_units_Z 32
_cell_length_a 13.058515
_cell_length_b 7.175181
_cell_length_c 19.519185
_cell_angle_alpha 90.000000
_cell_angle_beta 134.409454
_cell_angle_gamma 90.000000
_cell_volume 1306.483033
_symmetry_space_group_name_H-M "P 2/C"
_symmetry_group_IT_number 13
_symmetry_cell_setting 'monoclinic'
loop_
_space_group_symop_operation_xyz
x,y,z
-x,y,1/2-z
-x,-y,-z
x,-y,1/2+z
loop_
_atom_site_type_symbol
_atom_site_label
_atom_site_fract_x
_atom_site_fract_y
_atom_site_fract_z
Si Si1 0.199812 0.100930 0.802139
Si Si2 0.097247 0.911562 0.402490
Si Si3 0.403443 0.554748 0.763345
Si Si4 0.210219 0.658080 0.792831
Si Si5 0.735316 0.017303 0.897846
Si Si6 0.154381 0.570398 0.055423
Si Si7 0.887021 0.636022 0.608098
Si Si8 0.440741 0.130203 0.813239
O O1 0.177486 0.156424 0.870750
O O2 0.194654 0.878129 0.795111
O O3 0.065625 0.154755 0.689747
O O4 0.351263 0.151332 0.840492
O O5 0.161107 0.882485 0.509002
O O6 0.107927 0.138867 0.400244
O O7 0.500000 0.652074 0.750000
O O8 0.350190 0.624967 0.812243
O O9 0.256808 0.533699 0.654207
O O10 0.461958 0.344467 0.800023
O O11 0.202219 0.585867 0.866493
O O12 0.056485 0.587868 0.691567
O O13 0.823408 0.208039 0.926757
O O14 0.598774 0.045124 0.884686
O O15 0.657776 0.008704 0.786454
O O16 0.184436 0.539318 0.989777
O O17 0.000000 0.500000 0.000000
#
# Coordination Sequence:
#
# PCOD9226181 Si02
#       8
#     4   4   4   4   4   4   4   4
#     4   9  18  33  55  78 101 135 179 227 263 310
#     4   8  16  32  54  76  99 133 183 222 257 311
#     4  11  20  35  51  76 109 144 171 211 273 327
#     4   9  17  32  53  78 101 132 179 222 261 302
#     4   9  18  33  52  75 105 146 177 209 263 333
#     4  10  16  29  56  80  99 135 187 216 249 315
#     4   8  15  29  52  78 100 131 175 220 262 306
#     4  10  19  34  52  75 108 147 171 205 273 335
#
# _framework density 24.49324
#
# number of rings (size 3 to 8) (size 9 to 14) (size 15 to 20)
#    0.000    2.750    3.750    1.500    0.000    1.000 
#    2.250    3.125    0.000    0.000    0.000    0.000 
#    0.000    0.000    0.000    0.000    0.000    0.000 
#
# Total GULP energy -178456.688575 kJ/mol
# GULP energy per Si atom -5576.771518 kJ/mol
# Density = 2.443749 g / cm^3
# Si number density = 24.493240 Si / 1000 Ang^3
#
#
#
# Elastic Constant Matrix: (Units=GPa)
#
#
# Indices 1 2 3 4 5 6 
#
# 1 142.7730 9.9236 -10.8040 0.0000 -4.9856 0.0000
# 2 9.9236 79.8054 9.9413 0.0000 -1.6699 0.0000
# 3 -10.8040 9.9413 43.9806 0.0000 -3.9060 0.0000
# 4 0.0000 0.0000 0.0000 4.3442 0.0000 0.6287
# 5 -4.9856 -1.6699 -3.9060 0.0000 36.2532 0.0000
# 6 0.0000 0.0000 0.0000 0.6287 0.0000 42.8847
#
#
#
# Elastic Compliance Matrix: (Units=1/GPa)
#
#
# Indices 1 2 3 4 5 6 
#
# 1 0.007288 -0.001150 0.002155 0.000000 0.001182 0.000000
# 2 -0.001150 0.013078 -0.003230 0.000000 0.000096 0.000000
# 3 0.002155 -0.003230 0.024242 0.000000 0.002759 0.000000
# 4 0.000000 0.000000 0.000000 0.230683 0.000000 -0.003382
# 5 0.001182 0.000096 0.002759 0.000000 0.028048 0.000000
# 6 0.000000 0.000000 0.000000 -0.003382 0.000000 0.023368
#
#
# Mechanical properties :
#
#
# Convention : Reuss Voigt Hill
#
# Bulk Modulus (GPa) = 24.90126 31.63121 28.26624
# Shear Modulus (GPa) = 14.51199 33.86297 24.18748
#
# Velocity S-wave (km/s) = 2.43675 3.72229 3.14589
# Velocity P-wave (km/s) = 4.25508 5.60502 4.97604
#
# Compressibility (1/GPa) = 0.04015861
#
# Stress axis : x y z
#
# Youngs Moduli (GPa) = 137.20396 76.46505 41.25079
#
# Poissons Ratio (x) = 0.08794 -0.08891
# Poissons Ratio (y) = 0.15779 0.13324
# Poissons Ratio (z) = -0.29572 0.24699
#
# Static dielectric constant tensor:
#      x y z
#    x 2.013210 0.000000 0.013580 
#    y 0.000000 2.015160 0.000000 
#    z 0.013580 0.000000 2.000910 
# 
# From -- ./inp_files/78413.got.cif
#   From: 2010.05.17/outbox.cif.g08.bks.cpg/sg13_40_cif.got.tgz:78413.got - 2010.06.03 16:44:36.
