data_PCOD9226537
_publ_section_title
;
Structure prediction by ZEFSAII (Michael W. Deem and Ramdas Pophale) SiO2 
 PCOD9226537
Probable space group: P 2/C
;
_chemical_formula_sum "Si O2"
_cell_formula_units_Z 30
_cell_length_a 26.497726
_cell_length_b 8.234615
_cell_length_c 8.802587
_cell_angle_alpha 90.000000
_cell_angle_beta 39.041862
_cell_angle_gamma 90.000000
_cell_volume 1209.833441
_symmetry_space_group_name_H-M "P 2/C"
_symmetry_group_IT_number 13
_symmetry_cell_setting 'monoclinic'
loop_
_space_group_symop_operation_xyz
x,y,z
-x,y,1/2-z
-x,-y,-z
x,-y,1/2+z
loop_
_atom_site_type_symbol
_atom_site_label
_atom_site_fract_x
_atom_site_fract_y
_atom_site_fract_z
Si Si1 0.271656 0.392542 0.351028
Si Si2 0.660143 0.882316 0.031851
Si Si3 0.579501 0.352614 0.318681
Si Si4 0.500000 0.122389 0.750000
Si Si5 0.384099 0.329123 0.601257
Si Si6 0.886431 0.239006 0.715805
Si Si7 0.834952 0.036239 0.136417
Si Si8 0.033204 0.166005 0.500780
O O1 0.326971 0.323383 0.356627
O O2 0.301043 0.575783 0.261145
O O3 0.179718 0.377339 0.610755
O O4 0.304664 0.282044 0.133441
O O5 0.582527 0.950339 0.125278
O O6 0.630744 0.828243 0.265729
O O7 0.740009 0.986702 0.861200
O O8 0.530064 0.235956 0.542663
O O9 0.428248 0.460903 0.607030
O O10 0.572602 0.318612 0.159250
O O11 0.978151 0.289196 0.533801
O O12 0.876097 0.134970 0.585371
O O13 0.856421 0.119499 0.925627
O O14 0.872519 0.154343 0.181563
O O15 0.000000 0.172777 0.750000
O O16 0.000000 0.000000 0.500000
#
# Coordination Sequence:
#
# PCOD9226537 Si02
#       8
#     4   4   4   2   4   4   4   4
#     4   8  16  31  44  67  95 131 156 195 238 285
#     4  10  19  32  47  68 100 125 162 200 244 290
#     4   9  18  29  47  70  98 122 156 193 242 280
#     4  10  20  34  48  72 100 126 156 202 248 286
#     4  10  17  32  47  72  95 129 153 200 245 289
#     4   9  16  29  50  71 101 127 163 195 238 292
#     4   9  18  30  49  74  98 129 159 202 243 283
#     4   8  14  26  45  72  96 122 157 200 241 278
#
# _framework density 24.796803000000001
#
# number of rings (size 3 to 8) (size 9 to 14) (size 15 to 20)
#    0.800    2.133    1.333    0.000    0.000    3.733 
#    0.000    0.000    0.000    8.000    0.000    0.000 
#    0.000    0.133    0.000    0.000    0.000    0.000 
#
# Total GULP energy -167162.686946 kJ/mol
# GULP energy per Si atom -5572.089565 kJ/mol
# Density = 2.474036 g / cm^3
# Si number density = 24.796803 Si / 1000 Ang^3
#
#
#
# Elastic Constant Matrix: (Units=GPa)
#
#
# Indices 1 2 3 4 5 6 
#
# 1 99.6053 7.6312 40.0576 0.0000 -16.6450 0.0000
# 2 7.6312 41.6236 14.0003 0.0000 4.2060 0.0000
# 3 40.0576 14.0003 69.1647 0.0000 -18.0437 0.0000
# 4 0.0000 0.0000 0.0000 24.0325 0.0000 0.9480
# 5 -16.6450 4.2060 -18.0437 0.0000 59.4596 0.0000
# 6 0.0000 0.0000 0.0000 0.9480 0.0000 7.6964
#
#
#
# Elastic Compliance Matrix: (Units=1/GPa)
#
#
# Indices 1 2 3 4 5 6 
#
# 1 0.013210 -0.000144 -0.007226 0.000000 0.001515 0.000000
# 2 -0.000144 0.026554 -0.006290 0.000000 -0.003827 0.000000
# 3 -0.007226 -0.006290 0.021182 0.000000 0.004850 0.000000
# 4 0.000000 0.000000 0.000000 0.041813 0.000000 -0.005150
# 5 0.001515 -0.003827 0.004850 0.000000 0.018985 0.000000
# 6 0.000000 0.000000 0.000000 -0.005150 0.000000 0.130565
#
#
# Mechanical properties :
#
#
# Convention : Reuss Voigt Hill
#
# Bulk Modulus (GPa) = 29.74018 37.08575 33.41296
# Shear Modulus (GPa) = 17.19171 28.15135 22.67153
#
# Velocity S-wave (km/s) = 2.63592 3.37305 3.02701
# Velocity P-wave (km/s) = 4.61343 5.49166 5.07159
#
# Compressibility (1/GPa) = 0.03362455
#
# Stress axis : x y z
#
# Youngs Moduli (GPa) = 75.70010 37.65953 47.21030
#
# Poissons Ratio (x) = 0.00544 0.34115
# Poissons Ratio (y) = 0.01094 0.29695
# Poissons Ratio (z) = 0.54702 0.23687
#
# Static dielectric constant tensor:
#      x y z
#    x 2.087370 0.000000 -0.109790 
#    y 0.000000 1.998170 0.000000 
#    z -0.109790 0.000000 2.031250 
# 
# From -- ./inp_files/24129.got.cif
#   From: 2010.05.17/outbox.cif.g08.bks.cpg/sg13_13_cif.got.tgz:24129.got - 2010.06.03 16:44:36.
