data_PCOD9226564
_publ_section_title
;
Structure prediction by ZEFSAII (Michael W. Deem and Ramdas Pophale) SiO2 
 PCOD9226564
Probable space group: P 2/C
;
_chemical_formula_sum "Si O2"
_cell_formula_units_Z 28
_cell_length_a 5.113308
_cell_length_b 16.656359
_cell_length_c 16.831182
_cell_angle_alpha 90.000000
_cell_angle_beta 106.311665
_cell_angle_gamma 90.000000
_cell_volume 1375.795602
_symmetry_space_group_name_H-M "P 2/C"
_symmetry_group_IT_number 13
_symmetry_cell_setting 'monoclinic'
loop_
_space_group_symop_operation_xyz
x,y,z
-x,y,1/2-z
-x,-y,-z
x,-y,1/2+z
loop_
_atom_site_type_symbol
_atom_site_label
_atom_site_fract_x
_atom_site_fract_y
_atom_site_fract_z
Si Si1 0.805168 0.998639 0.059723
Si Si2 0.798142 0.346913 0.614590
Si Si3 0.042998 0.335309 0.346697
Si Si4 0.239770 0.172913 0.438658
Si Si5 0.613716 0.592640 0.926299
Si Si6 0.654603 0.435873 0.838131
Si Si7 0.149922 0.824252 0.442957
O O1 0.832854 0.085145 0.103378
O O2 0.500000 0.000000 0.000000
O O3 0.855270 0.910993 0.101025
O O4 0.000000 0.000000 0.000000
O O5 0.722703 0.377210 0.519658
O O6 0.541030 0.365295 0.647617
O O7 0.865265 0.253149 0.613857
O O8 0.057099 0.399713 0.660995
O O9 0.139887 0.245809 0.376622
O O10 0.290930 0.392608 0.394936
O O11 0.000000 0.345269 0.250000
O O12 0.772798 0.356618 0.372759
O O13 0.561035 0.179580 0.485153
O O14 0.085176 0.179534 0.510378
O O15 0.676848 0.500767 0.910040
O O16 0.500000 0.474892 0.750000
#
# Coordination Sequence:
#
# PCOD9226564 Si02
#       7
#     4   4   4   4   4   4   4
#     4   8  16  27  50  78 109 143 175 227 278 322
#     4  12  22  40  65  86 113 148 196 243 287 331
#     4  12  22  35  57  84 120 159 187 235 298 348
#     4  10  17  33  50  81 119 143 187 229 276 337
#     4  12  24  42  60  85 113 149 200 241 285 343
#     4  12  26  42  59  84 116 152 190 238 295 349
#     4  10  18  33  56  84 110 142 187 239 276 320
#
# _framework density 20.351859999999999
#
# number of rings (size 3 to 8) (size 9 to 14) (size 15 to 20)
#    0.000    1.143    2.857    5.143    0.000    0.000 
#    0.000    0.000    0.000    1.714    0.000    0.000 
#    0.000    0.000    0.000    0.000    0.000    0.000 
#
# Total GULP energy -156448.408244 kJ/mol
# GULP energy per Si atom -5587.443152 kJ/mol
# Density = 2.030554 g / cm^3
# Si number density = 20.351860 Si / 1000 Ang^3
#
#
#
# Elastic Constant Matrix: (Units=GPa)
#
#
# Indices 1 2 3 4 5 6 
#
# 1 74.1464 -6.6054 1.4685 0.0000 -1.4406 0.0000
# 2 -6.6054 116.1717 -10.3471 0.0000 7.1683 0.0000
# 3 1.4685 -10.3471 33.6719 0.0000 -2.9470 0.0000
# 4 0.0000 0.0000 0.0000 3.8986 0.0000 -0.9710
# 5 -1.4406 7.1683 -2.9470 0.0000 20.5147 0.0000
# 6 0.0000 0.0000 0.0000 -0.9710 0.0000 28.5195
#
#
#
# Elastic Compliance Matrix: (Units=1/GPa)
#
#
# Indices 1 2 3 4 5 6 
#
# 1 0.013569 0.000702 -0.000318 0.000000 0.000662 0.000000
# 2 0.000702 0.009041 0.002507 0.000000 -0.002750 0.000000
# 3 -0.000318 0.002507 0.030791 0.000000 0.003525 0.000000
# 4 0.000000 0.000000 0.000000 0.258695 0.000000 0.008808
# 5 0.000662 -0.002750 0.003525 0.000000 0.050259 0.000000
# 6 0.000000 0.000000 0.000000 0.008808 0.000000 0.035364
#
#
# Mechanical properties :
#
#
# Convention : Reuss Voigt Hill
#
# Bulk Modulus (GPa) = 16.89677 21.44689 19.17183
# Shear Modulus (GPa) = 12.14584 26.55150 19.34867
#
# Velocity S-wave (km/s) = 2.44558 3.61587 3.08670
# Velocity P-wave (km/s) = 4.03669 5.29090 4.70577
#
# Compressibility (1/GPa) = 0.05918289
#
# Stress axis : x y z
#
# Youngs Moduli (GPa) = 73.69983 110.60926 32.47691
#
# Poissons Ratio (x) = -0.07768 0.01033
# Poissons Ratio (y) = -0.05176 -0.08142
# Poissons Ratio (z) = 0.02344 -0.27729
#
# Static dielectric constant tensor:
#      x y z
#    x 1.701360 0.000000 0.010020 
#    y 0.000000 1.790190 0.000000 
#    z 0.010020 0.000000 1.685650 
# 
# From -- ./inp_files/61681.got.cif
#   From: 2010.05.17/outbox.cif.g08.bks.cpg/sg13_31_cif.got.tgz:61681.got - 2010.06.03 16:44:36.
