data_PCOD9226468
_publ_section_title
;
Structure prediction by ZEFSAII (Michael W. Deem and Ramdas Pophale) SiO2 
 PCOD9226468
Probable space group: P 2/C
;
_chemical_formula_sum "Si O2"
_cell_formula_units_Z 32
_cell_length_a 20.960751
_cell_length_b 9.473733
_cell_length_c 19.271236
_cell_angle_alpha 90.000000
_cell_angle_beta 24.927372
_cell_angle_gamma 90.000000
_cell_volume 1612.884535
_symmetry_space_group_name_H-M "P 2/C"
_symmetry_group_IT_number 13
_symmetry_cell_setting 'monoclinic'
loop_
_space_group_symop_operation_xyz
x,y,z
-x,y,1/2-z
-x,-y,-z
x,-y,1/2+z
loop_
_atom_site_type_symbol
_atom_site_label
_atom_site_fract_x
_atom_site_fract_y
_atom_site_fract_z
Si Si1 0.815866 0.598764 0.133568
Si Si2 0.510417 0.601159 0.355552
Si Si3 0.535175 0.824627 0.535118
Si Si4 0.924099 0.666399 0.443693
Si Si5 0.048725 0.161877 0.439026
Si Si6 0.232039 0.594028 0.171510
Si Si7 0.377461 0.665902 0.815206
Si Si8 0.628535 0.137667 0.450964
O O1 0.638051 0.611011 0.289936
O O2 0.876527 0.487134 0.018867
O O3 0.831017 0.529299 0.194921
O O4 0.914403 0.741923 0.038561
O O5 0.362246 0.506271 0.515856
O O6 0.597942 0.504396 0.213079
O O7 0.439062 0.756757 0.424476
O O8 0.688384 0.735931 0.380431
O O9 0.429397 0.736858 0.691565
O O10 0.455209 0.834736 0.540012
O O11 0.582205 0.978596 0.514962
O O12 0.918533 0.769601 0.516820
O O13 0.799753 0.703109 0.508390
O O14 0.098956 0.641958 0.252347
O O15 0.195567 0.160182 0.243473
O O16 0.000000 0.000000 0.500000
O O17 0.500000 0.718250 0.750000
#
# Coordination Sequence:
#
# PCOD9226468 Si02
#       8
#     4   4   4   4   4   4   4   4
#     4  10  18  29  46  76 109 143 169 209 273 326
#     4  10  20  31  56  77 107 142 180 225 267 317
#     4  10  21  32  53  78 110 144 175 221 277 330
#     4  10  19  32  52  76 107 143 177 220 276 317
#     4  11  21  30  49  82 120 142 168 216 276 343
#     4  10  17  30  48  78 107 139 176 215 271 330
#     4  10  22  40  56  77 105 146 196 227 260 322
#     4  11  19  33  51  82 113 138 174 221 285 335
#
# _framework density 19.840229999999998
#
# number of rings (size 3 to 8) (size 9 to 14) (size 15 to 20)
#    0.000    1.750    2.500    4.875    3.500    0.000 
#    0.000    3.125    0.000    0.000    0.000    5.250 
#    0.000    0.000    0.000    0.000    0.000    0.000 
#
# Total GULP energy -178136.461619 kJ/mol
# GULP energy per Si atom -5566.764426 kJ/mol
# Density = 1.979507 g / cm^3
# Si number density = 19.840230 Si / 1000 Ang^3
#
#
#
# Elastic Constant Matrix: (Units=GPa)
#
#
# Indices 1 2 3 4 5 6 
#
# 1 54.0898 4.4206 18.6415 0.0000 -29.1951 0.0000
# 2 4.4206 101.1703 7.6796 0.0000 -7.8145 0.0000
# 3 18.6415 7.6796 95.6908 0.0000 -41.1375 0.0000
# 4 0.0000 0.0000 0.0000 16.9782 0.0000 -3.2088
# 5 -29.1951 -7.8145 -41.1375 0.0000 36.4274 0.0000
# 6 0.0000 0.0000 0.0000 -3.2088 0.0000 8.3567
#
#
#
# Elastic Compliance Matrix: (Units=1/GPa)
#
#
# Indices 1 2 3 4 5 6 
#
# 1 0.037774 0.000826 0.011013 0.000000 0.042888 0.000000
# 2 0.000826 0.010072 0.000475 0.000000 0.003359 0.000000
# 3 0.011013 0.000475 0.023527 0.000000 0.035497 0.000000
# 4 0.000000 0.000000 0.000000 0.063508 0.000000 0.024385
# 5 0.042888 0.003359 0.035497 0.000000 0.102632 0.000000
# 6 0.000000 0.000000 0.000000 0.024385 0.000000 0.129028
#
#
# Mechanical properties :
#
#
# Convention : Reuss Voigt Hill
#
# Bulk Modulus (GPa) = 10.41672 34.71490 22.56581
# Shear Modulus (GPa) = 13.37209 27.03308 20.20259
#
# Velocity S-wave (km/s) = 2.59895 3.69526 3.19449
# Velocity P-wave (km/s) = 3.77726 5.97845 5.00048
#
# Compressibility (1/GPa) = 0.09599954
#
# Stress axis : x y z
#
# Youngs Moduli (GPa) = 26.47348 99.28875 42.50409
#
# Poissons Ratio (x) = -0.08204 -0.46808
# Poissons Ratio (y) = -0.02187 -0.02018
# Poissons Ratio (z) = -0.29154 -0.04714
#
# Static dielectric constant tensor:
#      x y z
#    x 1.744860 0.000000 -0.003920 
#    y 0.000000 1.718720 0.000000 
#    z -0.003920 0.000000 1.831090 
# 
# From -- ./inp_files/88951.got.cif
#   From: 2010.05.17/outbox.cif.g08.bks.cpg/sg13_45_cif.got.tgz:88951.got - 2010.06.03 16:44:36.
