data_PCOD9226549
_publ_section_title
;
Structure prediction by ZEFSAII (Michael W. Deem and Ramdas Pophale) SiO2 
 PCOD9226549
Probable space group: P 2/C
;
_chemical_formula_sum "Si O2"
_cell_formula_units_Z 28
_cell_length_a 17.339714
_cell_length_b 17.509564
_cell_length_c 5.181986
_cell_angle_alpha 90.000000
_cell_angle_beta 72.605765
_cell_angle_gamma 90.000000
_cell_volume 1501.360397
_symmetry_space_group_name_H-M "P 2/C"
_symmetry_group_IT_number 13
_symmetry_cell_setting 'monoclinic'
loop_
_space_group_symop_operation_xyz
x,y,z
-x,y,1/2-z
-x,-y,-z
x,-y,1/2+z
loop_
_atom_site_type_symbol
_atom_site_label
_atom_site_fract_x
_atom_site_fract_y
_atom_site_fract_z
Si Si1 0.500000 0.808951 0.750000
Si Si2 0.907264 0.215364 0.420013
Si Si3 0.500000 0.916575 0.250000
Si Si4 0.676575 0.089043 0.549234
Si Si5 0.144669 0.958290 0.615151
Si Si6 0.094651 0.550120 0.175925
Si Si7 0.674546 0.197475 0.051772
Si Si8 0.834251 0.287883 0.990756
O O1 0.499811 0.863459 0.501352
O O2 0.414901 0.766411 0.842116
O O3 0.881573 0.127229 0.422202
O O4 0.890283 0.244763 0.724454
O O5 0.000000 0.224353 0.250000
O O6 0.856340 0.262293 0.258153
O O7 0.410579 0.953850 0.343650
O O8 0.757339 0.039805 0.484173
O O9 0.680730 0.136603 0.279341
O O10 0.681055 0.149930 0.779715
O O11 0.115493 0.015412 0.423355
O O12 0.107285 0.514101 0.444693
O O13 0.149530 0.622996 0.064846
O O14 0.000000 0.573895 0.250000
O O15 0.744932 0.258400 0.013496
#
# Coordination Sequence:
#
# PCOD9226549 Si02
#       8
#     2   4   2   4   4   4   4   4
#     4   8  16  26  48  81 106 133 164 216 272 308
#     4  12  25  40  58  81 106 138 190 239 275 317
#     4   8  16  28  52  71 102 133 166 216 272 328
#     4  10  18  35  51  77 103 136 176 223 274 327
#     4  12  24  38  55  74 104 145 181 229 284 331
#     4  10  21  36  54  81 116 147 174 211 265 325
#     4  10  17  32  55  80 108 134 176 223 264 317
#     4  12  21  38  62  86 109 144 183 225 268 317
#
# _framework density 18.649750999999998
#
# number of rings (size 3 to 8) (size 9 to 14) (size 15 to 20)
#    0.000    1.429    2.857    3.857    0.000    1.714 
#    0.000    0.714    0.000    0.000    0.000    1.000 
#    0.000    0.000    0.000    0.000    0.000    0.000 
#
# Total GULP energy -156478.962466 kJ/mol
# GULP energy per Si atom -5588.534374 kJ/mol
# Density = 1.860730 g / cm^3
# Si number density = 18.649751 Si / 1000 Ang^3
#
#
#
# Elastic Constant Matrix: (Units=GPa)
#
#
# Indices 1 2 3 4 5 6 
#
# 1 61.3755 8.4686 0.7097 0.0000 -11.2930 0.0000
# 2 8.4686 50.2386 -2.4076 0.0000 -3.0106 0.0000
# 3 0.7097 -2.4076 49.9002 0.0000 2.5695 0.0000
# 4 0.0000 0.0000 0.0000 22.9049 0.0000 -14.2925
# 5 -11.2930 -3.0106 2.5695 0.0000 24.5227 0.0000
# 6 0.0000 0.0000 0.0000 -14.2925 0.0000 71.1344
#
#
#
# Elastic Compliance Matrix: (Units=1/GPa)
#
#
# Indices 1 2 3 4 5 6 
#
# 1 0.018158 -0.002612 -0.000803 0.000000 0.008125 0.000000
# 2 -0.002612 0.020464 0.000962 0.000000 0.001208 0.000000
# 3 -0.000803 0.000962 0.020220 0.000000 -0.002370 0.000000
# 4 0.000000 0.000000 0.000000 0.049917 0.000000 0.010030
# 5 0.008125 0.001208 -0.002370 0.000000 0.044917 0.000000
# 6 0.000000 0.000000 0.000000 0.010030 0.000000 0.016073
#
#
# Mechanical properties :
#
#
# Convention : Reuss Voigt Hill
#
# Bulk Modulus (GPa) = 18.54042 19.45061 18.99551
# Shear Modulus (GPa) = 25.95606 34.02865 29.99236
#
# Velocity S-wave (km/s) = 3.73468 4.27619 4.01458
# Velocity P-wave (km/s) = 5.34417 5.90196 5.62997
#
# Compressibility (1/GPa) = 0.05393622
#
# Stress axis : x y z
#
# Youngs Moduli (GPa) = 55.07235 48.86657 49.45625
#
# Poissons Ratio (x) = 0.12766 0.03970
# Poissons Ratio (y) = 0.14387 -0.04759
# Poissons Ratio (z) = 0.04421 -0.04702
#
# Static dielectric constant tensor:
#      x y z
#    x 1.699970 0.000000 -0.010900 
#    y 0.000000 1.597110 0.000000 
#    z -0.010900 0.000000 1.659770 
# 
# From -- ./inp_files/6196.got.cif
#   From: 2010.05.17/outbox.cif.g08.bks.cpg/sg13_4_cif.got.tgz:6196.got - 2010.06.03 16:44:36.
