data_PCOD9226219
_publ_section_title
;
Structure prediction by ZEFSAII (Michael W. Deem and Ramdas Pophale) SiO2 
 PCOD9226219
Probable space group: P 2/C
;
_chemical_formula_sum "Si O2"
_cell_formula_units_Z 26
_cell_length_a 15.136658
_cell_length_b 9.051950
_cell_length_c 22.071291
_cell_angle_alpha 90.000000
_cell_angle_beta 150.185947
_cell_angle_gamma 90.000000
_cell_volume 1503.555479
_symmetry_space_group_name_H-M "P 2/C"
_symmetry_group_IT_number 13
_symmetry_cell_setting 'monoclinic'
loop_
_space_group_symop_operation_xyz
x,y,z
-x,y,1/2-z
-x,-y,-z
x,-y,1/2+z
loop_
_atom_site_type_symbol
_atom_site_label
_atom_site_fract_x
_atom_site_fract_y
_atom_site_fract_z
Si Si1 0.480818 0.236605 0.497541
Si Si2 0.595877 0.096937 0.370765
Si Si3 0.161382 0.658579 0.892705
Si Si4 0.660715 0.009052 0.681458
Si Si5 0.000000 0.130046 0.750000
Si Si6 0.690674 0.656204 0.018768
Si Si7 0.961231 0.062337 0.108516
O O1 0.324195 0.278063 0.449970
O O2 0.634907 0.164351 0.631158
O O3 0.552758 0.357953 0.492760
O O4 0.404806 0.111577 0.406795
O O5 0.500000 0.111274 0.250000
O O6 0.612834 0.252759 0.416091
O O7 0.477424 0.997372 0.345539
O O8 0.790357 0.023051 0.481290
O O9 0.225252 0.497490 0.951533
O O10 0.098182 0.773558 0.906668
O O11 0.000000 0.638596 0.750000
O O12 0.856374 0.959770 0.819702
O O13 0.161781 0.235211 0.864456
O O14 0.980910 0.020724 0.795078
#
# Coordination Sequence:
#
# PCOD9226219 Si02
#       7
#     4   4   4   4   2   4   4
#     4  10  18  32  52  87 117 140 171 225 288 342
#     4  10  23  40  56  76 108 157 200 227 265 323
#     4  12  20  31  53  90 118 139 171 224 295 346
#     4  10  18  32  58  85 112 140 184 233 278 328
#     4  10  16  30  50  82 106 140 168 216 278 334
#     4  10  21  33  53  79 116 145 176 221 281 336
#     4  11  19  33  58  81 113 142 181 237 278 320
#
# _framework density 17.292345000000001
#
# number of rings (size 3 to 8) (size 9 to 14) (size 15 to 20)
#    0.000    1.538    6.154    0.462    0.000    0.615 
#    0.000    0.769    0.000    0.923    0.000    0.000 
#    0.000    0.000    0.000    0.000    0.000    0.000 
#
# Total GULP energy -144872.764527 kJ/mol
# GULP energy per Si atom -5572.029405 kJ/mol
# Density = 1.725299 g / cm^3
# Si number density = 17.292345 Si / 1000 Ang^3
#
#
#
# Elastic Constant Matrix: (Units=GPa)
#
#
# Indices 1 2 3 4 5 6 
#
# 1 37.2904 22.3068 37.5926 0.0000 9.4705 0.0000
# 2 22.3068 64.8000 30.9242 0.0000 -3.3852 0.0000
# 3 37.5926 30.9242 99.7671 0.0000 -0.0095 0.0000
# 4 0.0000 0.0000 0.0000 17.0602 0.0000 11.4151
# 5 9.4705 -3.3852 -0.0095 0.0000 33.5591 0.0000
# 6 0.0000 0.0000 0.0000 11.4151 0.0000 16.8327
#
#
#
# Elastic Compliance Matrix: (Units=1/GPa)
#
#
# Indices 1 2 3 4 5 6 
#
# 1 0.055572 -0.011757 -0.017297 0.000000 -0.016874 0.000000
# 2 -0.011757 0.020711 -0.001989 0.000000 0.005406 0.000000
# 3 -0.017297 -0.001989 0.017158 0.000000 0.004686 0.000000
# 4 0.000000 0.000000 0.000000 0.107306 0.000000 -0.072770
# 5 -0.016874 0.005406 0.004686 0.000000 0.035107 0.000000
# 6 0.000000 0.000000 0.000000 -0.072770 0.000000 0.108757
#
#
# Mechanical properties :
#
#
# Convention : Reuss Voigt Hill
#
# Bulk Modulus (GPa) = 31.89320 42.61164 37.25242
# Shear Modulus (GPa) = 11.98613 20.89266 16.43940
#
# Velocity S-wave (km/s) = 2.63562 3.47969 3.08665
# Velocity P-wave (km/s) = 5.26741 6.39060 5.85599
#
# Compressibility (1/GPa) = 0.03135464
#
# Stress axis : x y z
#
# Youngs Moduli (GPa) = 17.99461 48.28347 58.28203
#
# Poissons Ratio (x) = 0.56767 1.00811
# Poissons Ratio (y) = 0.21156 0.11593
# Poissons Ratio (z) = 0.31126 0.09604
#
# Static dielectric constant tensor:
#      x y z
#    x 1.637250 0.000000 0.060820 
#    y 0.000000 1.605090 0.000000 
#    z 0.060820 0.000000 1.594120 
# 
# From -- ./inp_files/49729.got.cif
#   From: 2010.05.17/outbox.cif.g08.bks.cpg/sg13_25_cif.got.tgz:49729.got - 2010.06.03 16:44:36.
