data_PCOD9226269
_publ_section_title
;
Structure prediction by ZEFSAII (Michael W. Deem and Ramdas Pophale) SiO2 
 PCOD9226269
Probable space group: P 2/C
;
_chemical_formula_sum "Si O2"
_cell_formula_units_Z 22
_cell_length_a 8.623133
_cell_length_b 5.465748
_cell_length_c 17.667817
_cell_angle_alpha 90.000000
_cell_angle_beta 89.831083
_cell_angle_gamma 90.000000
_cell_volume 832.713670
_symmetry_space_group_name_H-M "P 2/C"
_symmetry_group_IT_number 13
_symmetry_cell_setting 'monoclinic'
loop_
_space_group_symop_operation_xyz
x,y,z
-x,y,1/2-z
-x,-y,-z
x,-y,1/2+z
loop_
_atom_site_type_symbol
_atom_site_label
_atom_site_fract_x
_atom_site_fract_y
_atom_site_fract_z
Si Si1 0.000000 0.541084 0.250000
Si Si2 0.339145 0.526841 0.046093
Si Si3 0.152803 0.093805 0.863453
Si Si4 0.737503 0.239111 0.270511
Si Si5 0.553025 0.652077 0.177189
Si Si6 0.180296 0.971153 0.575449
O O1 0.087371 0.690632 0.312743
O O2 0.124042 0.405238 0.199104
O O3 0.410743 0.543565 0.130507
O O4 0.230658 0.287191 0.037058
O O5 0.251898 0.786675 0.034370
O O6 0.500000 0.500000 0.000000
O O7 0.329295 0.195967 0.876738
O O8 0.180657 0.892143 0.800257
O O9 0.005763 0.011953 0.914551
O O10 0.631526 0.422243 0.220207
O O11 0.729859 0.051961 0.342231
O O12 0.500000 0.815431 0.250000
#
# Coordination Sequence:
#
# PCOD9226269 Si02
#       6
#     2   4   4   4   4   4
#     4  10  16  32  52 102 150 174 214 284 360 426
#     4  12  29  51  73  99 145 197 247 300 369 440
#     4  11  22  35  66 106 145 180 237 297 360 435
#     4  11  20  33  65 105 147 170 230 293 366 419
#     4  11  25  41  68 109 147 183 237 306 368 429
#     4  12  23  46  74 101 139 196 243 290 365 444
#
# _framework density 26.419647000000001
#
# number of rings (size 3 to 8) (size 9 to 14) (size 15 to 20)
#    0.000    0.727    5.455    2.727    5.091    0.727 
#    0.000    1.818    0.000    0.000    0.000    0.000 
#    0.000    0.000    0.000    0.000    0.000    0.000 
#
# Total GULP energy -122539.391039 kJ/mol
# GULP energy per Si atom -5569.972320 kJ/mol
# Density = 2.635952 g / cm^3
# Si number density = 26.419647 Si / 1000 Ang^3
#
#
#
# Elastic Constant Matrix: (Units=GPa)
#
#
# Indices 1 2 3 4 5 6 
#
# 1 119.9569 59.2774 11.2070 0.0000 -37.8345 0.0000
# 2 59.2774 131.5467 20.5755 0.0000 -43.2260 0.0000
# 3 11.2070 20.5755 101.9767 0.0000 -38.2887 0.0000
# 4 0.0000 0.0000 0.0000 18.6836 0.0000 -19.7429
# 5 -37.8345 -43.2260 -38.2887 0.0000 52.8117 0.0000
# 6 0.0000 0.0000 0.0000 -19.7429 0.0000 55.6361
#
#
#
# Elastic Compliance Matrix: (Units=1/GPa)
#
#
# Indices 1 2 3 4 5 6 
#
# 1 0.012168 -0.003339 0.002176 0.000000 0.007562 0.000000
# 2 -0.003339 0.011486 0.000936 0.000000 0.007688 0.000000
# 3 0.002176 0.000936 0.014085 0.000000 0.012537 0.000000
# 4 0.000000 0.000000 0.000000 0.085634 0.000000 0.030388
# 5 0.007562 0.007688 0.012537 0.000000 0.039734 0.000000
# 6 0.000000 0.000000 0.000000 0.030388 0.000000 0.028757
#
#
# Mechanical properties :
#
#
# Convention : Reuss Voigt Hill
#
# Bulk Modulus (GPa) = 26.82009 59.51112 43.16560
# Shear Modulus (GPa) = 24.42034 42.92097 33.67065
#
# Velocity S-wave (km/s) = 3.04357 4.03499 3.57382
# Velocity P-wave (km/s) = 4.74602 6.65450 5.77958
#
# Compressibility (1/GPa) = 0.03728548
#
# Stress axis : x y z
#
# Youngs Moduli (GPa) = 82.18394 87.06084 70.99618
#
# Poissons Ratio (x) = 0.29066 -0.15446
# Poissons Ratio (y) = 0.27437 -0.06646
# Poissons Ratio (z) = -0.17880 -0.08149
#
# Static dielectric constant tensor:
#      x y z
#    x 2.369060 0.000000 -0.291970 
#    y 0.000000 2.266610 0.000000 
#    z -0.291970 0.000000 2.499810 
# 
# From -- ./inp_files/74482.got.cif
#   From: 2010.05.17/outbox.cif.g08.bks.cpg/sg13_38_cif.got.tgz:74482.got - 2010.06.03 16:44:36.
