data_PCOD9226143
_publ_section_title
;
Structure prediction by ZEFSAII (Michael W. Deem and Ramdas Pophale) SiO2 
 PCOD9226143
Probable space group: P 2/C
;
_chemical_formula_sum "Si O2"
_cell_formula_units_Z 22
_cell_length_a 20.211500
_cell_length_b 9.774225
_cell_length_c 5.540912
_cell_angle_alpha 90.000000
_cell_angle_beta 59.835620
_cell_angle_gamma 90.000000
_cell_volume 946.391891
_symmetry_space_group_name_H-M "P 2/C"
_symmetry_group_IT_number 13
_symmetry_cell_setting 'monoclinic'
loop_
_space_group_symop_operation_xyz
x,y,z
-x,y,1/2-z
-x,-y,-z
x,-y,1/2+z
loop_
_atom_site_type_symbol
_atom_site_label
_atom_site_fract_x
_atom_site_fract_y
_atom_site_fract_z
Si Si1 0.849648 0.330473 0.518722
Si Si2 0.662623 0.947009 0.952169
Si Si3 0.500000 0.901457 0.750000
Si Si4 0.312350 0.417345 0.664378
Si Si5 0.563006 0.294183 0.780997
Si Si6 0.909364 0.355050 0.909310
O O1 0.758742 0.314771 0.690686
O O2 0.886438 0.282540 0.701830
O O3 0.868335 0.495439 0.483140
O O4 0.883533 0.281634 0.202621
O O5 0.634958 0.787487 0.024135
O O6 0.700222 0.004867 0.131121
O O7 0.581412 0.026372 0.101464
O O8 0.504534 0.814417 0.500220
O O9 0.305344 0.486765 0.415973
O O10 0.395413 0.356499 0.561623
O O11 0.500000 0.382217 0.750000
O O12 0.000000 0.379678 0.750000
#
# Coordination Sequence:
#
# PCOD9226143 Si02
#       6
#     4   4   2   4   4   4
#     4  10  16  31  43  62  93 120 154 194 234 274
#     4  10  17  32  56  76  94 105 134 215 274 302
#     4  10  18  36  54  78  92 106 144 230 270 306
#     4  12  25  39  48  61  99 146 169 200 232 274
#     4  11  22  35  54  72  89 123 177 208 245 294
#     4  10  16  26  50  71  83 108 163 206 231 268
#
# _framework density 23.246184
#
# number of rings (size 3 to 8) (size 9 to 14) (size 15 to 20)
#    0.000    1.455    6.364    3.818    2.545    0.727 
#    0.000    0.000    0.000    0.000    0.000    0.000 
#    0.000    0.000    0.000    0.000    0.000  123.636 
#
# Total GULP energy -122581.763344 kJ/mol
# GULP energy per Si atom -5571.898334 kJ/mol
# Density = 2.319328 g / cm^3
# Si number density = 23.246184 Si / 1000 Ang^3
#
#
#
# Elastic Constant Matrix: (Units=GPa)
#
#
# Indices 1 2 3 4 5 6 
#
# 1 115.7077 13.6196 23.3067 0.0000 27.5485 0.0000
# 2 13.6196 11.7373 16.0273 0.0000 -0.1623 0.0000
# 3 23.3067 16.0273 128.6448 0.0000 55.4457 0.0000
# 4 0.0000 0.0000 0.0000 9.0959 0.0000 8.1752
# 5 27.5485 -0.1623 55.4457 0.0000 43.7344 0.0000
# 6 0.0000 0.0000 0.0000 8.1752 0.0000 7.0734
#
#
#
# Elastic Compliance Matrix: (Units=1/GPa)
#
#
# Indices 1 2 3 4 5 6 
#
# 1 0.017783 -0.041754 0.015156 0.000000 -0.030572 0.000000
# 2 -0.041754 0.236525 -0.074113 0.000000 0.121138 0.000000
# 3 0.015156 -0.074113 0.040773 0.000000 -0.061514 0.000000
# 4 0.000000 0.000000 0.000000 -2.834205 0.000000 3.275690
# 5 -0.030572 0.121138 -0.061514 0.000000 0.120558 0.000000
# 6 0.000000 0.000000 0.000000 3.275690 0.000000 -3.644570
#
#
# Mechanical properties :
#
#
# Convention : Reuss Voigt Hill
#
# Bulk Modulus (GPa) = 10.67690 40.22186 25.44938
# Shear Modulus (GPa) = -0.85756 25.52314 12.33279
#
# Velocity S-wave (km/s) = -0.60803 3.31713 2.30582
# Velocity P-wave (km/s) = 2.02731 5.65785 4.24978
#
# Compressibility (1/GPa) = 0.09366018
#
# Stress axis : x y z
#
# Youngs Moduli (GPa) = 56.23371 4.22788 24.52596
#
# Poissons Ratio (x) = 0.17653 -0.37173
# Poissons Ratio (y) = 2.34796 1.81770
# Poissons Ratio (z) = -0.85230 0.31334
#
# Static dielectric constant tensor:
#      x y z
#    x 2.008730 0.000000 0.151610 
#    y 0.000000 2.015300 0.000000 
#    z 0.151610 0.000000 2.037750 
# 
# From -- ./inp_files/5963.got.cif
#   From: 2010.05.17/outbox.cif.g08.bks.cpg/sg13_3_cif.got.tgz:5963.got - 2010.06.03 16:44:36.
