data_PCOD9226881
_publ_section_title
;
Structure prediction by ZEFSAII (Michael W. Deem and Ramdas Pophale) SiO2 
 PCOD9226881
Probable space group: P 2/C
;
_chemical_formula_sum "Si O2"
_cell_formula_units_Z 26
_cell_length_a 10.862654
_cell_length_b 8.431693
_cell_length_c 29.627830
_cell_angle_alpha 90.000000
_cell_angle_beta 31.452291
_cell_angle_gamma 90.000000
_cell_volume 1415.940495
_symmetry_space_group_name_H-M "P 2/C"
_symmetry_group_IT_number 13
_symmetry_cell_setting 'monoclinic'
loop_
_space_group_symop_operation_xyz
x,y,z
-x,y,1/2-z
-x,-y,-z
x,-y,1/2+z
loop_
_atom_site_type_symbol
_atom_site_label
_atom_site_fract_x
_atom_site_fract_y
_atom_site_fract_z
Si Si1 0.254270 0.113443 0.800247
Si Si2 0.000000 0.303708 0.750000
Si Si3 0.078352 0.057915 0.024904
Si Si4 0.387241 0.544404 0.371866
Si Si5 0.902726 0.453309 0.688664
Si Si6 0.430657 0.116223 0.654333
Si Si7 0.032025 0.570157 0.556993
O O1 0.500000 0.127585 0.750000
O O2 0.150933 0.283749 0.818240
O O3 0.313981 0.028614 0.733595
O O4 0.067250 0.029794 0.890935
O O5 0.974901 0.411508 0.802357
O O6 0.227288 0.193343 0.687505
O O7 0.025044 0.244463 0.047174
O O8 0.361159 0.031888 0.937614
O O9 0.000000 0.000000 0.000000
O O10 0.644599 0.474150 0.281107
O O11 0.439680 0.731312 0.362771
O O12 0.205525 0.509249 0.388618
O O13 0.250219 0.495978 0.460516
O O14 0.041212 0.549745 0.607646
#
# Coordination Sequence:
#
# PCOD9226881 Si02
#       7
#     4   2   4   4   4   4   4
#     4  10  18  31  53  77 105 147 176 215 281 333
#     4   8  18  36  62  76  98 154 194 226 262 314
#     4  11  22  33  50  83 117 141 173 224 276 332
#     4   8  17  31  51  77 106 134 165 219 279 323
#     4  10  19  35  55  77 103 141 187 223 264 323
#     4   9  18  37  53  77 108 141 188 224 263 332
#     4  10  19  31  52  80 111 136 169 222 280 326
#
# _framework density 18.362354
#
# number of rings (size 3 to 8) (size 9 to 14) (size 15 to 20)
#    0.000    2.769    1.538    2.308    4.308    1.231 
#    0.000   10.000    0.000    3.692    0.000    0.000 
#    0.000    0.000    0.000    0.000    0.000    0.000 
#
# Total GULP energy -144782.529036 kJ/mol
# GULP energy per Si atom -5568.558809 kJ/mol
# Density = 1.832056 g / cm^3
# Si number density = 18.362354 Si / 1000 Ang^3
#
#
#
# Elastic Constant Matrix: (Units=GPa)
#
#
# Indices 1 2 3 4 5 6 
#
# 1 112.9579 25.1655 69.0926 0.0000 19.1139 0.0000
# 2 25.1655 33.1493 27.7351 0.0000 3.0787 0.0000
# 3 69.0926 27.7351 134.9810 0.0000 20.3538 0.0000
# 4 0.0000 0.0000 0.0000 26.4516 0.0000 5.9111
# 5 19.1139 3.0787 20.3538 0.0000 24.4504 0.0000
# 6 0.0000 0.0000 0.0000 5.9111 0.0000 16.3230
#
#
#
# Elastic Compliance Matrix: (Units=1/GPa)
#
#
# Indices 1 2 3 4 5 6 
#
# 1 0.014431 -0.006015 -0.005219 0.000000 -0.006179 0.000000
# 2 -0.006015 0.039012 -0.005610 0.000000 0.004459 0.000000
# 3 -0.005219 -0.005610 0.012020 0.000000 -0.005219 0.000000
# 4 0.000000 0.000000 0.000000 0.041134 0.000000 -0.014896
# 5 -0.006179 0.004459 -0.005219 0.000000 0.049513 0.000000
# 6 0.000000 0.000000 0.000000 -0.014896 0.000000 0.066657
#
#
# Mechanical properties :
#
#
# Convention : Reuss Voigt Hill
#
# Bulk Modulus (GPa) = 31.47079 58.34164 44.90621
# Shear Modulus (GPa) = 18.72346 24.05133 21.38740
#
# Velocity S-wave (km/s) = 3.19668 3.62307 3.41653
# Velocity P-wave (km/s) = 5.54987 7.02450 6.33027
#
# Compressibility (1/GPa) = 0.03177550
#
# Stress axis : x y z
#
# Youngs Moduli (GPa) = 69.29642 25.63321 83.19747
#
# Poissons Ratio (x) = 0.15418 0.43421
# Poissons Ratio (y) = 0.41680 0.46671
# Poissons Ratio (z) = 0.36166 0.14379
#
# Static dielectric constant tensor:
#      x y z
#    x 1.623350 0.000000 0.016600 
#    y 0.000000 1.658980 0.000000 
#    z 0.016600 0.000000 1.728100 
# 
# From -- ./inp_files/96531.got.cif
#   From: 2010.05.17/outbox.cif.g08.bks.cpg/sg13_49_cif.got.tgz:96531.got - 2010.06.03 16:44:36.
