data_PCOD9226331
_publ_section_title
;
Structure prediction by ZEFSAII (Michael W. Deem and Ramdas Pophale) SiO2 
 PCOD9226331
Probable space group: P 2/C
;
_chemical_formula_sum "Si O2"
_cell_formula_units_Z 26
_cell_length_a 6.356154
_cell_length_b 12.556461
_cell_length_c 12.855224
_cell_angle_alpha 90.000000
_cell_angle_beta 80.737983
_cell_angle_gamma 90.000000
_cell_volume 1012.609555
_symmetry_space_group_name_H-M "P 2/C"
_symmetry_group_IT_number 13
_symmetry_cell_setting 'monoclinic'
loop_
_space_group_symop_operation_xyz
x,y,z
-x,y,1/2-z
-x,-y,-z
x,-y,1/2+z
loop_
_atom_site_type_symbol
_atom_site_label
_atom_site_fract_x
_atom_site_fract_y
_atom_site_fract_z
Si Si1 0.091692 0.774403 0.850030
Si Si2 0.125610 0.593077 0.373748
Si Si3 0.295928 0.076474 0.058153
Si Si4 0.708517 0.549210 0.928782
Si Si5 0.500000 0.445314 0.250000
Si Si6 0.500000 0.906852 0.750000
Si Si7 0.000000 0.221079 0.750000
Si Si8 0.728110 0.844674 0.465314
O O1 0.302393 0.833529 0.795220
O O2 0.000000 0.716395 0.750000
O O3 0.903395 0.854878 0.892961
O O4 0.183475 0.753728 0.962065
O O5 0.173841 0.613072 0.490948
O O6 0.308295 0.514399 0.315128
O O7 0.141386 0.700046 0.308414
O O8 0.891908 0.536962 0.382287
O O9 0.413447 0.035489 0.154734
O O10 0.230742 0.968449 0.004961
O O11 0.470196 0.152363 0.988113
O O12 0.612267 0.610446 0.837842
O O13 0.500000 0.500000 0.000000
O O14 0.849265 0.165469 0.846078
#
# Coordination Sequence:
#
# PCOD9226331 Si02
#       8
#     4   4   4   4   2   2   2   4
#     4   9  17  34  60  78 103 151 208 271 311 370
#     4  10  20  37  56  92 133 170 206 259 322 392
#     4   9  18  37  55  82 116 155 222 262 313 396
#     4   9  18  33  63  87 122 172 214 261 299 377
#     4  10  16  34  63  92 119 168 216 262 296 370
#     4   8  16  28  59  82 103 138 202 280 314 358
#     4  12  24  40  56  92 148 168 202 276 356 398
#     4  10  22  36  53  86 122 168 204 262 331 395
#
# _framework density 25.676234000000001
#
# number of rings (size 3 to 8) (size 9 to 14) (size 15 to 20)
#    0.000    2.462    1.538    0.462    3.231    0.000 
#    2.769    0.000    0.000    5.538    0.000   33.385 
#    0.000    0.000    0.000    0.000    0.000    0.308 
#
# Total GULP energy -144848.059036 kJ/mol
# GULP energy per Si atom -5571.079194 kJ/mol
# Density = 2.561779 g / cm^3
# Si number density = 25.676234 Si / 1000 Ang^3
#
#
#
# Elastic Constant Matrix: (Units=GPa)
#
#
# Indices 1 2 3 4 5 6 
#
# 1 178.2491 43.9446 66.5818 0.0000 -30.5754 0.0000
# 2 43.9446 47.4109 28.8693 0.0000 -13.4457 0.0000
# 3 66.5818 28.8693 162.5482 0.0000 6.7150 0.0000
# 4 0.0000 0.0000 0.0000 -5.7346 0.0000 -15.1437
# 5 -30.5754 -13.4457 6.7150 0.0000 82.1975 0.0000
# 6 0.0000 0.0000 0.0000 -15.1437 0.0000 46.9452
#
#
#
# Elastic Compliance Matrix: (Units=1/GPa)
#
#
# Indices 1 2 3 4 5 6 
#
# 1 0.008322 -0.005489 -0.002533 0.000000 0.002405 0.000000
# 2 -0.005489 0.028830 -0.002992 0.000000 0.002919 0.000000
# 3 -0.002533 -0.002992 0.007807 0.000000 -0.002070 0.000000
# 4 0.000000 0.000000 0.000000 -0.094165 0.000000 -0.030376
# 5 0.002405 0.002919 -0.002070 0.000000 0.013707 0.000000
# 6 0.000000 0.000000 0.000000 -0.030376 0.000000 0.011503
#
#
# Mechanical properties :
#
#
# Convention : Reuss Voigt Hill
#
# Bulk Modulus (GPa) = 43.61315 74.11108 58.86211
# Shear Modulus (GPa) = 880.85387 41.26912 461.06150
#
# Velocity S-wave (km/s) = 18.54203 4.01345 13.41481
# Velocity P-wave (km/s) = 21.80439 7.09953 16.21473
#
# Compressibility (1/GPa) = 0.02292887
#
# Stress axis : x y z
#
# Youngs Moduli (GPa) = 120.16140 34.68619 128.09574
#
# Poissons Ratio (x) = 0.19040 0.32450
# Poissons Ratio (y) = 0.65959 0.38332
# Poissons Ratio (z) = 0.30440 0.10380
#
# Static dielectric constant tensor:
#      x y z
#    x 2.022010 0.000000 0.072370 
#    y 0.000000 1.979760 0.000000 
#    z 0.072370 0.000000 2.157090 
# 
# From -- ./inp_files/44012.got.cif
#   From: 2010.05.17/outbox.cif.g08.bks.cpg/sg13_23_cif.got.tgz:44012.got - 2010.06.03 16:44:36.
