data_PCOD9226969
_publ_section_title
;
Structure prediction by ZEFSAII (Michael W. Deem and Ramdas Pophale) SiO2 
 PCOD9226969
Probable space group: P 2/C
;
_chemical_formula_sum "Si O2"
_cell_formula_units_Z 28
_cell_length_a 18.327639
_cell_length_b 8.719121
_cell_length_c 17.691042
_cell_angle_alpha 90.000000
_cell_angle_beta 23.943792
_cell_angle_gamma 90.000000
_cell_volume 1147.328423
_symmetry_space_group_name_H-M "P 2/C"
_symmetry_group_IT_number 13
_symmetry_cell_setting 'monoclinic'
loop_
_space_group_symop_operation_xyz
x,y,z
-x,y,1/2-z
-x,-y,-z
x,-y,1/2+z
loop_
_atom_site_type_symbol
_atom_site_label
_atom_site_fract_x
_atom_site_fract_y
_atom_site_fract_z
Si Si1 0.239448 0.318391 0.930443
Si Si2 0.354424 0.116646 0.259118
Si Si3 0.000000 0.451687 0.750000
Si Si4 0.279237 0.554487 0.774098
Si Si5 0.014429 0.952360 0.646682
Si Si6 0.500000 0.934086 0.250000
Si Si7 0.191718 0.052402 0.781944
Si Si8 0.866401 0.387297 0.716458
O O1 0.079560 0.211031 0.051354
O O2 0.151317 0.441802 0.068721
O O3 0.337812 0.410367 0.770818
O O4 0.346594 0.188677 0.874325
O O5 0.373887 0.290094 0.212242
O O6 0.162195 0.083472 0.484506
O O7 0.497994 0.049789 0.181150
O O8 0.336528 0.011667 0.202114
O O9 0.105786 0.372226 0.719526
O O10 0.264564 0.513733 0.698962
O O11 0.069977 0.579690 0.996042
O O12 0.000000 0.945784 0.750000
O O13 0.826777 0.981424 0.783494
O O14 0.197116 0.231180 0.761827
O O15 0.000000 0.000000 0.000000
#
# Coordination Sequence:
#
# PCOD9226969 Si02
#       8
#     4   4   2   4   4   2   4   4
#     4  10  21  37  57  86 116 159 193 240 296 349
#     4  10  21  35  56  83 112 156 202 243 280 350
#     4  10  22  34  58  92 122 148 192 246 308 334
#     4  10  19  32  56  84 113 152 197 240 290 344
#     4  10  19  31  53  82 116 149 181 238 297 338
#     4  10  22  40  60  78 118 158 208 240 282 352
#     4  10  18  32  52  81 118 151 191 235 289 342
#     4  10  19  31  54  84 124 147 187 246 299 350
#
# _framework density 24.404520000000002
#
# number of rings (size 3 to 8) (size 9 to 14) (size 15 to 20)
#    0.000    2.000    3.571    2.571    5.000    0.571 
#    0.000    0.000    0.000   11.143    0.000    0.000 
#    0.000    0.000    0.000    0.000    0.000    0.000 
#
# Total GULP energy -156237.749690 kJ/mol
# GULP energy per Si atom -5579.919632 kJ/mol
# Density = 2.434897 g / cm^3
# Si number density = 24.404520 Si / 1000 Ang^3
#
#
#
# Elastic Constant Matrix: (Units=GPa)
#
#
# Indices 1 2 3 4 5 6 
#
# 1 230.7058 94.6313 24.9453 0.0000 7.4139 0.0000
# 2 94.6313 145.5412 14.3919 0.0000 3.2372 0.0000
# 3 24.9453 14.3919 50.7160 0.0000 10.7646 0.0000
# 4 0.0000 0.0000 0.0000 -29.4957 0.0000 -80.9229
# 5 7.4139 3.2372 10.7646 0.0000 20.7016 0.0000
# 6 0.0000 0.0000 0.0000 -80.9229 0.0000 -99.3447
#
#
#
# Elastic Compliance Matrix: (Units=1/GPa)
#
#
# Indices 1 2 3 4 5 6 
#
# 1 0.006096 -0.003772 -0.001787 0.000000 -0.000664 0.000000
# 2 -0.003772 0.009404 -0.000885 0.000000 0.000341 0.000000
# 3 -0.001787 -0.000885 0.023249 0.000000 -0.011311 0.000000
# 4 0.000000 0.000000 0.000000 0.027456 0.000000 -0.022365
# 5 -0.000664 0.000341 -0.011311 0.000000 0.054371 0.000000
# 6 0.000000 0.000000 0.000000 -0.022365 0.000000 0.008152
#
#
# Mechanical properties :
#
#
# Convention : Reuss Voigt Hill
#
# Bulk Modulus (GPa) = 38.67140 77.21110 57.94125
# Shear Modulus (GPa) = 33.28048 -2.09481 15.59283
#
# Velocity S-wave (km/s) = 3.69684 -0.92749 2.53045
# Velocity P-wave (km/s) = 5.83974 5.52809 5.68605
#
# Compressibility (1/GPa) = 0.02585890
#
# Stress axis : x y z
#
# Youngs Moduli (GPa) = 164.02857 106.34066 43.01331
#
# Poissons Ratio (x) = 0.40117 0.07687
# Poissons Ratio (y) = 0.61879 0.03808
# Poissons Ratio (z) = 0.29314 0.09415
#
# Static dielectric constant tensor:
#      x y z
#    x 2.067440 0.000000 -0.022820 
#    y 0.000000 1.953530 0.000000 
#    z -0.022820 0.000000 2.078590 
# 
# From -- ./inp_files/68197.got.cif
#   From: 2010.05.17/outbox.cif.g08.bks.cpg/sg13_35_cif.got.tgz:68197.got - 2010.06.03 16:44:36.
