data_PCOD9226576
_publ_section_title
;
Structure prediction by ZEFSAII (Michael W. Deem and Ramdas Pophale) SiO2 
 PCOD9226576
Probable space group: P 2/C
;
_chemical_formula_sum "Si O2"
_cell_formula_units_Z 24
_cell_length_a 13.226608
_cell_length_b 7.693987
_cell_length_c 13.424145
_cell_angle_alpha 90.000000
_cell_angle_beta 45.071912
_cell_angle_gamma 90.000000
_cell_volume 967.199286
_symmetry_space_group_name_H-M "P 2/C"
_symmetry_group_IT_number 13
_symmetry_cell_setting 'monoclinic'
loop_
_space_group_symop_operation_xyz
x,y,z
-x,y,1/2-z
-x,-y,-z
x,-y,1/2+z
loop_
_atom_site_type_symbol
_atom_site_label
_atom_site_fract_x
_atom_site_fract_y
_atom_site_fract_z
Si Si1 0.162232 0.364753 0.447315
Si Si2 0.092473 0.819464 0.431358
Si Si3 0.643389 0.974748 0.714046
Si Si4 0.146293 0.207064 0.663761
Si Si5 0.426263 0.564390 0.198603
Si Si6 0.461677 0.792057 0.981272
O O1 0.130613 0.358806 0.589621
O O2 0.262082 0.516549 0.337610
O O3 0.031032 0.322646 0.463220
O O4 0.263745 0.195723 0.372497
O O5 0.240641 0.873142 0.380098
O O6 0.134215 0.765688 0.290001
O O7 0.000000 0.000000 0.500000
O O8 0.500000 0.988758 0.750000
O O9 0.584220 0.929419 0.866594
O O10 0.308807 0.144340 0.545820
O O11 0.000000 0.095461 0.750000
O O12 0.500000 0.611454 0.250000
O O13 0.452767 0.711446 0.097795
O O14 0.499110 0.385240 0.108466
#
# Coordination Sequence:
#
# PCOD9226576 Si02
#       6
#     4   4   4   4   4   4
#     4   9  16  34  56  83 113 154 206 239 297 376
#     4   9  20  32  54  83 112 154 202 249 298 360
#     4  10  17  33  56  86 123 157 198 248 301 376
#     4  10  18  33  55  80 110 153 206 242 295 377
#     4  10  18  33  61  87 116 154 199 260 305 357
#     4  10  19  32  57  90 113 153 201 249 308 365
#
# _framework density 24.813914
#
# number of rings (size 3 to 8) (size 9 to 14) (size 15 to 20)
#    0.000    2.333    3.333    1.000    0.000    0.667 
#    0.000    4.167   11.000    0.000    0.000    0.000 
#    0.000    0.000    0.000    0.000    0.000    0.000 
#
# Total GULP energy -133670.675642 kJ/mol
# GULP energy per Si atom -5569.611485 kJ/mol
# Density = 2.475744 g / cm^3
# Si number density = 24.813914 Si / 1000 Ang^3
#
#
#
# Elastic Constant Matrix: (Units=GPa)
#
#
# Indices 1 2 3 4 5 6 
#
# 1 174.3466 32.2161 57.9368 0.0000 -35.9963 0.0000
# 2 32.2161 143.4573 30.1550 0.0000 -19.7779 0.0000
# 3 57.9368 30.1550 136.0507 0.0000 -8.9195 0.0000
# 4 0.0000 0.0000 0.0000 27.3019 0.0000 -7.4561
# 5 -35.9963 -19.7779 -8.9195 0.0000 60.1569 0.0000
# 6 0.0000 0.0000 0.0000 -7.4561 0.0000 8.9715
#
#
#
# Elastic Compliance Matrix: (Units=1/GPa)
#
#
# Indices 1 2 3 4 5 6 
#
# 1 0.007602 -0.000564 -0.002854 0.000000 0.003940 0.000000
# 2 -0.000564 0.007649 -0.001325 0.000000 0.001981 0.000000
# 3 -0.002854 -0.001325 0.008804 0.000000 -0.000838 0.000000
# 4 0.000000 0.000000 0.000000 0.047382 0.000000 0.039378
# 5 0.003940 0.001981 -0.000838 0.000000 0.019508 0.000000
# 6 0.000000 0.000000 0.000000 0.039378 0.000000 0.144191
#
#
# Mechanical properties :
#
#
# Convention : Reuss Voigt Hill
#
# Bulk Modulus (GPa) = 68.64022 77.16336 72.90179
# Shear Modulus (GPa) = 20.04184 41.52251 30.78217
#
# Velocity S-wave (km/s) = 2.84506 4.09510 3.52592
# Velocity P-wave (km/s) = 6.20601 7.31602 6.78376
#
# Compressibility (1/GPa) = 0.01456872
#
# Stress axis : x y z
#
# Youngs Moduli (GPa) = 131.54813 130.73522 113.58055
#
# Poissons Ratio (x) = 0.07374 0.32414
# Poissons Ratio (y) = 0.07420 0.15053
# Poissons Ratio (z) = 0.37542 0.17327
#
# Static dielectric constant tensor:
#      x y z
#    x 2.021840 0.000000 0.017760 
#    y 0.000000 2.038030 0.000000 
#    z 0.017760 0.000000 2.132330 
# 
# From -- ./inp_files/52889.got.cif
#   From: 2010.05.17/outbox.cif.g08.bks.cpg/sg13_27_cif.got.tgz:52889.got - 2010.06.03 16:44:36.
