data_PCOD9226647
_publ_section_title
;
Structure prediction by ZEFSAII (Michael W. Deem and Ramdas Pophale) SiO2 
 PCOD9226647
Probable space group: P 2/C
;
_chemical_formula_sum "Si O2"
_cell_formula_units_Z 22
_cell_length_a 18.660131
_cell_length_b 6.355364
_cell_length_c 19.205606
_cell_angle_alpha 90.000000
_cell_angle_beta 150.509950
_cell_angle_gamma 90.000000
_cell_volume 1121.214294
_symmetry_space_group_name_H-M "P 2/C"
_symmetry_group_IT_number 13
_symmetry_cell_setting 'monoclinic'
loop_
_space_group_symop_operation_xyz
x,y,z
-x,y,1/2-z
-x,-y,-z
x,-y,1/2+z
loop_
_atom_site_type_symbol
_atom_site_label
_atom_site_fract_x
_atom_site_fract_y
_atom_site_fract_z
Si Si1 0.811751 0.705468 0.854774
Si Si2 0.017997 0.376586 0.408695
Si Si3 0.434635 0.508761 0.293219
Si Si4 0.300570 0.084376 0.647310
Si Si5 0.688917 0.724685 0.947173
Si Si6 0.000000 0.423267 0.750000
O O1 0.896043 0.728692 0.854057
O O2 0.671657 0.552148 0.733571
O O3 0.747454 0.915399 0.834868
O O4 0.926050 0.587058 0.003228
O O5 0.964066 0.439040 0.287237
O O6 0.156564 0.225752 0.517170
O O7 0.351361 0.424668 0.152845
O O8 0.581975 0.372499 0.415107
O O9 0.429949 0.759386 0.280264
O O10 0.335043 0.954067 0.606426
O O11 0.855806 0.705895 0.109356
#
# Coordination Sequence:
#
# PCOD9226647 Si02
#       6
#     4   4   4   4   4   2
#     4   9  18  36  56  85 112 155 200 232 280 344
#     4  10  20  34  57  84 122 149 191 242 286 347
#     4   9  19  36  56  83 113 156 196 236 277 347
#     4  10  17  36  60  83 109 155 203 230 285 344
#     4  10  21  35  56  86 119 149 192 240 292 338
#     4  12  20  40  52  90 124 148 184 250 308 324
#
# _framework density 19.621585
#
# number of rings (size 3 to 8) (size 9 to 14) (size 15 to 20)
#    0.000    2.182    5.455    0.545    0.000    6.545 
#    0.000    0.909    0.000    1.091    0.000    0.000 
#    0.000    0.000    0.000    0.000    0.000    0.000 
#
# Total GULP energy -122495.743991 kJ/mol
# GULP energy per Si atom -5567.988363 kJ/mol
# Density = 1.957693 g / cm^3
# Si number density = 19.621585 Si / 1000 Ang^3
#
#
#
# Elastic Constant Matrix: (Units=GPa)
#
#
# Indices 1 2 3 4 5 6 
#
# 1 96.7204 27.2749 29.6737 0.0000 17.9981 0.0000
# 2 27.2749 105.9597 18.5215 0.0000 8.0472 0.0000
# 3 29.6737 18.5215 69.3763 0.0000 20.3868 0.0000
# 4 0.0000 0.0000 0.0000 7.0367 0.0000 10.9821
# 5 17.9981 8.0472 20.3868 0.0000 32.7932 0.0000
# 6 0.0000 0.0000 0.0000 10.9821 0.0000 24.8349
#
#
#
# Elastic Compliance Matrix: (Units=1/GPa)
#
#
# Indices 1 2 3 4 5 6 
#
# 1 0.012914 -0.002365 -0.003646 0.000000 -0.004241 0.000000
# 2 -0.002365 0.010357 -0.001698 0.000000 -0.000188 0.000000
# 3 -0.003646 -0.001698 0.019230 0.000000 -0.009537 0.000000
# 4 0.000000 0.000000 0.000000 0.458645 0.000000 -0.202815
# 5 -0.004241 -0.000188 -0.009537 0.000000 0.038796 0.000000
# 6 0.000000 0.000000 0.000000 -0.202815 0.000000 0.129951
#
#
# Mechanical properties :
#
#
# Convention : Reuss Voigt Hill
#
# Bulk Modulus (GPa) = 36.92470 46.99962 41.96216
# Shear Modulus (GPa) = 7.20110 26.03870 16.61990
#
# Velocity S-wave (km/s) = 1.91780 3.64681 2.91352
# Velocity P-wave (km/s) = 4.87475 6.46044 5.72279
#
# Compressibility (1/GPa) = 0.02708215
#
# Stress axis : x y z
#
# Youngs Moduli (GPa) = 77.43765 96.54926 52.00340
#
# Poissons Ratio (x) = 0.22831 0.18960
# Poissons Ratio (y) = 0.18312 0.08833
# Poissons Ratio (z) = 0.28234 0.16399
#
# Static dielectric constant tensor:
#      x y z
#    x 1.766480 0.000000 0.051790 
#    y 0.000000 1.755790 0.000000 
#    z 0.051790 0.000000 1.694320 
# 
# From -- ./inp_files/81291.got.cif
#   From: 2010.05.17/outbox.cif.g08.bks.cpg/sg13_41_cif.got.tgz:81291.got - 2010.06.03 16:44:36.
