data_PCOD9226436
_publ_section_title
;
Structure prediction by ZEFSAII (Michael W. Deem and Ramdas Pophale) SiO2 
 PCOD9226436
Probable space group: P 2/C
;
_chemical_formula_sum "Si O2"
_cell_formula_units_Z 28
_cell_length_a 8.233173
_cell_length_b 9.923122
_cell_length_c 24.037181
_cell_angle_alpha 90.000000
_cell_angle_beta 40.971109
_cell_angle_gamma 90.000000
_cell_volume 1287.626704
_symmetry_space_group_name_H-M "P 2/C"
_symmetry_group_IT_number 13
_symmetry_cell_setting 'monoclinic'
loop_
_space_group_symop_operation_xyz
x,y,z
-x,y,1/2-z
-x,-y,-z
x,-y,1/2+z
loop_
_atom_site_type_symbol
_atom_site_label
_atom_site_fract_x
_atom_site_fract_y
_atom_site_fract_z
Si Si1 0.316205 0.127446 0.380553
Si Si2 0.660591 0.391529 0.490125
Si Si3 0.166154 0.561905 0.904559
Si Si4 0.727466 0.075128 0.796993
Si Si5 0.595917 0.862157 0.453236
Si Si6 0.561190 0.686238 0.144166
Si Si7 0.992279 0.888244 0.072542
O O1 0.281300 0.287845 0.381601
O O2 0.203725 0.101482 0.470967
O O3 0.584437 0.054066 0.308932
O O4 0.139901 0.033557 0.387357
O O5 0.500000 0.500000 0.500000
O O6 0.592605 0.251650 0.479168
O O7 0.568839 0.368340 0.577905
O O8 0.949124 0.425028 0.415515
O O9 0.376946 0.451793 0.839889
O O10 0.000000 0.500000 0.000000
O O11 0.591115 0.118400 0.888946
O O12 0.670783 0.217124 0.779688
O O13 0.000000 0.047384 0.750000
O O14 0.868147 0.840076 0.408339
O O15 0.500000 0.000000 0.500000
O O16 0.792782 0.784842 0.098771
#
# Coordination Sequence:
#
# PCOD9226436 Si02
#       7
#     4   4   4   4   4   4   4
#     4  10  18  31  53  76 109 143 176 218 275 323
#     4  10  19  27  45  80 115 129 162 222 272 312
#     4  10  17  29  48  77 107 138 174 213 276 320
#     4  10  22  39  53  75 111 147 181 220 270 331
#     4  11  20  30  53  84 106 132 178 231 270 308
#     4   9  19  33  51  73 107 145 174 210 273 325
#     4  10  17  31  51  79 108 137 173 224 270 318
#
# _framework density 21.745431
#
# number of rings (size 3 to 8) (size 9 to 14) (size 15 to 20)
#    0.000    2.000    4.286    1.714    2.000    0.000 
#    0.000    3.571    0.000    0.000    0.000    6.000 
#    0.000    0.000    0.000    0.000    0.000    0.000 
#
# Total GULP energy -155881.894338 kJ/mol
# GULP energy per Si atom -5567.210512 kJ/mol
# Density = 2.169594 g / cm^3
# Si number density = 21.745431 Si / 1000 Ang^3
#
#
#
# Elastic Constant Matrix: (Units=GPa)
#
#
# Indices 1 2 3 4 5 6 
#
# 1 115.1551 60.4879 16.6764 0.0000 -32.0124 0.0000
# 2 60.4879 191.6993 26.9423 0.0000 -33.0547 0.0000
# 3 16.6764 26.9423 38.8390 0.0000 -14.2728 0.0000
# 4 0.0000 0.0000 0.0000 -5.9523 0.0000 -9.9785
# 5 -32.0124 -33.0547 -14.2728 0.0000 37.0560 0.0000
# 6 0.0000 0.0000 0.0000 -9.9785 0.0000 35.4128
#
#
#
# Elastic Compliance Matrix: (Units=1/GPa)
#
#
# Indices 1 2 3 4 5 6 
#
# 1 0.012325 -0.002374 -0.000595 0.000000 0.008300 0.000000
# 2 -0.002374 0.006861 -0.002615 0.000000 0.003062 0.000000
# 3 -0.000595 -0.002615 0.031185 0.000000 0.009165 0.000000
# 4 0.000000 0.000000 0.000000 -0.114103 0.000000 -0.032151
# 5 0.008300 0.003062 0.009165 0.000000 0.040418 0.000000
# 6 0.000000 0.000000 0.000000 -0.032151 0.000000 0.019179
#
#
# Mechanical properties :
#
#
# Convention : Reuss Voigt Hill
#
# Bulk Modulus (GPa) = 25.50817 61.54517 43.52667
# Shear Modulus (GPa) = 248.76290 29.40910 139.08600
#
# Velocity S-wave (km/s) = 10.70729 3.68152 8.00624
# Velocity P-wave (km/s) = 12.83033 6.81436 10.27261
#
# Compressibility (1/GPa) = 0.03920312
#
# Stress axis : x y z
#
# Youngs Moduli (GPa) = 81.13914 145.74929 32.06712
#
# Poissons Ratio (x) = 0.34601 0.01907
# Poissons Ratio (y) = 0.19263 0.08385
# Poissons Ratio (z) = 0.04825 0.38111
#
# Static dielectric constant tensor:
#      x y z
#    x 1.811860 0.000000 -0.332060 
#    y 0.000000 1.855950 0.000000 
#    z -0.332060 0.000000 1.125060 
# 
# From -- ./inp_files/95915.got.cif
#   From: 2010.05.17/outbox.cif.g08.bks.cpg/sg13_48_cif.got.tgz:95915.got - 2010.06.03 16:44:36.
