data_PCOD9226645
_publ_section_title
;
Structure prediction by ZEFSAII (Michael W. Deem and Ramdas Pophale) SiO2 
 PCOD9226645
Probable space group: P 2/C
;
_chemical_formula_sum "Si O2"
_cell_formula_units_Z 20
_cell_length_a 7.575093
_cell_length_b 11.944968
_cell_length_c 9.991425
_cell_angle_alpha 90.000000
_cell_angle_beta 67.977838
_cell_angle_gamma 90.000000
_cell_volume 838.104832
_symmetry_space_group_name_H-M "P 2/C"
_symmetry_group_IT_number 13
_symmetry_cell_setting 'monoclinic'
loop_
_space_group_symop_operation_xyz
x,y,z
-x,y,1/2-z
-x,-y,-z
x,-y,1/2+z
loop_
_atom_site_type_symbol
_atom_site_label
_atom_site_fract_x
_atom_site_fract_y
_atom_site_fract_z
Si Si1 0.860655 0.767804 0.910760
Si Si2 0.694416 0.378082 0.857635
Si Si3 0.745532 0.547586 0.057787
Si Si4 0.390482 0.930236 0.644569
Si Si5 0.729602 0.144625 0.722021
O O1 0.872113 0.638536 0.945593
O O2 0.664967 0.812543 0.902265
O O3 0.000000 0.794833 0.750000
O O4 0.856039 0.831640 0.054699
O O5 0.754147 0.429621 0.981662
O O6 0.779711 0.446218 0.706198
O O7 0.748691 0.249599 0.816212
O O8 0.468141 0.401923 0.905182
O O9 0.500000 0.908112 0.750000
O O10 0.500000 0.000000 0.500000
O O11 0.231214 0.022140 0.731094
O O12 0.500000 0.145952 0.750000
#
# Coordination Sequence:
#
# PCOD9226645 Si02
#       5
#     4   4   4   4   4
#     4  11  22  38  58  87 122 153 183 239 303 339
#     4   9  15  31  56  76 109 141 195 226 277 327
#     4   9  17  32  51  85 108 145 185 237 275 337
#     4  11  20  38  62  87 111 152 201 238 274 343
#     4  10  17  36  57  76 117 154 188 228 294 332
#
# _framework density 23.863363
#
# number of rings (size 3 to 8) (size 9 to 14) (size 15 to 20)
#    0.000    2.000    8.000    0.000    0.000    0.800 
#   10.800    4.000    0.000    1.200    0.000    0.000 
#    0.000    0.000    0.000    0.000    0.000    0.000 
#
# Total GULP energy -111598.434021 kJ/mol
# GULP energy per Si atom -5579.921701 kJ/mol
# Density = 2.380905 g / cm^3
# Si number density = 23.863363 Si / 1000 Ang^3
#
#
#
# Elastic Constant Matrix: (Units=GPa)
#
#
# Indices 1 2 3 4 5 6 
#
# 1 36.2198 3.7137 6.3890 0.0000 3.3530 0.0000
# 2 3.7137 64.1651 21.7372 0.0000 11.7514 0.0000
# 3 6.3890 21.7372 129.2915 0.0000 -2.7805 0.0000
# 4 0.0000 0.0000 0.0000 30.4038 0.0000 12.7499
# 5 3.3530 11.7514 -2.7805 0.0000 28.5499 0.0000
# 6 0.0000 0.0000 0.0000 12.7499 0.0000 11.7914
#
#
#
# Elastic Compliance Matrix: (Units=1/GPa)
#
#
# Indices 1 2 3 4 5 6 
#
# 1 0.028206 -0.000583 -0.001365 0.000000 -0.003206 0.000000
# 2 -0.000583 0.018105 -0.003181 0.000000 -0.007693 0.000000
# 3 -0.001365 -0.003181 0.008386 0.000000 0.002286 0.000000
# 4 0.000000 0.000000 0.000000 0.060177 0.000000 -0.065068
# 5 -0.003206 -0.007693 0.002286 0.000000 0.038792 0.000000
# 6 0.000000 0.000000 0.000000 -0.065068 0.000000 0.155164
#
#
# Mechanical properties :
#
#
# Convention : Reuss Voigt Hill
#
# Bulk Modulus (GPa) = 22.50197 32.59513 27.54855
# Shear Modulus (GPa) = 14.97447 27.33811 21.15629
#
# Velocity S-wave (km/s) = 2.50773 3.38836 2.98075
# Velocity P-wave (km/s) = 4.22314 5.38486 4.83899
#
# Compressibility (1/GPa) = 0.04444056
#
# Stress axis : x y z
#
# Youngs Moduli (GPa) = 35.45283 55.23322 119.24919
#
# Poissons Ratio (x) = 0.03221 0.16275
# Poissons Ratio (y) = 0.02067 0.37928
# Poissons Ratio (z) = 0.04838 0.17567
#
# Static dielectric constant tensor:
#      x y z
#    x 1.913420 0.000000 -0.107200 
#    y 0.000000 1.864620 0.000000 
#    z -0.107200 0.000000 1.958400 
# 
# From -- ./inp_files/28959.got.cif
#   From: 2010.05.17/outbox.cif.g08.bks.cpg/sg13_15_cif.got.tgz:28959.got - 2010.06.03 16:44:36.
