data_PCOD9226096
_publ_section_title
;
Structure prediction by ZEFSAII (Michael W. Deem and Ramdas Pophale) SiO2 
 PCOD9226096
Probable space group: P 2/C
;
_chemical_formula_sum "Si O2"
_cell_formula_units_Z 18
_cell_length_a 6.994677
_cell_length_b 21.457720
_cell_length_c 5.367696
_cell_angle_alpha 90.000000
_cell_angle_beta 78.508305
_cell_angle_gamma 90.000000
_cell_volume 789.486411
_symmetry_space_group_name_H-M "P 2/C"
_symmetry_group_IT_number 13
_symmetry_cell_setting 'monoclinic'
loop_
_space_group_symop_operation_xyz
x,y,z
-x,y,1/2-z
-x,-y,-z
x,-y,1/2+z
loop_
_atom_site_type_symbol
_atom_site_label
_atom_site_fract_x
_atom_site_fract_y
_atom_site_fract_z
Si Si1 0.373304 0.656093 0.538354
Si Si2 0.220721 0.474430 0.960283
Si Si3 0.500000 0.041834 0.750000
Si Si4 0.715590 0.156528 0.898825
Si Si5 0.728218 0.793989 0.903609
O O1 0.500000 0.639604 0.750000
O O2 0.233553 0.598256 0.517543
O O3 0.268289 0.720498 0.641403
O O4 0.500000 0.666643 0.250000
O O5 0.309597 0.487564 0.667330
O O6 0.000000 0.500000 0.000000
O O7 0.675961 0.089183 0.782204
O O8 0.500000 0.000000 0.500000
O O9 0.815811 0.194106 0.652222
O O10 0.499433 0.186101 0.999923
O O11 0.799786 0.164189 0.153851
#
# Coordination Sequence:
#
# PCOD9226096 Si02
#       5
#     4   4   2   4   4
#     4  12  20  31  54  78  94 114 164 221 257 307
#     4  10  23  41  53  67  99 135 156 190 258 333
#     4  10  16  22  32  52  76 120 174 194 214 284
#     4   9  15  24  37  50  87 118 137 202 255 268
#     4   9  14  26  37  60  82 108 139 193 272 267
#
# _framework density 22.799633
#
# number of rings (size 3 to 8) (size 9 to 14) (size 15 to 20)
#    0.000    2.222    4.444    4.000    0.000    2.667 
#    0.000    0.000    0.000    0.000    0.000    0.000 
#    0.000    0.000    0.000    0.000    0.000    0.000 
#
# Total GULP energy -100263.939768 kJ/mol
# GULP energy per Si atom -5570.218876 kJ/mol
# Density = 2.274774 g / cm^3
# Si number density = 22.799633 Si / 1000 Ang^3
#
#
#
# Elastic Constant Matrix: (Units=GPa)
#
#
# Indices 1 2 3 4 5 6 
#
# 1 66.6988 12.7822 37.6456 0.0000 2.8989 0.0000
# 2 12.7822 148.9015 44.5928 0.0000 16.9390 0.0000
# 3 37.6456 44.5928 237.3638 0.0000 34.7670 0.0000
# 4 0.0000 0.0000 0.0000 46.7315 0.0000 9.8941
# 5 2.8989 16.9390 34.7670 0.0000 30.3529 0.0000
# 6 0.0000 0.0000 0.0000 9.8941 0.0000 -51.0989
#
#
#
# Elastic Compliance Matrix: (Units=1/GPa)
#
#
# Indices 1 2 3 4 5 6 
#
# 1 0.016634 -0.000829 -0.002785 0.000000 0.002063 0.000000
# 2 -0.000829 0.007381 -0.000797 0.000000 -0.003127 0.000000
# 3 -0.002785 -0.000797 0.005648 0.000000 -0.005758 0.000000
# 4 0.000000 0.000000 0.000000 0.020556 0.000000 0.003980
# 5 0.002063 -0.003127 -0.005758 0.000000 0.041089 0.000000
# 6 0.000000 0.000000 0.000000 0.003980 0.000000 -0.018799
#
#
# Mechanical properties :
#
#
# Convention : Reuss Voigt Hill
#
# Bulk Modulus (GPa) = 47.98086 71.44502 59.71294
# Shear Modulus (GPa) = 56.63958 29.06002 42.84980
#
# Velocity S-wave (km/s) = 4.98961 3.57400 4.33992
# Velocity P-wave (km/s) = 7.36785 6.95955 7.16661
#
# Compressibility (1/GPa) = 0.02084164
#
# Stress axis : x y z
#
# Youngs Moduli (GPa) = 60.11939 135.47416 177.06075
#
# Poissons Ratio (x) = 0.11227 0.49305
# Poissons Ratio (y) = 0.04982 0.14117
# Poissons Ratio (z) = 0.16741 0.10801
#
# Static dielectric constant tensor:
#      x y z
#    x 2.235010 0.000000 0.213690 
#    y 0.000000 1.847050 0.000000 
#    z 0.213690 0.000000 2.094160 
# 
# From -- ./inp_files/1598.got.cif
#   From: 2010.05.17/outbox.cif.g08.bks.cpg/sg13_1_cif.got.tgz:1598.got - 2010.06.03 16:44:36.
