data_PCOD9226871
_publ_section_title
;
Structure prediction by ZEFSAII (Michael W. Deem and Ramdas Pophale) SiO2 
 PCOD9226871
Probable space group: P 2/C
;
_chemical_formula_sum "Si O2"
_cell_formula_units_Z 26
_cell_length_a 8.392340
_cell_length_b 9.785870
_cell_length_c 15.573249
_cell_angle_alpha 90.000000
_cell_angle_beta 74.249036
_cell_angle_gamma 90.000000
_cell_volume 1230.949450
_symmetry_space_group_name_H-M "P 2/C"
_symmetry_group_IT_number 13
_symmetry_cell_setting 'monoclinic'
loop_
_space_group_symop_operation_xyz
x,y,z
-x,y,1/2-z
-x,-y,-z
x,-y,1/2+z
loop_
_atom_site_type_symbol
_atom_site_label
_atom_site_fract_x
_atom_site_fract_y
_atom_site_fract_z
Si Si1 0.000000 0.151066 0.750000
Si Si2 0.156703 0.913243 0.048329
Si Si3 0.720008 0.532388 0.101597
Si Si4 0.037952 0.429566 0.144086
Si Si5 0.144992 0.796658 0.517711
Si Si6 0.351850 0.301364 0.728744
Si Si7 0.326051 0.636113 0.047863
O O1 0.057939 0.075940 0.654147
O O2 0.168642 0.235619 0.748480
O O3 0.288347 0.792733 0.033707
O O4 0.236520 0.059327 0.015451
O O5 0.024253 0.853520 0.999637
O O6 0.663471 0.571379 0.205022
O O7 0.884115 0.444467 0.101614
O O8 0.777216 0.677505 0.052017
O O9 0.620438 0.442496 0.045958
O O10 0.117068 0.283096 0.110687
O O11 0.161460 0.551307 0.098904
O O12 0.000000 0.442560 0.250000
O O13 0.500000 0.213023 0.750000
O O14 0.414654 0.349689 0.626588
#
# Coordination Sequence:
#
# PCOD9226871 Si02
#       7
#     2   4   4   4   4   4   4
#     4  10  20  38  56  80 120 150 180 244 286 330
#     4  10  18  31  51  82 110 146 196 228 275 343
#     4  11  18  35  52  80 117 151 185 241 288 335
#     4  11  18  30  51  82 115 151 188 232 292 336
#     4  10  19  29  50  85 112 146 195 231 277 347
#     4  11  22  36  59  88 113 151 196 231 284 350
#     4  10  19  33  54  76 114 152 184 237 287 333
#
# _framework density 21.121907
#
# number of rings (size 3 to 8) (size 9 to 14) (size 15 to 20)
#    0.000    1.538    6.154    1.846    2.154    0.615 
#    0.000    0.000    0.000    3.692    0.000   21.538 
#    0.000    0.000    0.000    0.000    0.000    0.000 
#
# Total GULP energy -144810.950414 kJ/mol
# GULP energy per Si atom -5569.651939 kJ/mol
# Density = 2.107383 g / cm^3
# Si number density = 21.121907 Si / 1000 Ang^3
#
#
#
# Elastic Constant Matrix: (Units=GPa)
#
#
# Indices 1 2 3 4 5 6 
#
# 1 60.5870 8.1569 8.2595 0.0000 15.7875 0.0000
# 2 8.1569 152.2894 35.8889 0.0000 0.9732 0.0000
# 3 8.2595 35.8889 87.6438 0.0000 16.2617 0.0000
# 4 0.0000 0.0000 0.0000 9.9002 0.0000 4.3304
# 5 15.7875 0.9732 16.2617 0.0000 36.9270 0.0000
# 6 0.0000 0.0000 0.0000 4.3304 0.0000 10.8211
#
#
#
# Elastic Compliance Matrix: (Units=1/GPa)
#
#
# Indices 1 2 3 4 5 6 
#
# 1 0.018712 -0.000981 0.000128 0.000000 -0.008031 0.000000
# 2 -0.000981 0.007370 -0.003231 0.000000 0.001648 0.000000
# 3 0.000128 -0.003231 0.013847 0.000000 -0.006067 0.000000
# 4 0.000000 0.000000 0.000000 0.122441 0.000000 -0.048998
# 5 -0.008031 0.001648 -0.006067 0.000000 0.033142 0.000000
# 6 0.000000 0.000000 0.000000 -0.048998 0.000000 0.112020
#
#
# Mechanical properties :
#
#
# Convention : Reuss Voigt Hill
#
# Bulk Modulus (GPa) = 31.48521 45.01455 38.24988
# Shear Modulus (GPa) = 15.32391 28.07731 21.70061
#
# Velocity S-wave (km/s) = 2.69643 3.64991 3.20878
# Velocity P-wave (km/s) = 4.96317 6.25464 5.64595
#
# Compressibility (1/GPa) = 0.03176094
#
# Stress axis : x y z
#
# Youngs Moduli (GPa) = 53.44036 135.68610 72.21969
#
# Poissons Ratio (x) = 0.13314 -0.00927
# Poissons Ratio (y) = 0.05244 0.23336
# Poissons Ratio (z) = -0.00686 0.43843
#
# Static dielectric constant tensor:
#      x y z
#    x 1.915320 0.000000 0.005410 
#    y 0.000000 1.752730 0.000000 
#    z 0.005410 0.000000 1.820050 
# 
# From -- ./inp_files/63413.got.cif
#   From: 2010.05.17/outbox.cif.g08.bks.cpg/sg13_32_cif.got.tgz:63413.got - 2010.06.03 16:44:36.
