data_PCOD9226493
_publ_section_title
;
Structure prediction by ZEFSAII (Michael W. Deem and Ramdas Pophale) SiO2 
 PCOD9226493
Probable space group: P 2/C
;
_chemical_formula_sum "Si O2"
_cell_formula_units_Z 28
_cell_length_a 9.603161
_cell_length_b 13.938793
_cell_length_c 11.227748
_cell_angle_alpha 90.000000
_cell_angle_beta 125.873717
_cell_angle_gamma 90.000000
_cell_volume 1217.821179
_symmetry_space_group_name_H-M "P 2/C"
_symmetry_group_IT_number 13
_symmetry_cell_setting 'monoclinic'
loop_
_space_group_symop_operation_xyz
x,y,z
-x,y,1/2-z
-x,-y,-z
x,-y,1/2+z
loop_
_atom_site_type_symbol
_atom_site_label
_atom_site_fract_x
_atom_site_fract_y
_atom_site_fract_z
Si Si1 0.061040 0.752061 0.418070
Si Si2 0.269325 0.145282 0.696168
Si Si3 0.590030 0.156925 0.481796
Si Si4 0.500000 0.010530 0.250000
Si Si5 0.479919 0.361725 0.385424
Si Si6 0.263753 0.530523 0.014940
Si Si7 0.884598 0.413563 0.354155
Si Si8 0.500000 0.322966 0.750000
O O1 0.241631 0.805560 0.502182
O O2 0.077617 0.666129 0.522598
O O3 0.000000 0.724105 0.250000
O O4 0.928621 0.831967 0.396935
O O5 0.340839 0.061983 0.648332
O O6 0.351480 0.249455 0.713145
O O7 0.343320 0.115678 0.861383
O O8 0.497356 0.257996 0.452725
O O9 0.484009 0.081894 0.352754
O O10 0.500000 0.351031 0.250000
O O11 0.635151 0.437669 0.490214
O O12 0.280413 0.387744 0.309745
O O13 0.208476 0.500310 0.123045
O O14 0.413044 0.608375 0.109150
O O15 0.068036 0.561698 0.888399
#
# Coordination Sequence:
#
# PCOD9226493 Si02
#       8
#     4   4   4   2   4   4   4   2
#     4  10  19  33  55  83 115 144 186 237 284 335
#     4  10  24  36  58  88 111 149 186 231 299 341
#     4  11  20  39  61  83 117 141 189 245 277 347
#     4  11  22  41  64  82 104 147 188 233 298 352
#     4  10  17  32  56  85 110 154 196 220 284 322
#     4  10  18  29  55  81 115 155 197 225 264 332
#     4  10  17  30  54  81 110 157 198 226 266 330
#     4  11  18  37  54  80 126 155 186 231 280 328
#
# _framework density 22.991882
#
# number of rings (size 3 to 8) (size 9 to 14) (size 15 to 20)
#    0.000    1.714    7.143    0.429    0.000    0.571 
#    0.000    0.714    9.429    0.857    0.000    0.000 
#    0.000    0.000    0.000    0.000    0.000    0.000 
#
# Total GULP energy -156073.559538 kJ/mol
# GULP energy per Si atom -5574.055698 kJ/mol
# Density = 2.293955 g / cm^3
# Si number density = 22.991882 Si / 1000 Ang^3
#
#
#
# Elastic Constant Matrix: (Units=GPa)
#
#
# Indices 1 2 3 4 5 6 
#
# 1 87.7484 28.2812 19.9097 0.0000 37.3191 0.0000
# 2 28.2812 126.6456 37.1416 0.0000 16.8104 0.0000
# 3 19.9097 37.1416 94.9386 0.0000 24.5926 0.0000
# 4 0.0000 0.0000 0.0000 -420.2070 0.0000 640.6706
# 5 37.3191 16.8104 24.5926 0.0000 42.3638 0.0000
# 6 0.0000 0.0000 0.0000 640.6706 0.0000 -963.8478
#
#
#
# Elastic Compliance Matrix: (Units=1/GPa)
#
#
# Indices 1 2 3 4 5 6 
#
# 1 0.018851 -0.002396 0.001223 0.000000 -0.016366 0.000000
# 2 -0.002396 0.009340 -0.003223 0.000000 0.000276 0.000000
# 3 0.001223 -0.003223 0.013518 0.000000 -0.007646 0.000000
# 4 0.000000 0.000000 0.000000 0.177072 0.000000 0.117700
# 5 -0.016366 0.000276 -0.007646 0.000000 0.042351 0.000000
# 6 0.000000 0.000000 0.000000 0.117700 0.000000 0.077198
#
#
# Mechanical properties :
#
#
# Convention : Reuss Voigt Hill
#
# Bulk Modulus (GPa) = 30.37843 53.33307 41.85575
# Shear Modulus (GPa) = 13.96282 -253.40485 -119.72102
#
# Velocity S-wave (km/s) = 2.46701 -10.50972 -7.22385
# Velocity P-wave (km/s) = 4.62128 11.13667 7.16482
#
# Compressibility (1/GPa) = 0.03291809
#
# Stress axis : x y z
#
# Youngs Moduli (GPa) = 53.04692 107.06993 73.97539
#
# Poissons Ratio (x) = 0.25655 -0.09050
# Poissons Ratio (y) = 0.12711 0.23840
# Poissons Ratio (z) = -0.06490 0.34506
#
# Static dielectric constant tensor:
#      x y z
#    x 2.065990 0.000000 -0.136380 
#    y 0.000000 1.889090 0.000000 
#    z -0.136380 0.000000 2.016300 
# 
# From -- ./inp_files/51351.got.cif
#   From: 2010.05.17/outbox.cif.g08.bks.cpg/sg13_26_cif.got.tgz:51351.got - 2010.06.03 16:44:36.
