data_PCOD9226094
_publ_section_title
;
Structure prediction by ZEFSAII (Michael W. Deem and Ramdas Pophale) SiO2 
 PCOD9226094
Probable space group: P 2/C
;
_chemical_formula_sum "Si O2"
_cell_formula_units_Z 28
_cell_length_a 25.307550
_cell_length_b 7.160475
_cell_length_c 7.347704
_cell_angle_alpha 90.000000
_cell_angle_beta 50.491936
_cell_angle_gamma 90.000000
_cell_volume 1027.304642
_symmetry_space_group_name_H-M "P 2/C"
_symmetry_group_IT_number 13
_symmetry_cell_setting 'monoclinic'
loop_
_space_group_symop_operation_xyz
x,y,z
-x,y,1/2-z
-x,-y,-z
x,-y,1/2+z
loop_
_atom_site_type_symbol
_atom_site_label
_atom_site_fract_x
_atom_site_fract_y
_atom_site_fract_z
Si Si1 0.366635 0.278622 0.855835
Si Si2 0.224696 0.220295 0.250511
Si Si3 0.069195 0.408493 0.992671
Si Si4 0.075070 0.190543 0.605521
Si Si5 0.207130 0.349730 0.876619
Si Si6 0.488393 0.785147 0.561636
Si Si7 0.655696 0.291759 0.022593
O O1 0.449499 0.292920 0.696289
O O2 0.360691 0.240115 0.651588
O O3 0.345327 0.485683 0.955037
O O4 0.305734 0.158887 0.088221
O O5 0.152960 0.108465 0.442991
O O6 0.215902 0.423234 0.367756
O O7 0.219390 0.269318 0.048305
O O8 0.067524 0.697019 0.308439
O O9 0.000000 0.376246 0.250000
O O10 0.078036 0.633799 0.958095
O O11 0.133351 0.326966 0.957054
O O12 0.000000 0.090156 0.750000
O O13 0.264549 0.251519 0.623407
O O14 0.500000 0.733279 0.750000
O O15 0.407004 0.763959 0.710900
O O16 0.500000 0.000000 0.500000
#
# Coordination Sequence:
#
# PCOD9226094 Si02
#       7
#     4   4   4   4   4   4   4
#     4   9  18  31  49  70  94 121 156 195 234 277
#     4   9  15  24  37  56  81 111 144 183 223 264
#     4  10  16  22  32  49  76 111 146 180 216 262
#     4  10  16  22  32  49  76 111 146 180 216 262
#     4   9  15  24  37  56  81 111 144 183 223 264
#     4  10  21  36  50  70  96 124 155 192 234 280
#     4   9  18  31  49  70  94 121 156 195 234 277
#
# _framework density 27.255787999999999
#
# number of rings (size 3 to 8) (size 9 to 14) (size 15 to 20)
#    0.000    2.571    0.000    6.429    0.000    2.286 
#    0.000    0.000    0.000    0.000    0.000    0.000 
#    0.000    1.143    0.000   13.143    0.000    8.286 
#
# Total GULP energy -156186.954130 kJ/mol
# GULP energy per Si atom -5578.105505 kJ/mol
# Density = 2.719375 g / cm^3
# Si number density = 27.255788 Si / 1000 Ang^3
#
#
#
# Elastic Constant Matrix: (Units=GPa)
#
#
# Indices 1 2 3 4 5 6 
#
# 1 130.1625 -9.0694 63.2162 0.0000 -41.9286 0.0000
# 2 -9.0694 45.8431 4.9534 0.0000 -7.4425 0.0000
# 3 63.2162 4.9534 202.1940 0.0000 -80.8880 0.0000
# 4 0.0000 0.0000 0.0000 2.2517 0.0000 8.3427
# 5 -41.9286 -7.4425 -80.8880 0.0000 81.2657 0.0000
# 6 0.0000 0.0000 0.0000 8.3427 0.0000 11.3985
#
#
#
# Elastic Compliance Matrix: (Units=1/GPa)
#
#
# Indices 1 2 3 4 5 6 
#
# 1 0.009873 0.002730 -0.001688 0.000000 0.003664 0.000000
# 2 0.002730 0.022922 -0.000020 0.000000 0.003488 0.000000
# 3 -0.001688 -0.000020 0.008516 0.000000 0.007603 0.000000
# 4 0.000000 0.000000 0.000000 -0.259450 0.000000 0.189893
# 5 0.003664 0.003488 0.007603 0.000000 0.022083 0.000000
# 6 0.000000 0.000000 0.000000 0.189893 0.000000 -0.051253
#
#
# Mechanical properties :
#
#
# Convention : Reuss Voigt Hill
#
# Bulk Modulus (GPa) = 23.06456 55.15556 39.11006
# Shear Modulus (GPa) = -21.28544 40.25649 9.48552
#
# Velocity S-wave (km/s) = -2.79758 3.84733 1.86755
# Velocity P-wave (km/s) = 1.39809 6.32583 4.36242
#
# Compressibility (1/GPa) = 0.04335656
#
# Stress axis : x y z
#
# Youngs Moduli (GPa) = 101.28667 43.62585 117.42949
#
# Poissons Ratio (x) = -0.11912 0.19822
# Poissons Ratio (y) = -0.27656 0.00231
# Poissons Ratio (z) = 0.17097 0.00086
#
# Static dielectric constant tensor:
#      x y z
#    x 2.396880 0.000000 -0.265710 
#    y 0.000000 2.141660 0.000000 
#    z -0.265710 0.000000 2.446100 
# 
# From -- ./inp_files/24859.got.cif
#   From: 2010.05.17/outbox.cif.g08.bks.cpg/sg13_13_cif.got.tgz:24859.got - 2010.06.03 16:44:36.
