data_PCOD9226100
_publ_section_title
;
Structure prediction by ZEFSAII (Michael W. Deem and Ramdas Pophale) SiO2 
 PCOD9226100
Probable space group: P 2/C
;
_chemical_formula_sum "Si O2"
_cell_formula_units_Z 30
_cell_length_a 17.216261
_cell_length_b 24.170694
_cell_length_c 5.363480
_cell_angle_alpha 90.000000
_cell_angle_beta 83.562914
_cell_angle_gamma 90.000000
_cell_volume 2217.828567
_symmetry_space_group_name_H-M "P 2/C"
_symmetry_group_IT_number 13
_symmetry_cell_setting 'monoclinic'
loop_
_space_group_symop_operation_xyz
x,y,z
-x,y,1/2-z
-x,-y,-z
x,-y,1/2+z
loop_
_atom_site_type_symbol
_atom_site_label
_atom_site_fract_x
_atom_site_fract_y
_atom_site_fract_z
Si Si1 0.588524 0.847194 0.507159
Si Si2 0.591175 0.323613 0.700299
Si Si3 0.216427 0.463406 0.425074
Si Si4 0.966051 0.562904 0.512211
Si Si5 0.588696 0.022789 0.004466
Si Si6 0.589153 0.197468 0.511660
Si Si7 0.355782 0.379694 0.319249
Si Si8 0.500000 0.536335 0.750000
O O1 0.585760 0.912225 0.560509
O O2 0.500096 0.824002 0.498759
O O3 0.626036 0.837499 0.223235
O O4 0.624413 0.813815 0.726247
O O5 0.500000 0.342009 0.750000
O O6 0.589302 0.259871 0.611531
O O7 0.636394 0.353840 0.459307
O O8 0.627110 0.337011 0.959197
O O9 0.228614 0.498417 0.675040
O O10 0.126884 0.442714 0.454527
O O11 0.275614 0.412263 0.391460
O O12 0.000000 0.589466 0.750000
O O13 0.000000 0.500000 0.500000
O O14 0.000000 0.589475 0.250000
O O15 0.625553 0.009124 0.723929
O O16 0.500000 0.000000 0.000000
O O17 0.424355 0.425153 0.298352
O O18 0.500000 0.500000 0.500000
#
# Coordination Sequence:
#
# PCOD9226100 Si02
#       8
#     4   4   4   4   4   4   4   2
#     4  10  17  25  38  58  68  87 129 159 205 240
#     4  12  21  37  48  58  74 101 139 176 215 235
#     4  12  21  35  52  69  92 105 129 152 189 234
#     4  10  16  30  51  76  89 108 122 145 175 223
#     4  10  16  23  32  48  76  99 108 138 193 264
#     4  10  18  27  43  55  65  86 123 177 200 225
#     4  12  25  35  48  62  80 107 130 167 199 249
#     4  12  22  36  46  56  76 100 136 152 186 224
#
# _framework density 13.526744000000001
#
# number of rings (size 3 to 8) (size 9 to 14) (size 15 to 20)
#    0.000    1.067    5.333    7.200    1.867    0.000 
#    0.000    0.000    0.000    0.000    0.000    0.000 
#    0.000    0.000    0.000    0.000    0.000    0.000 
#
# Total GULP energy -167129.001275 kJ/mol
# GULP energy per Si atom -5570.966709 kJ/mol
# Density = 1.349596 g / cm^3
# Si number density = 13.526744 Si / 1000 Ang^3
#
#
#
# Elastic Constant Matrix: (Units=GPa)
#
#
# Indices 1 2 3 4 5 6 
#
# 1 54.8216 17.6269 9.6009 0.0000 -5.9791 0.0000
# 2 17.6269 60.7502 23.8319 0.0000 -2.4651 0.0000
# 3 9.6009 23.8319 137.0126 0.0000 3.1699 0.0000
# 4 0.0000 0.0000 0.0000 26.4607 0.0000 -0.0812
# 5 -5.9791 -2.4651 3.1699 0.0000 11.7489 0.0000
# 6 0.0000 0.0000 0.0000 -0.0812 0.0000 -3.3966
#
#
#
# Elastic Compliance Matrix: (Units=1/GPa)
#
#
# Indices 1 2 3 4 5 6 
#
# 1 0.021203 -0.005452 -0.000765 0.000000 0.009853 0.000000
# 2 -0.005452 0.019315 -0.003026 0.000000 0.002094 0.000000
# 3 -0.000765 -0.003026 0.007952 0.000000 -0.003170 0.000000
# 4 0.000000 0.000000 0.000000 0.037789 0.000000 -0.000904
# 5 0.009853 0.002094 -0.003170 0.000000 0.091423 0.000000
# 6 0.000000 0.000000 0.000000 -0.000904 0.000000 -0.294394
#
#
# Mechanical properties :
#
#
# Convention : Reuss Voigt Hill
#
# Bulk Modulus (GPa) = 33.35269 39.41153 36.38211
# Shear Modulus (GPa) = -56.66893 20.39759 -18.13567
#
# Velocity S-wave (km/s) = -6.47958 3.88744 -3.66557
# Velocity P-wave (km/s) = 5.59192 7.02487 3.00660
#
# Compressibility (1/GPa) = 0.02998259
#
# Stress axis : x y z
#
# Youngs Moduli (GPa) = 47.16404 51.77369 125.75588
#
# Poissons Ratio (x) = 0.28227 0.09625
# Poissons Ratio (y) = 0.25714 0.38054
# Poissons Ratio (z) = 0.03610 0.15667
#
# Static dielectric constant tensor:
#      x y z
#    x 1.465020 0.000000 -0.124300 
#    y 0.000000 1.464230 0.000000 
#    z -0.124300 0.000000 0.280290 
# 
# From -- ./inp_files/5504.got.cif
#   From: 2010.05.17/outbox.cif.g08.bks.cpg/sg13_3_cif.got.tgz:5504.got - 2010.06.03 16:44:36.
