data_PCOD9226015
_publ_section_title
;
Structure prediction by ZEFSAII (Michael W. Deem and Ramdas Pophale) SiO2 
 PCOD9226015
Probable space group: P 2/C
;
_chemical_formula_sum "Si O2"
_cell_formula_units_Z 18
_cell_length_a 24.236834
_cell_length_b 6.556750
_cell_length_c 5.177809
_cell_angle_alpha 90.000000
_cell_angle_beta 115.846093
_cell_angle_gamma 90.000000
_cell_volume 740.521675
_symmetry_space_group_name_H-M "P 2/C"
_symmetry_group_IT_number 13
_symmetry_cell_setting 'monoclinic'
loop_
_space_group_symop_operation_xyz
x,y,z
-x,y,1/2-z
-x,-y,-z
x,-y,1/2+z
loop_
_atom_site_type_symbol
_atom_site_label
_atom_site_fract_x
_atom_site_fract_y
_atom_site_fract_z
Si Si1 0.176951 0.749972 0.964263
Si Si2 0.694276 0.360402 0.595763
Si Si3 0.000000 0.855448 0.250000
Si Si4 0.127875 0.708437 0.366537
Si Si5 0.435676 0.640129 0.561015
O O1 0.244541 0.763491 0.218024
O O2 0.127592 0.806615 0.081991
O O3 0.172030 0.821724 0.660161
O O4 0.157602 0.511820 0.877929
O O5 0.695686 0.456112 0.312419
O O6 0.629086 0.252409 0.515374
O O7 0.939387 0.716428 0.150056
O O8 0.000000 0.000000 0.500000
O O9 0.500000 0.751062 0.750000
O O10 0.435758 0.545557 0.273346
#
# Coordination Sequence:
#
# PCOD9226015 Si02
#       5
#     4   4   2   4   4
#     4  10  17  30  50  78  91 110 144 186 240 254
#     4  10  14  23  38  60  91 113 147 180 211 259
#     4  12  26  42  52  66  88 122 152 174 220 278
#     4  10  20  33  52  69  92 110 142 186 222 276
#     4   8  14  20  29  47  78 122 157 170 187 236
#
# _framework density 24.307185
#
# number of rings (size 3 to 8) (size 9 to 14) (size 15 to 20)
#    0.000    2.222    4.444    1.333    0.000    3.556 
#    0.000    0.000    0.000    0.000    0.000    0.000 
#    0.000    0.000    0.000    0.000    0.000   37.778 
#
# Total GULP energy -100359.963429 kJ/mol
# GULP energy per Si atom -5575.553524 kJ/mol
# Density = 2.425186 g / cm^3
# Si number density = 24.307185 Si / 1000 Ang^3
#
#
#
# Elastic Constant Matrix: (Units=GPa)
#
#
# Indices 1 2 3 4 5 6 
#
# 1 135.6851 -11.9825 19.9189 0.0000 28.4909 0.0000
# 2 -11.9825 50.1177 -23.8919 0.0000 6.6461 0.0000
# 3 19.9189 -23.8919 120.1671 0.0000 -19.7153 0.0000
# 4 0.0000 0.0000 0.0000 -22.5019 0.0000 12.4805
# 5 28.4909 6.6461 -19.7153 0.0000 77.7117 0.0000
# 6 0.0000 0.0000 0.0000 12.4805 0.0000 7.3337
#
#
#
# Elastic Compliance Matrix: (Units=1/GPa)
#
#
# Indices 1 2 3 4 5 6 
#
# 1 0.008549 0.001735 -0.001681 0.000000 -0.003709 0.000000
# 2 0.001735 0.022443 0.003918 0.000000 -0.001561 0.000000
# 3 -0.001681 0.003918 0.009835 0.000000 0.002776 0.000000
# 4 0.000000 0.000000 0.000000 -0.022862 0.000000 0.038906
# 5 -0.003709 -0.001561 0.002776 0.000000 0.015066 0.000000
# 6 0.000000 0.000000 0.000000 0.038906 0.000000 0.070146
#
#
# Mechanical properties :
#
#
# Convention : Reuss Voigt Hill
#
# Bulk Modulus (GPa) = 20.50398 30.45097 25.47748
# Shear Modulus (GPa) = 44.84764 33.97041 39.40902
#
# Velocity S-wave (km/s) = 4.30005 3.74243 4.03089
# Velocity P-wave (km/s) = 5.75392 5.58830 5.67172
#
# Compressibility (1/GPa) = 0.04877101
#
# Stress axis : x y z
#
# Youngs Moduli (GPa) = 116.97694 44.55780 101.67885
#
# Poissons Ratio (x) = -0.07729 0.17089
# Poissons Ratio (y) = -0.20290 -0.39843
# Poissons Ratio (z) = 0.19660 -0.17460
#
# Static dielectric constant tensor:
#      x y z
#    x 1.979580 0.000000 0.001440 
#    y 0.000000 2.588590 0.000000 
#    z 0.001440 0.000000 2.040670 
# 
# From -- ./inp_files/6642.got.cif
#   From: 2010.05.17/outbox.cif.g08.bks.cpg/sg13_4_cif.got.tgz:6642.got - 2010.06.03 16:44:36.
