data_PCOD9226178
_publ_section_title
;
Structure prediction by ZEFSAII (Michael W. Deem and Ramdas Pophale) SiO2 
 PCOD9226178
Probable space group: P 2/C
;
_chemical_formula_sum "Si O2"
_cell_formula_units_Z 30
_cell_length_a 12.319293
_cell_length_b 11.690701
_cell_length_c 19.560918
_cell_angle_alpha 90.000000
_cell_angle_beta 39.459496
_cell_angle_gamma 90.000000
_cell_volume 1790.413683
_symmetry_space_group_name_H-M "P 2/C"
_symmetry_group_IT_number 13
_symmetry_cell_setting 'monoclinic'
loop_
_space_group_symop_operation_xyz
x,y,z
-x,y,1/2-z
-x,-y,-z
x,-y,1/2+z
loop_
_atom_site_type_symbol
_atom_site_label
_atom_site_fract_x
_atom_site_fract_y
_atom_site_fract_z
Si Si1 0.347851 0.946808 0.668561
Si Si2 0.014324 0.038991 0.660937
Si Si3 0.530151 0.721171 0.815222
Si Si4 0.000000 0.458002 0.750000
Si Si5 0.220031 0.732335 0.067475
Si Si6 0.485039 0.317469 0.545593
Si Si7 0.332414 0.895609 0.513656
Si Si8 0.315493 0.544026 0.670072
O O1 0.382947 0.834934 0.696306
O O2 0.327478 0.910168 0.598806
O O3 0.515748 0.025354 0.588606
O O4 0.174702 0.012259 0.773924
O O5 0.098417 0.162697 0.606798
O O6 0.000000 0.036143 0.750000
O O7 0.152548 0.942154 0.573817
O O8 0.500000 0.729798 0.750000
O O9 0.647285 0.613954 0.779951
O O10 0.350010 0.707186 0.942981
O O11 0.113289 0.375832 0.646278
O O12 0.123117 0.531897 0.737758
O O13 0.342457 0.758410 0.074147
O O14 0.611362 0.234821 0.524481
O O15 0.392387 0.415987 0.633614
O O16 0.586519 0.384887 0.436972
#
# Coordination Sequence:
#
# PCOD9226178 Si02
#       8
#     4   4   4   2   4   4   4   4
#     4  10  19  30  50  83 106 141 181 220 276 327
#     4  10  18  26  50  87 114 131 164 217 290 343
#     4  11  22  40  56  70 110 162 194 208 255 345
#     4  10  20  30  58  86 114 124 172 258 290 320
#     4  10  17  33  52  82 107 143 175 215 287 332
#     4   9  16  30  51  75 112 135 171 225 286 325
#     4  10  16  29  52  80 117 130 162 239 287 328
#     4   9  19  32  50  81 104 142 180 222 282 322
#
# _framework density 16.755904000000001
#
# number of rings (size 3 to 8) (size 9 to 14) (size 15 to 20)
#    0.000    2.133    4.667    2.400    1.867    1.067 
#    0.000    1.333    0.000    0.800    0.000    0.000 
#    0.000    0.000    0.000    0.000    0.000    0.000 
#
# Total GULP energy -167154.367311 kJ/mol
# GULP energy per Si atom -5571.812244 kJ/mol
# Density = 1.671777 g / cm^3
# Si number density = 16.755904 Si / 1000 Ang^3
#
#
#
# Elastic Constant Matrix: (Units=GPa)
#
#
# Indices 1 2 3 4 5 6 
#
# 1 67.6323 34.9365 48.5827 0.0000 -11.3709 0.0000
# 2 34.9365 72.0458 26.1632 0.0000 -2.0922 0.0000
# 3 48.5827 26.1632 68.7820 0.0000 -17.3280 0.0000
# 4 0.0000 0.0000 0.0000 17.5392 0.0000 -9.1746
# 5 -11.3709 -2.0922 -17.3280 0.0000 23.7485 0.0000
# 6 0.0000 0.0000 0.0000 -9.1746 0.0000 11.5454
#
#
#
# Elastic Compliance Matrix: (Units=1/GPa)
#
#
# Indices 1 2 3 4 5 6 
#
# 1 0.034542 -0.009197 -0.020752 0.000000 0.000587 0.000000
# 2 -0.009197 0.018829 -0.001663 0.000000 -0.003958 0.000000
# 3 -0.020752 -0.001663 0.033435 0.000000 0.014313 0.000000
# 4 0.000000 0.000000 0.000000 0.097575 0.000000 0.077539
# 5 0.000587 -0.003958 0.014313 0.000000 0.052484 0.000000
# 6 0.000000 0.000000 0.000000 0.077539 0.000000 0.148232
#
#
# Mechanical properties :
#
#
# Convention : Reuss Voigt Hill
#
# Bulk Modulus (GPa) = 42.40583 47.53610 44.97097
# Shear Modulus (GPa) = 10.96054 17.15180 14.05617
#
# Velocity S-wave (km/s) = 2.56037 3.20289 2.89948
# Velocity P-wave (km/s) = 5.83983 6.48917 6.17304
#
# Compressibility (1/GPa) = 0.02358166
#
# Stress axis : x y z
#
# Youngs Moduli (GPa) = 28.94988 53.10951 29.90898
#
# Poissons Ratio (x) = 0.48846 0.62067
# Poissons Ratio (y) = 0.26626 0.04974
# Poissons Ratio (z) = 0.60077 0.08832
#
# Static dielectric constant tensor:
#      x y z
#    x 1.566830 0.000000 -0.039530 
#    y 0.000000 1.604340 0.000000 
#    z -0.039530 0.000000 1.579160 
# 
# From -- ./inp_files/50906.got.cif
#   From: 2010.05.17/outbox.cif.g08.bks.cpg/sg13_26_cif.got.tgz:50906.got - 2010.06.03 16:44:36.
