data_PCOD9226870
_publ_section_title
;
Structure prediction by ZEFSAII (Michael W. Deem and Ramdas Pophale) SiO2 
 PCOD9226870
Probable space group: P 2/C
;
_chemical_formula_sum "Si O2"
_cell_formula_units_Z 20
_cell_length_a 6.511118
_cell_length_b 9.682969
_cell_length_c 21.543066
_cell_angle_alpha 90.000000
_cell_angle_beta 116.055473
_cell_angle_gamma 90.000000
_cell_volume 1220.187224
_symmetry_space_group_name_H-M "P 2/C"
_symmetry_group_IT_number 13
_symmetry_cell_setting 'monoclinic'
loop_
_space_group_symop_operation_xyz
x,y,z
-x,y,1/2-z
-x,-y,-z
x,-y,1/2+z
loop_
_atom_site_type_symbol
_atom_site_label
_atom_site_fract_x
_atom_site_fract_y
_atom_site_fract_z
Si Si1 0.865908 0.313080 0.668850
Si Si2 0.613970 0.804909 0.962559
Si Si3 0.104267 0.299953 0.570792
Si Si4 0.465508 0.492785 0.069929
Si Si5 0.494952 0.890984 0.411325
O O1 0.661019 0.422000 0.630940
O O2 0.742138 0.162859 0.649122
O O3 0.000000 0.332139 0.750000
O O4 0.026261 0.330258 0.630238
O O5 0.518853 0.670041 0.915748
O O6 0.549951 0.947600 0.921174
O O7 0.516357 0.829466 0.019555
O O8 0.881436 0.764430 0.007212
O O9 0.226618 0.433116 0.556149
O O10 0.298298 0.183903 0.595390
O O11 0.500000 0.500000 0.000000
#
# Coordination Sequence:
#
# PCOD9226870 Si02
#       5
#     4   4   4   4   4
#     4  10  22  37  53  74 105 147 181 214 264 318
#     4  10  18  31  51  82 109 127 169 221 267 303
#     4  10  18  32  56  76 105 140 173 215 270 311
#     4  11  19  33  53  83 109 133 176 224 259 316
#     4   9  19  32  51  78 107 134 171 217 258 319
#
# _framework density 16.390927999999999
#
# number of rings (size 3 to 8) (size 9 to 14) (size 15 to 20)
#    0.000    2.000    6.000    1.200    0.000    3.200 
#    0.000    1.000    0.000    2.400    0.000    0.000 
#    0.000    0.000    0.000    0.000    0.000    0.000 
#
# Total GULP energy -111354.464296 kJ/mol
# GULP energy per Si atom -5567.723215 kJ/mol
# Density = 1.635362 g / cm^3
# Si number density = 16.390928 Si / 1000 Ang^3
#
#
#
# Elastic Constant Matrix: (Units=GPa)
#
#
# Indices 1 2 3 4 5 6 
#
# 1 113.2541 53.0310 40.8787 0.0000 -1.6488 0.0000
# 2 53.0310 158.5190 46.7126 0.0000 5.4713 0.0000
# 3 40.8787 46.7126 92.9624 0.0000 17.4098 0.0000
# 4 0.0000 0.0000 0.0000 12.3663 0.0000 -0.8705
# 5 -1.6488 5.4713 17.4098 0.0000 10.4134 0.0000
# 6 0.0000 0.0000 0.0000 -0.8705 0.0000 24.2378
#
#
#
# Elastic Compliance Matrix: (Units=1/GPa)
#
#
# Indices 1 2 3 4 5 6 
#
# 1 0.012952 -0.002738 -0.007240 0.000000 0.015594 0.000000
# 2 -0.002738 0.008067 -0.002875 0.000000 0.000134 0.000000
# 3 -0.007240 -0.002875 0.022299 0.000000 -0.036917 0.000000
# 4 0.000000 0.000000 0.000000 0.081070 0.000000 0.002911
# 5 0.015594 0.000134 -0.036917 0.000000 0.160148 0.000000
# 6 0.000000 0.000000 0.000000 0.002911 0.000000 0.041362
#
#
# Mechanical properties :
#
#
# Convention : Reuss Voigt Hill
#
# Bulk Modulus (GPa) = 56.77756 71.77556 64.27656
# Shear Modulus (GPa) = 13.98703 24.34437 19.16570
#
# Velocity S-wave (km/s) = 2.92437 3.85806 3.42319
# Velocity P-wave (km/s) = 6.79098 7.98317 7.41109
#
# Compressibility (1/GPa) = 0.01761259
#
# Stress axis : x y z
#
# Youngs Moduli (GPa) = 77.20880 123.96563 44.84519
#
# Poissons Ratio (x) = 0.33937 0.32468
# Poissons Ratio (y) = 0.21137 0.12892
# Poissons Ratio (z) = 0.55900 0.35638
#
# Static dielectric constant tensor:
#      x y z
#    x 1.572230 0.000000 0.004750 
#    y 0.000000 1.588650 0.000000 
#    z 0.004750 0.000000 1.525700 
# 
# From -- ./inp_files/72779.got.cif
#   From: 2010.05.17/outbox.cif.g08.bks.cpg/sg13_37_cif.got.tgz:72779.got - 2010.06.03 16:44:36.
