data_PCOD9226216
_publ_section_title
;
Structure prediction by ZEFSAII (Michael W. Deem and Ramdas Pophale) SiO2 
 PCOD9226216
Probable space group: P 2/C
;
_chemical_formula_sum "Si O2"
_cell_formula_units_Z 30
_cell_length_a 15.136606
_cell_length_b 21.377441
_cell_length_c 5.433514
_cell_angle_alpha 90.000000
_cell_angle_beta 74.356747
_cell_angle_gamma 90.000000
_cell_volume 1693.062293
_symmetry_space_group_name_H-M "P 2/C"
_symmetry_group_IT_number 13
_symmetry_cell_setting 'monoclinic'
loop_
_space_group_symop_operation_xyz
x,y,z
-x,y,1/2-z
-x,-y,-z
x,-y,1/2+z
loop_
_atom_site_type_symbol
_atom_site_label
_atom_site_fract_x
_atom_site_fract_y
_atom_site_fract_z
Si Si1 0.392450 0.267850 0.332486
Si Si2 0.747819 0.460152 0.646191
Si Si3 0.357569 0.011886 0.468730
Si Si4 0.392211 0.652555 0.329339
Si Si5 0.801367 0.098708 0.415215
Si Si6 0.039231 0.571460 0.473727
Si Si7 0.729278 0.853278 0.472128
Si Si8 0.000000 0.960360 0.750000
O O1 0.500000 0.249525 0.250000
O O2 0.378656 0.309601 0.586197
O O3 0.329633 0.207636 0.423846
O O4 0.374928 0.305936 0.090068
O O5 0.737530 0.507830 0.422964
O O6 0.674876 0.406249 0.642417
O O7 0.851681 0.433455 0.580488
O O8 0.330950 0.083970 0.489436
O O9 0.407712 0.000647 0.180626
O O10 0.268366 0.962866 0.531718
O O11 0.500000 0.633887 0.250000
O O12 0.777509 0.142009 0.668886
O O13 0.905426 0.076781 0.343376
O O14 0.790545 0.134538 0.166121
O O15 0.000000 0.599701 0.250000
O O16 0.000000 0.500000 0.500000
O O17 0.000000 0.602135 0.750000
O O18 0.000000 0.000000 0.500000
#
# Coordination Sequence:
#
# PCOD9226216 Si02
#       8
#     4   4   4   4   4   4   4   2
#     4  10  21  40  61  79 103 141 195 241 271 325
#     4  12  21  33  58  88 116 150 180 214 285 350
#     4   8  14  25  41  67 102 124 155 207 265 314
#     4  10  23  40  56  83 116 142 182 242 279 326
#     4  10  19  30  48  80 111 138 176 228 278 334
#     4  10  16  30  49  80 116 141 174 220 247 301
#     4  10  18  32  54  76  98 142 183 226 277 326
#     4  12  20  30  48  78 116 152 188 220 280 350
#
# _framework density 17.719372
#
# number of rings (size 3 to 8) (size 9 to 14) (size 15 to 20)
#    0.000    1.867    2.667    4.800    0.000    0.533 
#    0.000    0.000    0.000    7.200   17.333    0.000 
#    0.000    0.000    0.000    0.000    0.000    0.000 
#
# Total GULP energy -167020.470612 kJ/mol
# GULP energy per Si atom -5567.349020 kJ/mol
# Density = 1.767904 g / cm^3
# Si number density = 17.719372 Si / 1000 Ang^3
#
#
#
# Elastic Constant Matrix: (Units=GPa)
#
#
# Indices 1 2 3 4 5 6 
#
# 1 106.0902 57.8181 50.9613 0.0000 6.0144 0.0000
# 2 57.8181 57.1912 29.6052 0.0000 -0.7979 0.0000
# 3 50.9613 29.6052 143.5036 0.0000 32.8980 0.0000
# 4 0.0000 0.0000 0.0000 19.8275 0.0000 -3.5010
# 5 6.0144 -0.7979 32.8980 0.0000 33.7001 0.0000
# 6 0.0000 0.0000 0.0000 -3.5010 0.0000 23.0217
#
#
#
# Elastic Compliance Matrix: (Units=1/GPa)
#
#
# Indices 1 2 3 4 5 6 
#
# 1 0.022668 -0.021174 -0.003400 0.000000 -0.001227 0.000000
# 2 -0.021174 0.040234 -0.002404 0.000000 0.007078 0.000000
# 3 -0.003400 -0.002404 0.011010 0.000000 -0.010198 0.000000
# 4 0.000000 0.000000 0.000000 0.051827 0.000000 0.007882
# 5 -0.001227 0.007078 -0.010198 0.000000 0.040015 0.000000
# 6 0.000000 0.000000 0.000000 0.007882 0.000000 0.044636
#
#
# Mechanical properties :
#
#
# Convention : Reuss Voigt Hill
#
# Bulk Modulus (GPa) = 50.10947 64.83935 57.47441
# Shear Modulus (GPa) = 18.45029 26.53654 22.49341
#
# Velocity S-wave (km/s) = 3.23034 3.87408 3.56676
# Velocity P-wave (km/s) = 6.50033 7.52882 7.03340
#
# Compressibility (1/GPa) = 0.01995631
#
# Stress axis : x y z
#
# Youngs Moduli (GPa) = 44.11410 24.85449 90.82834
#
# Poissons Ratio (x) = 0.52626 0.30886
# Poissons Ratio (y) = 0.93406 0.21833
# Poissons Ratio (z) = 0.15001 0.05974
#
# Static dielectric constant tensor:
#      x y z
#    x 1.622920 0.000000 0.042510 
#    y 0.000000 1.575930 0.000000 
#    z 0.042510 0.000000 1.688930 
# 
# From -- ./inp_files/5343.got.cif
#   From: 2010.05.17/outbox.cif.g08.bks.cpg/sg13_3_cif.got.tgz:5343.got - 2010.06.03 16:44:36.
