data_PCOD9226006
_publ_section_title
;
Structure prediction by ZEFSAII (Michael W. Deem and Ramdas Pophale) SiO2 
 PCOD9226006
Probable space group: P 2/C
;
_chemical_formula_sum "Si O2"
_cell_formula_units_Z 28
_cell_length_a 8.004383
_cell_length_b 33.624252
_cell_length_c 5.453064
_cell_angle_alpha 90.000000
_cell_angle_beta 58.268704
_cell_angle_gamma 90.000000
_cell_volume 1248.267434
_symmetry_space_group_name_H-M "P 2/C"
_symmetry_group_IT_number 13
_symmetry_cell_setting 'monoclinic'
loop_
_space_group_symop_operation_xyz
x,y,z
-x,y,1/2-z
-x,-y,-z
x,-y,1/2+z
loop_
_atom_site_type_symbol
_atom_site_label
_atom_site_fract_x
_atom_site_fract_y
_atom_site_fract_z
Si Si1 0.379344 0.770171 0.597188
Si Si2 0.738886 0.144510 0.331098
Si Si3 0.127843 0.394753 0.401467
Si Si4 0.761515 0.978269 0.420252
Si Si5 0.871561 0.692848 0.599709
Si Si6 0.770916 0.516627 0.675529
Si Si7 0.292125 0.112287 0.645703
O O1 0.500000 0.781277 0.750000
O O2 0.241332 0.808258 0.656461
O O3 0.272753 0.729581 0.753605
O O4 0.500000 0.764795 0.250000
O O5 0.505344 0.133306 0.499270
O O6 0.808588 0.122029 0.519206
O O7 0.810135 0.129658 0.015122
O O8 0.225666 0.351149 0.337371
O O9 0.243442 0.435851 0.302207
O O10 0.000000 0.395115 0.250000
O O11 0.000000 0.397419 0.750000
O O12 0.686488 0.934493 0.413047
O O13 0.000000 0.976057 0.250000
O O14 0.704759 0.993471 0.735073
O O15 0.000000 0.692836 0.750000
O O16 0.000000 0.697510 0.250000
O O17 0.688465 0.502031 0.483992
O O18 0.000000 0.500000 0.500000
#
# Coordination Sequence:
#
# PCOD9226006 Si02
#       7
#     4   4   4   4   4   4   4
#     4  12  21  40  66  85 113 158 203 240 297 358
#     4  10  19  35  56  80 106 133 177 241 282 311
#     4  10  16  27  42  64 105 145 172 223 291 340
#     4  10  21  37  55  77 112 152 181 214 265 338
#     4  10  23  38  55  84 122 156 186 244 304 357
#     4  10  14  20  36  63  90 136 177 219 268 348
#     4  10  18  35  56  81 105 137 178 227 274 313
#
# _framework density 22.431092
#
# number of rings (size 3 to 8) (size 9 to 14) (size 15 to 20)
#    0.000    1.714    5.714    1.714    0.000    0.000 
#    0.000   10.714    0.000    0.000    0.000    0.000 
#    0.000    3.429    0.000    0.000    0.000    0.000 
#
# Total GULP energy -156365.253454 kJ/mol
# GULP energy per Si atom -5584.473338 kJ/mol
# Density = 2.238004 g / cm^3
# Si number density = 22.431092 Si / 1000 Ang^3
#
#
#
# Elastic Constant Matrix: (Units=GPa)
#
#
# Indices 1 2 3 4 5 6 
#
# 1 80.1280 23.5312 51.6979 0.0000 29.4285 0.0000
# 2 23.5312 222.4865 61.4686 0.0000 17.2543 0.0000
# 3 51.6979 61.4686 189.8601 0.0000 45.9878 0.0000
# 4 0.0000 0.0000 0.0000 38.6614 0.0000 16.8217
# 5 29.4285 17.2543 45.9878 0.0000 45.3024 0.0000
# 6 0.0000 0.0000 0.0000 16.8217 0.0000 12.1255
#
#
#
# Elastic Compliance Matrix: (Units=1/GPa)
#
#
# Indices 1 2 3 4 5 6 
#
# 1 0.017383 -0.000483 -0.002501 0.000000 -0.008569 0.000000
# 2 -0.000483 0.004954 -0.001447 0.000000 -0.000104 0.000000
# 3 -0.002501 -0.001447 0.007810 0.000000 -0.005752 0.000000
# 4 0.000000 0.000000 0.000000 0.065255 0.000000 -0.090528
# 5 -0.008569 -0.000104 -0.005752 0.000000 0.033519 0.000000
# 6 0.000000 0.000000 0.000000 -0.090528 0.000000 0.208062
#
#
# Mechanical properties :
#
#
# Convention : Reuss Voigt Hill
#
# Bulk Modulus (GPa) = 46.98463 85.09666 66.04064
# Shear Modulus (GPa) = 14.16677 42.93632 28.55154
#
# Velocity S-wave (km/s) = 2.51583 4.37984 3.57158
# Velocity P-wave (km/s) = 5.42502 7.97475 6.82010
#
# Compressibility (1/GPa) = 0.02128356
#
# Stress axis : x y z
#
# Youngs Moduli (GPa) = 57.52835 201.87367 128.04255
#
# Poissons Ratio (x) = 0.09748 0.32028
# Poissons Ratio (y) = 0.02778 0.18529
# Poissons Ratio (z) = 0.14390 0.29213
#
# Static dielectric constant tensor:
#      x y z
#    x 1.911180 0.000000 -0.004510 
#    y 0.000000 1.793500 0.000000 
#    z -0.004510 0.000000 1.799920 
# 
# From -- ./inp_files/2676.got.cif
#   From: 2010.05.17/outbox.cif.g08.bks.cpg/sg13_2_cif.got.tgz:2676.got - 2010.06.03 16:44:36.
