data_PCOD9226505
_publ_section_title
;
Structure prediction by ZEFSAII (Michael W. Deem and Ramdas Pophale) SiO2 
 PCOD9226505
Probable space group: P 2/C
;
_chemical_formula_sum "Si O2"
_cell_formula_units_Z 32
_cell_length_a 17.525285
_cell_length_b 20.870824
_cell_length_c 17.132388
_cell_angle_alpha 90.000000
_cell_angle_beta 163.522271
_cell_angle_gamma 90.000000
_cell_volume 1777.436469
_symmetry_space_group_name_H-M "P 2/C"
_symmetry_group_IT_number 13
_symmetry_cell_setting 'monoclinic'
loop_
_space_group_symop_operation_xyz
x,y,z
-x,y,1/2-z
-x,-y,-z
x,-y,1/2+z
loop_
_atom_site_type_symbol
_atom_site_label
_atom_site_fract_x
_atom_site_fract_y
_atom_site_fract_z
Si Si1 0.908557 0.665476 0.411463
Si Si2 0.588182 0.925412 0.420810
Si Si3 0.506956 0.215328 0.638964
Si Si4 0.597602 0.493443 0.931687
Si Si5 0.384454 0.350307 0.496225
Si Si6 0.940841 0.942270 0.500118
Si Si7 0.966202 0.799892 0.934097
Si Si8 0.922391 0.459984 0.501356
O O1 0.954301 0.739904 0.433866
O O2 0.004636 0.613508 0.443774
O O3 0.607053 0.653262 0.145448
O O4 0.095844 0.653566 0.671510
O O5 0.500000 0.951857 0.250000
O O6 0.596319 0.847948 0.420146
O O7 0.865675 0.945041 0.733869
O O8 0.359266 0.940801 0.260111
O O9 0.432761 0.286145 0.594052
O O10 0.823401 0.209706 0.931994
O O11 0.339262 0.210115 0.393113
O O12 0.500000 0.510915 0.750000
O O13 0.581906 0.416894 0.927196
O O14 0.387577 0.526573 0.784769
O O15 0.894601 0.514432 0.248388
O O16 0.994854 0.874437 0.509011
O O17 0.000000 0.000000 0.500000
O O18 0.000000 0.500000 0.500000
#
# Coordination Sequence:
#
# PCOD9226505 Si02
#       8
#     4   4   4   4   4   4   4   4
#     4  10  18  30  53  72  93 122 170 213 233 280
#     4  10  19  32  49  74 104 138 172 200 236 296
#     4   8  16  27  45  66  99 130 161 191 228 284
#     4  12  24  35  48  74 105 130 163 214 265 305
#     4  10  17  31  47  71  98 131 161 198 240 289
#     4  10  19  33  52  76 104 136 165 207 250 295
#     4   8  16  29  45  73  97 120 160 204 241 284
#     4  12  21  36  55  73  93 132 176 210 248 296
#
# _framework density 18.003457000000001
#
# number of rings (size 3 to 8) (size 9 to 14) (size 15 to 20)
#    0.000    2.000    2.500    2.250    0.000    0.500 
#    0.000    0.000    0.000    7.500    0.000    5.250 
#    0.000    0.000    0.000    0.000    0.000    0.000 
#
# Total GULP energy -178353.717696 kJ/mol
# GULP energy per Si atom -5573.553678 kJ/mol
# Density = 1.796248 g / cm^3
# Si number density = 18.003457 Si / 1000 Ang^3
#
#
#
# Elastic Constant Matrix: (Units=GPa)
#
#
# Indices 1 2 3 4 5 6 
#
# 1 22.5198 15.2427 -5.3971 0.0000 -11.2383 0.0000
# 2 15.2427 106.0818 -6.0094 0.0000 -13.1267 0.0000
# 3 -5.3971 -6.0094 63.9139 0.0000 3.5560 0.0000
# 4 0.0000 0.0000 0.0000 20.2829 0.0000 1.9885
# 5 -11.2383 -13.1267 3.5560 0.0000 20.4227 0.0000
# 6 0.0000 0.0000 0.0000 1.9885 0.0000 5.4203
#
#
#
# Elastic Compliance Matrix: (Units=1/GPa)
#
#
# Indices 1 2 3 4 5 6 
#
# 1 0.064427 -0.005169 0.003198 0.000000 0.031574 0.000000
# 2 -0.005169 0.010679 0.000347 0.000000 0.003959 0.000000
# 3 0.003198 0.000347 0.015993 0.000000 -0.000802 0.000000
# 4 0.000000 0.000000 0.000000 0.051142 0.000000 -0.018762
# 5 0.031574 0.003959 -0.000802 0.000000 0.069024 0.000000
# 6 0.000000 0.000000 0.000000 -0.018762 0.000000 0.191375
#
#
# Mechanical properties :
#
#
# Convention : Reuss Voigt Hill
#
# Bulk Modulus (GPa) = 11.38287 22.24308 16.81297
# Shear Modulus (GPa) = 11.48967 21.80379 16.64673
#
# Velocity S-wave (km/s) = 2.52899 3.48385 3.04409
# Velocity P-wave (km/s) = 3.85539 5.34459 4.65986
#
# Compressibility (1/GPa) = 0.08785132
#
# Stress axis : x y z
#
# Youngs Moduli (GPa) = 15.52134 93.64170 62.52599
#
# Poissons Ratio (x) = 0.48406 -0.19994
# Poissons Ratio (y) = 0.08023 -0.02172
# Poissons Ratio (z) = -0.04963 -0.03252
#
# Static dielectric constant tensor:
#      x y z
#    x 1.601730 0.000000 -0.004520 
#    y 0.000000 1.663470 0.000000 
#    z -0.004520 0.000000 1.620720 
# 
# From -- ./inp_files/53997.got.cif
#   From: 2010.05.17/outbox.cif.g08.bks.cpg/sg13_27_cif.got.tgz:53997.got - 2010.06.03 16:44:36.
