data_PCOD9226622
_publ_section_title
;
Structure prediction by ZEFSAII (Michael W. Deem and Ramdas Pophale) SiO2 
 PCOD9226622
Probable space group: P 2/C
;
_chemical_formula_sum "Si O2"
_cell_formula_units_Z 20
_cell_length_a 8.015788
_cell_length_b 5.074307
_cell_length_c 18.780180
_cell_angle_alpha 90.000000
_cell_angle_beta 103.561551
_cell_angle_gamma 90.000000
_cell_volume 742.577788
_symmetry_space_group_name_H-M "P 2/C"
_symmetry_group_IT_number 13
_symmetry_cell_setting 'monoclinic'
loop_
_space_group_symop_operation_xyz
x,y,z
-x,y,1/2-z
-x,-y,-z
x,-y,1/2+z
loop_
_atom_site_type_symbol
_atom_site_label
_atom_site_fract_x
_atom_site_fract_y
_atom_site_fract_z
Si Si1 0.851206 0.825309 0.194181
Si Si2 0.576569 0.749846 0.550191
Si Si3 0.030595 0.245092 0.453583
Si Si4 0.859978 0.580490 0.342668
Si Si5 0.498260 0.372470 0.834877
O O1 0.833618 0.601877 0.255028
O O2 0.648741 0.841026 0.158470
O O3 0.000000 0.999036 0.250000
O O4 0.955172 0.726441 0.136386
O O5 0.500000 0.500000 0.500000
O O6 0.781623 0.762858 0.561881
O O7 0.534300 0.641011 0.625419
O O8 0.500000 0.000000 0.500000
O O9 0.000000 0.500000 0.500000
O O10 0.891701 0.293713 0.377285
O O11 0.000000 0.000000 0.500000
O O12 0.697914 0.706919 0.366433
O O13 0.500000 0.413836 0.750000
#
# Coordination Sequence:
#
# PCOD9226622 Si02
#       5
#     4   4   4   4   4
#     4   7  14  28  53  81 119 156 209 255 318 376
#     4  12  25  44  68 102 136 178 228 280 339 408
#     4  12  24  42  65  95 133 176 219 272 333 401
#     4   8  16  31  54  86 118 161 207 257 318 379
#     4  10  17  34  62  94 127 175 216 280 327 402
#
# _framework density 26.933202999999999
#
# number of rings (size 3 to 8) (size 9 to 14) (size 15 to 20)
#    1.200    0.800    2.000    3.600    0.000    0.000 
#    0.000    1.000    0.000   12.000    0.000    0.000 
#    0.000    0.000    0.000    0.000    0.000    0.000 
#
# Total GULP energy -111416.281614 kJ/mol
# GULP energy per Si atom -5570.814081 kJ/mol
# Density = 2.687190 g / cm^3
# Si number density = 26.933203 Si / 1000 Ang^3
#
#
#
# Elastic Constant Matrix: (Units=GPa)
#
#
# Indices 1 2 3 4 5 6 
#
# 1 272.8461 30.0625 8.6859 0.0000 -23.5151 0.0000
# 2 30.0625 128.7189 12.5705 0.0000 -5.2207 0.0000
# 3 8.6859 12.5705 82.2546 0.0000 -18.3558 0.0000
# 4 0.0000 0.0000 0.0000 19.0874 0.0000 -10.1776
# 5 -23.5151 -5.2207 -18.3558 0.0000 49.9212 0.0000
# 6 0.0000 0.0000 0.0000 -10.1776 0.0000 33.1170
#
#
#
# Elastic Compliance Matrix: (Units=1/GPa)
#
#
# Indices 1 2 3 4 5 6 
#
# 1 0.003910 -0.000852 0.000118 0.000000 0.001796 0.000000
# 2 -0.000852 0.008080 -0.001139 0.000000 0.000025 0.000000
# 3 0.000118 -0.001139 0.013405 0.000000 0.004865 0.000000
# 4 0.000000 0.000000 0.000000 0.062658 0.000000 0.019256
# 5 0.001796 0.000025 0.004865 0.000000 0.022669 0.000000
# 6 0.000000 0.000000 0.000000 0.019256 0.000000 0.036114
#
#
# Mechanical properties :
#
#
# Convention : Reuss Voigt Hill
#
# Bulk Modulus (GPa) = 46.19226 65.16194 55.67710
# Shear Modulus (GPa) = 31.68603 49.25852 40.47228
#
# Velocity S-wave (km/s) = 3.43369 4.28122 3.88066
# Velocity P-wave (km/s) = 5.73657 6.97746 6.38722
#
# Compressibility (1/GPa) = 0.02164865
#
# Stress axis : x y z
#
# Youngs Moduli (GPa) = 255.75675 123.76093 74.60034
#
# Poissons Ratio (x) = 0.10543 -0.00881
# Poissons Ratio (y) = 0.21787 0.08500
# Poissons Ratio (z) = -0.03021 0.14101
#
# Static dielectric constant tensor:
#      x y z
#    x 2.243430 0.000000 0.136070 
#    y 0.000000 2.228510 0.000000 
#    z 0.136070 0.000000 2.384830 
# 
# From -- ./inp_files/74229.got.cif
#   From: 2010.05.17/outbox.cif.g08.bks.cpg/sg13_38_cif.got.tgz:74229.got - 2010.06.03 16:44:36.
