data_PCOD9226789
_publ_section_title
;
Structure prediction by ZEFSAII (Michael W. Deem and Ramdas Pophale) SiO2 
 PCOD9226789
Probable space group: P 2/C
;
_chemical_formula_sum "Si O2"
_cell_formula_units_Z 24
_cell_length_a 29.194613
_cell_length_b 6.995051
_cell_length_c 5.307596
_cell_angle_alpha 90.000000
_cell_angle_beta 94.767979
_cell_angle_gamma 90.000000
_cell_volume 1080.154726
_symmetry_space_group_name_H-M "P 2/C"
_symmetry_group_IT_number 13
_symmetry_cell_setting 'monoclinic'
loop_
_space_group_symop_operation_xyz
x,y,z
-x,y,1/2-z
-x,-y,-z
x,-y,1/2+z
loop_
_atom_site_type_symbol
_atom_site_label
_atom_site_fract_x
_atom_site_fract_y
_atom_site_fract_z
Si Si1 0.020502 0.713478 0.009494
Si Si2 0.782808 0.874068 0.453295
Si Si3 0.118054 0.869017 0.082641
Si Si4 0.682421 0.131307 0.860880
Si Si5 0.588306 0.289070 0.691629
Si Si6 0.551647 0.721564 0.674351
O O1 0.000000 0.802922 0.250000
O O2 0.075234 0.727409 0.038624
O O3 0.000000 0.802398 0.750000
O O4 0.000000 0.500000 0.000000
O O5 0.733455 0.223473 0.887710
O O6 0.783174 0.040904 0.237370
O O7 0.831580 0.773861 0.425615
O O8 0.115071 0.021601 0.849944
O O9 0.640239 0.276356 0.812648
O O10 0.679091 0.990024 0.617724
O O11 0.568844 0.502665 0.644933
O O12 0.583503 0.199566 0.412446
O O13 0.557252 0.197323 0.897131
O O14 0.500000 0.725959 0.750000
#
# Coordination Sequence:
#
# PCOD9226789 Si02
#       6
#     4   4   4   4   4   4
#     4  10  21  35  50  70 104 141 168 199 255 311
#     4   8  16  30  48  71  97 126 160 200 241 280
#     4  10  19  32  53  78  99 125 172 220 245 280
#     4  10  19  32  50  73 102 130 154 189 244 302
#     4  10  18  30  51  73  93 120 161 200 240 285
#     4  10  19  33  53  69  89 124 165 209 241 270
#
# _framework density 22.219038999999999
#
# number of rings (size 3 to 8) (size 9 to 14) (size 15 to 20)
#    0.000    2.333    0.000    4.500    0.000    2.000 
#    0.000    0.000    0.000   25.000    0.000    0.000 
#    0.000    0.000    0.000    0.000    0.000    0.000 
#
# Total GULP energy -133808.394516 kJ/mol
# GULP energy per Si atom -5575.349772 kJ/mol
# Density = 2.216847 g / cm^3
# Si number density = 22.219039 Si / 1000 Ang^3
#
#
#
# Elastic Constant Matrix: (Units=GPa)
#
#
# Indices 1 2 3 4 5 6 
#
# 1 173.1887 -2.1163 -11.6750 0.0000 10.6019 0.0000
# 2 -2.1163 53.5058 -9.8025 0.0000 0.4004 0.0000
# 3 -11.6750 -9.8025 171.5586 0.0000 -2.3701 0.0000
# 4 0.0000 0.0000 0.0000 -10.6296 0.0000 9.3190
# 5 10.6019 0.4004 -2.3701 0.0000 34.9431 0.0000
# 6 0.0000 0.0000 0.0000 9.3190 0.0000 49.3745
#
#
#
# Elastic Compliance Matrix: (Units=1/GPa)
#
#
# Indices 1 2 3 4 5 6 
#
# 1 0.005913 0.000320 0.000396 0.000000 -0.001771 0.000000
# 2 0.000320 0.018905 0.001099 0.000000 -0.000239 0.000000
# 3 0.000396 0.001099 0.005922 0.000000 0.000269 0.000000
# 4 0.000000 0.000000 0.000000 -0.080720 0.000000 0.015235
# 5 -0.001771 -0.000239 0.000269 0.000000 0.029176 0.000000
# 6 0.000000 0.000000 0.000000 0.015235 0.000000 0.017378
#
#
# Mechanical properties :
#
#
# Convention : Reuss Voigt Hill
#
# Bulk Modulus (GPa) = 29.09526 39.00729 34.05127
# Shear Modulus (GPa) = 1135.90093 42.86074 589.38083
#
# Velocity S-wave (km/s) = 22.63490 4.39681 16.30445
# Velocity P-wave (km/s) = 26.38638 6.58558 19.23033
#
# Compressibility (1/GPa) = 0.03436986
#
# Stress axis : x y z
#
# Youngs Moduli (GPa) = 169.11691 52.89529 168.85150
#
# Poissons Ratio (x) = -0.01691 -0.06690
# Poissons Ratio (y) = -0.05407 -0.18551
# Poissons Ratio (z) = -0.06700 -0.05811
#
# Static dielectric constant tensor:
#      x y z
#    x 1.848860 0.000000 -0.005840 
#    y 0.000000 -0.024710 0.000000 
#    z -0.005840 0.000000 1.891000 
# 
# From -- ./inp_files/7347.got.cif
#   From: 2010.05.17/outbox.cif.g08.bks.cpg/sg13_4_cif.got.tgz:7347.got - 2010.06.03 16:44:36.
