data_PCOD9226325
_publ_section_title
;
Structure prediction by ZEFSAII (Michael W. Deem and Ramdas Pophale) SiO2 
 PCOD9226325
Probable space group: P 2/C
;
_chemical_formula_sum "Si O2"
_cell_formula_units_Z 30
_cell_length_a 15.183357
_cell_length_b 19.222509
_cell_length_c 5.187802
_cell_angle_alpha 90.000000
_cell_angle_beta 113.784805
_cell_angle_gamma 90.000000
_cell_volume 1385.523830
_symmetry_space_group_name_H-M "P 2/C"
_symmetry_group_IT_number 13
_symmetry_cell_setting 'monoclinic'
loop_
_space_group_symop_operation_xyz
x,y,z
-x,y,1/2-z
-x,-y,-z
x,-y,1/2+z
loop_
_atom_site_type_symbol
_atom_site_label
_atom_site_fract_x
_atom_site_fract_y
_atom_site_fract_z
Si Si1 0.500000 0.761022 0.250000
Si Si2 0.108414 0.527399 0.573983
Si Si3 0.058007 0.116459 0.555522
Si Si4 0.254946 0.043996 0.966499
Si Si5 0.812668 0.333770 0.527586
Si Si6 0.643596 0.821542 0.086640
Si Si7 0.823957 0.758972 0.540100
Si Si8 0.394658 0.318135 0.255388
O O1 0.539052 0.812713 0.083322
O O2 0.581300 0.706097 0.428365
O O3 0.154212 0.477623 0.411039
O O4 0.117170 0.603580 0.465547
O O5 0.000000 0.500000 0.500000
O O6 0.149988 0.074390 0.770190
O O7 0.096972 0.185661 0.458789
O O8 0.000000 0.131820 0.750000
O O9 0.000000 0.079498 0.250000
O O10 0.329457 0.106355 0.006192
O O11 0.266904 0.983314 0.769572
O O12 0.826743 0.301983 0.827856
O O13 0.701879 0.362857 0.376186
O O14 0.829664 0.274291 0.329527
O O15 0.725748 0.803650 0.393758
O O16 0.644297 0.754447 0.906048
O O17 0.500000 0.335592 0.250000
#
# Coordination Sequence:
#
# PCOD9226325 Si02
#       8
#     2   4   4   4   4   4   4   4
#     4  10  16  34  60  86 118 148 182 244 322 354
#     4  10  22  42  59  84 121 168 206 240 274 341
#     4  11  23  41  58  85 122 143 193 265 310 353
#     4  11  25  40  60  81 110 162 206 239 289 369
#     4  11  20  38  63  87 122 158 203 241 289 361
#     4   9  20  35  58  82 125 146 191 246 310 351
#     4  10  21  37  58  93 116 154 191 251 313 350
#     4   9  19  33  60  95 117 150 190 251 313 359
#
# _framework density 21.652462
#
# number of rings (size 3 to 8) (size 9 to 14) (size 15 to 20)
#    0.000    1.867    1.333    2.400    1.867    3.733 
#   14.400    0.667    0.000    0.800    0.000    0.000 
#    0.000    0.000    0.000    0.000    0.000    0.000 
#
# Total GULP energy -167159.824260 kJ/mol
# GULP energy per Si atom -5571.994142 kJ/mol
# Density = 2.160318 g / cm^3
# Si number density = 21.652462 Si / 1000 Ang^3
#
#
#
# Elastic Constant Matrix: (Units=GPa)
#
#
# Indices 1 2 3 4 5 6 
#
# 1 75.0465 26.2653 14.9013 0.0000 -12.6150 0.0000
# 2 26.2653 43.4087 -20.9484 0.0000 0.0166 0.0000
# 3 14.9013 -20.9484 51.8174 0.0000 -14.1413 0.0000
# 4 0.0000 0.0000 0.0000 25.4667 0.0000 -3.3342
# 5 -12.6150 0.0166 -14.1413 0.0000 38.8231 0.0000
# 6 0.0000 0.0000 0.0000 -3.3342 0.0000 24.6340
#
#
#
# Elastic Compliance Matrix: (Units=1/GPa)
#
#
# Indices 1 2 3 4 5 6 
#
# 1 0.024628 -0.022372 -0.015479 0.000000 0.002374 0.000000
# 2 -0.022372 0.049726 0.027256 0.000000 0.002637 0.000000
# 3 -0.015479 0.027256 0.037079 0.000000 0.008465 0.000000
# 4 0.000000 0.000000 0.000000 0.039975 0.000000 0.005411
# 5 0.002374 0.002637 0.008465 0.000000 0.029611 0.000000
# 6 0.000000 0.000000 0.000000 0.005411 0.000000 0.041327
#
#
# Mechanical properties :
#
#
# Convention : Reuss Voigt Hill
#
# Bulk Modulus (GPa) = 11.08118 23.41212 17.24665
# Shear Modulus (GPa) = 18.27374 27.78839 23.03107
#
# Velocity S-wave (km/s) = 2.90825 3.58632 3.26493
# Velocity P-wave (km/s) = 4.05044 5.29009 4.71122
#
# Compressibility (1/GPa) = 0.09024310
#
# Stress axis : x y z
#
# Youngs Moduli (GPa) = 40.60479 20.11014 26.96944
#
# Poissons Ratio (x) = 0.44991 0.41746
# Poissons Ratio (y) = 0.90842 -0.73509
# Poissons Ratio (z) = 0.62852 -0.54813
#
# Static dielectric constant tensor:
#      x y z
#    x 1.891140 0.000000 0.059730 
#    y 0.000000 1.795600 0.000000 
#    z 0.059730 0.000000 1.937630 
# 
# From -- ./inp_files/5376.got.cif
#   From: 2010.05.17/outbox.cif.g08.bks.cpg/sg13_3_cif.got.tgz:5376.got - 2010.06.03 16:44:36.
