data_PCOD9226535
_publ_section_title
;
Structure prediction by ZEFSAII (Michael W. Deem and Ramdas Pophale) SiO2 
 PCOD9226535
Probable space group: P 2/C
;
_chemical_formula_sum "Si O2"
_cell_formula_units_Z 32
_cell_length_a 11.911409
_cell_length_b 9.148407
_cell_length_c 20.365367
_cell_angle_alpha 90.000000
_cell_angle_beta 51.746804
_cell_angle_gamma 90.000000
_cell_volume 1742.716397
_symmetry_space_group_name_H-M "P 2/C"
_symmetry_group_IT_number 13
_symmetry_cell_setting 'monoclinic'
loop_
_space_group_symop_operation_xyz
x,y,z
-x,y,1/2-z
-x,-y,-z
x,-y,1/2+z
loop_
_atom_site_type_symbol
_atom_site_label
_atom_site_fract_x
_atom_site_fract_y
_atom_site_fract_z
Si Si1 0.852701 0.009561 0.896961
Si Si2 0.830061 0.737625 0.308589
Si Si3 0.130593 0.150933 0.839676
Si Si4 0.379547 0.080445 0.844169
Si Si5 0.308480 0.197887 0.434523
Si Si6 0.024149 0.327558 0.494056
Si Si7 0.646117 0.556871 0.478333
Si Si8 0.229422 0.261889 0.008850
O O1 0.810599 0.104402 0.849741
O O2 0.021312 0.035573 0.846889
O O3 0.779746 0.088690 0.985811
O O4 0.796096 0.846049 0.920732
O O5 0.791701 0.760509 0.246584
O O6 0.742056 0.626329 0.385331
O O7 0.000000 0.702061 0.250000
O O8 0.235476 0.075909 0.852912
O O9 0.036768 0.266285 0.915028
O O10 0.500000 0.130900 0.750000
O O11 0.345524 0.191355 0.916465
O O12 0.408134 0.916273 0.860061
O O13 0.376284 0.318422 0.458008
O O14 0.189147 0.278160 0.432863
O O15 0.921181 0.262319 0.475528
O O16 0.000000 0.500000 0.500000
O O17 0.500000 0.500000 0.500000
O O18 0.725819 0.421564 0.484167
#
# Coordination Sequence:
#
# PCOD9226535 Si02
#       8
#     4   4   4   4   4   4   4   4
#     4   8  16  34  58  80 102 138 185 236 270 328
#     4   9  19  37  60  79 112 151 190 231 285 330
#     4   9  18  33  57  82 109 141 184 234 289 323
#     4  10  21  36  56  80 110 146 186 237 276 333
#     4   9  18  37  56  80 107 141 186 226 282 329
#     4  10  17  31  61  86 107 138 182 235 279 335
#     4  11  23  38  57  83 118 158 187 225 278 352
#     4  10  20  35  58  86 108 142 195 228 280 335
#
# _framework density 18.362138000000002
#
# number of rings (size 3 to 8) (size 9 to 14) (size 15 to 20)
#    0.000    2.500    1.250    1.500    1.750    3.000 
#    2.250    5.625    0.000    0.000    0.000    0.000 
#    0.000    0.000    0.000    0.000    0.000    0.000 
#
# Total GULP energy -178257.540686 kJ/mol
# GULP energy per Si atom -5570.548146 kJ/mol
# Density = 1.832034 g / cm^3
# Si number density = 18.362138 Si / 1000 Ang^3
#
#
#
# Elastic Constant Matrix: (Units=GPa)
#
#
# Indices 1 2 3 4 5 6 
#
# 1 38.9972 8.3540 11.3120 0.0000 10.6135 0.0000
# 2 8.3540 87.8951 30.7252 0.0000 11.4495 0.0000
# 3 11.3120 30.7252 77.7614 0.0000 10.2509 0.0000
# 4 0.0000 0.0000 0.0000 21.9405 0.0000 3.3586
# 5 10.6135 11.4495 10.2509 0.0000 18.4430 0.0000
# 6 0.0000 0.0000 0.0000 3.3586 0.0000 13.6440
#
#
#
# Elastic Compliance Matrix: (Units=1/GPa)
#
#
# Indices 1 2 3 4 5 6 
#
# 1 0.030785 0.000027 -0.002322 0.000000 -0.016443 0.000000
# 2 0.000027 0.013783 -0.004662 0.000000 -0.005982 0.000000
# 3 -0.002322 -0.004662 0.015627 0.000000 -0.004456 0.000000
# 4 0.000000 0.000000 0.000000 0.047362 0.000000 -0.011659
# 5 -0.016443 -0.005982 -0.004456 0.000000 0.069873 0.000000
# 6 0.000000 0.000000 0.000000 -0.011659 0.000000 0.076162
#
#
# Mechanical properties :
#
#
# Convention : Reuss Voigt Hill
#
# Bulk Modulus (GPa) = 21.60567 33.93735 27.77151
# Shear Modulus (GPa) = 17.67203 21.08969 19.38086
#
# Velocity S-wave (km/s) = 3.10565 3.39269 3.25234
# Velocity P-wave (km/s) = 4.96508 5.81975 5.40932
#
# Compressibility (1/GPa) = 0.04628415
#
# Stress axis : x y z
#
# Youngs Moduli (GPa) = 32.48283 72.55161 63.99255
#
# Poissons Ratio (x) = -0.00199 0.14857
# Poissons Ratio (y) = -0.00089 0.29830
# Poissons Ratio (z) = 0.07541 0.33820
#
# Static dielectric constant tensor:
#      x y z
#    x 1.656560 0.000000 -0.002650 
#    y 0.000000 1.637300 0.000000 
#    z -0.002650 0.000000 1.655460 
# 
# From -- ./inp_files/78052.got.cif
#   From: 2010.05.17/outbox.cif.g08.bks.cpg/sg13_40_cif.got.tgz:78052.got - 2010.06.03 16:44:36.
