data_PCOD9226502
_publ_section_title
;
Structure prediction by ZEFSAII (Michael W. Deem and Ramdas Pophale) SiO2 
 PCOD9226502
Probable space group: P 2/C
;
_chemical_formula_sum "Si O2"
_cell_formula_units_Z 32
_cell_length_a 12.242787
_cell_length_b 16.194526
_cell_length_c 9.493466
_cell_angle_alpha 90.000000
_cell_angle_beta 86.199909
_cell_angle_gamma 90.000000
_cell_volume 1878.094440
_symmetry_space_group_name_H-M "P 2/C"
_symmetry_group_IT_number 13
_symmetry_cell_setting 'monoclinic'
loop_
_space_group_symop_operation_xyz
x,y,z
-x,y,1/2-z
-x,-y,-z
x,-y,1/2+z
loop_
_atom_site_type_symbol
_atom_site_label
_atom_site_fract_x
_atom_site_fract_y
_atom_site_fract_z
Si Si1 0.162796 0.162077 0.463592
Si Si2 0.374132 0.093064 0.801023
Si Si3 0.113123 0.448323 0.146520
Si Si4 0.912487 0.126681 0.484530
Si Si5 0.730402 0.001833 0.949125
Si Si6 0.115368 0.400690 0.817253
Si Si7 0.808727 0.781604 0.228777
Si Si8 0.868201 0.271104 0.286333
O O1 0.163809 0.211273 0.609393
O O2 0.186310 0.226984 0.340283
O O3 0.041267 0.125393 0.445639
O O4 0.245577 0.086628 0.470065
O O5 0.500000 0.099286 0.750000
O O6 0.310625 0.179821 0.790369
O O7 0.314570 0.030421 0.696987
O O8 0.352197 0.055846 0.957218
O O9 0.166957 0.531241 0.205765
O O10 0.171637 0.362990 0.182279
O O11 0.000000 0.448368 0.250000
O O12 0.099193 0.439204 0.977232
O O13 0.845125 0.048107 0.437197
O O14 0.887922 0.150708 0.647244
O O15 0.860377 0.206509 0.412859
O O16 0.175102 0.312535 0.820956
O O17 0.000000 0.380247 0.750000
O O18 0.000000 0.277065 0.250000
#
# Coordination Sequence:
#
# PCOD9226502 Si02
#       8
#     4   4   4   4   4   4   4   4
#     4  10  19  29  45  71 104 138 163 199 235 291
#     4  10  21  38  54  72  95 124 168 221 261 294
#     4  10  20  30  45  71 100 141 171 191 237 279
#     4  10  17  31  45  69 105 136 161 201 232 296
#     4  10  20  32  52  76  96 128 171 199 254 301
#     4  11  20  31  48  72 106 134 166 200 235 291
#     4  10  21  31  49  71  96 132 173 200 250 299
#     4   9  18  28  42  62  98 138 168 188 232 272
#
# _framework density 17.038547999999999
#
# number of rings (size 3 to 8) (size 9 to 14) (size 15 to 20)
#    0.000    2.000    1.250    4.125    5.250    0.000 
#    0.000    3.750    0.000    0.000    0.000    0.875 
#    0.000    0.000    0.000    0.000    0.000    0.000 
#
# Total GULP energy -178197.783763 kJ/mol
# GULP energy per Si atom -5568.680743 kJ/mol
# Density = 1.699977 g / cm^3
# Si number density = 17.038548 Si / 1000 Ang^3
#
#
#
# Elastic Constant Matrix: (Units=GPa)
#
#
# Indices 1 2 3 4 5 6 
#
# 1 21.8284 12.8854 9.0739 0.0000 -5.4370 0.0000
# 2 12.8854 102.4927 26.6942 0.0000 4.7820 0.0000
# 3 9.0739 26.6942 77.3745 0.0000 1.4584 0.0000
# 4 0.0000 0.0000 0.0000 30.5917 0.0000 0.0770
# 5 -5.4370 4.7820 1.4584 0.0000 8.9098 0.0000
# 6 0.0000 0.0000 0.0000 0.0770 0.0000 7.3703
#
#
#
# Elastic Compliance Matrix: (Units=1/GPa)
#
#
# Indices 1 2 3 4 5 6 
#
# 1 0.064422 -0.008797 -0.005367 0.000000 0.044912 0.000000
# 2 -0.008797 0.012164 -0.002950 0.000000 -0.011414 0.000000
# 3 -0.005367 -0.002950 0.014648 0.000000 -0.004089 0.000000
# 4 0.000000 0.000000 0.000000 0.032689 0.000000 -0.000341
# 5 0.044912 -0.011414 -0.004089 0.000000 0.146438 0.000000
# 6 0.000000 0.000000 0.000000 -0.000341 0.000000 0.135684
#
#
# Mechanical properties :
#
#
# Convention : Reuss Voigt Hill
#
# Bulk Modulus (GPa) = 17.54148 33.22251 25.38200
# Shear Modulus (GPa) = 10.88675 19.57716 15.23195
#
# Velocity S-wave (km/s) = 2.53048 3.39336 2.99318
# Velocity P-wave (km/s) = 4.34227 5.90711 5.18407
#
# Compressibility (1/GPa) = 0.05700772
#
# Stress axis : x y z
#
# Youngs Moduli (GPa) = 15.52259 82.21311 68.26775
#
# Poissons Ratio (x) = 0.72322 0.36636
# Poissons Ratio (y) = 0.13655 0.20137
# Poissons Ratio (z) = 0.08330 0.24250
#
# Static dielectric constant tensor:
#      x y z
#    x 1.562360 0.000000 -0.019470 
#    y 0.000000 1.620530 0.000000 
#    z -0.019470 0.000000 1.637520 
# 
# From -- ./inp_files/17082.got.cif
#   From: 2010.05.17/outbox.cif.g08.bks.cpg/sg13_9_cif.got.tgz:17082.got - 2010.06.03 16:44:36.
