data_PCOD9226939
_publ_section_title
;
Structure prediction by ZEFSAII (Michael W. Deem and Ramdas Pophale) SiO2 
 PCOD9226939
Probable space group: P 2/C
;
_chemical_formula_sum "Si O2"
_cell_formula_units_Z 28
_cell_length_a 26.016052
_cell_length_b 12.540379
_cell_length_c 26.076144
_cell_angle_alpha 90.000000
_cell_angle_beta 11.313041
_cell_angle_gamma 90.000000
_cell_volume 1668.885515
_symmetry_space_group_name_H-M "P 2/C"
_symmetry_group_IT_number 13
_symmetry_cell_setting 'monoclinic'
loop_
_space_group_symop_operation_xyz
x,y,z
-x,y,1/2-z
-x,-y,-z
x,-y,1/2+z
loop_
_atom_site_type_symbol
_atom_site_label
_atom_site_fract_x
_atom_site_fract_y
_atom_site_fract_z
Si Si1 0.924436 0.251691 0.471552
Si Si2 0.469925 0.253059 0.496005
Si Si3 0.557281 0.622248 0.010462
Si Si4 0.776019 0.704347 0.008515
Si Si5 0.446981 0.594082 0.925923
Si Si6 0.981178 0.873890 0.522832
Si Si7 0.903209 0.545270 0.402427
O O1 0.837397 0.228300 0.499124
O O2 0.004381 0.156975 0.431077
O O3 0.164276 0.335664 0.240780
O O4 0.667898 0.304727 0.745988
O O5 0.539205 0.350516 0.467795
O O6 0.444317 0.302226 0.464588
O O7 0.211694 0.191628 0.768460
O O8 0.710003 0.171727 0.266318
O O9 0.496683 0.505267 0.090886
O O10 0.500000 0.716240 0.250000
O O11 0.000000 0.732256 0.750000
O O12 0.817955 0.579379 0.982215
O O13 0.658524 0.597774 0.672526
O O14 0.161315 0.567506 0.183146
O O15 0.000000 0.000000 0.500000
O O16 0.000000 0.575965 0.250000
#
# Coordination Sequence:
#
# PCOD9226939 Si02
#       7
#     4   4   4   4   4   4   4
#     4  10  19  32  50  76 103 142 173 210 264 314
#     4  10  22  33  55  81 102 136 179 210 262 329
#     4  10  18  32  47  75 111 139 170 202 254 305
#     4  11  19  30  47  71 105 139 178 207 246 307
#     4  12  19  34  51  74 111 144 175 212 251 306
#     4  10  21  39  57  77 106 133 176 229 276 324
#     4  11  22  32  48  73 107 151 184 208 247 300
#
# _framework density 16.777663
#
# number of rings (size 3 to 8) (size 9 to 14) (size 15 to 20)
#    0.000    1.429    2.857    4.714    0.000    0.000 
#    0.000    5.714    0.000    0.000    0.000   10.000 
#    0.000    0.000    0.000    0.000    0.000    0.000 
#
# Total GULP energy -156065.323529 kJ/mol
# GULP energy per Si atom -5573.761555 kJ/mol
# Density = 1.673948 g / cm^3
# Si number density = 16.777663 Si / 1000 Ang^3
#
#
#
# Elastic Constant Matrix: (Units=GPa)
#
#
# Indices 1 2 3 4 5 6 
#
# 1 104.9235 32.0677 20.1328 0.0000 11.8462 0.0000
# 2 32.0677 50.7963 3.5088 0.0000 9.0583 0.0000
# 3 20.1328 3.5088 105.3806 0.0000 1.5986 0.0000
# 4 0.0000 0.0000 0.0000 13.6850 0.0000 2.0583
# 5 11.8462 9.0583 1.5986 0.0000 27.9338 0.0000
# 6 0.0000 0.0000 0.0000 2.0583 0.0000 14.0550
#
#
#
# Elastic Compliance Matrix: (Units=1/GPa)
#
#
# Indices 1 2 3 4 5 6 
#
# 1 0.012457 -0.007216 -0.002097 0.000000 -0.002823 0.000000
# 2 -0.007216 0.025112 0.000620 0.000000 -0.005118 0.000000
# 3 -0.002097 0.000620 0.009867 0.000000 0.000123 0.000000
# 4 0.000000 0.000000 0.000000 0.074718 0.000000 -0.010942
# 5 -0.002823 -0.005118 0.000123 0.000000 0.038649 0.000000
# 6 0.000000 0.000000 0.000000 -0.010942 0.000000 0.072751
#
#
# Mechanical properties :
#
#
# Convention : Reuss Voigt Hill
#
# Bulk Modulus (GPa) = 33.27662 41.39099 37.33380
# Shear Modulus (GPa) = 19.16019 24.82750 21.99385
#
# Velocity S-wave (km/s) = 3.38302 3.85098 3.62456
# Velocity P-wave (km/s) = 5.92763 6.67063 6.31007
#
# Compressibility (1/GPa) = 0.03005113
#
# Stress axis : x y z
#
# Youngs Moduli (GPa) = 80.27465 39.82181 101.34283
#
# Poissons Ratio (x) = 0.28735 0.21250
# Poissons Ratio (y) = 0.57926 -0.06285
# Poissons Ratio (z) = 0.16832 -0.02469
#
# Static dielectric constant tensor:
#      x y z
#    x 1.586450 0.000000 0.011670 
#    y 0.000000 1.535420 0.000000 
#    z 0.011670 0.000000 1.566820 
# 
# From -- ./inp_files/83512.got.cif
#   From: 2010.05.17/outbox.cif.g08.bks.cpg/sg13_42_cif.got.tgz:83512.got - 2010.06.03 16:44:36.
