data_PCOD9226292
_publ_section_title
;
Structure prediction by ZEFSAII (Michael W. Deem and Ramdas Pophale) SiO2 
 PCOD9226292
Probable space group: P 2/C
;
_chemical_formula_sum "Si O2"
_cell_formula_units_Z 22
_cell_length_a 26.257041
_cell_length_b 8.376142
_cell_length_c 19.955572
_cell_angle_alpha 90.000000
_cell_angle_beta 164.193414
_cell_angle_gamma 90.000000
_cell_volume 1195.491545
_symmetry_space_group_name_H-M "P 2/C"
_symmetry_group_IT_number 13
_symmetry_cell_setting 'monoclinic'
loop_
_space_group_symop_operation_xyz
x,y,z
-x,y,1/2-z
-x,-y,-z
x,-y,1/2+z
loop_
_atom_site_type_symbol
_atom_site_label
_atom_site_fract_x
_atom_site_fract_y
_atom_site_fract_z
Si Si1 0.819108 0.368127 0.153760
Si Si2 0.500000 0.384378 0.250000
Si Si3 0.084162 0.120551 0.551764
Si Si4 0.000000 0.679052 0.750000
Si Si5 0.500000 0.116519 0.750000
Si Si6 0.160314 0.990635 0.001457
Si Si7 0.487985 0.136479 0.119556
O O1 0.960647 0.280397 0.383764
O O2 0.928948 0.412672 0.224918
O O3 0.680408 0.509716 0.998292
O O4 0.675973 0.225006 0.955482
O O5 0.547444 0.277635 0.245213
O O6 0.096375 0.023013 0.497099
O O7 0.293507 0.169721 0.836947
O O8 0.000000 0.000000 0.500000
O O9 0.840266 0.803975 0.522566
O O10 0.546440 0.009156 0.872550
O O11 0.351287 0.081191 0.228073
O O12 0.000000 0.062210 0.750000
#
# Coordination Sequence:
#
# PCOD9226292 Si02
#       7
#     4   2   4   2   2   4   4
#     4  10  19  39  55  86 116 164 197 235 303 366
#     4  10  26  36  58  84 128 176 188 230 306 388
#     4  11  21  34  64  97 115 149 201 276 299 331
#     4   8  16  32  62  80 104 150 212 236 280 342
#     4  10  16  32  62  78 112 152 198 244 274 360
#     4   9  19  36  61  91 114 151 199 255 301 341
#     4  11  20  36  56  91 123 147 204 247 302 351
#
# _framework density 18.402473000000001
#
# number of rings (size 3 to 8) (size 9 to 14) (size 15 to 20)
#    0.545    1.455    3.636    0.545    2.545    0.727 
#    1.636    0.000    0.000    5.455    0.000    0.000 
#    0.000    0.000    0.000    0.000    0.000    0.000 
#
# Total GULP energy -122484.938993 kJ/mol
# GULP energy per Si atom -5567.497227 kJ/mol
# Density = 1.836059 g / cm^3
# Si number density = 18.402473 Si / 1000 Ang^3
#
#
#
# Elastic Constant Matrix: (Units=GPa)
#
#
# Indices 1 2 3 4 5 6 
#
# 1 106.3807 20.6832 11.0263 0.0000 1.4301 0.0000
# 2 20.6832 45.4666 11.7894 0.0000 4.5149 0.0000
# 3 11.0263 11.7894 104.2237 0.0000 -2.2430 0.0000
# 4 0.0000 0.0000 0.0000 1.0256 0.0000 1.3897
# 5 1.4301 4.5149 -2.2430 0.0000 28.6664 0.0000
# 6 0.0000 0.0000 0.0000 1.3897 0.0000 10.5338
#
#
#
# Elastic Compliance Matrix: (Units=1/GPa)
#
#
# Indices 1 2 3 4 5 6 
#
# 1 0.010347 -0.004574 -0.000574 0.000000 0.000159 0.000000
# 2 -0.004574 0.025096 -0.002439 0.000000 -0.003915 0.000000
# 3 -0.000574 -0.002439 0.009957 0.000000 0.001192 0.000000
# 4 0.000000 0.000000 0.000000 1.187229 0.000000 -0.156627
# 5 0.000159 -0.003915 0.001192 0.000000 0.035586 0.000000
# 6 0.000000 0.000000 0.000000 -0.156627 0.000000 0.115596
#
#
# Mechanical properties :
#
#
# Convention : Reuss Voigt Hill
#
# Bulk Modulus (GPa) = 33.08384 38.11874 35.60129
# Shear Modulus (GPa) = 3.54846 22.21664 12.88255
#
# Velocity S-wave (km/s) = 1.39012 3.47834 2.64871
# Velocity P-wave (km/s) = 4.53801 6.07377 5.36117
#
# Compressibility (1/GPa) = 0.03022623
#
# Stress axis : x y z
#
# Youngs Moduli (GPa) = 96.64802 39.84678 100.43169
#
# Poissons Ratio (x) = 0.18225 0.05763
# Poissons Ratio (y) = 0.44206 0.24497
# Poissons Ratio (z) = 0.05546 0.09719
#
# Static dielectric constant tensor:
#      x y z
#    x 1.657140 0.000000 0.009270 
#    y 0.000000 1.632360 0.000000 
#    z 0.009270 0.000000 1.658660 
# 
# From -- ./inp_files/62892.got.cif
#   From: 2010.05.17/outbox.cif.g08.bks.cpg/sg13_32_cif.got.tgz:62892.got - 2010.06.03 16:44:36.
