data_PCOD9226575
_publ_section_title
;
Structure prediction by ZEFSAII (Michael W. Deem and Ramdas Pophale) SiO2 
 PCOD9226575
Probable space group: P 2/C
;
_chemical_formula_sum "Si O2"
_cell_formula_units_Z 32
_cell_length_a 11.964258
_cell_length_b 16.006177
_cell_length_c 11.001273
_cell_angle_alpha 90.000000
_cell_angle_beta 49.586607
_cell_angle_gamma 90.000000
_cell_volume 1604.063892
_symmetry_space_group_name_H-M "P 2/C"
_symmetry_group_IT_number 13
_symmetry_cell_setting 'monoclinic'
loop_
_space_group_symop_operation_xyz
x,y,z
-x,y,1/2-z
-x,-y,-z
x,-y,1/2+z
loop_
_atom_site_type_symbol
_atom_site_label
_atom_site_fract_x
_atom_site_fract_y
_atom_site_fract_z
Si Si1 0.837892 0.308834 0.388603
Si Si2 0.379827 0.933247 0.236629
Si Si3 0.841903 0.117945 0.414943
Si Si4 0.433375 0.466519 0.168720
Si Si5 0.414750 0.115662 0.108949
Si Si6 0.925794 0.382500 0.924795
Si Si7 0.677108 0.291741 0.245781
Si Si8 0.834163 0.553689 0.055414
O O1 0.857234 0.216902 0.429862
O O2 0.758723 0.298615 0.317453
O O3 0.758889 0.372327 0.533910
O O4 0.000000 0.344744 0.250000
O O5 0.500000 0.903734 0.250000
O O6 0.224447 0.920715 0.414154
O O7 0.404928 0.030908 0.192350
O O8 0.432122 0.886847 0.075783
O O9 0.718791 0.108809 0.395800
O O10 0.000000 0.088971 0.250000
O O11 0.500000 0.495630 0.250000
O O12 0.439649 0.366337 0.167473
O O13 0.268750 0.502330 0.281513
O O14 0.500000 0.500000 0.000000
O O15 0.389030 0.198929 0.206091
O O16 0.000000 0.350015 0.750000
O O17 0.038328 0.401561 0.956540
O O18 0.796456 0.321176 0.061482
O O19 0.872233 0.477624 0.937624
#
# Coordination Sequence:
#
# PCOD9226575 Si02
#       8
#     4   4   4   4   4   4   4   4
#     4  10  17  33  56  84 107 134 185 233 290 337
#     4   9  18  36  60  82 108 150 193 223 275 351
#     4   9  19  32  55  87 116 141 179 239 286 335
#     4  11  25  39  52  77 115 153 193 237 286 341
#     4   9  19  36  59  82 111 146 190 232 279 345
#     4  10  21  33  56  83 109 143 191 235 289 342
#     4  10  21  36  58  81 110 145 184 243 288 332
#     4  10  21  34  58  77 105 150 189 237 280 340
#
# _framework density 19.949328999999999
#
# number of rings (size 3 to 8) (size 9 to 14) (size 15 to 20)
#    0.000    2.250    1.250    1.125    7.000    2.000 
#    0.000    3.125    8.250    0.000    0.000    0.000 
#    0.000    0.000    0.000    0.000    0.000    0.000 
#
# Total GULP energy -178219.289149 kJ/mol
# GULP energy per Si atom -5569.352786 kJ/mol
# Density = 1.990392 g / cm^3
# Si number density = 19.949329 Si / 1000 Ang^3
#
#
#
# Elastic Constant Matrix: (Units=GPa)
#
#
# Indices 1 2 3 4 5 6 
#
# 1 33.8657 2.3431 12.7892 0.0000 1.8489 0.0000
# 2 2.3431 84.2652 62.9887 0.0000 9.0337 0.0000
# 3 12.7892 62.9887 159.4473 0.0000 2.2704 0.0000
# 4 0.0000 0.0000 0.0000 26.8719 0.0000 0.6502
# 5 1.8489 9.0337 2.2704 0.0000 23.2955 0.0000
# 6 0.0000 0.0000 0.0000 0.6502 0.0000 21.6874
#
#
#
# Elastic Compliance Matrix: (Units=1/GPa)
#
#
# Indices 1 2 3 4 5 6 
#
# 1 0.030742 0.001790 -0.003133 0.000000 -0.002829 0.000000
# 2 0.001790 0.017792 -0.007082 0.000000 -0.006351 0.000000
# 3 -0.003133 -0.007082 0.009291 0.000000 0.002089 0.000000
# 4 0.000000 0.000000 0.000000 0.037241 0.000000 -0.001117
# 5 -0.002829 -0.006351 0.002089 0.000000 0.045411 0.000000
# 6 0.000000 0.000000 0.000000 -0.001117 0.000000 0.046143
#
#
# Mechanical properties :
#
#
# Convention : Reuss Voigt Hill
#
# Bulk Modulus (GPa) = 24.40438 48.20223 36.30331
# Shear Modulus (GPa) = 23.02803 27.66813 25.34808
#
# Velocity S-wave (km/s) = 3.40122 3.72818 3.56845
# Velocity P-wave (km/s) = 5.26157 6.53813 5.93428
#
# Compressibility (1/GPa) = 0.04097625
#
# Stress axis : x y z
#
# Youngs Moduli (GPa) = 32.52872 56.20469 107.63318
#
# Poissons Ratio (x) = -0.10062 0.33719
# Poissons Ratio (y) = -0.05823 0.76224
# Poissons Ratio (z) = 0.10190 0.39803
#
# Static dielectric constant tensor:
#      x y z
#    x 1.857120 0.000000 -0.025200 
#    y 0.000000 1.716600 0.000000 
#    z -0.025200 0.000000 1.775800 
# 
# From -- ./inp_files/30422.got.cif
#   From: 2010.05.17/outbox.cif.g08.bks.cpg/sg13_16_cif.got.tgz:30422.got - 2010.06.03 16:44:36.
