data_PCOD9226310
_publ_section_title
;
Structure prediction by ZEFSAII (Michael W. Deem and Ramdas Pophale) SiO2 
 PCOD9226310
Probable space group: P 2/C
;
_chemical_formula_sum "Si O2"
_cell_formula_units_Z 22
_cell_length_a 9.156178
_cell_length_b 7.270177
_cell_length_c 12.999700
_cell_angle_alpha 90.000000
_cell_angle_beta 105.573162
_cell_angle_gamma 90.000000
_cell_volume 833.583066
_symmetry_space_group_name_H-M "P 2/C"
_symmetry_group_IT_number 13
_symmetry_cell_setting 'monoclinic'
loop_
_space_group_symop_operation_xyz
x,y,z
-x,y,1/2-z
-x,-y,-z
x,-y,1/2+z
loop_
_atom_site_type_symbol
_atom_site_label
_atom_site_fract_x
_atom_site_fract_y
_atom_site_fract_z
Si Si1 0.500000 0.868827 0.250000
Si Si2 0.814495 0.391132 0.418986
Si Si3 0.072946 0.114851 0.391197
Si Si4 0.401320 0.175884 0.514654
Si Si5 0.979361 0.311238 0.629722
Si Si6 0.318756 0.780442 0.787880
O O1 0.545458 0.762162 0.362605
O O2 0.627620 0.015919 0.236724
O O3 0.883770 0.585503 0.401135
O O4 0.682293 0.338658 0.315574
O O5 0.945585 0.241994 0.415737
O O6 0.821880 0.375356 0.543992
O O7 0.150292 0.193197 0.302161
O O8 0.227024 0.109235 0.489276
O O9 0.017340 0.907677 0.369726
O O10 0.595966 0.710486 0.592362
O O11 0.500000 0.000000 0.500000
O O12 0.000000 0.374685 0.750000
#
# Coordination Sequence:
#
# PCOD9226310 Si02
#       6
#     2   4   4   4   4   4
#     4  10  16  34  54  94 116 160 214 250 292 366
#     4  11  22  39  59  89 125 161 191 252 314 356
#     4  10  20  37  61  90 122 158 197 252 302 362
#     4   8  18  31  54  85 116 150 203 245 288 356
#     4  11  23  35  57  91 122 156 199 241 300 370
#     4   9  19  33  59  85 125 161 199 252 304 361
#
# _framework density 26.39209
#
# number of rings (size 3 to 8) (size 9 to 14) (size 15 to 20)
#    1.091    1.091    0.000    4.364    0.000    1.455 
#    0.000    0.000    0.000    1.091    9.455    3.818 
#    0.000    0.000    0.000    0.000    0.000    0.000 
#
# Total GULP energy -122776.709711 kJ/mol
# GULP energy per Si atom -5580.759532 kJ/mol
# Density = 2.633202 g / cm^3
# Si number density = 26.392090 Si / 1000 Ang^3
#
#
#
# Elastic Constant Matrix: (Units=GPa)
#
#
# Indices 1 2 3 4 5 6 
#
# 1 66.5083 10.8052 21.5151 0.0000 -5.7713 0.0000
# 2 10.8052 94.1859 38.1551 0.0000 -2.8920 0.0000
# 3 21.5151 38.1551 293.0524 0.0000 10.8271 0.0000
# 4 0.0000 0.0000 0.0000 2.9765 0.0000 -2.5870
# 5 -5.7713 -2.8920 10.8271 0.0000 32.9471 0.0000
# 6 0.0000 0.0000 0.0000 -2.5870 0.0000 20.6878
#
#
#
# Elastic Compliance Matrix: (Units=1/GPa)
#
#
# Indices 1 2 3 4 5 6 
#
# 1 0.015866 -0.001277 -0.001111 0.000000 0.003032 0.000000
# 2 -0.001277 0.011383 -0.001434 0.000000 0.001247 0.000000
# 3 -0.001111 -0.001434 0.003738 0.000000 -0.001549 0.000000
# 4 0.000000 0.000000 0.000000 0.376933 0.000000 0.047134
# 5 0.003032 0.001247 -0.001549 0.000000 0.031501 0.000000
# 6 0.000000 0.000000 0.000000 0.047134 0.000000 0.054232
#
#
# Mechanical properties :
#
#
# Convention : Reuss Voigt Hill
#
# Bulk Modulus (GPa) = 42.84035 66.07749 54.45892
# Shear Modulus (GPa) = 9.82168 36.87369 23.34768
#
# Velocity S-wave (km/s) = 1.93120 3.74190 2.97753
# Velocity P-wave (km/s) = 4.60871 6.61516 5.70090
#
# Compressibility (1/GPa) = 0.02334248
#
# Stress axis : x y z
#
# Youngs Moduli (GPa) = 63.02960 87.84897 267.53220
#
# Poissons Ratio (x) = 0.11220 0.29711
# Poissons Ratio (y) = 0.08050 0.38374
# Poissons Ratio (z) = 0.07000 0.12601
#
# Static dielectric constant tensor:
#      x y z
#    x 2.093580 0.000000 0.063620 
#    y 0.000000 1.976340 0.000000 
#    z 0.063620 0.000000 2.383150 
# 
# From -- ./inp_files/49329.got.cif
#   From: 2010.05.17/outbox.cif.g08.bks.cpg/sg13_25_cif.got.tgz:49329.got - 2010.06.03 16:44:36.
