data_PCOD9226856
_publ_section_title
;
Structure prediction by ZEFSAII (Michael W. Deem and Ramdas Pophale) SiO2 
 PCOD9226856
Probable space group: P 2/C
;
_chemical_formula_sum "Si O2"
_cell_formula_units_Z 26
_cell_length_a 26.288444
_cell_length_b 13.019829
_cell_length_c 25.598390
_cell_angle_alpha 90.000000
_cell_angle_beta 11.383900
_cell_angle_gamma 90.000000
_cell_volume 1729.378639
_symmetry_space_group_name_H-M "P 2/C"
_symmetry_group_IT_number 13
_symmetry_cell_setting 'monoclinic'
loop_
_space_group_symop_operation_xyz
x,y,z
-x,y,1/2-z
-x,-y,-z
x,-y,1/2+z
loop_
_atom_site_type_symbol
_atom_site_label
_atom_site_fract_x
_atom_site_fract_y
_atom_site_fract_z
Si Si1 0.768213 0.153226 0.382028
Si Si2 0.500000 0.773743 0.250000
Si Si3 0.233889 0.873635 0.797432
Si Si4 0.285801 0.281702 0.861405
Si Si5 0.272953 0.982392 0.156746
Si Si6 0.203893 0.429662 0.854088
Si Si7 0.715286 0.363780 0.279649
O O1 0.685335 0.158978 0.526337
O O2 0.544013 0.223773 0.581660
O O3 0.755890 0.042493 0.368388
O O4 0.043283 0.206560 0.097870
O O5 0.660345 0.708238 0.130842
O O6 0.257048 0.929853 0.717801
O O7 0.256960 0.752447 0.766746
O O8 0.461531 0.922157 0.602889
O O9 0.961891 0.906205 0.095470
O O10 0.239958 0.384434 0.875393
O O11 0.432409 0.382398 0.588335
O O12 0.233161 0.551649 0.817365
O O13 0.931490 0.391801 0.105259
#
# Coordination Sequence:
#
# PCOD9226856 Si02
#       7
#     4   2   4   4   4   4   4
#     4  10  19  32  48  71 101 121 156 198 246 290
#     4   8  22  30  50  74  98 116 160 202 254 292
#     4  10  19  30  43  68  97 128 165 188 217 287
#     4  10  18  31  49  71 100 120 153 198 248 291
#     4  10  19  29  46  66  94 133 157 186 238 270
#     4  10  19  31  50  70  96 136 158 192 249 281
#     4  10  20  32  46  71 101 130 168 193 224 296
#
# _framework density 15.034300999999999
#
# number of rings (size 3 to 8) (size 9 to 14) (size 15 to 20)
#    0.923    1.231    0.000    5.077    0.000    2.462 
#    0.000    0.000    0.000    0.000    0.000    1.077 
#    0.000    0.000    0.000    0.000    0.000    0.000 
#
# Total GULP energy -144800.490608 kJ/mol
# GULP energy per Si atom -5569.249639 kJ/mol
# Density = 1.500008 g / cm^3
# Si number density = 15.034301 Si / 1000 Ang^3
#
#
#
# Elastic Constant Matrix: (Units=GPa)
#
#
# Indices 1 2 3 4 5 6 
#
# 1 62.4514 31.8227 0.2646 0.0000 -1.4802 0.0000
# 2 31.8227 102.3093 5.3331 0.0000 -5.3092 0.0000
# 3 0.2646 5.3331 59.5676 0.0000 -19.1601 0.0000
# 4 0.0000 0.0000 0.0000 16.0423 0.0000 -0.7917
# 5 -1.4802 -5.3092 -19.1601 0.0000 12.4770 0.0000
# 6 0.0000 0.0000 0.0000 -0.7917 0.0000 24.5889
#
#
#
# Elastic Compliance Matrix: (Units=1/GPa)
#
#
# Indices 1 2 3 4 5 6 
#
# 1 0.019045 -0.005917 0.000715 0.000000 0.000840 0.000000
# 2 -0.005917 0.011860 0.000715 0.000000 0.005443 0.000000
# 3 0.000715 0.000715 0.033288 0.000000 0.051507 0.000000
# 4 0.000000 0.000000 0.000000 0.062434 0.000000 0.002010
# 5 0.000840 0.005443 0.051507 0.000000 0.161658 0.000000
# 6 0.000000 0.000000 0.000000 0.002010 0.000000 0.040734
#
#
# Mechanical properties :
#
#
# Convention : Reuss Voigt Hill
#
# Bulk Modulus (GPa) = 18.10986 33.24103 25.67545
# Shear Modulus (GPa) = 14.02924 23.08217 18.55570
#
# Velocity S-wave (km/s) = 3.05806 3.92254 3.51696
# Velocity P-wave (km/s) = 4.95387 6.53248 5.79716
#
# Compressibility (1/GPa) = 0.05521853
#
# Stress axis : x y z
#
# Youngs Moduli (GPa) = 52.50837 84.31685 30.04112
#
# Poissons Ratio (x) = 0.49894 -0.02149
# Poissons Ratio (y) = 0.31071 -0.02148
# Poissons Ratio (z) = -0.03756 -0.06030
#
# Static dielectric constant tensor:
#      x y z
#    x 1.504890 0.000000 -0.009040 
#    y 0.000000 1.472940 0.000000 
#    z -0.009040 0.000000 1.515660 
# 
# From -- ./inp_files/98143.got.cif
#   From: 2010.05.17/outbox.cif.g08.bks.cpg/sg13_50_cif.got.tgz:98143.got - 2010.06.03 16:44:36.
