data_PCOD9226253
_publ_section_title
;
Structure prediction by ZEFSAII (Michael W. Deem and Ramdas Pophale) SiO2 
 PCOD9226253
Probable space group: P 2/C
;
_chemical_formula_sum "Si O2"
_cell_formula_units_Z 22
_cell_length_a 10.250497
_cell_length_b 7.042513
_cell_length_c 22.791235
_cell_angle_alpha 90.000000
_cell_angle_beta 56.083577
_cell_angle_gamma 90.000000
_cell_volume 1365.341478
_symmetry_space_group_name_H-M "P 2/C"
_symmetry_group_IT_number 13
_symmetry_cell_setting 'monoclinic'
loop_
_space_group_symop_operation_xyz
x,y,z
-x,y,1/2-z
-x,-y,-z
x,-y,1/2+z
loop_
_atom_site_type_symbol
_atom_site_label
_atom_site_fract_x
_atom_site_fract_y
_atom_site_fract_z
Si Si1 0.000000 0.632703 0.750000
Si Si2 0.668270 0.560332 0.356948
Si Si3 0.726180 0.883184 0.434690
Si Si4 0.399989 0.885769 0.216716
Si Si5 0.957828 0.995261 0.194819
Si Si6 0.484857 0.156523 0.091501
O O1 0.843166 0.513437 0.798298
O O2 0.975158 0.778737 0.701747
O O3 0.678976 0.691851 0.411894
O O4 0.606055 0.695473 0.320822
O O5 0.560944 0.375796 0.392071
O O6 0.650335 0.875629 0.517695
O O7 0.643491 0.053038 0.418482
O O8 0.911386 0.917717 0.381980
O O9 0.500000 0.864512 0.250000
O O10 0.219100 0.940700 0.275143
O O11 0.469225 0.050721 0.157347
O O12 0.000000 0.917574 0.250000
#
# Coordination Sequence:
#
# PCOD9226253 Si02
#       6
#     2   4   4   4   4   4
#     4  10  16  30  58  84 102 136 180 232 260 306
#     4  11  17  32  53  83 111 133 179 222 274 311
#     4  10  19  31  56  83 110 135 172 230 275 310
#     4  11  23  37  55  78 112 148 180 216 263 325
#     4  10  16  37  54  80 106 140 182 221 268 303
#     4  10  19  34  53  82 111 137 176 222 273 319
#
# _framework density 16.113185000000001
#
# number of rings (size 3 to 8) (size 9 to 14) (size 15 to 20)
#    0.545    1.091    7.273    1.636    0.000    0.727 
#    0.000    0.909    0.000    1.091    0.000    0.000 
#    0.000    0.000    0.000    0.000    0.000    0.000 
#
# Total GULP energy -122639.991681 kJ/mol
# GULP energy per Si atom -5574.545076 kJ/mol
# Density = 1.607651 g / cm^3
# Si number density = 16.113185 Si / 1000 Ang^3
#
#
#
# Elastic Constant Matrix: (Units=GPa)
#
#
# Indices 1 2 3 4 5 6 
#
# 1 80.9724 23.8700 44.4813 0.0000 -6.9193 0.0000
# 2 23.8700 107.4176 33.3869 0.0000 -1.7242 0.0000
# 3 44.4813 33.3869 114.5425 0.0000 -23.5411 0.0000
# 4 0.0000 0.0000 0.0000 13.3130 0.0000 -10.7110
# 5 -6.9193 -1.7242 -23.5411 0.0000 17.8896 0.0000
# 6 0.0000 0.0000 0.0000 -10.7110 0.0000 13.3214
#
#
#
# Elastic Compliance Matrix: (Units=1/GPa)
#
#
# Indices 1 2 3 4 5 6 
#
# 1 0.016059 -0.001684 -0.006172 0.000000 -0.002072 0.000000
# 2 -0.001684 0.010630 -0.003246 0.000000 -0.003898 0.000000
# 3 -0.006172 -0.003246 0.015788 0.000000 0.018076 0.000000
# 4 0.000000 0.000000 0.000000 0.212733 0.000000 0.171048
# 5 -0.002072 -0.003898 0.018076 0.000000 0.078507 0.000000
# 6 0.000000 0.000000 0.000000 0.171048 0.000000 0.212599
#
#
# Mechanical properties :
#
#
# Convention : Reuss Voigt Hill
#
# Bulk Modulus (GPa) = 49.32051 56.26767 52.79409
# Shear Modulus (GPa) = 8.69147 22.31774 15.50461
#
# Velocity S-wave (km/s) = 2.32502 3.72568 3.10535
# Velocity P-wave (km/s) = 6.15491 7.31462 6.75968
#
# Compressibility (1/GPa) = 0.02027554
#
# Stress axis : x y z
#
# Youngs Moduli (GPa) = 62.26855 94.07497 63.33893
#
# Poissons Ratio (x) = 0.15840 0.39090
# Poissons Ratio (y) = 0.10484 0.20557
# Poissons Ratio (z) = 0.38430 0.30533
#
# Static dielectric constant tensor:
#      x y z
#    x 1.500040 0.000000 -0.017010 
#    y 0.000000 1.559230 0.000000 
#    z -0.017010 0.000000 1.551730 
# 
# From -- ./inp_files/81301.got.cif
#   From: 2010.05.17/outbox.cif.g08.bks.cpg/sg13_41_cif.got.tgz:81301.got - 2010.06.03 16:44:36.
