data_PCOD9226550
_publ_section_title
;
Structure prediction by ZEFSAII (Michael W. Deem and Ramdas Pophale) SiO2 
 PCOD9226550
Probable space group: P 2/C
;
_chemical_formula_sum "Si O2"
_cell_formula_units_Z 30
_cell_length_a 16.021728
_cell_length_b 9.164618
_cell_length_c 13.818858
_cell_angle_alpha 90.000000
_cell_angle_beta 44.508409
_cell_angle_gamma 90.000000
_cell_volume 1422.402570
_symmetry_space_group_name_H-M "P 2/C"
_symmetry_group_IT_number 13
_symmetry_cell_setting 'monoclinic'
loop_
_space_group_symop_operation_xyz
x,y,z
-x,y,1/2-z
-x,-y,-z
x,-y,1/2+z
loop_
_atom_site_type_symbol
_atom_site_label
_atom_site_fract_x
_atom_site_fract_y
_atom_site_fract_z
Si Si1 0.304375 0.590920 0.418921
Si Si2 0.684774 0.783332 0.357367
Si Si3 0.075298 0.206887 0.283344
Si Si4 0.828940 0.866003 0.066600
Si Si5 0.000000 0.711271 0.250000
Si Si6 0.787964 0.941642 0.430465
Si Si7 0.515278 0.396744 0.894438
Si Si8 0.836173 0.516872 0.295205
O O1 0.230154 0.723323 0.434504
O O2 0.388319 0.537847 0.261814
O O3 0.397169 0.630198 0.428683
O O4 0.211072 0.492763 0.554547
O O5 0.781059 0.869183 0.214023
O O6 0.679752 0.865497 0.463438
O O7 0.566540 0.754891 0.394467
O O8 0.741757 0.621591 0.322032
O O9 0.143450 0.353156 0.259286
O O10 0.000000 0.253481 0.250000
O O11 0.971652 0.146822 0.439078
O O12 0.160475 0.079022 0.173736
O O13 0.775728 0.997592 0.048002
O O14 0.110600 0.818907 0.146774
O O15 0.040458 0.605463 0.303557
O O16 0.500000 0.500000 0.000000
#
# Coordination Sequence:
#
# PCOD9226550 Si02
#       8
#     4   4   4   4   2   4   4   4
#     4  10  19  34  63  83 111 159 181 238 300 339
#     4  10  23  34  59  87 113 147 204 245 276 346
#     4  10  17  32  56  78 119 158 186 223 283 353
#     4  10  19  37  58  81 115 159 194 224 295 346
#     4  10  18  30  54  88 118 154 184 240 274 334
#     4  10  19  36  56  81 119 165 182 233 283 344
#     4  10  20  37  58  88 116 143 192 245 297 342
#     4  11  18  33  56  88 118 146 196 236 284 341
#
# _framework density 21.091075
#
# number of rings (size 3 to 8) (size 9 to 14) (size 15 to 20)
#    0.000    1.867    6.667    0.000    0.000    1.067 
#    0.000    2.000   11.733    0.000    0.000    0.000 
#    0.000    0.000    0.000    0.000    0.000    0.000 
#
# Total GULP energy -167126.806888 kJ/mol
# GULP energy per Si atom -5570.893563 kJ/mol
# Density = 2.104307 g / cm^3
# Si number density = 21.091075 Si / 1000 Ang^3
#
#
#
# Elastic Constant Matrix: (Units=GPa)
#
#
# Indices 1 2 3 4 5 6 
#
# 1 56.8912 23.8552 5.4048 0.0000 6.6822 0.0000
# 2 23.8552 75.0273 3.5940 0.0000 5.3053 0.0000
# 3 5.4048 3.5940 61.1695 0.0000 7.1007 0.0000
# 4 0.0000 0.0000 0.0000 16.8579 0.0000 12.8754
# 5 6.6822 5.3053 7.1007 0.0000 18.8827 0.0000
# 6 0.0000 0.0000 0.0000 12.8754 0.0000 32.5497
#
#
#
# Elastic Compliance Matrix: (Units=1/GPa)
#
#
# Indices 1 2 3 4 5 6 
#
# 1 0.020895 -0.006226 -0.000863 0.000000 -0.005321 0.000000
# 2 -0.006226 0.015462 -0.000115 0.000000 -0.002098 0.000000
# 3 -0.000863 -0.000115 0.017140 0.000000 -0.006108 0.000000
# 4 0.000000 0.000000 0.000000 0.084999 0.000000 -0.033622
# 5 -0.005321 -0.002098 -0.006108 0.000000 0.057728 0.000000
# 6 0.000000 0.000000 0.000000 -0.033622 0.000000 0.044022
#
#
# Mechanical properties :
#
#
# Convention : Reuss Voigt Hill
#
# Bulk Modulus (GPa) = 25.58232 28.75511 27.16872
# Shear Modulus (GPa) = 18.67887 24.34034 21.50961
#
# Velocity S-wave (km/s) = 2.97918 3.40083 3.19696
# Velocity P-wave (km/s) = 4.89794 5.39298 5.15141
#
# Compressibility (1/GPa) = 0.03908950
#
# Stress axis : x y z
#
# Youngs Moduli (GPa) = 47.85843 64.67508 58.34300
#
# Poissons Ratio (x) = 0.40267 0.05034
# Poissons Ratio (y) = 0.29797 0.00670
# Poissons Ratio (z) = 0.04129 0.00743
#
# Static dielectric constant tensor:
#      x y z
#    x 1.798750 0.000000 -0.007770 
#    y 0.000000 1.789640 0.000000 
#    z -0.007770 0.000000 1.791940 
# 
# From -- ./inp_files/55048.got.cif
#   From: 2010.05.17/outbox.cif.g08.bks.cpg/sg13_28_cif.got.tgz:55048.got - 2010.06.03 16:44:36.
