data_PCOD9226557
_publ_section_title
;
Structure prediction by ZEFSAII (Michael W. Deem and Ramdas Pophale) SiO2 
 PCOD9226557
Probable space group: P 2/C
;
_chemical_formula_sum "Si O2"
_cell_formula_units_Z 28
_cell_length_a 18.318291
_cell_length_b 17.744645
_cell_length_c 8.045391
_cell_angle_alpha 90.000000
_cell_angle_beta 33.410425
_cell_angle_gamma 90.000000
_cell_volume 1439.996279
_symmetry_space_group_name_H-M "P 2/C"
_symmetry_group_IT_number 13
_symmetry_cell_setting 'monoclinic'
loop_
_space_group_symop_operation_xyz
x,y,z
-x,y,1/2-z
-x,-y,-z
x,-y,1/2+z
loop_
_atom_site_type_symbol
_atom_site_label
_atom_site_fract_x
_atom_site_fract_y
_atom_site_fract_z
Si Si1 0.365502 0.748217 0.899188
Si Si2 0.235888 0.111581 0.514444
Si Si3 0.035786 0.165098 0.378482
Si Si4 0.143898 0.966275 0.884297
Si Si5 0.389217 0.595073 0.726036
Si Si6 0.322460 0.556814 0.236411
Si Si7 0.138493 0.688927 0.579476
O O1 0.500000 0.740226 0.750000
O O2 0.365199 0.683862 0.757606
O O3 0.348041 0.831975 0.862078
O O4 0.243154 0.727604 0.253150
O O5 0.245449 0.071396 0.319575
O O6 0.198863 0.044631 0.712035
O O7 0.102335 0.161980 0.761308
O O8 0.117176 0.092950 0.286535
O O9 0.108314 0.244430 0.266452
O O10 0.000000 0.160729 0.250000
O O11 0.000000 0.975622 0.250000
O O12 0.545787 0.578635 0.409925
O O13 0.308447 0.533032 0.777398
O O14 0.353191 0.576568 0.986618
O O15 0.203988 0.611465 0.515005
O O16 0.000000 0.672593 0.750000
#
# Coordination Sequence:
#
# PCOD9226557 Si02
#       7
#     4   4   4   4   4   4   4
#     4  11  20  36  57  81 111 151 190 226 281 341
#     4  11  20  34  56  81 110 150 183 238 276 338
#     4  10  17  32  57  85 109 142 186 231 276 328
#     4  10  21  33  55  85 113 140 194 230 282 334
#     4   9  17  34  56  79 104 144 186 223 265 331
#     4   9  17  33  55  80 105 140 185 223 266 327
#     4  10  18  32  59  82 109 144 186 226 283 334
#
# _framework density 19.444495
#
# number of rings (size 3 to 8) (size 9 to 14) (size 15 to 20)
#    0.000    2.000    5.714    3.000    0.000    0.000 
#    2.571    3.571    0.000    0.000    0.000    0.000 
#    0.000    0.000    0.000    0.000    0.000    0.000 
#
# Total GULP energy -156060.666169 kJ/mol
# GULP energy per Si atom -5573.595220 kJ/mol
# Density = 1.940024 g / cm^3
# Si number density = 19.444495 Si / 1000 Ang^3
#
#
#
# Elastic Constant Matrix: (Units=GPa)
#
#
# Indices 1 2 3 4 5 6 
#
# 1 50.0297 52.8224 15.5371 0.0000 -4.6807 0.0000
# 2 52.8224 170.0588 32.7390 0.0000 -12.7652 0.0000
# 3 15.5371 32.7390 40.7771 0.0000 -15.5872 0.0000
# 4 0.0000 0.0000 0.0000 25.1601 0.0000 -10.6577
# 5 -4.6807 -12.7652 -15.5872 0.0000 19.1968 0.0000
# 6 0.0000 0.0000 0.0000 -10.6577 0.0000 40.2482
#
#
#
# Elastic Compliance Matrix: (Units=1/GPa)
#
#
# Indices 1 2 3 4 5 6 
#
# 1 0.030625 -0.008600 -0.005939 0.000000 -0.003074 0.000000
# 2 -0.008600 0.009371 -0.003866 0.000000 0.000995 0.000000
# 3 -0.005939 -0.003866 0.041116 0.000000 0.029366 0.000000
# 4 0.000000 0.000000 0.000000 0.044767 0.000000 0.011854
# 5 -0.003074 0.000995 0.029366 0.000000 0.075848 0.000000
# 6 0.000000 0.000000 0.000000 0.011854 0.000000 0.027985
#
#
# Mechanical properties :
#
#
# Convention : Reuss Voigt Hill
#
# Bulk Modulus (GPa) = 22.57310 51.45138 37.01224
# Shear Modulus (GPa) = 17.77535 27.57217 22.67376
#
# Velocity S-wave (km/s) = 3.02679 3.76971 3.41849
# Velocity P-wave (km/s) = 4.88359 6.74283 5.88707
#
# Compressibility (1/GPa) = 0.04430052
#
# Stress axis : x y z
#
# Youngs Moduli (GPa) = 32.65324 106.71752 24.32150
#
# Poissons Ratio (x) = 0.91775 0.14445
# Poissons Ratio (y) = 0.28081 0.09404
# Poissons Ratio (z) = 0.19393 0.41261
#
# Static dielectric constant tensor:
#      x y z
#    x 1.722070 0.000000 0.013570 
#    y 0.000000 1.755410 0.000000 
#    z 0.013570 0.000000 1.701450 
# 
# From -- ./inp_files/23649.got.cif
#   From: 2010.05.17/outbox.cif.g08.bks.cpg/sg13_12_cif.got.tgz:23649.got - 2010.06.03 16:44:36.
