data_PCOD9226247
_publ_section_title
;
Structure prediction by ZEFSAII (Michael W. Deem and Ramdas Pophale) SiO2 
 PCOD9226247
Probable space group: P 2/C
;
_chemical_formula_sum "Si O2"
_cell_formula_units_Z 26
_cell_length_a 25.948480
_cell_length_b 8.379762
_cell_length_c 19.494619
_cell_angle_alpha 90.000000
_cell_angle_beta 162.223265
_cell_angle_gamma 90.000000
_cell_volume 1294.188367
_symmetry_space_group_name_H-M "P 2/C"
_symmetry_group_IT_number 13
_symmetry_cell_setting 'monoclinic'
loop_
_space_group_symop_operation_xyz
x,y,z
-x,y,1/2-z
-x,-y,-z
x,-y,1/2+z
loop_
_atom_site_type_symbol
_atom_site_label
_atom_site_fract_x
_atom_site_fract_y
_atom_site_fract_z
Si Si1 0.900969 0.122777 0.232449
Si Si2 0.613493 0.226178 0.961316
Si Si3 0.822782 0.439859 0.309483
Si Si4 0.863240 0.164867 0.467310
Si Si5 0.182216 0.362955 0.562969
Si Si6 0.340748 0.941459 0.201809
Si Si7 0.000000 0.607629 0.250000
O O1 0.995847 0.286470 0.334870
O O2 0.780077 0.145765 0.142649
O O3 0.798452 0.064465 0.035750
O O4 0.042862 0.997114 0.430548
O O5 0.500000 0.253472 0.750000
O O6 0.516838 0.101795 0.888603
O O7 0.672956 0.396007 0.067466
O O8 0.835422 0.270976 0.365619
O O9 0.774064 0.559243 0.309013
O O10 0.000000 0.500000 0.500000
O O11 0.992335 0.272231 0.676292
O O12 0.701903 0.099830 0.307519
O O13 0.303559 0.218870 0.697862
O O14 0.157444 0.493942 0.471298
#
# Coordination Sequence:
#
# PCOD9226247 Si02
#       7
#     4   4   4   4   4   4   2
#     4  10  17  37  59  90 110 161 198 241 284 363
#     4  10  23  38  61  80 124 158 194 245 310 354
#     4  11  23  39  58  93 119 153 205 251 295 355
#     4  10  20  33  64  85 116 150 208 250 285 349
#     4  10  18  32  63  83 119 151 199 244 290 355
#     4  10  19  37  59  89 116 158 200 234 302 368
#     4  10  16  30  56  92 114 146 194 256 292 334
#
# _framework density 20.089811000000001
#
# number of rings (size 3 to 8) (size 9 to 14) (size 15 to 20)
#    0.000    1.846    4.615    0.923    0.000    1.846 
#    0.000    0.000    6.769    2.769    0.000    0.000 
#    0.000    0.000    0.000    0.000    0.000    0.000 
#
# Total GULP energy -144750.100080 kJ/mol
# GULP energy per Si atom -5567.311542 kJ/mol
# Density = 2.004409 g / cm^3
# Si number density = 20.089811 Si / 1000 Ang^3
#
#
#
# Elastic Constant Matrix: (Units=GPa)
#
#
# Indices 1 2 3 4 5 6 
#
# 1 101.9341 38.5612 27.4494 0.0000 9.9313 0.0000
# 2 38.5612 82.4878 11.5461 0.0000 1.8398 0.0000
# 3 27.4494 11.5461 33.8042 0.0000 11.4716 0.0000
# 4 0.0000 0.0000 0.0000 9.3130 0.0000 1.2920
# 5 9.9313 1.8398 11.4716 0.0000 28.3292 0.0000
# 6 0.0000 0.0000 0.0000 1.2920 0.0000 20.4585
#
#
#
# Elastic Compliance Matrix: (Units=1/GPa)
#
#
# Indices 1 2 3 4 5 6 
#
# 1 0.014552 -0.005429 -0.009680 0.000000 -0.000829 0.000000
# 2 -0.005429 0.014786 -0.001115 0.000000 0.001395 0.000000
# 3 -0.009680 -0.001115 0.042486 0.000000 -0.013738 0.000000
# 4 0.000000 0.000000 0.000000 0.108325 0.000000 -0.006841
# 5 -0.000829 0.001395 -0.013738 0.000000 0.041062 0.000000
# 6 0.000000 0.000000 0.000000 -0.006841 0.000000 0.049311
#
#
# Mechanical properties :
#
#
# Convention : Reuss Voigt Hill
#
# Bulk Modulus (GPa) = 25.39746 41.48218 33.43982
# Shear Modulus (GPa) = 15.81797 20.99811 18.40804
#
# Velocity S-wave (km/s) = 2.80904 3.23648 3.03031
# Velocity P-wave (km/s) = 4.81564 5.88724 5.37820
#
# Compressibility (1/GPa) = 0.03937402
#
# Stress axis : x y z
#
# Youngs Moduli (GPa) = 68.72097 67.63189 23.53734
#
# Poissons Ratio (x) = 0.36718 0.22785
# Poissons Ratio (y) = 0.37309 0.02625
# Poissons Ratio (z) = 0.66525 0.07541
#
# Static dielectric constant tensor:
#      x y z
#    x 1.768320 0.000000 -0.030860 
#    y 0.000000 1.728030 0.000000 
#    z -0.030860 0.000000 1.784480 
# 
# From -- ./inp_files/71352.got.cif
#   From: 2010.05.17/outbox.cif.g08.bks.cpg/sg13_36_cif.got.tgz:71352.got - 2010.06.03 16:44:36.
