data_PCOD9226495
_publ_section_title
;
Structure prediction by ZEFSAII (Michael W. Deem and Ramdas Pophale) SiO2 
 PCOD9226495
Probable space group: P 2/C
;
_chemical_formula_sum "Si O2"
_cell_formula_units_Z 28
_cell_length_a 8.402785
_cell_length_b 15.079304
_cell_length_c 20.248988
_cell_angle_alpha 90.000000
_cell_angle_beta 150.670009
_cell_angle_gamma 90.000000
_cell_volume 1256.785348
_symmetry_space_group_name_H-M "P 2/C"
_symmetry_group_IT_number 13
_symmetry_cell_setting 'monoclinic'
loop_
_space_group_symop_operation_xyz
x,y,z
-x,y,1/2-z
-x,-y,-z
x,-y,1/2+z
loop_
_atom_site_type_symbol
_atom_site_label
_atom_site_fract_x
_atom_site_fract_y
_atom_site_fract_z
Si Si1 0.135992 0.799947 0.368286
Si Si2 0.715712 0.025153 0.512644
Si Si3 0.521529 0.516929 0.331236
Si Si4 0.499769 0.278626 0.821205
Si Si5 0.170930 0.262395 0.428355
Si Si6 0.829752 0.897765 0.761237
Si Si7 0.814903 0.475302 0.071891
O O1 0.124119 0.880404 0.414075
O O2 0.504741 0.766909 0.494798
O O3 0.000000 0.837655 0.250000
O O4 0.873842 0.725063 0.289989
O O5 0.494078 0.046149 0.369709
O O6 0.500000 0.000000 0.500000
O O7 0.973560 0.947102 0.609745
O O8 0.500000 0.474072 0.250000
O O9 0.608292 0.619855 0.353462
O O10 0.752237 0.487059 0.474603
O O11 0.150585 0.511747 0.221635
O O12 0.500000 0.234900 0.750000
O O13 0.727770 0.238806 0.959939
O O14 0.146177 0.368350 0.415142
O O15 0.862904 0.206072 0.292026
O O16 0.000000 0.902719 0.750000
O O17 0.500000 0.500000 0.000000
#
# Coordination Sequence:
#
# PCOD9226495 Si02
#       7
#     4   4   4   4   4   4   4
#     4  10  17  30  54  84 107 141 187 234 280 338
#     4  10  18  30  51  84 116 139 183 223 285 332
#     4  10  21  40  59  81 112 159 202 234 286 362
#     4   9  20  36  57  79 110 149 193 234 279 337
#     4  10  20  34  55  83 117 145 186 238 289 333
#     4  10  19  31  51  84 120 140 178 231 283 331
#     4  11  22  37  58  87 119 153 192 249 300 342
#
# _framework density 22.279062
#
# number of rings (size 3 to 8) (size 9 to 14) (size 15 to 20)
#    0.000    2.000    2.857    3.000    2.000    3.429 
#    2.571    0.000    0.000    0.857    0.000    0.000 
#    0.000    0.000    0.000    0.000    0.000    0.000 
#
# Total GULP energy -156019.557071 kJ/mol
# GULP energy per Si atom -5572.127038 kJ/mol
# Density = 2.222835 g / cm^3
# Si number density = 22.279062 Si / 1000 Ang^3
#
#
#
# Elastic Constant Matrix: (Units=GPa)
#
#
# Indices 1 2 3 4 5 6 
#
# 1 36.8072 5.3293 11.9615 0.0000 -13.9300 0.0000
# 2 5.3293 83.1097 35.3046 0.0000 -11.0334 0.0000
# 3 11.9615 35.3046 110.5232 0.0000 -11.4893 0.0000
# 4 0.0000 0.0000 0.0000 25.5268 0.0000 -5.6150
# 5 -13.9300 -11.0334 -11.4893 0.0000 20.2357 0.0000
# 6 0.0000 0.0000 0.0000 -5.6150 0.0000 10.9720
#
#
#
# Elastic Compliance Matrix: (Units=1/GPa)
#
#
# Indices 1 2 3 4 5 6 
#
# 1 0.037185 0.001831 -0.001960 0.000000 0.025483 0.000000
# 2 0.001831 0.014586 -0.004144 0.000000 0.006861 0.000000
# 3 -0.001960 -0.004144 0.010849 0.000000 0.002551 0.000000
# 4 0.000000 0.000000 0.000000 0.044144 0.000000 0.022591
# 5 0.025483 0.006861 0.002551 0.000000 0.072149 0.000000
# 6 0.000000 0.000000 0.000000 0.022591 0.000000 0.102703
#
#
# Mechanical properties :
#
#
# Convention : Reuss Voigt Hill
#
# Bulk Modulus (GPa) = 18.49336 37.29230 27.89283
# Shear Modulus (GPa) = 16.22398 23.20321 19.71359
#
# Velocity S-wave (km/s) = 2.70148 3.23070 2.97787
# Velocity P-wave (km/s) = 4.24846 5.54000 4.93665
#
# Compressibility (1/GPa) = 0.05407345
#
# Stress axis : x y z
#
# Youngs Moduli (GPa) = 26.89277 68.55826 92.17438
#
# Poissons Ratio (x) = -0.12556 0.18069
# Poissons Ratio (y) = -0.04925 0.38200
# Poissons Ratio (z) = 0.05272 0.28412
#
# Static dielectric constant tensor:
#      x y z
#    x 1.928770 0.000000 -0.012680 
#    y 0.000000 1.822700 0.000000 
#    z -0.012680 0.000000 1.864570 
# 
# From -- ./inp_files/76756.got.cif
#   From: 2010.05.17/outbox.cif.g08.bks.cpg/sg13_39_cif.got.tgz:76756.got - 2010.06.03 16:44:36.
