data_PCOD9226060
_publ_section_title
;
Structure prediction by ZEFSAII (Michael W. Deem and Ramdas Pophale) SiO2 
 PCOD9226060
Probable space group: P 2/C
;
_chemical_formula_sum "Si O2"
_cell_formula_units_Z 32
_cell_length_a 29.862701
_cell_length_b 9.464904
_cell_length_c 22.061462
_cell_angle_alpha 90.000000
_cell_angle_beta 165.420110
_cell_angle_gamma 90.000000
_cell_volume 1569.690504
_symmetry_space_group_name_H-M "P 2/C"
_symmetry_group_IT_number 13
_symmetry_cell_setting 'monoclinic'
loop_
_space_group_symop_operation_xyz
x,y,z
-x,y,1/2-z
-x,-y,-z
x,-y,1/2+z
loop_
_atom_site_type_symbol
_atom_site_label
_atom_site_fract_x
_atom_site_fract_y
_atom_site_fract_z
Si Si1 0.524926 0.996605 0.213781
Si Si2 0.719823 0.060082 0.857373
Si Si3 0.413840 0.783591 0.891188
Si Si4 0.982925 0.907777 0.603652
Si Si5 0.934430 0.227541 0.497098
Si Si6 0.342046 0.237853 0.894345
Si Si7 0.746083 0.240230 0.121523
Si Si8 0.826387 0.550314 0.235017
O O1 0.500000 0.051249 0.250000
O O2 0.702992 0.981246 0.405891
O O3 0.431579 0.843810 0.095345
O O4 0.414700 0.105118 0.027630
O O5 0.563855 0.172018 0.636480
O O6 0.904828 0.103560 0.069042
O O7 0.660843 0.925168 0.739307
O O8 0.240956 0.719762 0.696692
O O9 0.517539 0.709662 0.972175
O O10 0.828888 0.824677 0.364104
O O11 0.161623 0.834041 0.814795
O O12 0.987376 0.071911 0.589032
O O13 0.873038 0.215216 0.346564
O O14 0.094129 0.339873 0.709659
O O15 0.293326 0.361186 0.876106
O O16 0.733142 0.406494 0.092593
O O17 0.000000 0.500000 0.500000
#
# Coordination Sequence:
#
# PCOD9226060 Si02
#       8
#     4   4   4   4   4   4   4   4
#     4  11  21  34  53  72  95 133 172 202 234 288
#     4   8  15  28  45  74  98 121 159 202 252 288
#     4   8  14  25  48  71 102 127 146 202 258 290
#     4  10  16  28  55  76  98 126 151 212 265 285
#     4  10  15  27  46  74 100 124 155 193 252 298
#     4  10  17  32  50  77 104 125 162 202 252 298
#     4  11  19  31  45  74 103 130 160 197 243 294
#     4  10  20  29  45  74 110 125 155 198 250 308
#
# _framework density 20.386185000000001
#
# number of rings (size 3 to 8) (size 9 to 14) (size 15 to 20)
#    0.000    2.250    5.000    2.625    0.000    0.000 
#    0.000    5.000    0.000    0.000    0.000    5.250 
#    0.000    0.000    0.000    0.000    0.000    0.000 
#
# Total GULP energy -178366.197002 kJ/mol
# GULP energy per Si atom -5573.943656 kJ/mol
# Density = 2.033978 g / cm^3
# Si number density = 20.386185 Si / 1000 Ang^3
#
#
#
# Elastic Constant Matrix: (Units=GPa)
#
#
# Indices 1 2 3 4 5 6 
#
# 1 150.0147 29.1174 41.4601 0.0000 35.2081 0.0000
# 2 29.1174 91.8770 20.2065 0.0000 20.4833 0.0000
# 3 41.4601 20.2065 40.1325 0.0000 28.5521 0.0000
# 4 0.0000 0.0000 0.0000 0.2157 0.0000 -0.2531
# 5 35.2081 20.4833 28.5521 0.0000 47.5825 0.0000
# 6 0.0000 0.0000 0.0000 -0.2531 0.0000 -4.0968
#
#
#
# Elastic Compliance Matrix: (Units=1/GPa)
#
#
# Indices 1 2 3 4 5 6 
#
# 1 0.009489 -0.000822 -0.008106 0.000000 -0.001803 0.000000
# 2 -0.000822 0.012519 -0.003581 0.000000 -0.002632 0.000000
# 3 -0.008106 -0.003581 0.051878 0.000000 -0.023590 0.000000
# 4 0.000000 0.000000 0.000000 4.323515 0.000000 -0.267130
# 5 -0.001803 -0.002632 -0.023590 0.000000 0.037638 0.000000
# 6 0.000000 0.000000 0.000000 -0.267130 0.000000 -0.227586
#
#
# Mechanical properties :
#
#
# Convention : Reuss Voigt Hill
#
# Bulk Modulus (GPa) = 20.46407 51.51025 35.98716
# Shear Modulus (GPa) = 1.17681 21.48962 11.33321
#
# Velocity S-wave (km/s) = 0.76060 3.25025 2.36037
# Velocity P-wave (km/s) = 3.29110 6.27755 5.01193
#
# Compressibility (1/GPa) = 0.04886614
#
# Stress axis : x y z
#
# Youngs Moduli (GPa) = 105.38336 79.87775 19.27614
#
# Poissons Ratio (x) = 0.06570 0.15625
# Poissons Ratio (y) = 0.08668 0.06904
# Poissons Ratio (z) = 0.85424 0.28607
#
# Static dielectric constant tensor:
#      x y z
#    x 1.775680 0.000000 -0.014540 
#    y 0.000000 1.715920 0.000000 
#    z -0.014540 0.000000 1.825660 
# 
# From -- ./inp_files/89657.got.cif
#   From: 2010.05.17/outbox.cif.g08.bks.cpg/sg13_45_cif.got.tgz:89657.got - 2010.06.03 16:44:36.
