data_PCOD9226088
_publ_section_title
;
Structure prediction by ZEFSAII (Michael W. Deem and Ramdas Pophale) SiO2 
 PCOD9226088
Probable space group: P 2/C
;
_chemical_formula_sum "Si O2"
_cell_formula_units_Z 26
_cell_length_a 32.853104
_cell_length_b 7.120665
_cell_length_c 5.581374
_cell_angle_alpha 90.000000
_cell_angle_beta 115.133411
_cell_angle_gamma 90.000000
_cell_volume 1182.063526
_symmetry_space_group_name_H-M "P 2/C"
_symmetry_group_IT_number 13
_symmetry_cell_setting 'monoclinic'
loop_
_space_group_symop_operation_xyz
x,y,z
-x,y,1/2-z
-x,-y,-z
x,-y,1/2+z
loop_
_atom_site_type_symbol
_atom_site_label
_atom_site_fract_x
_atom_site_fract_y
_atom_site_fract_z
Si Si1 0.898915 0.216899 0.997281
Si Si2 0.720212 0.715522 0.050477
Si Si3 0.137301 0.782687 0.593260
Si Si4 0.481925 0.281852 0.454813
Si Si5 0.756434 0.718569 0.641033
Si Si6 0.000000 0.116249 0.250000
Si Si7 0.618636 0.383774 0.296465
O O1 0.881143 0.295823 0.702846
O O2 0.880076 0.000266 0.950185
O O3 0.881143 0.295825 0.202855
O O4 0.952736 0.222625 0.131839
O O5 0.737728 0.795733 0.344138
O O6 0.739604 0.499819 0.098948
O O7 0.737721 0.795732 0.844364
O O8 0.666382 0.718814 0.915918
O O9 0.190479 0.751943 0.726215
O O10 0.500000 0.203978 0.250000
O O11 0.500000 0.500000 0.500000
O O12 0.428116 0.273505 0.320312
O O13 0.500000 0.203971 0.750000
O O14 0.000000 0.000000 0.500000
O O15 0.618066 0.500093 0.544973
#
# Coordination Sequence:
#
# PCOD9226088 Si02
#       7
#     4   4   4   4   4   2   4
#     4  10  19  30  45  69  92 109 131 152 196 249
#     4  10  19  30  40  59  76 106 149 184 208 225
#     4  10  18  29  43  63  88 112 131 164 200 242
#     4  10  16  22  31  49  68  93 127 165 206 245
#     4  10  18  29  43  56  81 106 139 180 208 230
#     4  12  16  30  48  64  98 116 122 158 192 238
#     4  12  16  25  38  48  74 100 129 182 210 232
#
# _framework density 21.995435000000001
#
# number of rings (size 3 to 8) (size 9 to 14) (size 15 to 20)
#    0.000    1.538    9.231    0.923    0.000    0.000 
#    0.000    0.000    0.000    0.000    0.000    0.000 
#    0.000   83.692    0.000    0.000    0.000    0.000 
#
# Total GULP energy -145042.877639 kJ/mol
# GULP energy per Si atom -5578.572217 kJ/mol
# Density = 2.194537 g / cm^3
# Si number density = 21.995435 Si / 1000 Ang^3
#
#
#
# Elastic Constant Matrix: (Units=GPa)
#
#
# Indices 1 2 3 4 5 6 
#
# 1 259.0452 12.5644 139.4148 0.0000 7.0061 0.0000
# 2 12.5644 90.7965 13.2325 0.0000 -0.5700 0.0000
# 3 139.4148 13.2325 281.1967 0.0000 -26.2273 0.0000
# 4 0.0000 0.0000 0.0000 5.8983 0.0000 65.7783
# 5 7.0061 -0.5700 -26.2273 0.0000 84.5485 0.0000
# 6 0.0000 0.0000 0.0000 65.7783 0.0000 81.7564
#
#
#
# Elastic Compliance Matrix: (Units=1/GPa)
#
#
# Indices 1 2 3 4 5 6 
#
# 1 0.005415 -0.000351 -0.002791 0.000000 -0.001317 0.000000
# 2 -0.000351 0.011113 -0.000349 0.000000 -0.000004 0.000000
# 3 -0.002791 -0.000349 0.005126 0.000000 0.001819 0.000000
# 4 0.000000 0.000000 0.000000 -0.021265 0.000000 0.017109
# 5 -0.001317 -0.000004 0.001819 0.000000 0.012501 0.000000
# 6 0.000000 0.000000 0.000000 0.017109 0.000000 -0.001534
#
#
# Mechanical properties :
#
#
# Convention : Reuss Voigt Hill
#
# Bulk Modulus (GPa) = 68.15877 106.82911 87.49394
# Shear Modulus (GPa) = 215.25078 65.49576 140.37327
#
# Velocity S-wave (km/s) = 9.90323 5.46275 7.99736
# Velocity P-wave (km/s) = 12.72086 9.40548 11.18667
#
# Compressibility (1/GPa) = 0.01467163
#
# Stress axis : x y z
#
# Youngs Moduli (GPa) = 184.66953 89.98402 195.07919
#
# Poissons Ratio (x) = 0.03157 0.54448
# Poissons Ratio (y) = 0.06479 0.06817
# Poissons Ratio (z) = 0.51542 0.03144
#
# Static dielectric constant tensor:
#      x y z
#    x 2.049140 0.000000 0.124640 
#    y 0.000000 1.788830 0.000000 
#    z 0.124640 0.000000 1.905210 
# 
# From -- ./inp_files/8069.got.cif
#   From: 2010.05.17/outbox.cif.g08.bks.cpg/sg13_5_cif.got.tgz:8069.got - 2010.06.03 16:44:36.
