data_PCOD9226034
_publ_section_title
;
Structure prediction by ZEFSAII (Michael W. Deem and Ramdas Pophale) SiO2 
 PCOD9226034
Probable space group: P 2/C
;
_chemical_formula_sum "Si O2"
_cell_formula_units_Z 26
_cell_length_a 18.681457
_cell_length_b 8.936249
_cell_length_c 25.255249
_cell_angle_alpha 90.000000
_cell_angle_beta 161.301451
_cell_angle_gamma 90.000000
_cell_volume 1351.656326
_symmetry_space_group_name_H-M "P 2/C"
_symmetry_group_IT_number 13
_symmetry_cell_setting 'monoclinic'
loop_
_space_group_symop_operation_xyz
x,y,z
-x,y,1/2-z
-x,-y,-z
x,-y,1/2+z
loop_
_atom_site_type_symbol
_atom_site_label
_atom_site_fract_x
_atom_site_fract_y
_atom_site_fract_z
Si Si1 0.384981 0.392421 0.495294
Si Si2 0.096815 0.330382 0.196866
Si Si3 0.000000 0.631691 0.250000
Si Si4 0.709408 0.805951 0.971125
Si Si5 0.246706 0.570936 0.580331
Si Si6 0.814380 0.127511 0.076428
Si Si7 0.701547 0.379260 0.266498
O O1 0.320745 0.351812 0.389687
O O2 0.199961 0.518570 0.378096
O O3 0.337986 0.249671 0.499870
O O4 0.610739 0.474951 0.670774
O O5 0.159671 0.292522 0.180702
O O6 0.949345 0.209857 0.124494
O O7 0.934387 0.475034 0.078614
O O8 0.070870 0.741034 0.346413
O O9 0.734116 0.737888 0.929922
O O10 0.503512 0.722512 0.855862
O O11 0.695130 0.981792 0.969900
O O12 0.500000 0.506646 0.750000
O O13 0.188463 0.572561 0.601216
O O14 0.000000 0.081781 0.250000
#
# Coordination Sequence:
#
# PCOD9226034 Si02
#       7
#     4   4   2   4   4   4   4
#     4  10  18  35  57  85 108 142 184 228 270 325
#     4  11  19  36  58  85 110 138 185 239 272 315
#     4  10  14  30  58  76 100 136 188 220 248 316
#     4  10  19  34  54  77 109 149 178 216 272 329
#     4  10  20  37  57  80 107 148 189 220 267 333
#     4  10  19  33  57  82 111 142 187 222 269 330
#     4  10  22  35  55  83 114 142 182 233 276 318
#
# _framework density 19.235659999999999
#
# number of rings (size 3 to 8) (size 9 to 14) (size 15 to 20)
#    0.000    1.846    4.615    2.769    0.000    0.000 
#    0.000   12.308    0.000    0.000    0.000    0.000 
#    0.000    0.000    0.000    0.000    0.000    0.000 
#
# Total GULP energy -144843.852575 kJ/mol
# GULP energy per Si atom -5570.917407 kJ/mol
# Density = 1.919188 g / cm^3
# Si number density = 19.235660 Si / 1000 Ang^3
#
#
#
# Elastic Constant Matrix: (Units=GPa)
#
#
# Indices 1 2 3 4 5 6 
#
# 1 127.1502 30.3535 15.4451 0.0000 -14.4069 0.0000
# 2 30.3535 94.1908 21.0932 0.0000 -8.0248 0.0000
# 3 15.4451 21.0932 45.1245 0.0000 -14.9492 0.0000
# 4 0.0000 0.0000 0.0000 16.0018 0.0000 -5.9558
# 5 -14.4069 -8.0248 -14.9492 0.0000 24.0717 0.0000
# 6 0.0000 0.0000 0.0000 -5.9558 0.0000 11.0156
#
#
#
# Elastic Compliance Matrix: (Units=1/GPa)
#
#
# Indices 1 2 3 4 5 6 
#
# 1 0.008987 -0.002413 -0.000545 0.000000 0.004236 0.000000
# 2 -0.002413 0.012514 -0.005187 0.000000 -0.000494 0.000000
# 3 -0.000545 -0.005187 0.030332 0.000000 0.016782 0.000000
# 4 0.000000 0.000000 0.000000 0.078237 0.000000 0.042300
# 5 0.004236 -0.000494 0.016782 0.000000 0.054335 0.000000
# 6 0.000000 0.000000 0.000000 0.042300 0.000000 0.113650
#
#
# Mechanical properties :
#
#
# Convention : Reuss Voigt Hill
#
# Bulk Modulus (GPa) = 28.13549 44.47210 36.30380
# Shear Modulus (GPa) = 15.32838 23.52274 19.42556
#
# Velocity S-wave (km/s) = 2.82596 3.50075 3.18130
# Velocity P-wave (km/s) = 5.03056 6.28571 5.69283
#
# Compressibility (1/GPa) = 0.03554230
#
# Stress axis : x y z
#
# Youngs Moduli (GPa) = 111.27282 79.91063 32.96890
#
# Poissons Ratio (x) = 0.19284 0.01796
# Poissons Ratio (y) = 0.26853 0.17102
# Poissons Ratio (z) = 0.06061 0.41452
#
# Static dielectric constant tensor:
#      x y z
#    x 1.698800 0.000000 -0.016780 
#    y 0.000000 1.652850 0.000000 
#    z -0.016780 0.000000 1.750170 
# 
# From -- ./inp_files/63863.got.cif
#   From: 2010.05.17/outbox.cif.g08.bks.cpg/sg13_32_cif.got.tgz:63863.got - 2010.06.03 16:44:36.
