data_PCOD9226035
_publ_section_title
;
Structure prediction by ZEFSAII (Michael W. Deem and Ramdas Pophale) SiO2 
 PCOD9226035
Probable space group: P 2/C
;
_chemical_formula_sum "Si O2"
_cell_formula_units_Z 26
_cell_length_a 25.835229
_cell_length_b 8.730602
_cell_length_c 15.887401
_cell_angle_alpha 90.000000
_cell_angle_beta 158.691528
_cell_angle_gamma 90.000000
_cell_volume 1302.210308
_symmetry_space_group_name_H-M "P 2/C"
_symmetry_group_IT_number 13
_symmetry_cell_setting 'monoclinic'
loop_
_space_group_symop_operation_xyz
x,y,z
-x,y,1/2-z
-x,-y,-z
x,-y,1/2+z
loop_
_atom_site_type_symbol
_atom_site_label
_atom_site_fract_x
_atom_site_fract_y
_atom_site_fract_z
Si Si1 0.787168 0.697914 0.662214
Si Si2 0.330989 0.373344 0.008098
Si Si3 0.834532 0.093060 0.068143
Si Si4 0.929579 0.929788 0.977230
Si Si5 0.411492 0.890634 0.755729
Si Si6 0.725862 0.825596 0.237348
Si Si7 0.500000 0.135526 0.750000
O O1 0.763573 0.519253 0.611977
O O2 0.817729 0.791803 0.622184
O O3 0.635870 0.758065 0.467421
O O4 0.897529 0.756359 0.900719
O O5 0.500000 0.410007 0.250000
O O6 0.335132 0.241606 0.085582
O O7 0.271509 0.301618 0.831371
O O8 0.963018 0.979174 0.286780
O O9 0.827652 0.190531 0.972211
O O10 0.701182 0.975769 0.856871
O O11 0.784601 0.021220 0.779879
O O12 0.000000 0.000000 0.000000
O O13 0.461633 0.022046 0.767332
O O14 0.560960 0.829505 0.017265
#
# Coordination Sequence:
#
# PCOD9226035 Si02
#       7
#     4   4   4   4   4   4   2
#     4  10  19  34  56  83 112 150 191 235 285 347
#     4  10  19  33  58  86 119 151 192 236 295 355
#     4  10  22  35  56  84 115 150 200 247 284 338
#     4  10  20  37  58  81 106 150 199 236 275 345
#     4  10  18  35  56  84 113 152 196 237 287 351
#     4  11  19  36  58  83 113 153 191 247 296 334
#     4  10  14  30  58  78 106 140 200 230 258 338
#
# _framework density 19.966052999999999
#
# number of rings (size 3 to 8) (size 9 to 14) (size 15 to 20)
#    0.000    1.846    4.615    2.769    0.000    0.000 
#    0.000   11.538    0.000    1.846    0.000    0.000 
#    0.000    0.000    0.000    0.000    0.000    0.000 
#
# Total GULP energy -144819.274760 kJ/mol
# GULP energy per Si atom -5569.972106 kJ/mol
# Density = 1.992061 g / cm^3
# Si number density = 19.966053 Si / 1000 Ang^3
#
#
#
# Elastic Constant Matrix: (Units=GPa)
#
#
# Indices 1 2 3 4 5 6 
#
# 1 49.0508 28.5296 33.4085 0.0000 -18.0275 0.0000
# 2 28.5296 92.0857 33.8891 0.0000 -15.6213 0.0000
# 3 33.4085 33.8891 90.9741 0.0000 -25.5855 0.0000
# 4 0.0000 0.0000 0.0000 19.9886 0.0000 3.3383
# 5 -18.0275 -15.6213 -25.5855 0.0000 32.0718 0.0000
# 6 0.0000 0.0000 0.0000 3.3383 0.0000 15.0418
#
#
#
# Elastic Compliance Matrix: (Units=1/GPa)
#
#
# Indices 1 2 3 4 5 6 
#
# 1 0.031966 -0.005728 -0.006880 0.000000 0.009689 0.000000
# 2 -0.005728 0.013852 -0.002662 0.000000 0.001404 0.000000
# 3 -0.006880 -0.002662 0.016835 0.000000 0.008267 0.000000
# 4 0.000000 0.000000 0.000000 0.051954 0.000000 -0.011530
# 5 0.009689 0.001404 0.008267 0.000000 0.043905 0.000000
# 6 0.000000 0.000000 0.000000 -0.011530 0.000000 0.069040
#
#
# Mechanical properties :
#
#
# Convention : Reuss Voigt Hill
#
# Bulk Modulus (GPa) = 31.13973 47.08502 39.11237
# Shear Modulus (GPa) = 18.60149 22.50598 20.55373
#
# Velocity S-wave (km/s) = 3.05561 3.36104 3.21196
# Velocity P-wave (km/s) = 5.29898 6.22060 5.77820
#
# Compressibility (1/GPa) = 0.03211332
#
# Stress axis : x y z
#
# Youngs Moduli (GPa) = 31.28360 72.19322 59.39949
#
# Poissons Ratio (x) = 0.41351 0.40867
# Poissons Ratio (y) = 0.17919 0.15811
# Poissons Ratio (z) = 0.21523 0.19216
#
# Static dielectric constant tensor:
#      x y z
#    x 1.742030 0.000000 0.041760 
#    y 0.000000 1.692230 0.000000 
#    z 0.041760 0.000000 1.804330 
# 
# From -- ./inp_files/72350.got.cif
#   From: 2010.05.17/outbox.cif.g08.bks.cpg/sg13_37_cif.got.tgz:72350.got - 2010.06.03 16:44:36.
