data_PCOD9226978
_publ_section_title
;
Structure prediction by ZEFSAII (Michael W. Deem and Ramdas Pophale) SiO2 
 PCOD9226978
Probable space group: P 2/C
;
_chemical_formula_sum "Si O2"
_cell_formula_units_Z 24
_cell_length_a 25.009708
_cell_length_b 7.253871
_cell_length_c 5.547802
_cell_angle_alpha 90.000000
_cell_angle_beta 86.146746
_cell_angle_gamma 90.000000
_cell_volume 1004.191501
_symmetry_space_group_name_H-M "P 2/C"
_symmetry_group_IT_number 13
_symmetry_cell_setting 'monoclinic'
loop_
_space_group_symop_operation_xyz
x,y,z
-x,y,1/2-z
-x,-y,-z
x,-y,1/2+z
loop_
_atom_site_type_symbol
_atom_site_label
_atom_site_fract_x
_atom_site_fract_y
_atom_site_fract_z
Si Si1 0.978425 0.288682 0.006573
Si Si2 0.561431 0.434691 0.006989
Si Si3 0.853420 0.224999 0.987310
Si Si4 0.812709 0.803624 0.999865
Si Si5 0.645582 0.205708 0.150481
Si Si6 0.312492 0.792171 0.360386
O O1 0.914689 0.272625 0.020758
O O2 0.000000 0.206794 0.750000
O O3 0.000000 0.207375 0.250000
O O4 0.000000 0.500000 0.000000
O O5 0.581368 0.559501 0.225563
O O6 0.583021 0.242497 0.109014
O O7 0.500000 0.500000 0.000000
O O8 0.838219 0.294783 0.725021
O O9 0.841026 0.004711 0.972298
O O10 0.820200 0.284210 0.234029
O O11 0.750260 0.825816 0.076882
O O12 0.664529 0.290501 0.398078
O O13 0.658805 0.991327 0.165998
O O14 0.678096 0.285357 0.911079
#
# Coordination Sequence:
#
# PCOD9226978 Si02
#       6
#     4   4   4   4   4   4
#     4  10  21  37  54  75  98 144 196 218 264 322
#     4  10  21  37  57  80 110 158 205 230 276 321
#     4  10  18  32  53  79 111 137 173 224 280 334
#     4  10  19  33  53  89 108 140 169 223 298 337
#     4  10  18  32  56  86 113 149 183 237 282 339
#     4  10  19  33  58  91 114 142 186 231 303 345
#
# _framework density 23.899822
#
# number of rings (size 3 to 8) (size 9 to 14) (size 15 to 20)
#    0.000    2.000    0.000    7.000    0.000    0.000 
#    0.000   10.000    0.000   48.000  147.333    0.000 
#    0.000    0.000    0.000    0.000    0.000    0.000 
#
# Total GULP energy -133757.551749 kJ/mol
# GULP energy per Si atom -5573.231323 kJ/mol
# Density = 2.384543 g / cm^3
# Si number density = 23.899822 Si / 1000 Ang^3
#
#
#
# Elastic Constant Matrix: (Units=GPa)
#
#
# Indices 1 2 3 4 5 6 
#
# 1 113.6374 14.3029 7.6213 0.0000 4.5709 0.0000
# 2 14.3029 71.3025 -4.9741 0.0000 1.6820 0.0000
# 3 7.6213 -4.9741 236.2382 0.0000 6.4611 0.0000
# 4 0.0000 0.0000 0.0000 -3.3160 0.0000 4.3302
# 5 4.5709 1.6820 6.4611 0.0000 48.7237 0.0000
# 6 0.0000 0.0000 0.0000 4.3302 0.0000 43.0813
#
#
#
# Elastic Compliance Matrix: (Units=1/GPa)
#
#
# Indices 1 2 3 4 5 6 
#
# 1 0.009081 -0.001826 -0.000311 0.000000 -0.000748 0.000000
# 2 -0.001826 0.014426 0.000373 0.000000 -0.000376 0.000000
# 3 -0.000311 0.000373 0.004266 0.000000 -0.000549 0.000000
# 4 0.000000 0.000000 0.000000 -0.266580 0.000000 0.026794
# 5 -0.000748 -0.000376 -0.000549 0.000000 0.020680 0.000000
# 6 0.000000 0.000000 0.000000 0.026794 0.000000 0.020519
#
#
# Mechanical properties :
#
#
# Convention : Reuss Voigt Hill
#
# Bulk Modulus (GPa) = 41.24530 50.56427 45.90479
# Shear Modulus (GPa) = -26.88175 44.64633 8.88229
#
# Velocity S-wave (km/s) = -3.35739 4.32680 1.92991
# Velocity P-wave (km/s) = 1.50518 6.79443 4.92086
#
# Compressibility (1/GPa) = 0.02424519
#
# Stress axis : x y z
#
# Youngs Moduli (GPa) = 110.12461 69.32005 234.41574
#
# Poissons Ratio (x) = 0.12655 0.07289
# Poissons Ratio (y) = 0.20104 -0.08742
# Poissons Ratio (z) = 0.03424 -0.02585
#
# Static dielectric constant tensor:
#      x y z
#    x 1.961930 0.000000 -0.052960 
#    y 0.000000 1.556310 0.000000 
#    z -0.052960 0.000000 2.032750 
# 
# From -- ./inp_files/7334.got.cif
#   From: 2010.05.17/outbox.cif.g08.bks.cpg/sg13_4_cif.got.tgz:7334.got - 2010.06.03 16:44:36.
