data_PCOD9226924
_publ_section_title
;
Structure prediction by ZEFSAII (Michael W. Deem and Ramdas Pophale) SiO2 
 PCOD9226924
Probable space group: P 2/C
;
_chemical_formula_sum "Si O2"
_cell_formula_units_Z 18
_cell_length_a 8.987940
_cell_length_b 19.244549
_cell_length_c 5.014858
_cell_angle_alpha 90.000000
_cell_angle_beta 76.569692
_cell_angle_gamma 90.000000
_cell_volume 843.693186
_symmetry_space_group_name_H-M "P 2/C"
_symmetry_group_IT_number 13
_symmetry_cell_setting 'monoclinic'
loop_
_space_group_symop_operation_xyz
x,y,z
-x,y,1/2-z
-x,-y,-z
x,-y,1/2+z
loop_
_atom_site_type_symbol
_atom_site_label
_atom_site_fract_x
_atom_site_fract_y
_atom_site_fract_z
Si Si1 0.169441 0.314566 0.597986
Si Si2 0.776349 0.047383 0.980992
Si Si3 0.000000 0.550157 0.250000
Si Si4 0.500000 0.853308 0.750000
Si Si5 0.000000 0.867640 0.750000
Si Si6 0.730675 0.762948 0.965417
O O1 0.142889 0.396393 0.658222
O O2 0.213405 0.291830 0.284076
O O3 0.000000 0.286715 0.750000
O O4 0.283283 0.278058 0.754609
O O5 0.631095 0.097400 0.076477
O O6 0.920202 0.088161 0.048532
O O7 0.770440 0.981149 0.183586
O O8 0.000000 0.500000 0.500000
O O9 0.584075 0.804141 0.926029
O O10 0.134252 0.819915 0.575864
#
# Coordination Sequence:
#
# PCOD9226924 Si02
#       6
#     4   4   2   2   2   4
#     4  10  20  34  59  85 123 142 181 239 273 313
#     4  11  24  39  55  77 109 141 188 236 291 345
#     4  10  18  31  56  93 124 150 182 220 282 320
#     4  10  26  38  62  78 112 154 190 232 286 352
#     4  10  20  35  58  79 104 144 184 238 292 350
#     4  11  21  38  55  87 113 147 190 236 289 327
#
# _framework density 21.334768
#
# number of rings (size 3 to 8) (size 9 to 14) (size 15 to 20)
#    0.667    0.889    2.222    2.667    0.000   11.556 
#    0.000    0.000    0.000    0.000    0.000   15.556 
#    0.000    0.000    0.000    0.000    0.000    0.000 
#
# Total GULP energy -100666.304077 kJ/mol
# GULP energy per Si atom -5592.572449 kJ/mol
# Density = 2.128621 g / cm^3
# Si number density = 21.334768 Si / 1000 Ang^3
#
#
#
# Elastic Constant Matrix: (Units=GPa)
#
#
# Indices 1 2 3 4 5 6 
#
# 1 109.7299 49.2147 9.0906 0.0000 17.7738 0.0000
# 2 49.2147 127.2345 17.6466 0.0000 7.4117 0.0000
# 3 9.0906 17.6466 54.6952 0.0000 -4.1234 0.0000
# 4 0.0000 0.0000 0.0000 13.4197 0.0000 15.4982
# 5 17.7738 7.4117 -4.1234 0.0000 24.0235 0.0000
# 6 0.0000 0.0000 0.0000 15.4982 0.0000 15.0535
#
#
#
# Elastic Compliance Matrix: (Units=1/GPa)
#
#
# Indices 1 2 3 4 5 6 
#
# 1 0.012395 -0.004136 -0.001338 0.000000 -0.008124 0.000000
# 2 -0.004136 0.009832 -0.002515 0.000000 -0.000405 0.000000
# 3 -0.001338 -0.002515 0.019705 0.000000 0.005148 0.000000
# 4 0.000000 0.000000 0.000000 -0.394259 0.000000 0.405906
# 5 -0.008124 -0.000405 0.005148 0.000000 0.048645 0.000000
# 6 0.000000 0.000000 0.000000 0.405906 0.000000 -0.351467
#
#
# Mechanical properties :
#
#
# Convention : Reuss Voigt Hill
#
# Bulk Modulus (GPa) = 38.53033 49.28483 43.90758
# Shear Modulus (GPa) = -7.92996 24.87985 8.47495
#
# Velocity S-wave (km/s) = -1.93002 3.41862 1.99524
# Velocity P-wave (km/s) = 3.62387 6.22362 5.09244
#
# Compressibility (1/GPa) = 0.02595358
#
# Stress axis : x y z
#
# Youngs Moduli (GPa) = 80.67827 101.71296 50.74802
#
# Poissons Ratio (x) = 0.42064 0.06792
# Poissons Ratio (y) = 0.33365 0.12764
# Poissons Ratio (z) = 0.10797 0.25583
#
# Static dielectric constant tensor:
#      x y z
#    x 1.804840 0.000000 -0.003600 
#    y 0.000000 1.764160 0.000000 
#    z -0.003600 0.000000 1.799280 
# 
# From -- ./inp_files/1386.got.cif
#   From: 2010.05.17/outbox.cif.g08.bks.cpg/sg13_1_cif.got.tgz:1386.got - 2010.06.03 16:44:36.
