data_PCOD9226897
_publ_section_title
;
Structure prediction by ZEFSAII (Michael W. Deem and Ramdas Pophale) SiO2 
 PCOD9226897
Probable space group: P 2/C
;
_chemical_formula_sum "Si O2"
_cell_formula_units_Z 32
_cell_length_a 12.445281
_cell_length_b 19.469657
_cell_length_c 19.156464
_cell_angle_alpha 90.000000
_cell_angle_beta 160.494380
_cell_angle_gamma 90.000000
_cell_volume 1549.865063
_symmetry_space_group_name_H-M "P 2/C"
_symmetry_group_IT_number 13
_symmetry_cell_setting 'monoclinic'
loop_
_space_group_symop_operation_xyz
x,y,z
-x,y,1/2-z
-x,-y,-z
x,-y,1/2+z
loop_
_atom_site_type_symbol
_atom_site_label
_atom_site_fract_x
_atom_site_fract_y
_atom_site_fract_z
Si Si1 0.691854 0.370063 0.763439
Si Si2 0.282774 0.759938 0.055813
Si Si3 0.645184 0.129502 0.016847
Si Si4 0.196091 0.346837 0.189475
Si Si5 0.320776 0.980567 0.067410
Si Si6 0.577810 0.059107 0.104298
Si Si7 0.094822 0.459461 0.389197
Si Si8 0.086960 0.382561 0.883638
O O1 0.470887 0.309799 0.656142
O O2 0.462853 0.435603 0.622493
O O3 0.815398 0.348285 0.763681
O O4 0.989799 0.373747 0.997725
O O5 0.500000 0.795055 0.250000
O O6 0.289296 0.802543 0.988245
O O7 0.941614 0.728547 0.872830
O O8 0.500078 0.077748 0.870420
O O9 0.510632 0.126104 0.013578
O O10 0.000000 0.099520 0.250000
O O11 0.566977 0.348688 0.396699
O O12 0.128036 0.404425 0.207276
O O13 0.500000 0.991451 0.250000
O O14 0.358178 0.046040 0.038052
O O15 0.955160 0.952917 0.856215
O O16 0.500000 0.000000 0.000000
O O17 0.075894 0.537922 0.401838
O O18 0.000000 0.457192 0.250000
O O19 0.000000 0.382010 0.750000
#
# Coordination Sequence:
#
# PCOD9226897 Si02
#       8
#     4   4   4   4   4   4   4   4
#     4  10  21  35  53  76 101 135 175 217 268 318
#     4   9  19  36  55  75  99 131 178 226 261 306
#     4   9  18  31  52  79 105 138 180 220 257 306
#     4  10  21  35  53  76 101 133 175 220 265 317
#     4  10  18  31  54  83 115 149 179 213 262 310
#     4   9  18  32  51  81 115 143 177 217 258 306
#     4  10  20  34  51  75 105 134 170 215 263 323
#     4  11  22  34  50  75 107 137 168 214 272 327
#
# _framework density 20.64696
#
# number of rings (size 3 to 8) (size 9 to 14) (size 15 to 20)
#    0.000    2.250    0.000    4.875    0.000    8.000 
#    0.000    0.000    0.000   15.000    0.000    8.750 
#    0.000    0.000    0.000    0.000    0.000    0.000 
#
# Total GULP energy -178186.332635 kJ/mol
# GULP energy per Si atom -5568.322895 kJ/mol
# Density = 2.059997 g / cm^3
# Si number density = 20.646960 Si / 1000 Ang^3
#
#
#
# Elastic Constant Matrix: (Units=GPa)
#
#
# Indices 1 2 3 4 5 6 
#
# 1 89.0794 15.1387 -1.1900 0.0000 -12.4033 0.0000
# 2 15.1387 31.9145 3.3556 0.0000 -12.6178 0.0000
# 3 -1.1900 3.3556 41.7073 0.0000 -10.5465 0.0000
# 4 0.0000 0.0000 0.0000 19.6762 0.0000 9.7583
# 5 -12.4033 -12.6178 -10.5465 0.0000 35.9792 0.0000
# 6 0.0000 0.0000 0.0000 9.7583 0.0000 86.9543
#
#
#
# Elastic Compliance Matrix: (Units=1/GPa)
#
#
# Indices 1 2 3 4 5 6 
#
# 1 0.012500 -0.004887 0.001519 0.000000 0.003041 0.000000
# 2 -0.004887 0.038292 -0.000271 0.000000 0.011665 0.000000
# 3 0.001519 -0.000271 0.026084 0.000000 0.008074 0.000000
# 4 0.000000 0.000000 0.000000 0.053818 0.000000 -0.006040
# 5 0.003041 0.011665 0.008074 0.000000 0.035300 0.000000
# 6 0.000000 0.000000 0.000000 -0.006040 0.000000 0.012178
#
#
# Mechanical properties :
#
#
# Convention : Reuss Voigt Hill
#
# Bulk Modulus (GPa) = 14.36820 21.92330 18.14575
# Shear Modulus (GPa) = 23.96371 38.21508 31.08940
#
# Velocity S-wave (km/s) = 3.41051 4.30685 3.88462
# Velocity P-wave (km/s) = 4.74161 5.94754 5.37848
#
# Compressibility (1/GPa) = 0.06959812
#
# Stress axis : x y z
#
# Youngs Moduli (GPa) = 79.99928 26.11503 38.33835
#
# Poissons Ratio (x) = 0.12762 -0.05822
# Poissons Ratio (y) = 0.39096 0.01037
# Poissons Ratio (z) = -0.12150 0.00706
#
# Static dielectric constant tensor:
#      x y z
#    x 1.860820 0.000000 0.011170 
#    y 0.000000 1.803350 0.000000 
#    z 0.011170 0.000000 1.767190 
# 
# From -- ./inp_files/67030.got.cif
#   From: 2010.05.17/outbox.cif.g08.bks.cpg/sg13_34_cif.got.tgz:67030.got - 2010.06.03 16:44:36.
