data_PCOD9226819
_publ_section_title
;
Structure prediction by ZEFSAII (Michael W. Deem and Ramdas Pophale) SiO2 
 PCOD9226819
Probable space group: P 2/C
;
_chemical_formula_sum "Si O2"
_cell_formula_units_Z 24
_cell_length_a 19.420639
_cell_length_b 8.582249
_cell_length_c 15.355544
_cell_angle_alpha 90.000000
_cell_angle_beta 20.098978
_cell_angle_gamma 90.000000
_cell_volume 879.502875
_symmetry_space_group_name_H-M "P 2/C"
_symmetry_group_IT_number 13
_symmetry_cell_setting 'monoclinic'
loop_
_space_group_symop_operation_xyz
x,y,z
-x,y,1/2-z
-x,-y,-z
x,-y,1/2+z
loop_
_atom_site_type_symbol
_atom_site_label
_atom_site_fract_x
_atom_site_fract_y
_atom_site_fract_z
Si Si1 0.213250 0.668686 0.044884
Si Si2 0.298030 0.663219 0.425241
Si Si3 0.779983 0.000789 0.969993
Si Si4 0.271477 0.337270 0.178440
Si Si5 0.544451 0.178262 0.381608
Si Si6 0.159454 0.330593 0.894512
O O1 0.230701 0.836726 0.072529
O O2 0.000000 0.674126 0.250000
O O3 0.237484 0.494514 0.049417
O O4 0.388653 0.686049 0.765440
O O5 0.170042 0.665464 0.486831
O O6 0.263572 0.830071 0.511590
O O7 0.525601 0.656163 0.119905
O O8 0.000000 0.998708 0.750000
O O9 0.618871 0.030716 0.238598
O O10 0.320793 0.209373 0.194036
O O11 0.243148 0.503399 0.261278
O O12 0.054360 0.305058 0.395291
O O13 0.316710 0.199863 0.677387
#
# Coordination Sequence:
#
# PCOD9226819 Si02
#       6
#     4   4   4   4   4   4
#     4   9  17  32  55  75  98 137 175 205 250 304
#     4  11  18  34  55  77 103 135 167 209 257 301
#     4   9  19  33  55  77  99 137 174 208 250 298
#     4  10  18  30  53  80 105 133 166 210 257 303
#     4   9  16  35  50  73 105 130 166 209 251 298
#     4  10  18  30  53  80 105 133 166 210 257 303
#
# _framework density 27.288141
#
# number of rings (size 3 to 8) (size 9 to 14) (size 15 to 20)
#    1.000    1.333    3.333    1.500    0.000    2.667 
#    0.000    3.333    0.000   12.000    0.000    0.000 
#    0.000    0.000    0.000    0.000    0.000    0.000 
#
# Total GULP energy -134277.872803 kJ/mol
# GULP energy per Si atom -5594.911367 kJ/mol
# Density = 2.722603 g / cm^3
# Si number density = 27.288141 Si / 1000 Ang^3
#
#
#
# Elastic Constant Matrix: (Units=GPa)
#
#
# Indices 1 2 3 4 5 6 
#
# 1 60.8854 38.6779 28.4002 0.0000 -22.2020 0.0000
# 2 38.6779 224.7846 49.9097 0.0000 -3.5382 0.0000
# 3 28.4002 49.9097 122.0538 0.0000 -7.9521 0.0000
# 4 0.0000 0.0000 0.0000 39.4388 0.0000 7.3395
# 5 -22.2020 -3.5382 -7.9521 0.0000 49.6234 0.0000
# 6 0.0000 0.0000 0.0000 7.3395 0.0000 26.2491
#
#
#
# Elastic Compliance Matrix: (Units=1/GPa)
#
#
# Indices 1 2 3 4 5 6 
#
# 1 0.023646 -0.003118 -0.003590 0.000000 0.009782 0.000000
# 2 -0.003118 0.005304 -0.001526 0.000000 -0.001261 0.000000
# 3 -0.003590 -0.001526 0.009641 0.000000 -0.000170 0.000000
# 4 0.000000 0.000000 0.000000 0.026748 0.000000 -0.007479
# 5 0.009782 -0.001261 -0.000170 0.000000 0.024411 0.000000
# 6 0.000000 0.000000 0.000000 -0.007479 0.000000 0.040188
#
#
# Mechanical properties :
#
#
# Convention : Reuss Voigt Hill
#
# Bulk Modulus (GPa) = 45.19754 71.29992 58.24873
# Shear Modulus (GPa) = 32.51398 42.44464 37.47931
#
# Velocity S-wave (km/s) = 3.45556 3.94817 3.71005
# Velocity P-wave (km/s) = 5.70265 6.85341 6.30435
#
# Compressibility (1/GPa) = 0.02212510
#
# Stress axis : x y z
#
# Youngs Moduli (GPa) = 42.28963 188.53548 103.72117
#
# Poissons Ratio (x) = 0.58779 0.37236
# Poissons Ratio (y) = 0.13185 0.15824
# Poissons Ratio (z) = 0.15182 0.28764
#
# Static dielectric constant tensor:
#      x y z
#    x 2.149140 0.000000 -0.029920 
#    y 0.000000 2.145190 0.000000 
#    z -0.029920 0.000000 2.089240 
# 
# From -- ./inp_files/82046.got.cif
#   From: 2010.05.17/outbox.cif.g08.bks.cpg/sg13_42_cif.got.tgz:82046.got - 2010.06.03 16:44:36.
