data_PCOD9226459
_publ_section_title
;
Structure prediction by ZEFSAII (Michael W. Deem and Ramdas Pophale) SiO2 
 PCOD9226459
Probable space group: P 2/C
;
_chemical_formula_sum "Si O2"
_cell_formula_units_Z 26
_cell_length_a 13.128010
_cell_length_b 20.629070
_cell_length_c 5.231831
_cell_angle_alpha 90.000000
_cell_angle_beta 56.151286
_cell_angle_gamma 90.000000
_cell_volume 1176.732495
_symmetry_space_group_name_H-M "P 2/C"
_symmetry_group_IT_number 13
_symmetry_cell_setting 'monoclinic'
loop_
_space_group_symop_operation_xyz
x,y,z
-x,y,1/2-z
-x,-y,-z
x,-y,1/2+z
loop_
_atom_site_type_symbol
_atom_site_label
_atom_site_fract_x
_atom_site_fract_y
_atom_site_fract_z
Si Si1 0.844011 0.033107 0.630031
Si Si2 0.629555 0.351986 0.704614
Si Si3 0.256034 0.524676 0.518860
Si Si4 0.729366 0.791493 0.018628
Si Si5 0.579901 0.081078 0.884077
Si Si6 0.500000 0.555342 0.750000
Si Si7 0.128435 0.176377 0.693332
O O1 0.696646 0.036890 0.793323
O O2 0.875318 0.100343 0.725198
O O3 0.883668 0.021413 0.280562
O O4 0.500000 0.358458 0.750000
O O5 0.727422 0.400153 0.440264
O O6 0.668205 0.278289 0.636828
O O7 0.598580 0.390401 0.007538
O O8 0.194526 0.487736 0.835654
O O9 0.395832 0.494118 0.275291
O O10 0.638355 0.849553 0.225104
O O11 0.836059 0.792665 0.084582
O O12 0.774456 0.807446 0.667936
O O13 0.500000 0.059510 0.750000
O O14 0.500000 0.089010 0.250000
O O15 0.000000 0.195757 0.750000
#
# Coordination Sequence:
#
# PCOD9226459 Si02
#       7
#     4   4   4   4   4   2   4
#     4  11  23  39  64  95 114 141 199 239 280 368
#     4  11  20  30  53  81 125 167 195 228 271 338
#     4  10  17  30  44  72 116 168 192 226 268 326
#     4  11  25  38  61  89 114 154 214 235 280 364
#     4  11  22  38  56  82 132 169 187 222 272 332
#     4  10  18  30  48  78 128 172 192 226 280 328
#     4  11  25  48  66  82 115 146 182 266 328 341
#
# _framework density 22.095081
#
# number of rings (size 3 to 8) (size 9 to 14) (size 15 to 20)
#    0.000    1.231    2.308    6.462    3.231    2.462 
#    0.000    0.000    0.000    0.000    0.000    0.000 
#    0.000   49.231    0.000    0.000    0.000    0.000 
#
# Total GULP energy -144938.774063 kJ/mol
# GULP energy per Si atom -5574.568233 kJ/mol
# Density = 2.204479 g / cm^3
# Si number density = 22.095081 Si / 1000 Ang^3
#
#
#
# Elastic Constant Matrix: (Units=GPa)
#
#
# Indices 1 2 3 4 5 6 
#
# 1 63.8237 -3.7147 7.4226 0.0000 20.0229 0.0000
# 2 -3.7147 111.4001 16.7180 0.0000 6.4874 0.0000
# 3 7.4226 16.7180 89.8431 0.0000 21.7367 0.0000
# 4 0.0000 0.0000 0.0000 9.7977 0.0000 3.1967
# 5 20.0229 6.4874 21.7367 0.0000 33.7696 0.0000
# 6 0.0000 0.0000 0.0000 3.1967 0.0000 15.5139
#
#
#
# Elastic Compliance Matrix: (Units=1/GPa)
#
#
# Indices 1 2 3 4 5 6 
#
# 1 0.019551 0.001204 0.001210 0.000000 -0.012602 0.000000
# 2 0.001204 0.009327 -0.001455 0.000000 -0.001569 0.000000
# 3 0.001210 -0.001455 0.013511 0.000000 -0.009135 0.000000
# 4 0.000000 0.000000 0.000000 0.109421 0.000000 -0.022547
# 5 -0.012602 -0.001569 -0.009135 0.000000 0.043266 0.000000
# 6 0.000000 0.000000 0.000000 -0.022547 0.000000 0.069104
#
#
# Mechanical properties :
#
#
# Convention : Reuss Voigt Hill
#
# Bulk Modulus (GPa) = 22.57003 33.99095 28.28049
# Shear Modulus (GPa) = 18.04843 28.12565 23.08704
#
# Velocity S-wave (km/s) = 2.86116 3.57170 3.23599
# Velocity P-wave (km/s) = 4.59915 5.69444 5.17585
#
# Compressibility (1/GPa) = 0.04430653
#
# Stress axis : x y z
#
# Youngs Moduli (GPa) = 51.14757 107.22032 74.01140
#
# Poissons Ratio (x) = -0.12913 -0.08953
# Poissons Ratio (y) = -0.06160 0.10771
# Poissons Ratio (z) = -0.06187 0.15605
#
# Static dielectric constant tensor:
#      x y z
#    x 1.914170 0.000000 0.128930 
#    y 0.000000 1.806880 0.000000 
#    z 0.128930 0.000000 2.180900 
# 
# From -- ./inp_files/4042.got.cif
#   From: 2010.05.17/outbox.cif.g08.bks.cpg/sg13_3_cif.got.tgz:4042.got - 2010.06.03 16:44:36.
