data_PCOD9226365
_publ_section_title
;
Structure prediction by ZEFSAII (Michael W. Deem and Ramdas Pophale) SiO2 
 PCOD9226365
Probable space group: P 2/C
;
_chemical_formula_sum "Si O2"
_cell_formula_units_Z 18
_cell_length_a 6.769169
_cell_length_b 18.201690
_cell_length_c 5.852038
_cell_angle_alpha 90.000000
_cell_angle_beta 76.430979
_cell_angle_gamma 90.000000
_cell_volume 700.906017
_symmetry_space_group_name_H-M "P 2/C"
_symmetry_group_IT_number 13
_symmetry_cell_setting 'monoclinic'
loop_
_space_group_symop_operation_xyz
x,y,z
-x,y,1/2-z
-x,-y,-z
x,-y,1/2+z
loop_
_atom_site_type_symbol
_atom_site_label
_atom_site_fract_x
_atom_site_fract_y
_atom_site_fract_z
Si Si1 0.500000 0.705253 0.250000
Si Si2 0.295985 0.810014 0.668476
Si Si3 0.260455 0.026510 0.063846
Si Si4 0.776744 0.482771 0.277005
Si Si5 0.729710 0.327164 0.093237
O O1 0.367669 0.759406 0.441349
O O2 0.672984 0.661408 0.343823
O O3 0.500000 0.832689 0.750000
O O4 0.218814 0.886349 0.594915
O O5 0.178865 0.752738 0.870168
O O6 0.187233 0.003356 0.830685
O O7 0.500000 0.000000 0.000000
O O8 0.686194 0.488153 0.559141
O O9 0.808518 0.397391 0.201785
O O10 0.000000 0.518093 0.250000
O O11 0.500000 0.322199 0.250000
#
# Coordination Sequence:
#
# PCOD9226365 Si02
#       5
#     2   4   4   4   4
#     4   8  16  28  44  66 102 132 166 202 248 300
#     4   9  16  26  40  63  96 136 168 200 248 294
#     4  10  17  23  37  58  90 133 167 199 235 294
#     4  10  23  41  59  77 102 134 171 213 259 308
#     4   9  20  32  51  77 103 137 167 214 254 308
#
# _framework density 25.681045000000001
#
# number of rings (size 3 to 8) (size 9 to 14) (size 15 to 20)
#    0.000    3.111    2.222    1.333    9.333    0.889 
#    0.000    0.000    0.000    0.000    0.000    0.000 
#    0.000    1.778    0.000    0.222    0.000    0.000 
#
# Total GULP energy -100204.764218 kJ/mol
# GULP energy per Si atom -5566.931345 kJ/mol
# Density = 2.562259 g / cm^3
# Si number density = 25.681045 Si / 1000 Ang^3
#
#
#
# Elastic Constant Matrix: (Units=GPa)
#
#
# Indices 1 2 3 4 5 6 
#
# 1 62.7943 3.9667 46.1590 0.0000 12.0265 0.0000
# 2 3.9667 171.9096 85.4744 0.0000 17.4208 0.0000
# 3 46.1590 85.4744 256.5396 0.0000 24.5577 0.0000
# 4 0.0000 0.0000 0.0000 49.5929 0.0000 8.9047
# 5 12.0265 17.4208 24.5577 0.0000 49.1394 0.0000
# 6 0.0000 0.0000 0.0000 8.9047 0.0000 10.9003
#
#
#
# Elastic Compliance Matrix: (Units=1/GPa)
#
#
# Indices 1 2 3 4 5 6 
#
# 1 0.019203 0.001751 -0.003707 0.000000 -0.003468 0.000000
# 2 0.001751 0.007222 -0.002557 0.000000 -0.001711 0.000000
# 3 -0.003707 -0.002557 0.005507 0.000000 -0.000938 0.000000
# 4 0.000000 0.000000 0.000000 0.023630 0.000000 -0.019304
# 5 -0.003468 -0.001711 -0.000938 0.000000 0.022274 0.000000
# 6 0.000000 0.000000 0.000000 -0.019304 0.000000 0.107511
#
#
# Mechanical properties :
#
#
# Convention : Reuss Voigt Hill
#
# Bulk Modulus (GPa) = 43.65632 84.71595 64.18613
# Shear Modulus (GPa) = 24.75141 45.63609 35.19375
#
# Velocity S-wave (km/s) = 3.10788 4.22006 3.70593
# Velocity P-wave (km/s) = 5.46945 7.53688 6.58481
#
# Compressibility (1/GPa) = 0.02290619
#
# Stress axis : x y z
#
# Youngs Moduli (GPa) = 52.07402 138.47475 181.59031
#
# Poissons Ratio (x) = -0.24252 0.67312
# Poissons Ratio (y) = -0.09120 0.46441
# Poissons Ratio (z) = 0.19303 0.35414
#
# Static dielectric constant tensor:
#      x y z
#    x 2.103350 0.000000 0.053520 
#    y 0.000000 2.061470 0.000000 
#    z 0.053520 0.000000 2.255180 
# 
# From -- ./inp_files/1304.got.cif
#   From: 2010.05.17/outbox.cif.g08.bks.cpg/sg13_1_cif.got.tgz:1304.got - 2010.06.03 16:44:36.
