data_PCOD9226595
_publ_section_title
;
Structure prediction by ZEFSAII (Michael W. Deem and Ramdas Pophale) SiO2 
 PCOD9226595
Probable space group: P 2/C
;
_chemical_formula_sum "Si O2"
_cell_formula_units_Z 24
_cell_length_a 13.601414
_cell_length_b 8.490397
_cell_length_c 18.246527
_cell_angle_alpha 90.000000
_cell_angle_beta 152.127854
_cell_angle_gamma 90.000000
_cell_volume 985.085667
_symmetry_space_group_name_H-M "P 2/C"
_symmetry_group_IT_number 13
_symmetry_cell_setting 'monoclinic'
loop_
_space_group_symop_operation_xyz
x,y,z
-x,y,1/2-z
-x,-y,-z
x,-y,1/2+z
loop_
_atom_site_type_symbol
_atom_site_label
_atom_site_fract_x
_atom_site_fract_y
_atom_site_fract_z
Si Si1 0.580469 0.275185 0.042542
Si Si2 0.151826 0.082467 0.498799
Si Si3 0.500000 0.830116 0.750000
Si Si4 0.500000 0.673527 0.250000
Si Si5 0.000000 0.249366 0.250000
Si Si6 0.000000 0.245303 0.750000
Si Si7 0.593182 0.406413 0.427242
Si Si8 0.747451 0.940424 0.208724
O O1 0.408132 0.202629 0.872529
O O2 0.364965 0.893946 0.883283
O O3 0.498784 0.389383 0.052042
O O4 0.796293 0.335240 0.148938
O O5 0.292828 0.219132 0.628239
O O6 0.934925 0.003313 0.383112
O O7 0.092235 0.149958 0.378872
O O8 0.312118 0.939216 0.600636
O O9 0.542488 0.718473 0.709575
O O10 0.562486 0.563007 0.359730
O O11 0.140577 0.862413 0.288961
O O12 0.835321 0.348529 0.593974
#
# Coordination Sequence:
#
# PCOD9226595 Si02
#       8
#     4   4   2   2   2   2   4   4
#     4   9  19  32  63  98 129 158 219 285 327 368
#     4  10  20  37  63  91 128 183 206 266 327 387
#     4  10  20  32  60  90 136 170 208 260 340 384
#     4  10  24  42  58  86 146 184 210 250 330 404
#     4  10  21  39  64  92 125 167 224 284 327 371
#     4  10  17  33  66  90 127 159 220 274 331 369
#     4  10  21  38  61  95 132 175 216 267 320 399
#     4   9  16  30  57  98 119 156 209 271 322 379
#
# _framework density 24.363364000000001
#
# number of rings (size 3 to 8) (size 9 to 14) (size 15 to 20)
#    0.000    2.333    1.667    2.000    7.000    0.667 
#    0.000    7.500    0.000    2.000    0.000    1.167 
#    0.000    0.000    0.000    0.000    0.000    0.000 
#
# Total GULP energy -133935.605960 kJ/mol
# GULP energy per Si atom -5580.650248 kJ/mol
# Density = 2.430791 g / cm^3
# Si number density = 24.363364 Si / 1000 Ang^3
#
#
#
# Elastic Constant Matrix: (Units=GPa)
#
#
# Indices 1 2 3 4 5 6 
#
# 1 95.8074 53.1236 49.5610 0.0000 7.3882 0.0000
# 2 53.1236 115.3967 53.6525 0.0000 -10.7091 0.0000
# 3 49.5610 53.6525 159.6505 0.0000 -11.0155 0.0000
# 4 0.0000 0.0000 0.0000 32.4763 0.0000 3.0852
# 5 7.3882 -10.7091 -11.0155 0.0000 44.0560 0.0000
# 6 0.0000 0.0000 0.0000 3.0852 0.0000 27.6205
#
#
#
# Elastic Compliance Matrix: (Units=1/GPa)
#
#
# Indices 1 2 3 4 5 6 
#
# 1 0.015988 -0.006349 -0.003176 0.000000 -0.005019 0.000000
# 2 -0.006349 0.012913 -0.002115 0.000000 0.003675 0.000000
# 3 -0.003176 -0.002115 0.008101 0.000000 0.002044 0.000000
# 4 0.000000 0.000000 0.000000 0.031122 0.000000 -0.003476
# 5 -0.005019 0.003675 0.002044 0.000000 0.024944 0.000000
# 6 0.000000 0.000000 0.000000 -0.003476 0.000000 0.036593
#
#
# Mechanical properties :
#
#
# Convention : Reuss Voigt Hill
#
# Bulk Modulus (GPa) = 72.87417 75.94766 74.41092
# Shear Modulus (GPa) = 31.74269 35.13171 33.43720
#
# Velocity S-wave (km/s) = 3.61347 3.80147 3.70866
# Velocity P-wave (km/s) = 6.88374 7.10696 6.99624
#
# Compressibility (1/GPa) = 0.01372228
#
# Stress axis : x y z
#
# Youngs Moduli (GPa) = 62.54657 77.44045 123.43644
#
# Poissons Ratio (x) = 0.49170 0.39200
# Poissons Ratio (y) = 0.39714 0.26106
# Poissons Ratio (z) = 0.19863 0.16378
#
# Static dielectric constant tensor:
#      x y z
#    x 1.964990 0.000000 0.035690 
#    y 0.000000 1.958080 0.000000 
#    z 0.035690 0.000000 2.101720 
# 
# From -- ./inp_files/80802.got.cif
#   From: 2010.05.17/outbox.cif.g08.bks.cpg/sg13_41_cif.got.tgz:80802.got - 2010.06.03 16:44:36.
