data_PCOD9226400
_publ_section_title
;
Structure prediction by ZEFSAII (Michael W. Deem and Ramdas Pophale) SiO2 
 PCOD9226400
Probable space group: P 2/C
;
_chemical_formula_sum "Si O2"
_cell_formula_units_Z 28
_cell_length_a 20.666845
_cell_length_b 15.785703
_cell_length_c 22.799158
_cell_angle_alpha 90.000000
_cell_angle_beta 167.770377
_cell_angle_gamma 90.000000
_cell_volume 1575.595063
_symmetry_space_group_name_H-M "P 2/C"
_symmetry_group_IT_number 13
_symmetry_cell_setting 'monoclinic'
loop_
_space_group_symop_operation_xyz
x,y,z
-x,y,1/2-z
-x,-y,-z
x,-y,1/2+z
loop_
_atom_site_type_symbol
_atom_site_label
_atom_site_fract_x
_atom_site_fract_y
_atom_site_fract_z
Si Si1 0.906014 0.427568 0.335265
Si Si2 0.197876 0.390614 0.712800
Si Si3 0.201031 0.068446 0.601320
Si Si4 0.165074 0.884657 0.603686
Si Si5 0.858249 0.671895 0.563902
Si Si6 0.750530 0.831453 0.630623
Si Si7 0.616842 0.216400 0.575904
O O1 0.948684 0.526919 0.386734
O O2 0.011194 0.376783 0.487115
O O3 0.088968 0.392941 0.442452
O O4 0.546525 0.414545 0.005243
O O5 0.238695 0.309435 0.790253
O O6 0.002799 0.089241 0.484173
O O7 0.975847 0.093031 0.349520
O O8 0.294918 0.970713 0.690932
O O9 0.488584 0.131072 0.857263
O O10 0.896408 0.848802 0.325746
O O11 0.402347 0.811732 0.832418
O O12 0.000000 0.637862 0.750000
O O13 0.054212 0.755665 0.722826
O O14 0.500000 0.690868 0.250000
O O15 0.579504 0.797084 0.537917
#
# Coordination Sequence:
#
# PCOD9226400 Si02
#       7
#     4   4   4   4   4   4   4
#     4  10  21  35  51  73  99 134 174 210 266 304
#     4  10  19  33  54  74 100 133 171 211 252 333
#     4   9  17  29  43  64  98 132 164 191 232 298
#     4   9  17  26  42  70  98 130 157 193 238 288
#     4  12  24  36  52  73 103 135 179 218 252 301
#     4  10  19  30  47  65  95 135 169 200 246 293
#     4  10  17  27  48  70 100 127 166 200 244 310
#
# _framework density 17.771063000000002
#
# number of rings (size 3 to 8) (size 9 to 14) (size 15 to 20)
#    0.000    2.000    1.429    3.429    4.000    3.429 
#    0.000    0.000    0.000    0.000    0.000    0.000 
#    0.000   22.857    0.000    0.000    0.000    0.000 
#
# Total GULP energy -156165.095318 kJ/mol
# GULP energy per Si atom -5577.324833 kJ/mol
# Density = 1.773062 g / cm^3
# Si number density = 17.771063 Si / 1000 Ang^3
#
#
#
# Elastic Constant Matrix: (Units=GPa)
#
#
# Indices 1 2 3 4 5 6 
#
# 1 37.2439 23.1458 21.9757 0.0000 -2.7002 0.0000
# 2 23.1458 85.9457 18.0078 0.0000 8.0093 0.0000
# 3 21.9757 18.0078 85.8605 0.0000 -6.2975 0.0000
# 4 0.0000 0.0000 0.0000 22.7696 0.0000 -7.8115
# 5 -2.7002 8.0093 -6.2975 0.0000 18.8188 0.0000
# 6 0.0000 0.0000 0.0000 -7.8115 0.0000 9.2717
#
#
#
# Elastic Compliance Matrix: (Units=1/GPa)
#
#
# Indices 1 2 3 4 5 6 
#
# 1 0.037247 -0.009183 -0.007103 0.000000 0.006876 0.000000
# 2 -0.009183 0.015180 -0.001439 0.000000 -0.008260 0.000000
# 3 -0.007103 -0.001439 0.014082 0.000000 0.004306 0.000000
# 4 0.000000 0.000000 0.000000 0.061773 0.000000 0.052045
# 5 0.006876 -0.008260 0.004306 0.000000 0.059081 0.000000
# 6 0.000000 0.000000 0.000000 0.052045 0.000000 0.151704
#
#
# Mechanical properties :
#
#
# Convention : Reuss Voigt Hill
#
# Bulk Modulus (GPa) = 32.19749 37.25650 34.72699
# Shear Modulus (GPa) = 12.99141 19.90006 16.44574
#
# Velocity S-wave (km/s) = 2.70671 3.34997 3.04538
# Velocity P-wave (km/s) = 5.28447 5.99778 5.65239
#
# Compressibility (1/GPa) = 0.03105833
#
# Stress axis : x y z
#
# Youngs Moduli (GPa) = 26.84807 65.87784 71.01080
#
# Poissons Ratio (x) = 0.60498 0.50437
# Poissons Ratio (y) = 0.24655 0.10219
# Poissons Ratio (z) = 0.19070 0.09480
#
# Static dielectric constant tensor:
#      x y z
#    x 1.591490 0.000000 -0.015070 
#    y 0.000000 1.634730 0.000000 
#    z -0.015070 0.000000 1.602280 
# 
# From -- ./inp_files/93887.got.cif
#   From: 2010.05.17/outbox.cif.g08.bks.cpg/sg13_47_cif.got.tgz:93887.got - 2010.06.03 16:44:36.
