data_PCOD9226543
_publ_section_title
;
Structure prediction by ZEFSAII (Michael W. Deem and Ramdas Pophale) SiO2 
 PCOD9226543
Probable space group: P 2/C
;
_chemical_formula_sum "Si O2"
_cell_formula_units_Z 28
_cell_length_a 10.127913
_cell_length_b 11.374257
_cell_length_c 20.424775
_cell_angle_alpha 90.000000
_cell_angle_beta 38.440335
_cell_angle_gamma 90.000000
_cell_volume 1462.785609
_symmetry_space_group_name_H-M "P 2/C"
_symmetry_group_IT_number 13
_symmetry_cell_setting 'monoclinic'
loop_
_space_group_symop_operation_xyz
x,y,z
-x,y,1/2-z
-x,-y,-z
x,-y,1/2+z
loop_
_atom_site_type_symbol
_atom_site_label
_atom_site_fract_x
_atom_site_fract_y
_atom_site_fract_z
Si Si1 0.923268 0.160449 0.466234
Si Si2 0.687024 0.970484 0.624206
Si Si3 0.656486 0.391118 0.922857
Si Si4 0.901767 0.297161 0.216502
Si Si5 0.968102 0.627338 0.481989
Si Si6 0.135056 0.433042 0.787288
Si Si7 0.420460 0.244937 0.425530
O O1 0.111471 0.068466 0.409760
O O2 0.946453 0.211837 0.384354
O O3 0.970853 0.274336 0.490645
O O4 0.719992 0.093094 0.573405
O O5 0.500000 0.970263 0.750000
O O6 0.666500 0.874056 0.573725
O O7 0.687732 0.387596 0.832284
O O8 0.896693 0.418134 0.851731
O O9 0.500000 0.500000 0.000000
O O10 0.592958 0.278571 0.991838
O O11 0.856786 0.426863 0.204821
O O12 0.666782 0.245004 0.311930
O O13 0.000000 0.314821 0.250000
O O14 0.727060 0.654300 0.551192
O O15 0.000000 0.500000 0.500000
O O16 0.124289 0.635192 0.359216
#
# Coordination Sequence:
#
# PCOD9226543 Si02
#       7
#     4   4   4   4   4   4   4
#     4  10  22  38  64  87 118 160 203 265 304 363
#     4  10  20  41  65  85 115 157 214 258 313 361
#     4  10  17  32  52  84 121 159 194 232 299 374
#     4  12  20  36  60  90 120 163 206 246 304 376
#     4  10  20  36  58  90 125 151 202 257 310 377
#     4  10  19  31  53  86 128 155 187 243 306 367
#     4  10  21  35  62  88 115 162 206 245 313 372
#
# _framework density 19.141559999999998
#
# number of rings (size 3 to 8) (size 9 to 14) (size 15 to 20)
#    0.000    1.714    5.714    0.000    0.000    0.000 
#    0.000    5.000   12.571    0.000    0.000    0.000 
#    0.000    0.000    0.000    0.000    0.000    0.000 
#
# Total GULP energy -155879.328587 kJ/mol
# GULP energy per Si atom -5567.118878 kJ/mol
# Density = 1.909799 g / cm^3
# Si number density = 19.141560 Si / 1000 Ang^3
#
#
#
# Elastic Constant Matrix: (Units=GPa)
#
#
# Indices 1 2 3 4 5 6 
#
# 1 32.0129 8.6386 17.0523 0.0000 10.1415 0.0000
# 2 8.6386 48.7987 20.6883 0.0000 8.4041 0.0000
# 3 17.0523 20.6883 110.9582 0.0000 28.6093 0.0000
# 4 0.0000 0.0000 0.0000 28.8301 0.0000 5.0871
# 5 10.1415 8.4041 28.6093 0.0000 24.4794 0.0000
# 6 0.0000 0.0000 0.0000 5.0871 0.0000 12.3225
#
#
#
# Elastic Compliance Matrix: (Units=1/GPa)
#
#
# Indices 1 2 3 4 5 6 
#
# 1 0.037008 -0.003692 -0.001965 0.000000 -0.011768 0.000000
# 2 -0.003692 0.022896 -0.002962 0.000000 -0.002870 0.000000
# 3 -0.001965 -0.002962 0.013446 0.000000 -0.013884 0.000000
# 4 0.000000 0.000000 0.000000 0.037411 0.000000 -0.015444
# 5 -0.011768 -0.002870 -0.013884 0.000000 0.062938 0.000000
# 6 0.000000 0.000000 0.000000 -0.015444 0.000000 0.087528
#
#
# Mechanical properties :
#
#
# Convention : Reuss Voigt Hill
#
# Bulk Modulus (GPa) = 17.82081 31.61424 24.71753
# Shear Modulus (GPa) = 16.82544 22.81910 19.82227
#
# Velocity S-wave (km/s) = 2.96801 3.45646 3.22151
# Velocity P-wave (km/s) = 4.59083 5.69924 5.17480
#
# Compressibility (1/GPa) = 0.05611416
#
# Stress axis : x y z
#
# Youngs Moduli (GPa) = 27.02086 43.67632 74.36910
#
# Poissons Ratio (x) = 0.16124 0.14613
# Poissons Ratio (y) = 0.09975 0.22026
# Poissons Ratio (z) = 0.05309 0.12936
#
# Static dielectric constant tensor:
#      x y z
#    x 1.711610 0.000000 0.028560 
#    y 0.000000 1.662880 0.000000 
#    z 0.028560 0.000000 1.722030 
# 
# From -- ./inp_files/78560.got.cif
#   From: 2010.05.17/outbox.cif.g08.bks.cpg/sg13_40_cif.got.tgz:78560.got - 2010.06.03 16:44:36.
