data_PCOD9226999
_publ_section_title
;
Structure prediction by ZEFSAII (Michael W. Deem and Ramdas Pophale) SiO2 
 PCOD9226999
Probable space group: P 2/C
;
_chemical_formula_sum "Si O2"
_cell_formula_units_Z 28
_cell_length_a 14.430098
_cell_length_b 10.180326
_cell_length_c 13.061623
_cell_angle_alpha 90.000000
_cell_angle_beta 52.442601
_cell_angle_gamma 90.000000
_cell_volume 1521.109828
_symmetry_space_group_name_H-M "P 2/C"
_symmetry_group_IT_number 13
_symmetry_cell_setting 'monoclinic'
loop_
_space_group_symop_operation_xyz
x,y,z
-x,y,1/2-z
-x,-y,-z
x,-y,1/2+z
loop_
_atom_site_type_symbol
_atom_site_label
_atom_site_fract_x
_atom_site_fract_y
_atom_site_fract_z
Si Si1 0.724245 0.757494 0.119334
Si Si2 0.624739 0.656578 0.384820
Si Si3 0.779929 0.143874 0.280452
Si Si4 0.000000 0.947702 0.750000
Si Si5 0.642990 0.925011 0.494013
Si Si6 0.500000 0.943336 0.250000
Si Si7 0.156680 0.975186 0.977574
Si Si8 0.349373 0.375861 0.038080
O O1 0.710354 0.673595 0.230711
O O2 0.610253 0.851129 0.193236
O O3 0.825464 0.867578 0.053568
O O4 0.711654 0.668189 0.026919
O O5 0.632115 0.786441 0.448059
O O6 0.658890 0.527240 0.424890
O O7 0.489467 0.648422 0.438532
O O8 0.889934 0.135661 0.284169
O O9 0.711549 0.280754 0.337207
O O10 0.689614 0.033567 0.382941
O O11 0.828558 0.102977 0.137257
O O12 0.041345 0.033958 0.624921
O O13 0.527083 0.971419 0.631282
O O14 0.740237 0.925146 0.517618
#
# Coordination Sequence:
#
# PCOD9226999 Si02
#       8
#     4   4   4   2   4   2   4   4
#     4  11  18  37  55  81 115 157 190 234 294 341
#     4  11  23  36  57  84 123 162 190 239 283 348
#     4  11  20  38  62  87 113 151 200 241 296 349
#     4  10  20  38  60  94 112 144 194 262 304 346
#     4  10  21  34  55  88 113 152 197 232 287 344
#     4  10  18  32  54  80 120 152 186 238 270 346
#     4  10  21  35  62  91 113 147 191 256 296 342
#     4  11  23  37  55  86 122 159 199 230 288 360
#
# _framework density 18.407613000000001
#
# number of rings (size 3 to 8) (size 9 to 14) (size 15 to 20)
#    0.000    1.429    7.143    0.429    4.000    2.286 
#    2.571    0.000    0.000    4.286    0.000    0.000 
#    0.000    0.000    0.000    0.000    0.000    0.000 
#
# Total GULP energy -156213.224959 kJ/mol
# GULP energy per Si atom -5579.043749 kJ/mol
# Density = 1.836572 g / cm^3
# Si number density = 18.407613 Si / 1000 Ang^3
#
#
#
# Elastic Constant Matrix: (Units=GPa)
#
#
# Indices 1 2 3 4 5 6 
#
# 1 31.5701 13.5778 7.7712 0.0000 9.5653 0.0000
# 2 13.5778 108.1706 37.5464 0.0000 6.9458 0.0000
# 3 7.7712 37.5464 128.0430 0.0000 10.1420 0.0000
# 4 0.0000 0.0000 0.0000 11.4546 0.0000 4.1385
# 5 9.5653 6.9458 10.1420 0.0000 20.7779 0.0000
# 6 0.0000 0.0000 0.0000 4.1385 0.0000 12.0686
#
#
#
# Elastic Compliance Matrix: (Units=1/GPa)
#
#
# Indices 1 2 3 4 5 6 
#
# 1 0.038244 -0.003778 0.000084 0.000000 -0.016384 0.000000
# 2 -0.003778 0.010750 -0.002888 0.000000 -0.000445 0.000000
# 3 0.000084 -0.002888 0.008923 0.000000 -0.003429 0.000000
# 4 0.000000 0.000000 0.000000 0.099646 0.000000 -0.034170
# 5 -0.016384 -0.000445 -0.003429 0.000000 0.057493 0.000000
# 6 0.000000 0.000000 0.000000 -0.034170 0.000000 0.094577
#
#
# Mechanical properties :
#
#
# Convention : Reuss Voigt Hill
#
# Bulk Modulus (GPa) = 22.34402 42.84162 32.59282
# Shear Modulus (GPa) = 14.80544 22.78610 18.79577
#
# Velocity S-wave (km/s) = 2.83911 3.52214 3.19891
# Velocity P-wave (km/s) = 4.78667 6.31388 5.60256
#
# Compressibility (1/GPa) = 0.04475469
#
# Stress axis : x y z
#
# Youngs Moduli (GPa) = 26.14810 93.02564 112.06844
#
# Poissons Ratio (x) = 0.35142 -0.00946
# Poissons Ratio (y) = 0.09878 0.32362
# Poissons Ratio (z) = -0.00221 0.26863
#
# Static dielectric constant tensor:
#      x y z
#    x 1.677370 0.000000 -0.007020 
#    y 0.000000 1.607510 0.000000 
#    z -0.007020 0.000000 1.706620 
# 
# From -- ./inp_files/54874.got.cif
#   From: 2010.05.17/outbox.cif.g08.bks.cpg/sg13_28_cif.got.tgz:54874.got - 2010.06.03 16:44:36.
