data_PCOD9226148
_publ_section_title
;
Structure prediction by ZEFSAII (Michael W. Deem and Ramdas Pophale) SiO2 
 PCOD9226148
Probable space group: P 2/C
;
_chemical_formula_sum "Si O2"
_cell_formula_units_Z 30
_cell_length_a 9.845621
_cell_length_b 17.350833
_cell_length_c 10.498652
_cell_angle_alpha 90.000000
_cell_angle_beta 62.340157
_cell_angle_gamma 90.000000
_cell_volume 1588.521308
_symmetry_space_group_name_H-M "P 2/C"
_symmetry_group_IT_number 13
_symmetry_cell_setting 'monoclinic'
loop_
_space_group_symop_operation_xyz
x,y,z
-x,y,1/2-z
-x,-y,-z
x,-y,1/2+z
loop_
_atom_site_type_symbol
_atom_site_label
_atom_site_fract_x
_atom_site_fract_y
_atom_site_fract_z
Si Si1 0.779326 0.875617 0.813124
Si Si2 0.861016 0.273486 0.412886
Si Si3 0.467224 0.943392 0.899530
Si Si4 0.189571 0.564713 0.654002
Si Si5 0.136615 0.131117 0.508263
Si Si6 0.955524 0.699963 0.411858
Si Si7 0.832652 0.541555 0.559255
Si Si8 0.000000 0.015307 0.750000
O O1 0.791848 0.810232 0.914286
O O2 0.602431 0.881123 0.851663
O O3 0.869817 0.858973 0.641593
O O4 0.854565 0.957562 0.818172
O O5 0.768010 0.349084 0.408833
O O6 0.000000 0.274257 0.250000
O O7 0.915111 0.286317 0.534779
O O8 0.500000 0.983978 0.750000
O O9 0.300282 0.906278 0.970923
O O10 0.500000 0.000000 0.000000
O O11 0.244888 0.540733 0.769331
O O12 0.240243 0.505220 0.524289
O O13 0.000000 0.563238 0.750000
O O14 0.122138 0.216671 0.569244
O O15 0.012060 0.072698 0.623448
O O16 0.856796 0.630571 0.512580
O O17 0.000000 0.674699 0.250000
O O18 0.000000 0.500000 0.500000
#
# Coordination Sequence:
#
# PCOD9226148 Si02
#       8
#     4   4   4   4   4   4   4   2
#     4  11  21  36  59  78 103 145 182 224 267 323
#     4  11  18  33  50  74 106 138 176 222 269 316
#     4  10  22  41  58  76 106 142 184 224 268 327
#     4   9  16  26  43  69 104 141 171 208 262 326
#     4  11  22  36  53  81 109 142 179 226 272 321
#     4  12  21  32  49  78 113 138 175 228 272 320
#     4  10  16  27  45  70 107 144 171 207 270 324
#     4  12  20  34  56  80 112 132 180 222 274 316
#
# _framework density 18.885487999999999
#
# number of rings (size 3 to 8) (size 9 to 14) (size 15 to 20)
#    0.000    1.333    8.000    1.600    0.000    0.000 
#    2.400    0.000    0.000    0.000    0.000    0.933 
#    0.000    0.267    0.000    0.000    0.000    0.000 
#
# Total GULP energy -167065.895749 kJ/mol
# GULP energy per Si atom -5568.863192 kJ/mol
# Density = 1.884250 g / cm^3
# Si number density = 18.885488 Si / 1000 Ang^3
#
#
#
# Elastic Constant Matrix: (Units=GPa)
#
#
# Indices 1 2 3 4 5 6 
#
# 1 39.3398 22.3182 32.2926 0.0000 18.6988 0.0000
# 2 22.3182 118.6185 37.3289 0.0000 15.4380 0.0000
# 3 32.2926 37.3289 95.9481 0.0000 42.9043 0.0000
# 4 0.0000 0.0000 0.0000 23.8468 0.0000 16.1438
# 5 18.6988 15.4380 42.9043 0.0000 31.3810 0.0000
# 6 0.0000 0.0000 0.0000 16.1438 0.0000 13.3804
#
#
#
# Elastic Compliance Matrix: (Units=1/GPa)
#
#
# Indices 1 2 3 4 5 6 
#
# 1 0.038484 -0.003773 -0.005302 0.000000 -0.013827 0.000000
# 2 -0.003773 0.009988 -0.003665 0.000000 0.002345 0.000000
# 3 -0.005302 -0.003665 0.029368 0.000000 -0.035190 0.000000
# 4 0.000000 0.000000 0.000000 0.228887 0.000000 -0.276157
# 5 -0.013827 0.002345 -0.035190 0.000000 0.087064 0.000000
# 6 0.000000 0.000000 0.000000 -0.276157 0.000000 0.407927
#
#
# Mechanical properties :
#
#
# Convention : Reuss Voigt Hill
#
# Bulk Modulus (GPa) = 19.09777 48.64286 33.87032
# Shear Modulus (GPa) = 5.91961 24.51943 15.21952
#
# Velocity S-wave (km/s) = 1.77236 3.60713 2.84189
# Velocity P-wave (km/s) = 3.78454 6.56972 5.36115
#
# Compressibility (1/GPa) = 0.05236212
#
# Stress axis : x y z
#
# Youngs Moduli (GPa) = 25.98489 100.11665 34.05044
#
# Poissons Ratio (x) = 0.37772 0.18053
# Poissons Ratio (y) = 0.09804 0.12478
# Poissons Ratio (z) = 0.13777 0.36689
#
# Static dielectric constant tensor:
#      x y z
#    x 1.528200 0.000000 0.125720 
#    y 0.000000 1.687200 0.000000 
#    z 0.125720 0.000000 1.635040 
# 
# From -- ./inp_files/34386.got.cif
#   From: 2010.05.17/outbox.cif.g08.bks.cpg/sg13_18_cif.got.tgz:34386.got - 2010.06.03 16:44:36.
