data_PCOD9226255
_publ_section_title
;
Structure prediction by ZEFSAII (Michael W. Deem and Ramdas Pophale) SiO2 
 PCOD9226255
Probable space group: P 2/C
;
_chemical_formula_sum "Si O2"
_cell_formula_units_Z 18
_cell_length_a 8.946646
_cell_length_b 9.734232
_cell_length_c 10.836795
_cell_angle_alpha 90.000000
_cell_angle_beta 108.010931
_cell_angle_gamma 90.000000
_cell_volume 897.516000
_symmetry_space_group_name_H-M "P 2/C"
_symmetry_group_IT_number 13
_symmetry_cell_setting 'monoclinic'
loop_
_space_group_symop_operation_xyz
x,y,z
-x,y,1/2-z
-x,-y,-z
x,-y,1/2+z
loop_
_atom_site_type_symbol
_atom_site_label
_atom_site_fract_x
_atom_site_fract_y
_atom_site_fract_z
Si Si1 0.101730 0.474039 0.900684
Si Si2 0.000000 0.033119 0.250000
Si Si3 0.400662 0.978360 0.099640
Si Si4 0.814895 0.232450 0.068215
Si Si5 0.884189 0.177261 0.518292
O O1 0.213064 0.607393 0.915981
O O2 0.167120 0.319857 0.930670
O O3 0.000000 0.475659 0.750000
O O4 0.000000 0.500000 0.000000
O O5 0.978809 0.927084 0.131831
O O6 0.846617 0.131449 0.192684
O O7 0.500000 0.979154 0.250000
O O8 0.266620 0.095059 0.066125
O O9 0.500000 0.000000 0.000000
O O10 0.310927 0.834586 0.054096
O O11 0.986899 0.218154 0.049823
#
# Coordination Sequence:
#
# PCOD9226255 Si02
#       5
#     4   2   4   4   4
#     4  10  20  36  60  94 118 148 197 253 298 348
#     4  10  16  30  60  84 114 142 196 238 296 326
#     4  11  26  39  58  88 125 159 202 242 299 354
#     4  10  22  37  63  88 120 155 203 248 299 351
#     4  10  22  37  63  88 120 155 203 248 299 351
#
# _framework density 20.055353
#
# number of rings (size 3 to 8) (size 9 to 14) (size 15 to 20)
#    0.000    1.778    2.222    2.667   12.444    0.000 
#    0.000    2.222    0.000    0.000    0.000    0.000 
#    0.000    0.000    0.000    0.000    0.000    0.000 
#
# Total GULP energy -100279.985697 kJ/mol
# GULP energy per Si atom -5571.110317 kJ/mol
# Density = 2.000971 g / cm^3
# Si number density = 20.055353 Si / 1000 Ang^3
#
#
#
# Elastic Constant Matrix: (Units=GPa)
#
#
# Indices 1 2 3 4 5 6 
#
# 1 64.1204 14.7439 37.0983 0.0000 0.5858 0.0000
# 2 14.7439 195.8960 62.2842 0.0000 19.5392 0.0000
# 3 37.0983 62.2842 180.1639 0.0000 13.9817 0.0000
# 4 0.0000 0.0000 0.0000 12.4227 0.0000 -2.3216
# 5 0.5858 19.5392 13.9817 0.0000 31.3802 0.0000
# 6 0.0000 0.0000 0.0000 -2.3216 0.0000 16.5664
#
#
#
# Elastic Compliance Matrix: (Units=1/GPa)
#
#
# Indices 1 2 3 4 5 6 
#
# 1 0.017777 -0.000322 -0.003666 0.000000 0.001502 0.000000
# 2 -0.000322 0.005986 -0.001776 0.000000 -0.002930 0.000000
# 3 -0.003666 -0.001776 0.007073 0.000000 -0.001977 0.000000
# 4 0.000000 0.000000 0.000000 0.082663 0.000000 0.011584
# 5 0.001502 -0.002930 -0.001977 0.000000 0.034544 0.000000
# 6 0.000000 0.000000 0.000000 0.011584 0.000000 0.061986
#
#
# Mechanical properties :
#
#
# Convention : Reuss Voigt Hill
#
# Bulk Modulus (GPa) = 51.79155 74.27035 63.03095
# Shear Modulus (GPa) = 21.93057 33.81080 27.87069
#
# Velocity S-wave (km/s) = 3.31040 4.11039 3.73190
# Velocity P-wave (km/s) = 6.36334 7.72271 7.07574
#
# Compressibility (1/GPa) = 0.01930817
#
# Stress axis : x y z
#
# Youngs Moduli (GPa) = 56.25281 167.06230 141.39079
#
# Poissons Ratio (x) = 0.05384 0.51829
# Poissons Ratio (y) = 0.01813 0.25105
# Poissons Ratio (z) = 0.20620 0.29663
#
# Static dielectric constant tensor:
#      x y z
#    x 1.761130 0.000000 -0.077410 
#    y 0.000000 1.792650 0.000000 
#    z -0.077410 0.000000 1.759130 
# 
# From -- ./inp_files/28764.got.cif
#   From: 2010.05.17/outbox.cif.g08.bks.cpg/sg13_15_cif.got.tgz:28764.got - 2010.06.03 16:44:36.
