data_PCOD9226402
_publ_section_title
;
Structure prediction by ZEFSAII (Michael W. Deem and Ramdas Pophale) SiO2 
 PCOD9226402
Probable space group: P 2/C
;
_chemical_formula_sum "Si O2"
_cell_formula_units_Z 26
_cell_length_a 27.122561
_cell_length_b 9.472445
_cell_length_c 5.584391
_cell_angle_alpha 90.000000
_cell_angle_beta 57.177601
_cell_angle_gamma 90.000000
_cell_volume 1205.677823
_symmetry_space_group_name_H-M "P 2/C"
_symmetry_group_IT_number 13
_symmetry_cell_setting 'monoclinic'
loop_
_space_group_symop_operation_xyz
x,y,z
-x,y,1/2-z
-x,-y,-z
x,-y,1/2+z
loop_
_atom_site_type_symbol
_atom_site_label
_atom_site_fract_x
_atom_site_fract_y
_atom_site_fract_z
Si Si1 0.673793 0.348261 0.745584
Si Si2 0.150343 0.724726 0.095666
Si Si3 0.238604 0.005116 0.339785
Si Si4 0.066849 0.945364 0.332660
Si Si5 0.370937 0.329225 0.137567
Si Si6 0.193411 0.689117 0.484453
Si Si7 0.500000 0.590416 0.250000
O O1 0.663504 0.280319 0.510607
O O2 0.644109 0.502570 0.805343
O O3 0.742113 0.368011 0.624011
O O4 0.647603 0.273840 0.051687
O O5 0.154459 0.660283 0.820747
O O6 0.195894 0.858839 0.959549
O O7 0.084668 0.783091 0.310175
O O8 0.171030 0.645766 0.280851
O O9 0.201568 0.859407 0.442303
O O10 0.272285 0.999792 0.501183
O O11 0.091822 0.012382 0.508751
O O12 0.000000 0.000000 0.500000
O O13 0.440161 0.320774 0.912139
O O14 0.500000 0.500000 0.500000
#
# Coordination Sequence:
#
# PCOD9226402 Si02
#       7
#     4   4   4   4   4   4   2
#     4  10  18  29  40  61  85 114 145 176 215 248
#     4  10  17  28  40  57  81 113 148 177 208 255
#     4   8  14  23  36  51  71 101 134 165 196 237
#     4  10  18  27  41  60  82 111 152 183 209 251
#     4  10  19  30  45  62  90 115 141 176 209 268
#     4  10  18  26  41  57  79 113 148 178 208 250
#     4  12  16  30  48  68  80 120 150 164 218 264
#
# _framework density 21.564633000000001
#
# number of rings (size 3 to 8) (size 9 to 14) (size 15 to 20)
#    0.000    2.154    3.077    4.615    0.000    0.000 
#    0.000    0.000    0.000    0.000    0.000    0.000 
#    0.000    0.000    0.000  211.846    0.000 1427.692 
#
# Total GULP energy -144789.491936 kJ/mol
# GULP energy per Si atom -5568.826613 kJ/mol
# Density = 2.151555 g / cm^3
# Si number density = 21.564633 Si / 1000 Ang^3
#
#
#
# Elastic Constant Matrix: (Units=GPa)
#
#
# Indices 1 2 3 4 5 6 
#
# 1 94.7838 -6.6132 56.9166 0.0000 22.9996 0.0000
# 2 -6.6132 46.8438 -15.0798 0.0000 0.3038 0.0000
# 3 56.9166 -15.0798 122.1784 0.0000 56.5470 0.0000
# 4 0.0000 0.0000 0.0000 -12.7357 0.0000 -6.7766
# 5 22.9996 0.3038 56.5470 0.0000 72.3559 0.0000
# 6 0.0000 0.0000 0.0000 -6.7766 0.0000 19.2286
#
#
#
# Elastic Compliance Matrix: (Units=1/GPa)
#
#
# Indices 1 2 3 4 5 6 
#
# 1 0.014704 -0.000315 -0.007404 0.000000 0.001114 0.000000
# 2 -0.000315 0.022820 0.004639 0.000000 -0.003621 0.000000
# 3 -0.007404 0.004639 0.017431 0.000000 -0.011289 0.000000
# 4 0.000000 0.000000 0.000000 -0.066120 0.000000 -0.023302
# 5 0.001114 -0.003621 -0.011289 0.000000 0.022304 0.000000
# 6 0.000000 0.000000 0.000000 -0.023302 0.000000 0.043794
#
#
# Mechanical properties :
#
#
# Convention : Reuss Voigt Hill
#
# Bulk Modulus (GPa) = 20.49362 37.13925 28.81644
# Shear Modulus (GPa) = 64.63448 31.00860 47.82154
#
# Velocity S-wave (km/s) = 5.48065 3.79613 4.71424
# Velocity P-wave (km/s) = 7.04088 6.03935 6.55926
#
# Compressibility (1/GPa) = 0.04879568
#
# Stress axis : x y z
#
# Youngs Moduli (GPa) = 68.00723 43.82111 57.36795
#
# Poissons Ratio (x) = 0.01380 0.42478
# Poissons Ratio (y) = 0.02142 -0.26615
# Poissons Ratio (z) = 0.50355 -0.20330
#
# Static dielectric constant tensor:
#      x y z
#    x 1.919240 0.000000 -0.034180 
#    y 0.000000 1.820730 0.000000 
#    z -0.034180 0.000000 1.946920 
# 
# From -- ./inp_files/7519.got.cif
#   From: 2010.05.17/outbox.cif.g08.bks.cpg/sg13_4_cif.got.tgz:7519.got - 2010.06.03 16:44:36.
