data_PCOD9226776
_publ_section_title
;
Structure prediction by ZEFSAII (Michael W. Deem and Ramdas Pophale) SiO2 
 PCOD9226776
Probable space group: P 2/C
;
_chemical_formula_sum "Si O2"
_cell_formula_units_Z 20
_cell_length_a 8.662351
_cell_length_b 23.143291
_cell_length_c 9.896323
_cell_angle_alpha 90.000000
_cell_angle_beta 149.064912
_cell_angle_gamma 90.000000
_cell_volume 1019.891971
_symmetry_space_group_name_H-M "P 2/C"
_symmetry_group_IT_number 13
_symmetry_cell_setting 'monoclinic'
loop_
_space_group_symop_operation_xyz
x,y,z
-x,y,1/2-z
-x,-y,-z
x,-y,1/2+z
loop_
_atom_site_type_symbol
_atom_site_label
_atom_site_fract_x
_atom_site_fract_y
_atom_site_fract_z
Si Si1 0.319610 0.667146 0.258267
Si Si2 0.845638 0.151009 0.989214
Si Si3 0.685939 0.466512 0.750142
Si Si4 0.310339 0.032042 0.742611
Si Si5 0.826294 0.736467 0.764428
O O1 0.500000 0.667410 0.250000
O O2 0.293900 0.600517 0.279264
O O3 0.498820 0.711634 0.488559
O O4 0.992447 0.691726 0.984952
O O5 0.500000 0.175180 0.750000
O O6 0.780922 0.099946 0.833812
O O7 0.000000 0.130450 0.250000
O O8 0.082987 0.199317 0.119344
O O9 0.500000 0.467430 0.750000
O O10 0.500000 0.500000 0.500000
O O11 0.000000 0.500000 0.000000
O O12 0.500000 0.024695 0.750000
O O13 0.000000 0.000000 0.500000
O O14 0.500000 0.000000 0.000000
O O15 0.000000 0.735260 0.750000
#
# Coordination Sequence:
#
# PCOD9226776 Si02
#       5
#     4   4   4   4   4
#     4   9  17  28  46  73 105 136 173 223 278 326
#     4  10  18  30  49  77 110 142 180 231 286 336
#     4  11  22  37  56  82 115 151 189 232 279 338
#     4  11  22  37  56  82 115 151 188 230 278 338
#     4   9  15  26  45  72 104 134 167 224 288 324
#
# _framework density 19.609919999999999
#
# number of rings (size 3 to 8) (size 9 to 14) (size 15 to 20)
#    0.000    2.000    0.000    7.800    0.000    3.200 
#    0.000    0.000    0.000    0.000    0.000   21.000 
#    0.000    3.200    0.000    0.000    0.000    0.000 
#
# Total GULP energy -111358.373018 kJ/mol
# GULP energy per Si atom -5567.918651 kJ/mol
# Density = 1.956529 g / cm^3
# Si number density = 19.609920 Si / 1000 Ang^3
#
#
#
# Elastic Constant Matrix: (Units=GPa)
#
#
# Indices 1 2 3 4 5 6 
#
# 1 17.1309 22.3171 6.8701 0.0000 6.1115 0.0000
# 2 22.3171 163.0985 64.8573 0.0000 -10.6226 0.0000
# 3 6.8701 64.8573 160.1209 0.0000 2.7249 0.0000
# 4 0.0000 0.0000 0.0000 44.8013 0.0000 -3.3300
# 5 6.1115 -10.6226 2.7249 0.0000 27.1828 0.0000
# 6 0.0000 0.0000 0.0000 -3.3300 0.0000 23.4117
#
#
#
# Elastic Compliance Matrix: (Units=1/GPa)
#
#
# Indices 1 2 3 4 5 6 
#
# 1 0.084769 -0.014234 0.002552 0.000000 -0.024877 0.000000
# 2 -0.014234 0.009980 -0.003558 0.000000 0.007457 0.000000
# 3 0.002552 -0.003558 0.007624 0.000000 -0.002729 0.000000
# 4 0.000000 0.000000 0.000000 0.022559 0.000000 0.003209
# 5 -0.024877 0.007457 -0.002729 0.000000 0.045568 0.000000
# 6 0.000000 0.000000 0.000000 0.003209 0.000000 0.043170
#
#
# Mechanical properties :
#
#
# Convention : Reuss Voigt Hill
#
# Bulk Modulus (GPa) = 13.91000 58.71546 36.31273
# Shear Modulus (GPa) = 18.64872 35.49955 27.07414
#
# Velocity S-wave (km/s) = 3.08715 4.25936 3.71972
# Velocity P-wave (km/s) = 4.45152 7.36181 6.08327
#
# Compressibility (1/GPa) = 0.07189074
#
# Stress axis : x y z
#
# Youngs Moduli (GPa) = 11.79678 100.20402 131.17191
#
# Poissons Ratio (x) = 1.42631 -0.33473
# Poissons Ratio (y) = 0.16792 0.46677
# Poissons Ratio (z) = -0.03010 0.35657
#
# Static dielectric constant tensor:
#      x y z
#    x 1.664670 0.000000 -0.017810 
#    y 0.000000 1.751690 0.000000 
#    z -0.017810 0.000000 1.678800 
# 
# From -- ./inp_files/13857.got.cif
#   From: 2010.05.17/outbox.cif.g08.bks.cpg/sg13_7_cif.got.tgz:13857.got - 2010.06.03 16:44:36.
