data_PCOD9226067
_publ_section_title
;
Structure prediction by ZEFSAII (Michael W. Deem and Ramdas Pophale) SiO2 
 PCOD9226067
Probable space group: P 2/C
;
_chemical_formula_sum "Si O2"
_cell_formula_units_Z 20
_cell_length_a 21.519275
_cell_length_b 5.413936
_cell_length_c 20.525986
_cell_angle_alpha 90.000000
_cell_angle_beta 161.159504
_cell_angle_gamma 90.000000
_cell_volume 772.252795
_symmetry_space_group_name_H-M "P 2/C"
_symmetry_group_IT_number 13
_symmetry_cell_setting 'monoclinic'
loop_
_space_group_symop_operation_xyz
x,y,z
-x,y,1/2-z
-x,-y,-z
x,-y,1/2+z
loop_
_atom_site_type_symbol
_atom_site_label
_atom_site_fract_x
_atom_site_fract_y
_atom_site_fract_z
Si Si1 0.090757 0.391126 0.474238
Si Si2 0.731450 0.594852 0.982655
Si Si3 0.675804 0.901585 0.478544
Si Si4 0.968696 0.884816 0.040308
Si Si5 0.418883 0.942582 0.348728
O O1 0.171659 0.502027 0.487415
O O2 0.962385 0.606437 0.380451
O O3 0.283848 0.300943 0.706529
O O4 0.988622 0.119130 0.371118
O O5 0.500000 0.619189 0.750000
O O6 0.792848 0.861664 0.069458
O O7 0.768371 0.368400 0.067509
O O8 0.500000 0.879045 0.250000
O O9 0.576261 0.948710 0.448918
O O10 0.740059 0.849585 0.823094
O O11 0.000000 0.000000 0.000000
O O12 0.500000 0.000000 0.500000
#
# Coordination Sequence:
#
# PCOD9226067 Si02
#       5
#     4   4   4   4   4
#     4  10  19  33  53  79 105 138 183 223 269 314
#     4  10  15  28  48  72 100 131 174 220 255 309
#     4  10  17  29  48  73 104 137 173 211 266 318
#     4  10  20  35  52  75 107 146 183 222 263 322
#     4  10  22  34  52  84 116 140 171 227 282 333
#
# _framework density 25.898256
#
# number of rings (size 3 to 8) (size 9 to 14) (size 15 to 20)
#    1.200    0.800    4.000    4.200    0.000    0.800 
#    0.000    0.000    0.000    0.000    0.000   15.400 
#    0.000    0.000    0.000    0.000    0.000    0.000 
#
# Total GULP energy -111642.347178 kJ/mol
# GULP energy per Si atom -5582.117359 kJ/mol
# Density = 2.583931 g / cm^3
# Si number density = 25.898256 Si / 1000 Ang^3
#
#
#
# Elastic Constant Matrix: (Units=GPa)
#
#
# Indices 1 2 3 4 5 6 
#
# 1 161.6332 42.5821 25.5229 0.0000 6.1338 0.0000
# 2 42.5821 227.9158 23.9687 0.0000 -8.7057 0.0000
# 3 25.5229 23.9687 81.7025 0.0000 7.7313 0.0000
# 4 0.0000 0.0000 0.0000 31.7615 0.0000 -4.0825
# 5 6.1338 -8.7057 7.7313 0.0000 39.5685 0.0000
# 6 0.0000 0.0000 0.0000 -4.0825 0.0000 41.7003
#
#
#
# Elastic Compliance Matrix: (Units=1/GPa)
#
#
# Indices 1 2 3 4 5 6 
#
# 1 0.006789 -0.001127 -0.001699 0.000000 -0.000968 0.000000
# 2 -0.001127 0.004779 -0.001188 0.000000 0.001458 0.000000
# 3 -0.001699 -0.001188 0.013366 0.000000 -0.002610 0.000000
# 4 0.000000 0.000000 0.000000 0.031886 0.000000 0.003122
# 5 -0.000968 0.001458 -0.002610 0.000000 0.026253 0.000000
# 6 0.000000 0.000000 0.000000 0.003122 0.000000 0.024286
#
#
# Mechanical properties :
#
#
# Convention : Reuss Voigt Hill
#
# Bulk Modulus (GPa) = 59.14845 72.82211 65.98528
# Shear Modulus (GPa) = 41.31536 47.88456 44.59996
#
# Velocity S-wave (km/s) = 3.99845 4.30461 4.15435
# Velocity P-wave (km/s) = 6.64869 7.27226 6.96746
#
# Compressibility (1/GPa) = 0.01690661
#
# Stress axis : x y z
#
# Youngs Moduli (GPa) = 147.30508 209.26120 74.81918
#
# Poissons Ratio (x) = 0.23578 0.12708
# Poissons Ratio (y) = 0.16597 0.08888
# Poissons Ratio (z) = 0.25020 0.24859
#
# Static dielectric constant tensor:
#      x y z
#    x 2.042020 0.000000 -0.073610 
#    y 0.000000 2.109450 0.000000 
#    z -0.073610 0.000000 1.970310 
# 
# From -- ./inp_files/64911.got.cif
#   From: 2010.05.17/outbox.cif.g08.bks.cpg/sg13_33_cif.got.tgz:64911.got - 2010.06.03 16:44:36.
