data_PCOD9226499
_publ_section_title
;
Structure prediction by ZEFSAII (Michael W. Deem and Ramdas Pophale) SiO2 
 PCOD9226499
Probable space group: P 2/C
;
_chemical_formula_sum "Si O2"
_cell_formula_units_Z 30
_cell_length_a 15.272444
_cell_length_b 13.676658
_cell_length_c 15.481326
_cell_angle_alpha 90.000000
_cell_angle_beta 27.440877
_cell_angle_gamma 90.000000
_cell_volume 1490.185456
_symmetry_space_group_name_H-M "P 2/C"
_symmetry_group_IT_number 13
_symmetry_cell_setting 'monoclinic'
loop_
_space_group_symop_operation_xyz
x,y,z
-x,y,1/2-z
-x,-y,-z
x,-y,1/2+z
loop_
_atom_site_type_symbol
_atom_site_label
_atom_site_fract_x
_atom_site_fract_y
_atom_site_fract_z
Si Si1 0.390081 0.303737 0.260858
Si Si2 0.865023 0.856128 0.228371
Si Si3 0.504658 0.193798 0.937863
Si Si4 0.776233 0.881440 0.692491
Si Si5 0.990178 0.362863 0.659454
Si Si6 0.664431 0.053923 0.665785
Si Si7 0.000000 0.010515 0.250000
Si Si8 0.394730 0.601373 0.079036
O O1 0.500000 0.276204 0.250000
O O2 0.314180 0.206945 0.282458
O O3 0.204054 0.369140 0.438075
O O4 0.538304 0.359209 0.072101
O O5 0.652716 0.845768 0.380604
O O6 0.932080 0.752577 0.209236
O O7 0.894030 0.939254 0.274086
O O8 0.000706 0.875438 0.026108
O O9 0.578006 0.151388 0.783616
O O10 0.531592 0.311260 0.922151
O O11 0.303268 0.145031 0.142819
O O12 0.707242 0.980702 0.707841
O O13 0.832472 0.408491 0.733585
O O14 0.000000 0.397542 0.750000
O O15 0.500000 0.008498 0.750000
O O16 0.847405 0.065722 0.443714
O O17 0.500000 0.500000 0.000000
#
# Coordination Sequence:
#
# PCOD9226499 Si02
#       8
#     4   4   4   4   4   4   2   4
#     4  10  18  31  55  87 112 140 177 232 285 334
#     4   9  18  31  51  81 113 144 176 227 280 329
#     4  10  21  36  54  77 108 147 185 232 284 330
#     4   9  19  31  53  82 112 142 181 228 279 329
#     4  10  17  30  57  84 111 136 176 227 287 339
#     4  11  22  34  51  77 111 156 193 223 257 323
#     4  10  20  32  52  82 116 152 184 224 266 322
#     4  10  22  38  55  81 111 145 182 236 292 341
#
# _framework density 20.131723999999998
#
# number of rings (size 3 to 8) (size 9 to 14) (size 15 to 20)
#    0.000    2.133    2.000    1.600    0.000    3.733 
#    0.000    0.667    0.000    0.000    0.000    0.000 
#    0.000    0.000    0.000    0.000    0.000    0.000 
#
# Total GULP energy -167362.074189 kJ/mol
# GULP energy per Si atom -5578.735806 kJ/mol
# Density = 2.008590 g / cm^3
# Si number density = 20.131724 Si / 1000 Ang^3
#
#
#
# Elastic Constant Matrix: (Units=GPa)
#
#
# Indices 1 2 3 4 5 6 
#
# 1 29.4758 15.2008 13.4928 0.0000 -0.0594 0.0000
# 2 15.2008 71.9789 20.9083 0.0000 8.5083 0.0000
# 3 13.4928 20.9083 117.5784 0.0000 4.1695 0.0000
# 4 0.0000 0.0000 0.0000 1.5351 0.0000 -14.2626
# 5 -0.0594 8.5083 4.1695 0.0000 31.0429 0.0000
# 6 0.0000 0.0000 0.0000 -14.2626 0.0000 -1.2619
#
#
#
# Elastic Compliance Matrix: (Units=1/GPa)
#
#
# Indices 1 2 3 4 5 6 
#
# 1 0.039379 -0.007683 -0.003246 0.000000 0.002617 0.000000
# 2 -0.007683 0.016580 -0.001914 0.000000 -0.004302 0.000000
# 3 -0.003246 -0.001914 0.009243 0.000000 -0.000723 0.000000
# 4 0.000000 0.000000 0.000000 0.006145 0.000000 -0.069452
# 5 0.002617 -0.004302 -0.000723 0.000000 0.033495 0.000000
# 6 0.000000 0.000000 0.000000 -0.069452 0.000000 -0.007475
#
#
# Mechanical properties :
#
#
# Convention : Reuss Voigt Hill
#
# Bulk Modulus (GPa) = 25.30526 35.35965 30.33245
# Shear Modulus (GPa) = 36.70422 17.55865 27.13143
#
# Velocity S-wave (km/s) = 4.27453 2.95649 3.67508
# Velocity P-wave (km/s) = 6.07941 5.40895 5.75395
#
# Compressibility (1/GPa) = 0.03951748
#
# Stress axis : x y z
#
# Youngs Moduli (GPa) = 25.39419 60.31377 108.18492
#
# Poissons Ratio (x) = 0.46338 0.35112
# Poissons Ratio (y) = 0.19510 0.20708
# Poissons Ratio (z) = 0.08242 0.11545
#
# Static dielectric constant tensor:
#      x y z
#    x 1.727450 0.000000 -0.006470 
#    y 0.000000 1.711590 0.000000 
#    z -0.006470 0.000000 1.783050 
# 
# From -- ./inp_files/53864.got.cif
#   From: 2010.05.17/outbox.cif.g08.bks.cpg/sg13_27_cif.got.tgz:53864.got - 2010.06.03 16:44:36.
