data_PCOD9226211
_publ_section_title
;
Structure prediction by ZEFSAII (Michael W. Deem and Ramdas Pophale) SiO2 
 PCOD9226211
Probable space group: P 2/C
;
_chemical_formula_sum "Si O2"
_cell_formula_units_Z 20
_cell_length_a 7.829877
_cell_length_b 23.153856
_cell_length_c 5.455791
_cell_angle_alpha 90.000000
_cell_angle_beta 120.535475
_cell_angle_gamma 90.000000
_cell_volume 851.918163
_symmetry_space_group_name_H-M "P 2/C"
_symmetry_group_IT_number 13
_symmetry_cell_setting 'monoclinic'
loop_
_space_group_symop_operation_xyz
x,y,z
-x,y,1/2-z
-x,-y,-z
x,-y,1/2+z
loop_
_atom_site_type_symbol
_atom_site_label
_atom_site_fract_x
_atom_site_fract_y
_atom_site_fract_z
Si Si1 0.377019 0.348243 0.910114
Si Si2 0.269789 0.476325 0.818977
Si Si3 0.242875 0.163860 0.420031
Si Si4 0.766686 0.778018 0.086676
Si Si5 0.758299 0.968821 0.581314
O O1 0.500000 0.338277 0.750000
O O2 0.262324 0.407711 0.778402
O O3 0.262098 0.289500 0.882339
O O4 0.500000 0.359696 0.250000
O O5 0.186604 0.507746 0.521467
O O6 0.500000 0.500000 0.000000
O O7 0.309112 0.186449 0.734072
O O8 0.301074 0.097504 0.423327
O O9 0.000000 0.165422 0.250000
O O10 0.306465 0.203204 0.235814
O O11 0.000000 0.790360 0.250000
O O12 0.000000 0.969685 0.750000
O O13 0.697611 0.993062 0.271337
#
# Coordination Sequence:
#
# PCOD9226211 Si02
#       5
#     4   4   4   4   4
#     4  12  21  33  55  81 101 128 175 220 247 296
#     4  10  16  30  49  75  97 124 158 206 255 305
#     4   9  17  31  47  66 101 144 170 197 256 317
#     4  10  21  35  50  71 106 145 170 198 255 318
#     4   9  15  23  40  67  95 125 166 212 249 289
#
# _framework density 23.476431999999999
#
# number of rings (size 3 to 8) (size 9 to 14) (size 15 to 20)
#    0.000    2.000    4.000    2.400    0.000    4.800 
#    0.000    0.000    0.000    1.200    0.000    0.000 
#    0.000   56.000    0.000    0.000    0.000    0.000 
#
# Total GULP energy -111886.996881 kJ/mol
# GULP energy per Si atom -5594.349844 kJ/mol
# Density = 2.342300 g / cm^3
# Si number density = 23.476432 Si / 1000 Ang^3
#
#
#
# Elastic Constant Matrix: (Units=GPa)
#
#
# Indices 1 2 3 4 5 6 
#
# 1 107.3042 29.7444 40.1348 0.0000 -37.7943 0.0000
# 2 29.7444 152.4546 34.1455 0.0000 -42.2586 0.0000
# 3 40.1348 34.1455 161.0090 0.0000 -39.6424 0.0000
# 4 0.0000 0.0000 0.0000 49.0311 0.0000 -9.0604
# 5 -37.7943 -42.2586 -39.6424 0.0000 52.1681 0.0000
# 6 0.0000 0.0000 0.0000 -9.0604 0.0000 36.8799
#
#
#
# Elastic Compliance Matrix: (Units=1/GPa)
#
#
# Indices 1 2 3 4 5 6 
#
# 1 0.012671 0.000112 -0.001107 0.000000 0.008430 0.000000
# 2 0.000112 0.008462 -0.000141 0.000000 0.006829 0.000000
# 3 -0.001107 -0.000141 0.007739 0.000000 0.004965 0.000000
# 4 0.000000 0.000000 0.000000 0.021365 0.000000 0.005249
# 5 0.008430 0.006829 0.004965 0.000000 0.034580 0.000000
# 6 0.000000 0.000000 0.000000 0.005249 0.000000 0.028405
#
#
# Mechanical properties :
#
#
# Convention : Reuss Voigt Hill
#
# Bulk Modulus (GPa) = 37.59305 69.86857 53.73081
# Shear Modulus (GPa) = 40.20577 48.73204 44.46890
#
# Velocity S-wave (km/s) = 4.14285 4.56102 4.35695
# Velocity P-wave (km/s) = 6.23956 7.58703 6.94605
#
# Compressibility (1/GPa) = 0.02660066
#
# Stress axis : x y z
#
# Youngs Moduli (GPa) = 78.91849 118.17768 129.21510
#
# Poissons Ratio (x) = -0.01328 0.14302
# Poissons Ratio (y) = -0.00887 0.01825
# Poissons Ratio (z) = 0.08735 0.01669
#
# Static dielectric constant tensor:
#      x y z
#    x 1.838010 0.000000 0.056150 
#    y 0.000000 1.829410 0.000000 
#    z 0.056150 0.000000 1.854150 
# 
# From -- ./inp_files/1800.got.cif
#   From: 2010.05.17/outbox.cif.g08.bks.cpg/sg13_1_cif.got.tgz:1800.got - 2010.06.03 16:44:36.
