data_PCOD9226704
_publ_section_title
;
Structure prediction by ZEFSAII (Michael W. Deem and Ramdas Pophale) SiO2 
 PCOD9226704
Probable space group: P 2/C
;
_chemical_formula_sum "Si O2"
_cell_formula_units_Z 30
_cell_length_a 5.749204
_cell_length_b 9.932934
_cell_length_c 20.924939
_cell_angle_alpha 90.000000
_cell_angle_beta 72.634702
_cell_angle_gamma 90.000000
_cell_volume 1140.485005
_symmetry_space_group_name_H-M "P 2/C"
_symmetry_group_IT_number 13
_symmetry_cell_setting 'monoclinic'
loop_
_space_group_symop_operation_xyz
x,y,z
-x,y,1/2-z
-x,-y,-z
x,-y,1/2+z
loop_
_atom_site_type_symbol
_atom_site_label
_atom_site_fract_x
_atom_site_fract_y
_atom_site_fract_z
Si Si1 0.787144 0.548831 0.468200
Si Si2 0.928453 0.661498 0.329861
Si Si3 0.556214 0.637008 0.853872
Si Si4 0.433614 0.339108 0.829336
Si Si5 0.488028 0.212416 0.021678
Si Si6 0.000000 0.743853 0.750000
Si Si7 0.747486 0.958694 0.053464
Si Si8 0.710336 0.108905 0.180302
O O1 0.500000 0.500000 0.500000
O O2 0.868722 0.544540 0.386910
O O3 0.736423 0.707684 0.485845
O O4 0.000000 0.500000 0.500000
O O5 0.667434 0.734149 0.341540
O O6 0.000000 0.628832 0.250000
O O7 0.165050 0.721105 0.345046
O O8 0.435280 0.489818 0.859747
O O9 0.644675 0.697548 0.914404
O O10 0.769304 0.652431 0.784481
O O11 0.365589 0.752779 0.848985
O O12 0.500000 0.360522 0.750000
O O13 0.547921 0.069962 0.048093
O O14 0.333150 0.182657 0.970958
O O15 0.951457 0.846357 0.696726
O O16 0.753766 0.990152 0.127642
O O17 0.000000 0.000000 0.000000
O O18 0.500000 0.078147 0.250000
#
# Coordination Sequence:
#
# PCOD9226704 Si02
#       8
#     4   4   4   4   4   2   4   4
#     4  12  26  45  70 102 140 182 231 291 353 416
#     4  10  22  39  61  87 125 173 221 274 332 399
#     4  10  19  31  49  85 120 159 200 261 329 401
#     4  10  20  34  56  89 125 165 211 265 328 400
#     4  10  23  40  63  92 130 168 224 276 339 410
#     4  10  18  28  50  82 118 160 200 256 332 402
#     4  10  21  40  65  91 124 172 218 275 338 410
#     4   9  19  33  53  81 119 155 202 263 326 390
#
# _framework density 26.304596
#
# number of rings (size 3 to 8) (size 9 to 14) (size 15 to 20)
#    0.000    1.867    0.000    4.400    6.533    1.067 
#    0.000    0.000    2.933    0.000    0.000    0.000 
#    0.000    0.000    0.000    0.000    0.000    0.000 
#
# Total GULP energy -167356.300991 kJ/mol
# GULP energy per Si atom -5578.543366 kJ/mol
# Density = 2.624473 g / cm^3
# Si number density = 26.304596 Si / 1000 Ang^3
#
#
#
# Elastic Constant Matrix: (Units=GPa)
#
#
# Indices 1 2 3 4 5 6 
#
# 1 191.8754 27.0181 23.4772 0.0000 11.7063 0.0000
# 2 27.0181 88.2495 19.4228 0.0000 6.0035 0.0000
# 3 23.4772 19.4228 126.6344 0.0000 1.6419 0.0000
# 4 0.0000 0.0000 0.0000 16.7612 0.0000 -1.5893
# 5 11.7063 6.0035 1.6419 0.0000 37.4926 0.0000
# 6 0.0000 0.0000 0.0000 -1.5893 0.0000 28.6440
#
#
#
# Elastic Compliance Matrix: (Units=1/GPa)
#
#
# Indices 1 2 3 4 5 6 
#
# 1 0.005603 -0.001438 -0.000799 0.000000 -0.001484 0.000000
# 2 -0.001438 0.012219 -0.001589 0.000000 -0.001438 0.000000
# 3 -0.000799 -0.001589 0.008287 0.000000 0.000141 0.000000
# 4 0.000000 0.000000 0.000000 0.059977 0.000000 0.003328
# 5 -0.001484 -0.001438 0.000141 0.000000 0.027359 0.000000
# 6 0.000000 0.000000 0.000000 0.003328 0.000000 0.035096
#
#
# Mechanical properties :
#
#
# Convention : Reuss Voigt Hill
#
# Bulk Modulus (GPa) = 54.18179 60.73284 57.45731
# Shear Modulus (GPa) = 30.79851 39.03565 34.91708
#
# Velocity S-wave (km/s) = 3.42547 3.85643 3.64732
# Velocity P-wave (km/s) = 6.02392 6.55499 6.29506
#
# Compressibility (1/GPa) = 0.01845639
#
# Stress axis : x y z
#
# Youngs Moduli (GPa) = 178.49026 81.83699 120.67519
#
# Poissons Ratio (x) = 0.11772 0.09640
# Poissons Ratio (y) = 0.25676 0.19173
# Poissons Ratio (z) = 0.14258 0.13003
#
# Static dielectric constant tensor:
#      x y z
#    x 2.106330 0.000000 0.036840 
#    y 0.000000 2.151960 0.000000 
#    z 0.036840 0.000000 2.134060 
# 
# From -- ./inp_files/83665.got.cif
#   From: 2010.05.17/outbox.cif.g08.bks.cpg/sg13_42_cif.got.tgz:83665.got - 2010.06.03 16:44:36.
