data_PCOD9226492
_publ_section_title
;
Structure prediction by ZEFSAII (Michael W. Deem and Ramdas Pophale) SiO2 
 PCOD9226492
Probable space group: P 2/C
;
_chemical_formula_sum "Si O2"
_cell_formula_units_Z 20
_cell_length_a 11.220629
_cell_length_b 7.702552
_cell_length_c 21.733031
_cell_angle_alpha 90.000000
_cell_angle_beta 24.730975
_cell_angle_gamma 90.000000
_cell_volume 785.815141
_symmetry_space_group_name_H-M "P 2/C"
_symmetry_group_IT_number 13
_symmetry_cell_setting 'monoclinic'
loop_
_space_group_symop_operation_xyz
x,y,z
-x,y,1/2-z
-x,-y,-z
x,-y,1/2+z
loop_
_atom_site_type_symbol
_atom_site_label
_atom_site_fract_x
_atom_site_fract_y
_atom_site_fract_z
Si Si1 0.540963 0.693629 0.458516
Si Si2 0.969855 0.789331 0.360696
Si Si3 0.548514 0.283862 0.155631
Si Si4 0.723893 0.095217 0.601123
Si Si5 0.996896 0.800278 0.858397
O O1 0.500000 0.500000 0.500000
O O2 0.711503 0.791207 0.432461
O O3 0.226778 0.760438 0.589952
O O4 0.754564 0.706816 0.300293
O O5 0.843796 0.688872 0.479708
O O6 0.041337 0.991408 0.337410
O O7 0.500000 0.341111 0.250000
O O8 0.281002 0.311182 0.235474
O O9 0.553583 0.072631 0.157222
O O10 0.500000 0.186734 0.750000
O O11 0.825750 0.225675 0.502131
O O12 0.000000 0.000000 0.500000
#
# Coordination Sequence:
#
# PCOD9226492 Si02
#       5
#     4   4   4   4   4
#     4  11  26  45  65  95 138 189 238 287 356 421
#     4  10  23  42  66  96 132 175 241 287 349 417
#     4  10  20  34  60 104 139 169 214 287 352 412
#     4  10  17  30  53  96 148 176 221 282 352 407
#     4  11  21  37  67 102 138 178 229 292 341 416
#
# _framework density 25.451280000000001
#
# number of rings (size 3 to 8) (size 9 to 14) (size 15 to 20)
#    0.000    1.600    4.000    3.000    2.800    5.600 
#    0.000    0.000    0.000    6.000    0.000    1.400 
#    0.000    0.000    0.000    0.000    0.000    1.600 
#
# Total GULP energy -111722.447817 kJ/mol
# GULP energy per Si atom -5586.122391 kJ/mol
# Density = 2.539335 g / cm^3
# Si number density = 25.451280 Si / 1000 Ang^3
#
#
#
# Elastic Constant Matrix: (Units=GPa)
#
#
# Indices 1 2 3 4 5 6 
#
# 1 126.3244 25.4400 55.7169 0.0000 -39.7799 0.0000
# 2 25.4400 53.4117 28.6942 0.0000 2.0794 0.0000
# 3 55.7169 28.6942 191.2517 0.0000 25.9175 0.0000
# 4 0.0000 0.0000 0.0000 -3.4474 0.0000 16.3311
# 5 -39.7799 2.0794 25.9175 0.0000 61.6181 0.0000
# 6 0.0000 0.0000 0.0000 16.3311 0.0000 -23.5090
#
#
#
# Elastic Compliance Matrix: (Units=1/GPa)
#
#
# Indices 1 2 3 4 5 6 
#
# 1 0.015021 -0.004779 -0.005297 0.000000 0.012087 0.000000
# 2 -0.004779 0.021908 -0.001459 0.000000 -0.003211 0.000000
# 3 -0.005297 -0.001459 0.007898 0.000000 -0.006692 0.000000
# 4 0.000000 0.000000 0.000000 0.126623 0.000000 0.087962
# 5 0.012087 -0.003211 -0.006692 0.000000 0.026955 0.000000
# 6 0.000000 0.000000 0.000000 0.087962 0.000000 0.018568
#
#
# Mechanical properties :
#
#
# Convention : Reuss Voigt Hill
#
# Bulk Modulus (GPa) = 45.96592 65.63222 55.79907
# Shear Modulus (GPa) = 20.21869 24.34145 22.28007
#
# Velocity S-wave (km/s) = 2.82158 3.09592 2.96193
# Velocity P-wave (km/s) = 5.35861 6.21474 5.80248
#
# Compressibility (1/GPa) = 0.02175525
#
# Stress axis : x y z
#
# Youngs Moduli (GPa) = 66.57349 45.64541 126.61923
#
# Poissons Ratio (x) = 0.21816 0.67069
# Poissons Ratio (y) = 0.31818 0.18479
# Poissons Ratio (z) = 0.35263 0.06662
#
# Static dielectric constant tensor:
#      x y z
#    x 2.145960 0.000000 0.050980 
#    y 0.000000 1.942420 0.000000 
#    z 0.050980 0.000000 2.207430 
# 
# From -- ./inp_files/92763.got.cif
#   From: 2010.05.17/outbox.cif.g08.bks.cpg/sg13_47_cif.got.tgz:92763.got - 2010.06.03 16:44:36.
