data_PCOD9226935
_publ_section_title
;
Structure prediction by ZEFSAII (Michael W. Deem and Ramdas Pophale) SiO2 
 PCOD9226935
Probable space group: P 2/C
;
_chemical_formula_sum "Si O2"
_cell_formula_units_Z 22
_cell_length_a 26.105209
_cell_length_b 9.103095
_cell_length_c 13.006389
_cell_angle_alpha 90.000000
_cell_angle_beta 157.402466
_cell_angle_gamma 90.000000
_cell_volume 1187.662872
_symmetry_space_group_name_H-M "P 2/C"
_symmetry_group_IT_number 13
_symmetry_cell_setting 'monoclinic'
loop_
_space_group_symop_operation_xyz
x,y,z
-x,y,1/2-z
-x,-y,-z
x,-y,1/2+z
loop_
_atom_site_type_symbol
_atom_site_label
_atom_site_fract_x
_atom_site_fract_y
_atom_site_fract_z
Si Si1 0.770835 0.983582 0.765581
Si Si2 0.970116 0.153370 0.003665
Si Si3 0.763777 0.162490 0.463868
Si Si4 0.509312 0.329675 0.044764
Si Si5 0.500000 0.823747 0.750000
Si Si6 0.743368 0.159905 0.006640
O O1 0.812175 0.900415 0.945456
O O2 0.760981 0.856079 0.661234
O O3 0.881195 0.103560 0.934965
O O4 0.629621 0.071181 0.509787
O O5 0.875013 0.232362 0.744719
O O6 0.118679 0.213126 0.290949
O O7 0.000000 0.000000 0.000000
O O8 0.638145 0.266457 0.225187
O O9 0.715631 0.010795 0.427856
O O10 0.520349 0.276617 0.185165
O O11 0.500000 0.500000 0.000000
O O12 0.378292 0.253838 0.756632
#
# Coordination Sequence:
#
# PCOD9226935 Si02
#       6
#     4   4   4   4   2   4
#     4  10  18  31  65  88 111 147 193 237 293 340
#     4   8  18  32  54  93 117 138 183 246 288 335
#     4  10  18  36  59  85 115 145 190 241 284 336
#     4  12  25  39  56  84 120 155 199 235 279 348
#     4  12  20  38  60  80 110 158 188 240 290 330
#     4  10  20  36  57  91 115 148 191 245 285 332
#
# _framework density 18.523775000000001
#
# number of rings (size 3 to 8) (size 9 to 14) (size 15 to 20)
#    0.000    2.182    5.455    1.636    0.000    8.000 
#    0.000    0.909    0.000    0.000    0.000    0.000 
#    0.000    0.000    0.000    0.000    0.000    0.000 
#
# Total GULP energy -122498.501427 kJ/mol
# GULP energy per Si atom -5568.113701 kJ/mol
# Density = 1.848161 g / cm^3
# Si number density = 18.523775 Si / 1000 Ang^3
#
#
#
# Elastic Constant Matrix: (Units=GPa)
#
#
# Indices 1 2 3 4 5 6 
#
# 1 72.6766 1.6521 -6.5414 0.0000 -11.4027 0.0000
# 2 1.6521 52.3236 31.0030 0.0000 3.4355 0.0000
# 3 -6.5414 31.0030 97.5796 0.0000 16.4427 0.0000
# 4 0.0000 0.0000 0.0000 -6.6315 0.0000 -8.4637
# 5 -11.4027 3.4355 16.4427 0.0000 33.3080 0.0000
# 6 0.0000 0.0000 0.0000 -8.4637 0.0000 7.2002
#
#
#
# Elastic Compliance Matrix: (Units=1/GPa)
#
#
# Indices 1 2 3 4 5 6 
#
# 1 0.014592 -0.001077 0.000502 0.000000 0.004859 0.000000
# 2 -0.001077 0.023682 -0.007769 0.000000 0.001024 0.000000
# 3 0.000502 -0.007769 0.013728 0.000000 -0.005804 0.000000
# 4 0.000000 0.000000 0.000000 -0.060312 0.000000 -0.070896
# 5 0.004859 0.001024 -0.005804 0.000000 0.034446 0.000000
# 6 0.000000 0.000000 0.000000 -0.070896 0.000000 0.055549
#
#
# Mechanical properties :
#
#
# Convention : Reuss Voigt Hill
#
# Bulk Modulus (GPa) = 28.31828 30.53413 29.42621
# Shear Modulus (GPa) = 45.39540 19.87307 32.63423
#
# Velocity S-wave (km/s) = 4.95578 3.27898 4.20187
# Velocity P-wave (km/s) = 6.93304 5.55474 6.28181
#
# Compressibility (1/GPa) = 0.03531288
#
# Stress axis : x y z
#
# Youngs Moduli (GPa) = 68.53281 42.22638 72.84387
#
# Poissons Ratio (x) = 0.04548 -0.03654
# Poissons Ratio (y) = 0.07381 0.56592
# Poissons Ratio (z) = -0.03438 0.32805
#
# Static dielectric constant tensor:
#      x y z
#    x 1.765240 0.000000 -0.030840 
#    y 0.000000 1.596980 0.000000 
#    z -0.030840 0.000000 1.761740 
# 
# From -- ./inp_files/59854.got.cif
#   From: 2010.05.17/outbox.cif.g08.bks.cpg/sg13_30_cif.got.tgz:59854.got - 2010.06.03 16:44:36.
