data_PCOD9226571
_publ_section_title
;
Structure prediction by ZEFSAII (Michael W. Deem and Ramdas Pophale) SiO2 
 PCOD9226571
Probable space group: P 2/C
;
_chemical_formula_sum "Si O2"
_cell_formula_units_Z 32
_cell_length_a 22.796442
_cell_length_b 8.937154
_cell_length_c 14.420179
_cell_angle_alpha 90.000000
_cell_angle_beta 29.749009
_cell_angle_gamma 90.000000
_cell_volume 1457.790190
_symmetry_space_group_name_H-M "P 2/C"
_symmetry_group_IT_number 13
_symmetry_cell_setting 'monoclinic'
loop_
_space_group_symop_operation_xyz
x,y,z
-x,y,1/2-z
-x,-y,-z
x,-y,1/2+z
loop_
_atom_site_type_symbol
_atom_site_label
_atom_site_fract_x
_atom_site_fract_y
_atom_site_fract_z
Si Si1 0.887125 0.203893 0.364462
Si Si2 0.383220 0.939554 0.991150
Si Si3 0.441902 0.313711 0.182699
Si Si4 0.446084 0.370672 0.965256
Si Si5 0.001074 0.924345 0.099202
Si Si6 0.768711 0.219644 0.942832
Si Si7 0.242436 0.029369 0.354195
Si Si8 0.664718 0.756040 0.051392
O O1 0.794176 0.260665 0.416813
O O2 0.000000 0.292887 0.250000
O O3 0.947536 0.057593 0.235334
O O4 0.803894 0.138094 0.559405
O O5 0.348630 0.008227 0.137717
O O6 0.495319 0.831693 0.857408
O O7 0.280785 0.836813 0.087458
O O8 0.373486 0.077943 0.931823
O O9 0.529956 0.453139 0.068373
O O10 0.319871 0.350752 0.404497
O O11 0.418807 0.308776 0.104388
O O12 0.346946 0.337778 0.026120
O O13 0.565588 0.293981 0.761288
O O14 0.909633 0.787551 0.238647
O O15 0.133160 0.891331 0.951517
O O16 0.000000 0.000000 0.000000
O O17 0.739670 0.109111 0.071329
#
# Coordination Sequence:
#
# PCOD9226571 Si02
#       8
#     4   4   4   4   4   4   4   4
#     4   9  18  32  56  84 126 159 201 247 315 384
#     4  12  23  35  66  94 130 159 212 265 318 391
#     4  11  26  44  59  92 122 179 217 263 329 382
#     4  10  26  44  63  82 133 174 218 265 322 392
#     4  10  17  33  54  89 128 160 199 254 327 376
#     4  11  22  34  59  89 128 164 206 259 316 386
#     4  10  19  35  56  93 127 158 199 262 317 381
#     4  11  21  38  60  97 117 163 207 264 329 379
#
# _framework density 21.951032000000001
#
# number of rings (size 3 to 8) (size 9 to 14) (size 15 to 20)
#    0.000    1.500    3.750    3.000    7.000    1.000 
#    0.000    0.000    0.000    1.500    0.000   14.875 
#    0.000    0.000    0.000    0.000    0.000    0.000 
#
# Total GULP energy -178368.895562 kJ/mol
# GULP energy per Si atom -5574.027986 kJ/mol
# Density = 2.190107 g / cm^3
# Si number density = 21.951032 Si / 1000 Ang^3
#
#
#
# Elastic Constant Matrix: (Units=GPa)
#
#
# Indices 1 2 3 4 5 6 
#
# 1 148.3018 25.6611 26.7212 0.0000 -21.9006 0.0000
# 2 25.6611 39.7679 19.4008 0.0000 3.1527 0.0000
# 3 26.7212 19.4008 58.9801 0.0000 -4.8328 0.0000
# 4 0.0000 0.0000 0.0000 20.0496 0.0000 2.8506
# 5 -21.9006 3.1527 -4.8328 0.0000 47.3782 0.0000
# 6 0.0000 0.0000 0.0000 2.8506 0.0000 18.5815
#
#
#
# Elastic Compliance Matrix: (Units=1/GPa)
#
#
# Indices 1 2 3 4 5 6 
#
# 1 0.008539 -0.004894 -0.001925 0.000000 0.004076 0.000000
# 2 -0.004894 0.033193 -0.009144 0.000000 -0.005404 0.000000
# 3 -0.001925 -0.009144 0.020987 0.000000 0.001860 0.000000
# 4 0.000000 0.000000 0.000000 0.050988 0.000000 -0.007822
# 5 0.004076 -0.005404 0.001860 0.000000 0.023540 0.000000
# 6 0.000000 0.000000 0.000000 -0.007822 0.000000 0.055017
#
#
# Mechanical properties :
#
#
# Convention : Reuss Voigt Hill
#
# Bulk Modulus (GPa) = 32.47434 43.40177 37.93805
# Shear Modulus (GPa) = 21.32611 28.88629 25.10620
#
# Velocity S-wave (km/s) = 3.12032 3.63153 3.38559
# Velocity P-wave (km/s) = 5.27333 6.11547 5.70995
#
# Compressibility (1/GPa) = 0.03079355
#
# Stress axis : x y z
#
# Youngs Moduli (GPa) = 117.11561 30.12666 47.64843
#
# Poissons Ratio (x) = 0.14744 0.09171
# Poissons Ratio (y) = 0.57315 0.43570
# Poissons Ratio (z) = 0.22540 0.27548
#
# Static dielectric constant tensor:
#      x y z
#    x 1.880180 0.000000 0.000470 
#    y 0.000000 1.878570 0.000000 
#    z 0.000470 0.000000 1.892360 
# 
# From -- ./inp_files/58808.got.cif
#   From: 2010.05.17/outbox.cif.g08.bks.cpg/sg13_30_cif.got.tgz:58808.got - 2010.06.03 16:44:36.
