data_PCOD9226392
_publ_section_title
;
Structure prediction by ZEFSAII (Michael W. Deem and Ramdas Pophale) SiO2 
 PCOD9226392
Probable space group: P 2/C
;
_chemical_formula_sum "Si O2"
_cell_formula_units_Z 28
_cell_length_a 5.706092
_cell_length_b 13.805925
_cell_length_c 13.818110
_cell_angle_alpha 90.000000
_cell_angle_beta 74.317516
_cell_angle_gamma 90.000000
_cell_volume 1048.039065
_symmetry_space_group_name_H-M "P 2/C"
_symmetry_group_IT_number 13
_symmetry_cell_setting 'monoclinic'
loop_
_space_group_symop_operation_xyz
x,y,z
-x,y,1/2-z
-x,-y,-z
x,-y,1/2+z
loop_
_atom_site_type_symbol
_atom_site_label
_atom_site_fract_x
_atom_site_fract_y
_atom_site_fract_z
Si Si1 0.559088 0.518923 0.380920
Si Si2 0.060240 0.532337 0.381461
Si Si3 0.293189 0.262019 0.192198
Si Si4 0.518186 0.286018 0.516243
Si Si5 0.030478 0.241190 0.915968
Si Si6 0.072296 0.970748 0.378830
Si Si7 0.429119 0.044822 0.114401
O O1 0.500000 0.500000 0.500000
O O2 0.330445 0.492228 0.340501
O O3 0.541422 0.638078 0.391486
O O4 0.841421 0.498649 0.339258
O O5 0.000000 0.500000 0.500000
O O6 0.059820 0.649372 0.374827
O O7 0.500000 0.276285 0.250000
O O8 0.388295 0.331309 0.095131
O O9 0.000000 0.267338 0.250000
O O10 0.364202 0.157166 0.139058
O O11 0.258241 0.234009 0.526878
O O12 0.767052 0.234863 0.522400
O O13 0.096889 0.143411 0.854226
O O14 0.336613 0.020076 0.345935
O O15 0.837507 0.000014 0.343477
O O16 0.000000 0.000000 0.500000
O O17 0.500000 0.000000 0.000000
#
# Coordination Sequence:
#
# PCOD9226392 Si02
#       7
#     4   4   4   4   4   4   4
#     4   8  14  24  40  61  86 121 158 189 232 285
#     4   8  14  23  36  59  92 126 148 179 236 294
#     4  12  24  37  51  72 102 140 177 213 261 322
#     4  10  18  30  45  65  96 133 166 203 252 310
#     4  10  17  27  46  69  93 128 165 205 253 304
#     4  10  17  27  44  66  89 118 162 206 246 293
#     4  10  20  34  51  68  92 128 170 209 250 298
#
# _framework density 26.716560999999999
#
# number of rings (size 3 to 8) (size 9 to 14) (size 15 to 20)
#    0.000    2.286    0.000    6.000    0.000    0.000 
#    0.000    0.000    0.000    0.000    0.000    0.000 
#    0.000    0.000    0.000  475.714    0.000    0.000 
#
# Total GULP energy -155986.152567 kJ/mol
# GULP energy per Si atom -5570.934020 kJ/mol
# Density = 2.665575 g / cm^3
# Si number density = 26.716561 Si / 1000 Ang^3
#
#
#
# Elastic Constant Matrix: (Units=GPa)
#
#
# Indices 1 2 3 4 5 6 
#
# 1 378.6948 12.7747 60.2795 0.0000 -9.0924 0.0000
# 2 12.7747 115.7426 -2.2805 0.0000 1.0565 0.0000
# 3 60.2795 -2.2805 90.3218 0.0000 -31.3473 0.0000
# 4 0.0000 0.0000 0.0000 -90.6972 0.0000 -19.5190
# 5 -9.0924 1.0565 -31.3473 0.0000 55.4894 0.0000
# 6 0.0000 0.0000 0.0000 -19.5190 0.0000 -8.7692
#
#
#
# Elastic Compliance Matrix: (Units=1/GPa)
#
#
# Indices 1 2 3 4 5 6 
#
# 1 0.002998 -0.000369 -0.002285 0.000000 -0.000793 0.000000
# 2 -0.000369 0.008690 0.000481 0.000000 0.000046 0.000000
# 3 -0.002285 0.000481 0.015518 0.000000 0.008383 0.000000
# 4 0.000000 0.000000 0.000000 -0.021164 0.000000 0.047108
# 5 -0.000793 0.000046 0.008383 0.000000 0.022626 0.000000
# 6 0.000000 0.000000 0.000000 0.047108 0.000000 -0.218892
#
#
# Mechanical properties :
#
#
# Convention : Reuss Voigt Hill
#
# Bulk Modulus (GPa) = 43.74276 80.70072 62.22174
# Shear Modulus (GPa) = -28.04911 25.47031 -1.28940
#
# Velocity S-wave (km/s) = -3.24370 3.09099 -0.69546
# Velocity P-wave (km/s) = 1.54263 6.55826 4.76395
#
# Compressibility (1/GPa) = 0.02286092
#
# Stress axis : x y z
#
# Youngs Moduli (GPa) = 333.57932 115.07987 64.44076
#
# Poissons Ratio (x) = 0.04243 0.14725
# Poissons Ratio (y) = 0.12298 -0.03102
# Poissons Ratio (z) = 0.76226 -0.05541
#
# Static dielectric constant tensor:
#      x y z
#    x 2.031470 0.000000 0.027830 
#    y 0.000000 2.395360 0.000000 
#    z 0.027830 0.000000 2.015820 
# 
# From -- ./inp_files/61357.got.cif
#   From: 2010.05.17/outbox.cif.g08.bks.cpg/sg13_31_cif.got.tgz:61357.got - 2010.06.03 16:44:36.
