data_PCOD9226428
_publ_section_title
;
Structure prediction by ZEFSAII (Michael W. Deem and Ramdas Pophale) SiO2 
 PCOD9226428
Probable space group: P 2/C
;
_chemical_formula_sum "Si O2"
_cell_formula_units_Z 24
_cell_length_a 6.435728
_cell_length_b 6.005145
_cell_length_c 23.813757
_cell_angle_alpha 90.000000
_cell_angle_beta 78.085730
_cell_angle_gamma 90.000000
_cell_volume 900.515322
_symmetry_space_group_name_H-M "P 2/C"
_symmetry_group_IT_number 13
_symmetry_cell_setting 'monoclinic'
loop_
_space_group_symop_operation_xyz
x,y,z
-x,y,1/2-z
-x,-y,-z
x,-y,1/2+z
loop_
_atom_site_type_symbol
_atom_site_label
_atom_site_fract_x
_atom_site_fract_y
_atom_site_fract_z
Si Si1 0.388272 0.679712 0.427843
Si Si2 0.421298 0.444664 0.191836
Si Si3 0.955217 0.508140 0.167548
Si Si4 0.607417 0.926458 0.883512
Si Si5 0.052882 0.994330 0.312179
Si Si6 0.774818 0.458006 0.453156
O O1 0.441319 0.549526 0.367227
O O2 0.606676 0.655276 0.452423
O O3 0.214228 0.602707 0.482214
O O4 0.398736 0.935879 0.410092
O O5 0.500000 0.489048 0.250000
O O6 0.175461 0.510211 0.192643
O O7 0.426651 0.185745 0.175242
O O8 0.870384 0.252156 0.180995
O O9 0.028689 0.503215 0.098450
O O10 0.845451 0.748173 0.185058
O O11 0.656380 0.748445 0.928823
O O12 0.837378 0.036149 0.860955
O O13 0.000000 0.001216 0.250000
#
# Coordination Sequence:
#
# PCOD9226428 Si02
#       6
#     4   4   4   4   4   4
#     4   9  14  26  40  60  81 121 137 169 222 264
#     4   9  18  28  39  58  91 122 149 176 208 257
#     4   9  18  31  42  69  91 116 144 185 218 263
#     4   9  16  27  38  62  89 113 144 178 216 259
#     4  10  17  29  45  63  90 119 146 181 225 264
#     4   8  15  23  41  58  89 111 136 171 224 268
#
# _framework density 26.651406000000001
#
# number of rings (size 3 to 8) (size 9 to 14) (size 15 to 20)
#    0.000    3.667    3.333    1.000    0.000    0.667 
#    0.000    0.000    0.000    0.000    0.000    0.000 
#    0.000   44.000    0.000    0.000    0.000    0.000 
#
# Total GULP energy -133772.432470 kJ/mol
# GULP energy per Si atom -5573.851353 kJ/mol
# Density = 2.659075 g / cm^3
# Si number density = 26.651406 Si / 1000 Ang^3
#
#
#
# Elastic Constant Matrix: (Units=GPa)
#
#
# Indices 1 2 3 4 5 6 
#
# 1 68.6603 23.5547 37.3532 0.0000 10.7710 0.0000
# 2 23.5547 160.0384 56.1835 0.0000 8.1468 0.0000
# 3 37.3532 56.1835 196.0629 0.0000 16.0209 0.0000
# 4 0.0000 0.0000 0.0000 36.4445 0.0000 -13.4070
# 5 10.7710 8.1468 16.0209 0.0000 51.5914 0.0000
# 6 0.0000 0.0000 0.0000 -13.4070 0.0000 16.8073
#
#
#
# Elastic Compliance Matrix: (Units=1/GPa)
#
#
# Indices 1 2 3 4 5 6 
#
# 1 0.016862 -0.001444 -0.002596 0.000000 -0.002486 0.000000
# 2 -0.001444 0.007083 -0.001732 0.000000 -0.000279 0.000000
# 3 -0.002596 -0.001732 0.006181 0.000000 -0.001104 0.000000
# 4 0.000000 0.000000 0.000000 0.038835 0.000000 0.030978
# 5 -0.002486 -0.000279 -0.001104 0.000000 0.020289 0.000000
# 6 0.000000 0.000000 0.000000 0.030978 0.000000 0.084209
#
#
# Mechanical properties :
#
#
# Convention : Reuss Voigt Hill
#
# Bulk Modulus (GPa) = 53.81024 73.21604 63.51314
# Shear Modulus (GPa) = 26.15101 41.47997 33.81549
#
# Velocity S-wave (km/s) = 3.13585 3.94939 3.56590
# Velocity P-wave (km/s) = 5.77457 6.95185 6.39038
#
# Compressibility (1/GPa) = 0.01858382
#
# Stress axis : x y z
#
# Youngs Moduli (GPa) = 59.30524 141.17853 161.77584
#
# Poissons Ratio (x) = 0.20386 0.41989
# Poissons Ratio (y) = 0.08564 0.28017
# Poissons Ratio (z) = 0.15393 0.24450
#
# Static dielectric constant tensor:
#      x y z
#    x 2.251950 0.000000 -0.036670 
#    y 0.000000 2.190000 0.000000 
#    z -0.036670 0.000000 2.082650 
# 
# From -- ./inp_files/84288.got.cif
#   From: 2010.05.17/outbox.cif.g08.bks.cpg/sg13_43_cif.got.tgz:84288.got - 2010.06.03 16:44:36.
