data_PCOD9226333
_publ_section_title
;
Structure prediction by ZEFSAII (Michael W. Deem and Ramdas Pophale) SiO2 
 PCOD9226333
Probable space group: P 2/C
;
_chemical_formula_sum "Si O2"
_cell_formula_units_Z 32
_cell_length_a 15.659343
_cell_length_b 11.493795
_cell_length_c 17.066510
_cell_angle_alpha 90.000000
_cell_angle_beta 150.744203
_cell_angle_gamma 90.000000
_cell_volume 1501.179062
_symmetry_space_group_name_H-M "P 2/C"
_symmetry_group_IT_number 13
_symmetry_cell_setting 'monoclinic'
loop_
_space_group_symop_operation_xyz
x,y,z
-x,y,1/2-z
-x,-y,-z
x,-y,1/2+z
loop_
_atom_site_type_symbol
_atom_site_label
_atom_site_fract_x
_atom_site_fract_y
_atom_site_fract_z
Si Si1 0.742248 0.274048 0.850358
Si Si2 0.732198 0.096305 0.269853
Si Si3 0.500095 0.934261 0.345206
Si Si4 0.991813 0.962901 0.370887
Si Si5 0.954019 0.302458 0.801687
Si Si6 0.676510 0.553098 0.174365
Si Si7 0.167407 0.180796 0.421022
Si Si8 0.129727 0.665976 0.602339
O O1 0.659592 0.150895 0.761093
O O2 0.637866 0.371886 0.721372
O O3 0.744908 0.265905 0.945788
O O4 0.941939 0.289954 0.983809
O O5 0.736544 0.234137 0.264240
O O6 0.865011 0.071315 0.448815
O O7 0.543092 0.050322 0.143265
O O8 0.824660 0.025320 0.274953
O O9 0.500000 0.951748 0.250000
O O10 0.677344 0.868026 0.507291
O O11 0.941899 0.838943 0.293458
O O12 0.086075 0.063731 0.395764
O O13 0.779178 0.364118 0.695141
O O14 0.000000 0.338137 0.750000
O O15 0.100014 0.337671 0.984488
O O16 0.810225 0.453256 0.310616
O O17 0.500000 0.500000 0.000000
O O18 0.000000 0.240761 0.250000
#
# Coordination Sequence:
#
# PCOD9226333 Si02
#       8
#     4   4   4   4   4   4   4   4
#     4  10  19  41  67  89 124 174 218 258 332 391
#     4  10  16  34  65  93 124 179 217 256 313 405
#     4  10  19  35  59  95 133 166 212 266 327 381
#     4  10  18  35  65  96 133 170 214 249 333 406
#     4  10  21  40  69  99 129 171 218 276 330 393
#     4  11  25  47  68  91 128 170 234 288 321 389
#     4  11  22  37  59 100 143 170 207 269 334 405
#     4  10  21  41  70  93 124 176 229 263 333 392
#
# _framework density 21.316578
#
# number of rings (size 3 to 8) (size 9 to 14) (size 15 to 20)
#    0.000    1.750    3.750    4.125    0.000    1.000 
#    4.500   11.250    0.000    0.000    0.000    0.000 
#    0.000    0.000    0.000    0.000    0.000    0.000 
#
# Total GULP energy -178593.764503 kJ/mol
# GULP energy per Si atom -5581.055141 kJ/mol
# Density = 2.126806 g / cm^3
# Si number density = 21.316578 Si / 1000 Ang^3
#
#
#
# Elastic Constant Matrix: (Units=GPa)
#
#
# Indices 1 2 3 4 5 6 
#
# 1 71.4151 43.9487 38.1674 0.0000 1.6956 0.0000
# 2 43.9487 97.5127 27.8578 0.0000 1.5511 0.0000
# 3 38.1674 27.8578 86.4975 0.0000 -1.1650 0.0000
# 4 0.0000 0.0000 0.0000 28.1286 0.0000 -3.2365
# 5 1.6956 1.5511 -1.1650 0.0000 24.0530 0.0000
# 6 0.0000 0.0000 0.0000 -3.2365 0.0000 16.3539
#
#
#
# Elastic Compliance Matrix: (Units=1/GPa)
#
#
# Indices 1 2 3 4 5 6 
#
# 1 0.023170 -0.008252 -0.007586 0.000000 -0.001469 0.000000
# 2 -0.008252 0.014253 -0.000954 0.000000 -0.000384 0.000000
# 3 -0.007586 -0.000954 0.015234 0.000000 0.001334 0.000000
# 4 0.000000 0.000000 0.000000 0.036379 0.000000 0.007200
# 5 -0.001469 -0.000384 0.001334 0.000000 0.041768 0.000000
# 6 0.000000 0.000000 0.000000 0.007200 0.000000 0.062572
#
#
# Mechanical properties :
#
#
# Convention : Reuss Voigt Hill
#
# Bulk Modulus (GPa) = 52.43278 52.81924 52.62601
# Shear Modulus (GPa) = 21.42992 23.40384 22.41688
#
# Velocity S-wave (km/s) = 3.17411 3.31708 3.24638
# Velocity P-wave (km/s) = 6.17122 6.28514 6.22844
#
# Compressibility (1/GPa) = 0.01907204
#
# Stress axis : x y z
#
# Youngs Moduli (GPa) = 43.15890 70.16046 65.64406
#
# Poissons Ratio (x) = 0.57898 0.49797
# Poissons Ratio (y) = 0.35616 0.06264
# Poissons Ratio (z) = 0.32740 0.06695
#
# Static dielectric constant tensor:
#      x y z
#    x 1.806420 0.000000 -0.035350 
#    y 0.000000 1.785020 0.000000 
#    z -0.035350 0.000000 1.818980 
# 
# From -- ./inp_files/68717.got.cif
#   From: 2010.05.17/outbox.cif.g08.bks.cpg/sg13_35_cif.got.tgz:68717.got - 2010.06.03 16:44:36.
