data_PCOD9226131
_publ_section_title
;
Structure prediction by ZEFSAII (Michael W. Deem and Ramdas Pophale) SiO2 
 PCOD9226131
Probable space group: P 2/C
;
_chemical_formula_sum "Si O2"
_cell_formula_units_Z 26
_cell_length_a 20.564190
_cell_length_b 15.376460
_cell_length_c 5.408741
_cell_angle_alpha 90.000000
_cell_angle_beta 96.131429
_cell_angle_gamma 90.000000
_cell_volume 1700.484366
_symmetry_space_group_name_H-M "P 2/C"
_symmetry_group_IT_number 13
_symmetry_cell_setting 'monoclinic'
loop_
_space_group_symop_operation_xyz
x,y,z
-x,y,1/2-z
-x,-y,-z
x,-y,1/2+z
loop_
_atom_site_type_symbol
_atom_site_label
_atom_site_fract_x
_atom_site_fract_y
_atom_site_fract_z
Si Si1 0.925650 0.467371 0.527087
Si Si2 0.076847 0.268834 0.793471
Si Si3 0.877823 0.818347 0.687872
Si Si4 0.736136 0.895517 0.540200
Si Si5 0.000000 0.054687 0.250000
Si Si6 0.527852 0.901783 0.011187
Si Si7 0.317245 0.094471 0.981269
O O1 0.896060 0.475078 0.238894
O O2 0.924978 0.370460 0.635106
O O3 0.000000 0.500000 0.500000
O O4 0.108600 0.245854 0.540512
O O5 0.000000 0.239959 0.750000
O O6 0.115117 0.224956 0.038359
O O7 0.810581 0.870662 0.622851
O O8 0.936373 0.886467 0.708883
O O9 0.715297 0.859392 0.265934
O O10 0.716826 0.998489 0.514838
O O11 0.695308 0.862876 0.758998
O O12 0.000000 0.000000 0.500000
O O13 0.500000 0.859905 0.750000
O O14 0.500000 0.860210 0.250000
O O15 0.605797 0.911512 0.037532
O O16 0.500000 0.000000 0.000000
#
# Coordination Sequence:
#
# PCOD9226131 Si02
#       7
#     4   4   4   4   2   4   4
#     4  10  19  30  53  78  92 108 128 153 221 308
#     4  12  21  37  51  69  94 108 135 181 240 308
#     4  12  25  37  48  65  84 121 147 198 248 276
#     4  10  20  32  45  58  81 110 159 179 231 270
#     4  12  26  36  50  60  78 102 158 208 256 280
#     4  10  16  25  43  67  89 102 129 176 253 286
#     4  10  19  32  47  63  82 116 147 202 227 266
#
# _framework density 15.289759999999999
#
# number of rings (size 3 to 8) (size 9 to 14) (size 15 to 20)
#    0.000    1.231    3.077    7.385    6.462    0.000 
#    0.000    0.000    0.000    0.000    0.000    0.000 
#    0.000    0.000    0.000    0.000    0.000    0.000 
#
# Total GULP energy -144792.427629 kJ/mol
# GULP energy per Si atom -5568.939524 kJ/mol
# Density = 1.525496 g / cm^3
# Si number density = 15.289760 Si / 1000 Ang^3
#
#
#
# Elastic Constant Matrix: (Units=GPa)
#
#
# Indices 1 2 3 4 5 6 
#
# 1 61.3738 12.6876 -7.7750 0.0000 3.8146 0.0000
# 2 12.6876 43.6997 17.1262 0.0000 1.1945 0.0000
# 3 -7.7750 17.1262 134.4713 0.0000 -4.5299 0.0000
# 4 0.0000 0.0000 0.0000 -56.3424 0.0000 -165.4904
# 5 3.8146 1.1945 -4.5299 0.0000 25.1286 0.0000
# 6 0.0000 0.0000 0.0000 -165.4904 0.0000 -347.3622
#
#
#
# Elastic Compliance Matrix: (Units=1/GPa)
#
#
# Indices 1 2 3 4 5 6 
#
# 1 0.017837 -0.005785 0.001696 0.000000 -0.002127 0.000000
# 2 -0.005785 0.026035 -0.003685 0.000000 -0.001024 0.000000
# 3 0.001696 -0.003685 0.008050 0.000000 0.001369 0.000000
# 4 0.000000 0.000000 0.000000 0.044443 0.000000 -0.021174
# 5 -0.002127 -0.001024 0.001369 0.000000 0.040414 0.000000
# 6 0.000000 0.000000 0.000000 -0.021174 0.000000 0.007209
#
#
# Mechanical properties :
#
#
# Convention : Reuss Voigt Hill
#
# Bulk Modulus (GPa) = 27.49175 31.51358 29.50266
# Shear Modulus (GPa) = 29.12737 -61.21480 -16.04371
#
# Velocity S-wave (km/s) = 4.36939 -6.33430 -3.24282
# Velocity P-wave (km/s) = 6.59356 5.73081 2.30573
#
# Compressibility (1/GPa) = 0.03637456
#
# Stress axis : x y z
#
# Youngs Moduli (GPa) = 56.06427 38.40948 124.22318
#
# Poissons Ratio (x) = 0.22221 -0.21074
# Poissons Ratio (y) = 0.32435 0.45774
# Poissons Ratio (z) = -0.09511 0.14153
#
# Static dielectric constant tensor:
#      x y z
#    x 1.506710 0.000000 0.003040 
#    y 0.000000 1.509860 0.000000 
#    z 0.003040 0.000000 1.702230 
# 
# From -- ./inp_files/6137.got.cif
#   From: 2010.05.17/outbox.cif.g08.bks.cpg/sg13_4_cif.got.tgz:6137.got - 2010.06.03 16:44:36.
