data_PCOD9226592
_publ_section_title
;
Structure prediction by ZEFSAII (Michael W. Deem and Ramdas Pophale) SiO2 
 PCOD9226592
Probable space group: P 2/C
;
_chemical_formula_sum "Si O2"
_cell_formula_units_Z 26
_cell_length_a 21.890239
_cell_length_b 5.354988
_cell_length_c 23.737961
_cell_angle_alpha 90.000000
_cell_angle_beta 20.257770
_cell_angle_gamma 90.000000
_cell_volume 963.462975
_symmetry_space_group_name_H-M "P 2/C"
_symmetry_group_IT_number 13
_symmetry_cell_setting 'monoclinic'
loop_
_space_group_symop_operation_xyz
x,y,z
-x,y,1/2-z
-x,-y,-z
x,-y,1/2+z
loop_
_atom_site_type_symbol
_atom_site_label
_atom_site_fract_x
_atom_site_fract_y
_atom_site_fract_z
Si Si1 0.199469 0.800858 0.673216
Si Si2 0.331427 0.130501 0.430301
Si Si3 0.190695 0.939066 0.360973
Si Si4 0.916983 0.184947 0.942797
Si Si5 0.216951 0.564348 0.244780
Si Si6 0.000000 0.230026 0.250000
Si Si7 0.541820 0.183283 0.060789
O O1 0.214091 0.716350 0.724631
O O2 0.392800 0.893366 0.490947
O O3 0.082036 0.050228 0.770396
O O4 0.088775 0.626802 0.726381
O O5 0.500000 0.029038 0.250000
O O6 0.224710 0.295996 0.477013
O O7 0.402673 0.269812 0.424611
O O8 0.176534 0.928445 0.578940
O O9 0.169687 0.956764 0.446456
O O10 0.247727 0.690192 0.278129
O O11 0.336941 0.154859 0.226298
O O12 0.000000 0.000000 0.500000
O O13 0.015812 0.361899 0.901111
O O14 0.359245 0.683455 0.076825
#
# Coordination Sequence:
#
# PCOD9226592 Si02
#       7
#     4   4   4   4   4   2   4
#     4   9  19  35  55  81 105 144 182 224 282 331
#     4  10  17  33  62  83 108 148 188 230 284 333
#     4  10  20  36  56  77 111 149 180 231 279 322
#     4   9  19  36  56  82 109 142 185 225 278 334
#     4  10  21  35  56  80 114 145 180 227 275 332
#     4   8  18  32  54  84 112 142 180 230 286 332
#     4  10  20  36  57  81 106 143 189 227 276 335
#
# _framework density 26.985986
#
# number of rings (size 3 to 8) (size 9 to 14) (size 15 to 20)
#    0.000    2.462    1.538    1.385    0.000    2.462 
#    0.000    3.077    0.000    1.846    0.000    0.000 
#    0.000    0.000    0.000    0.000    0.000    0.000 
#
# Total GULP energy -144808.068487 kJ/mol
# GULP energy per Si atom -5569.541096 kJ/mol
# Density = 2.692456 g / cm^3
# Si number density = 26.985986 Si / 1000 Ang^3
#
#
#
# Elastic Constant Matrix: (Units=GPa)
#
#
# Indices 1 2 3 4 5 6 
#
# 1 129.7143 -7.8078 35.0787 0.0000 -14.8068 0.0000
# 2 -7.8078 30.3067 18.5425 0.0000 -3.2121 0.0000
# 3 35.0787 18.5425 160.3325 0.0000 -3.1291 0.0000
# 4 0.0000 0.0000 0.0000 13.0623 0.0000 -0.5291
# 5 -14.8068 -3.2121 -3.1291 0.0000 54.2853 0.0000
# 6 0.0000 0.0000 0.0000 -0.5291 0.0000 11.1394
#
#
#
# Elastic Compliance Matrix: (Units=1/GPa)
#
#
# Indices 1 2 3 4 5 6 
#
# 1 0.008874 0.003994 -0.002354 0.000000 0.002521 0.000000
# 2 0.003994 0.037496 -0.005151 0.000000 0.003011 0.000000
# 3 -0.002354 -0.005151 0.007338 0.000000 -0.000524 0.000000
# 4 0.000000 0.000000 0.000000 0.076704 0.000000 0.003644
# 5 0.002521 0.003011 -0.000524 0.000000 0.019257 0.000000
# 6 0.000000 0.000000 0.000000 0.003644 0.000000 0.089945
#
#
# Mechanical properties :
#
#
# Convention : Reuss Voigt Hill
#
# Bulk Modulus (GPa) = 21.42068 45.77559 33.59814
# Shear Modulus (GPa) = 19.06955 34.00007 26.53481
#
# Velocity S-wave (km/s) = 2.66117 3.55338 3.13913
# Velocity P-wave (km/s) = 4.17101 5.81678 5.06124
#
# Compressibility (1/GPa) = 0.04668385
#
# Stress axis : x y z
#
# Youngs Moduli (GPa) = 112.68780 26.66960 136.28340
#
# Poissons Ratio (x) = -0.10651 0.32084
# Poissons Ratio (y) = -0.45005 0.70205
# Poissons Ratio (z) = 0.26529 0.13739
#
# Static dielectric constant tensor:
#      x y z
#    x 2.386200 0.000000 0.050120 
#    y 0.000000 2.320700 0.000000 
#    z 0.050120 0.000000 2.116510 
# 
# From -- ./inp_files/93720.got.cif
#   From: 2010.05.17/outbox.cif.g08.bks.cpg/sg13_47_cif.got.tgz:93720.got - 2010.06.03 16:44:36.
