data_PCOD9226672
_publ_section_title
;
Structure prediction by ZEFSAII (Michael W. Deem and Ramdas Pophale) SiO2 
 PCOD9226672
Probable space group: P 2/C
;
_chemical_formula_sum "Si O2"
_cell_formula_units_Z 16
_cell_length_a 6.800961
_cell_length_b 11.461742
_cell_length_c 9.885351
_cell_angle_alpha 90.000000
_cell_angle_beta 129.455766
_cell_angle_gamma 90.000000
_cell_volume 594.970229
_symmetry_space_group_name_H-M "P 2/C"
_symmetry_group_IT_number 13
_symmetry_cell_setting 'monoclinic'
loop_
_space_group_symop_operation_xyz
x,y,z
-x,y,1/2-z
-x,-y,-z
x,-y,1/2+z
loop_
_atom_site_type_symbol
_atom_site_label
_atom_site_fract_x
_atom_site_fract_y
_atom_site_fract_z
Si Si1 0.224047 0.909059 0.079634
Si Si2 0.656916 0.240370 0.105287
Si Si3 0.870667 0.281805 0.500259
Si Si4 0.313222 0.468770 0.539753
O O1 0.500000 0.948805 0.250000
O O2 0.262040 0.873978 0.939718
O O3 0.123430 0.795490 0.119468
O O4 0.000000 0.000000 0.000000
O O5 0.353552 0.244068 0.995721
O O6 0.761802 0.343018 0.051551
O O7 0.238448 0.257322 0.198120
O O8 0.882705 0.422119 0.529205
O O9 0.500000 0.462176 0.750000
O O10 0.500000 0.500000 0.500000
#
# Coordination Sequence:
#
# PCOD9226672 Si02
#       4
#     4   4   4   4
#     4  12  30  53  79 112 149 208 275 343 409 479
#     4  10  22  46  80 118 162 208 261 326 401 476
#     4  10  22  46  79 115 162 208 258 328 401 480
#     4  10  17  37  78 123 163 208 260 317 391 483
#
# _framework density 26.892099000000002
#
# number of rings (size 3 to 8) (size 9 to 14) (size 15 to 20)
#    0.000    1.500    5.000    1.500    3.500    3.000 
#    4.500    0.000    0.000    1.500    0.000    0.000 
#    0.000    0.000    0.000    0.000    0.000    0.000 
#
# Total GULP energy -89574.422936 kJ/mol
# GULP energy per Si atom -5598.401434 kJ/mol
# Density = 2.683089 g / cm^3
# Si number density = 26.892099 Si / 1000 Ang^3
#
#
#
# Elastic Constant Matrix: (Units=GPa)
#
#
# Indices 1 2 3 4 5 6 
#
# 1 175.0580 95.4425 58.1453 0.0000 9.9439 0.0000
# 2 95.4425 119.2933 40.6281 0.0000 -4.3903 0.0000
# 3 58.1453 40.6281 153.7670 0.0000 -23.8345 0.0000
# 4 0.0000 0.0000 0.0000 25.3801 0.0000 13.2395
# 5 9.9439 -4.3903 -23.8345 0.0000 61.9811 0.0000
# 6 0.0000 0.0000 0.0000 13.2395 0.0000 84.7530
#
#
#
# Elastic Compliance Matrix: (Units=1/GPa)
#
#
# Indices 1 2 3 4 5 6 
#
# 1 0.011272 -0.008256 -0.002608 0.000000 -0.003396 0.000000
# 2 -0.008256 0.015263 -0.000572 0.000000 0.002186 0.000000
# 3 -0.002608 -0.000572 0.008187 0.000000 0.003526 0.000000
# 4 0.000000 0.000000 0.000000 0.042896 0.000000 -0.006701
# 5 -0.003396 0.002186 0.003526 0.000000 0.018190 0.000000
# 6 0.000000 0.000000 0.000000 -0.006701 0.000000 0.012846
#
#
# Mechanical properties :
#
#
# Convention : Reuss Voigt Hill
#
# Bulk Modulus (GPa) = 84.37643 92.95001 88.66322
# Shear Modulus (GPa) = 36.90696 51.34966 44.12831
#
# Velocity S-wave (km/s) = 3.70862 4.37449 4.05525
# Velocity P-wave (km/s) = 7.05567 7.75590 7.41406
#
# Compressibility (1/GPa) = 0.01185165
#
# Stress axis : x y z
#
# Youngs Moduli (GPa) = 88.71240 65.51790 122.14231
#
# Poissons Ratio (x) = 0.54089 0.31850
# Poissons Ratio (y) = 0.73237 0.06990
# Poissons Ratio (z) = 0.23133 0.03749
#
# Static dielectric constant tensor:
#      x y z
#    x 2.064870 0.000000 0.037300 
#    y 0.000000 2.298430 0.000000 
#    z 0.037300 0.000000 2.071090 
# 
# From -- ./inp_files/25988.got.cif
#   From: 2010.05.17/outbox.cif.g08.bks.cpg/sg13_13_cif.got.tgz:25988.got - 2010.06.03 16:44:36.
