data_PCOD9226818
_publ_section_title
;
Structure prediction by ZEFSAII (Michael W. Deem and Ramdas Pophale) SiO2 
 PCOD9226818
Probable space group: P 2/C
;
_chemical_formula_sum "Si O2"
_cell_formula_units_Z 30
_cell_length_a 19.380992
_cell_length_b 8.637511
_cell_length_c 21.384372
_cell_angle_alpha 90.000000
_cell_angle_beta 21.744561
_cell_angle_gamma 90.000000
_cell_volume 1326.213061
_symmetry_space_group_name_H-M "P 2/C"
_symmetry_group_IT_number 13
_symmetry_cell_setting 'monoclinic'
loop_
_space_group_symop_operation_xyz
x,y,z
-x,y,1/2-z
-x,-y,-z
x,-y,1/2+z
loop_
_atom_site_type_symbol
_atom_site_label
_atom_site_fract_x
_atom_site_fract_y
_atom_site_fract_z
Si Si1 0.740547 0.362095 0.154297
Si Si2 0.268869 0.078734 0.741514
Si Si3 0.000000 0.408745 0.750000
Si Si4 0.501755 0.929229 0.853667
Si Si5 0.769512 0.964304 0.015173
Si Si6 0.949032 0.246776 0.088216
Si Si7 0.072083 0.189972 0.795944
Si Si8 0.816725 0.377160 0.502735
O O1 0.564541 0.248532 0.308549
O O2 0.836880 0.370904 0.140935
O O3 0.905910 0.274199 0.975798
O O4 0.702488 0.519869 0.149076
O O5 0.248050 0.161296 0.692275
O O6 0.454999 0.034123 0.622003
O O7 0.171304 0.911018 0.812982
O O8 0.140822 0.185157 0.894750
O O9 0.106925 0.300971 0.708920
O O10 0.866596 0.513332 0.903676
O O11 0.308686 0.959749 0.981989
O O12 0.647845 0.984509 0.677230
O O13 0.743097 0.781439 0.036439
O O14 0.974404 0.030468 0.856384
O O15 0.003771 0.320948 0.107875
#
# Coordination Sequence:
#
# PCOD9226818 Si02
#       8
#     4   4   2   4   4   4   4   4
#     4   8  17  28  50  78 111 127 157 203 280 321
#     4   9  14  28  53  77 103 130 170 206 260 317
#     4  10  24  34  48  72 102 138 186 222 272 282
#     4   9  17  31  49  81 107 139 155 202 266 349
#     4  10  18  30  53  76 109 132 176 209 259 309
#     4   9  14  26  50  80 106 127 156 217 271 311
#     4   9  17  34  50  72  96 142 172 217 244 314
#     4  11  18  32  48  82 105 133 170 232 253 301
#
# _framework density 22.620799999999999
#
# number of rings (size 3 to 8) (size 9 to 14) (size 15 to 20)
#    0.000    2.667    2.667    2.000    0.000    0.533 
#    0.000    8.000    0.000    1.600    0.000    0.000 
#    0.000    0.000    0.000    0.000    0.000    0.000 
#
# Total GULP energy -167393.099291 kJ/mol
# GULP energy per Si atom -5579.769976 kJ/mol
# Density = 2.256931 g / cm^3
# Si number density = 22.620800 Si / 1000 Ang^3
#
#
#
# Elastic Constant Matrix: (Units=GPa)
#
#
# Indices 1 2 3 4 5 6 
#
# 1 128.5489 12.0047 8.3497 0.0000 -9.8656 0.0000
# 2 12.0047 79.2119 -1.0929 0.0000 2.1608 0.0000
# 3 8.3497 -1.0929 36.3307 0.0000 2.5379 0.0000
# 4 0.0000 0.0000 0.0000 19.1408 0.0000 -24.3628
# 5 -9.8656 2.1608 2.5379 0.0000 11.0245 0.0000
# 6 0.0000 0.0000 0.0000 -24.3628 0.0000 145.1193
#
#
#
# Elastic Compliance Matrix: (Units=1/GPa)
#
#
# Indices 1 2 3 4 5 6 
#
# 1 0.008778 -0.001607 -0.002679 0.000000 0.008787 0.000000
# 2 -0.001607 0.012998 0.001056 0.000000 -0.004229 0.000000
# 3 -0.002679 0.001056 0.028818 0.000000 -0.009239 0.000000
# 4 0.000000 0.000000 0.000000 0.066442 0.000000 0.011154
# 5 0.008787 -0.004229 -0.009239 0.000000 0.101525 0.000000
# 6 0.000000 0.000000 0.000000 0.011154 0.000000 0.008763
#
#
# Mechanical properties :
#
#
# Convention : Reuss Voigt Hill
#
# Bulk Modulus (GPa) = 22.65931 31.40161 27.03046
# Shear Modulus (GPa) = 20.12104 50.04559 35.08331
#
# Velocity S-wave (km/s) = 2.98567 4.70869 3.94246
# Velocity P-wave (km/s) = 4.68235 6.59350 5.71833
#
# Compressibility (1/GPa) = 0.04413198
#
# Stress axis : x y z
#
# Youngs Moduli (GPa) = 113.92666 76.93606 34.70063
#
# Poissons Ratio (x) = 0.12363 0.09298
# Poissons Ratio (y) = 0.18307 -0.03663
# Poissons Ratio (z) = 0.30526 -0.08122
#
# Static dielectric constant tensor:
#      x y z
#    x 1.873690 0.000000 0.021960 
#    y 0.000000 1.848400 0.000000 
#    z 0.021960 0.000000 1.888630 
# 
# From -- ./inp_files/80931.got.cif
#   From: 2010.05.17/outbox.cif.g08.bks.cpg/sg13_41_cif.got.tgz:80931.got - 2010.06.03 16:44:36.
