data_PCOD9226855
_publ_section_title
;
Structure prediction by ZEFSAII (Michael W. Deem and Ramdas Pophale) SiO2 
 PCOD9226855
Probable space group: P 2/C
;
_chemical_formula_sum "Si O2"
_cell_formula_units_Z 30
_cell_length_a 12.128919
_cell_length_b 5.225592
_cell_length_c 20.419577
_cell_angle_alpha 90.000000
_cell_angle_beta 72.102407
_cell_angle_gamma 90.000000
_cell_volume 1231.578524
_symmetry_space_group_name_H-M "P 2/C"
_symmetry_group_IT_number 13
_symmetry_cell_setting 'monoclinic'
loop_
_space_group_symop_operation_xyz
x,y,z
-x,y,1/2-z
-x,-y,-z
x,-y,1/2+z
loop_
_atom_site_type_symbol
_atom_site_label
_atom_site_fract_x
_atom_site_fract_y
_atom_site_fract_z
Si Si1 0.191017 0.048318 0.710631
Si Si2 0.771422 0.604247 0.081712
Si Si3 0.283009 0.449989 0.133002
Si Si4 0.531683 0.536060 0.611646
Si Si5 0.500000 0.794079 0.250000
Si Si6 0.685421 0.108612 0.153027
Si Si7 0.925699 0.547187 0.933439
Si Si8 0.019827 0.955093 0.355897
O O1 0.248459 0.320545 0.687917
O O2 0.082627 0.039619 0.679738
O O3 0.135620 0.014047 0.792085
O O4 0.269781 0.814708 0.674048
O O5 0.649688 0.586972 0.063509
O O6 0.747328 0.387482 0.141986
O O7 0.768640 0.895765 0.105997
O O8 0.873677 0.526363 0.015122
O O9 0.417075 0.476355 0.090128
O O10 0.188112 0.455864 0.092978
O O11 0.504611 0.386942 0.685185
O O12 0.577188 0.818186 0.623783
O O13 0.614334 0.973456 0.224295
O O14 0.005503 0.315501 0.894122
O O15 0.990024 0.813562 0.909216
#
# Coordination Sequence:
#
# PCOD9226855 Si02
#       8
#     4   4   4   4   2   4   4   4
#     4   9  18  31  45  70  95 129 165 212 234 282
#     4   9  19  31  46  69 103 128 168 192 226 283
#     4  10  20  30  48  71 103 131 166 193 245 280
#     4   9  21  33  50  72 100 129 158 205 241 290
#     4  10  18  36  54  68  92 132 162 202 260 282
#     4   9  19  32  48  70  94 125 157 206 233 282
#     4  10  18  31  48  71  98 141 165 195 225 286
#     4   9  17  30  49  65  95 131 173 199 242 266
#
# _framework density 24.358982999999998
#
# number of rings (size 3 to 8) (size 9 to 14) (size 15 to 20)
#    0.800    1.867    0.000    2.000    3.733    3.733 
#    0.000    0.667    0.000    0.000    0.000    0.000 
#    0.000   49.067    0.000    0.000    0.000    0.000 
#
# Total GULP energy -167676.457158 kJ/mol
# GULP energy per Si atom -5589.215239 kJ/mol
# Density = 2.430354 g / cm^3
# Si number density = 24.358983 Si / 1000 Ang^3
#
#
#
# Elastic Constant Matrix: (Units=GPa)
#
#
# Indices 1 2 3 4 5 6 
#
# 1 86.5434 -4.3350 6.9004 0.0000 -5.7974 0.0000
# 2 -4.3350 129.2382 29.7939 0.0000 9.4471 0.0000
# 3 6.9004 29.7939 106.5770 0.0000 -10.4320 0.0000
# 4 0.0000 0.0000 0.0000 21.0293 0.0000 -11.7791
# 5 -5.7974 9.4471 -10.4320 0.0000 38.0292 0.0000
# 6 0.0000 0.0000 0.0000 -11.7791 0.0000 14.7627
#
#
#
# Elastic Compliance Matrix: (Units=1/GPa)
#
#
# Indices 1 2 3 4 5 6 
#
# 1 0.011736 0.000458 -0.000744 0.000000 0.001471 0.000000
# 2 0.000458 0.008581 -0.002703 0.000000 -0.002803 0.000000
# 3 -0.000744 -0.002703 0.010524 0.000000 0.003445 0.000000
# 4 0.000000 0.000000 0.000000 0.085978 0.000000 0.068601
# 5 0.001471 -0.002803 0.003445 0.000000 0.028161 0.000000
# 6 0.000000 0.000000 0.000000 0.068601 0.000000 0.122475
#
#
# Mechanical properties :
#
#
# Convention : Reuss Voigt Hill
#
# Bulk Modulus (GPa) = 40.22131 43.00857 41.61494
# Shear Modulus (GPa) = 17.74812 34.09752 25.92282
#
# Velocity S-wave (km/s) = 2.70220 3.74544 3.26575
# Velocity P-wave (km/s) = 5.12675 6.03315 5.59833
#
# Compressibility (1/GPa) = 0.02486244
#
# Stress axis : x y z
#
# Youngs Moduli (GPa) = 85.21023 116.53624 95.02243
#
# Poissons Ratio (x) = -0.05332 0.07067
# Poissons Ratio (y) = -0.03899 0.25683
# Poissons Ratio (z) = 0.06337 0.31498
#
# Static dielectric constant tensor:
#      x y z
#    x 2.113620 0.000000 0.009870 
#    y 0.000000 1.863140 0.000000 
#    z 0.009870 0.000000 1.865080 
# 
# From -- ./inp_files/92568.got.cif
#   From: 2010.05.17/outbox.cif.g08.bks.cpg/sg13_47_cif.got.tgz:92568.got - 2010.06.03 16:44:36.
