data_PCOD9226902
_publ_section_title
;
Structure prediction by ZEFSAII (Michael W. Deem and Ramdas Pophale) SiO2 
 PCOD9226902
Probable space group: P 2/C
;
_chemical_formula_sum "Si O2"
_cell_formula_units_Z 28
_cell_length_a 8.629712
_cell_length_b 19.468412
_cell_length_c 15.860893
_cell_angle_alpha 90.000000
_cell_angle_beta 149.535174
_cell_angle_gamma 90.000000
_cell_volume 1351.046825
_symmetry_space_group_name_H-M "P 2/C"
_symmetry_group_IT_number 13
_symmetry_cell_setting 'monoclinic'
loop_
_space_group_symop_operation_xyz
x,y,z
-x,y,1/2-z
-x,-y,-z
x,-y,1/2+z
loop_
_atom_site_type_symbol
_atom_site_label
_atom_site_fract_x
_atom_site_fract_y
_atom_site_fract_z
Si Si1 0.718301 0.344469 0.061032
Si Si2 0.892721 0.939777 0.887507
Si Si3 0.183774 0.409135 0.916717
Si Si4 0.488620 0.031614 0.902158
Si Si5 0.176612 0.855286 0.150498
Si Si6 0.260495 0.465878 0.565386
Si Si7 0.289539 0.705320 0.234196
O O1 0.000000 0.324155 0.250000
O O2 0.461409 0.369787 0.005050
O O3 0.796246 0.403590 0.026880
O O4 0.543599 0.287532 0.926012
O O5 0.598959 0.967686 0.700884
O O6 0.177618 0.936368 0.956928
O O7 0.915532 0.875738 0.960775
O O8 0.000000 0.000000 0.000000
O O9 0.000000 0.439708 0.750000
O O10 0.945220 0.357490 0.853082
O O11 0.336063 0.469084 0.042373
O O12 0.241118 0.089952 0.756476
O O13 0.500000 0.000000 0.000000
O O14 0.500000 0.857753 0.250000
O O15 0.119296 0.777633 0.150867
O O16 0.500000 0.446871 0.750000
O O17 0.000000 0.500000 0.500000
O O18 0.500000 0.696466 0.250000
#
# Coordination Sequence:
#
# PCOD9226902 Si02
#       7
#     4   4   4   4   4   4   4
#     4  11  22  38  57  82 115 148 181 231 290 342
#     4   9  17  32  53  77 107 146 181 221 276 333
#     4  10  21  37  57  81 112 146 183 233 291 345
#     4  10  18  31  54  85 114 141 184 238 281 328
#     4   8  17  34  56  76 107 152 189 223 282 346
#     4  12  22  35  58  86 111 143 186 230 277 339
#     4  10  20  39  61  79 107 154 200 238 283 345
#
# _framework density 20.724672000000002
#
# number of rings (size 3 to 8) (size 9 to 14) (size 15 to 20)
#    0.000    2.000    0.000    6.429    0.000    0.000 
#    0.000   12.857    0.000   13.714    0.000    0.000 
#    0.000    0.000    0.000    0.000    0.000    0.000 
#
# Total GULP energy -155898.764633 kJ/mol
# GULP energy per Si atom -5567.813023 kJ/mol
# Density = 2.067750 g / cm^3
# Si number density = 20.724672 Si / 1000 Ang^3
#
#
#
# Elastic Constant Matrix: (Units=GPa)
#
#
# Indices 1 2 3 4 5 6 
#
# 1 64.5894 13.7237 7.9246 0.0000 -13.9381 0.0000
# 2 13.7237 101.6270 32.6165 0.0000 -25.8607 0.0000
# 3 7.9246 32.6165 98.8061 0.0000 -18.9716 0.0000
# 4 0.0000 0.0000 0.0000 29.3724 0.0000 -1.4479
# 5 -13.9381 -25.8607 -18.9716 0.0000 37.4012 0.0000
# 6 0.0000 0.0000 0.0000 -1.4479 0.0000 5.0619
#
#
#
# Elastic Compliance Matrix: (Units=1/GPa)
#
#
# Indices 1 2 3 4 5 6 
#
# 1 0.016893 -0.000829 0.000019 0.000000 0.005732 0.000000
# 2 -0.000829 0.012622 -0.002752 0.000000 0.007023 0.000000
# 3 0.000019 -0.002752 0.011814 0.000000 0.004097 0.000000
# 4 0.000000 0.000000 0.000000 0.034533 0.000000 0.009878
# 5 0.005732 0.007023 0.004097 0.000000 0.035807 0.000000
# 6 0.000000 0.000000 0.000000 0.009878 0.000000 0.200378
#
#
# Mechanical properties :
#
#
# Convention : Reuss Voigt Hill
#
# Bulk Modulus (GPa) = 29.23361 41.50576 35.36969
# Shear Modulus (GPa) = 15.12530 28.41761 21.77146
#
# Velocity S-wave (km/s) = 2.70445 3.70699 3.24467
# Velocity P-wave (km/s) = 4.88758 6.19621 5.58039
#
# Compressibility (1/GPa) = 0.03420720
#
# Stress axis : x y z
#
# Youngs Moduli (GPa) = 59.19564 79.22659 84.64273
#
# Poissons Ratio (x) = 0.06566 -0.00164
# Poissons Ratio (y) = 0.04906 0.23291
# Poissons Ratio (z) = -0.00114 0.21801
#
# Static dielectric constant tensor:
#      x y z
#    x 1.873790 0.000000 0.008730 
#    y 0.000000 1.813950 0.000000 
#    z 0.008730 0.000000 1.863740 
# 
# From -- ./inp_files/48245.got.cif
#   From: 2010.05.17/outbox.cif.g08.bks.cpg/sg13_25_cif.got.tgz:48245.got - 2010.06.03 16:44:36.
