data_PCOD9226487
_publ_section_title
;
Structure prediction by ZEFSAII (Michael W. Deem and Ramdas Pophale) SiO2 
 PCOD9226487
Probable space group: P 2/C
;
_chemical_formula_sum "Si O2"
_cell_formula_units_Z 18
_cell_length_a 8.792725
_cell_length_b 4.987238
_cell_length_c 22.487922
_cell_angle_alpha 90.000000
_cell_angle_beta 142.165134
_cell_angle_gamma 90.000000
_cell_volume 604.878327
_symmetry_space_group_name_H-M "P 2/C"
_symmetry_group_IT_number 13
_symmetry_cell_setting 'monoclinic'
loop_
_space_group_symop_operation_xyz
x,y,z
-x,y,1/2-z
-x,-y,-z
x,-y,1/2+z
loop_
_atom_site_type_symbol
_atom_site_label
_atom_site_fract_x
_atom_site_fract_y
_atom_site_fract_z
Si Si1 0.031896 0.582991 0.941759
Si Si2 0.290651 0.636950 0.857444
Si Si3 0.500000 0.561520 0.250000
Si Si4 0.358282 0.118163 0.812968
Si Si5 0.829968 0.933921 0.082929
O O1 0.758601 0.590342 0.827351
O O2 0.127493 0.882430 0.961998
O O3 0.194155 0.367335 0.952544
O O4 0.000000 0.500000 0.000000
O O5 0.357130 0.326417 0.868484
O O6 0.000000 0.639373 0.750000
O O7 0.314161 0.841269 0.920423
O O8 0.423878 0.816011 0.848636
O O9 0.476060 0.753078 0.185932
O O10 0.081628 0.109103 0.699548
#
# Coordination Sequence:
#
# PCOD9226487 Si02
#       5
#     4   4   2   4   4
#     4  11  23  39  61  86 117 155 192 240 291 341
#     4  10  17  30  52  82 112 144 189 232 279 336
#     4  10  22  38  58  86 118 148 194 236 288 348
#     4  10  19  30  53  83 112 146 184 233 283 336
#     4  10  20  36  57  85 118 152 196 241 285 343
#
# _framework density 29.758049
#
# number of rings (size 3 to 8) (size 9 to 14) (size 15 to 20)
#    0.000    1.778    0.000    9.333    0.000    8.000 
#    0.000    0.000    0.000    8.000    0.000    0.000 
#    0.000    0.000    0.000    0.000    0.000    0.000 
#
# Total GULP energy -100780.274700 kJ/mol
# GULP energy per Si atom -5598.904150 kJ/mol
# Density = 2.969032 g / cm^3
# Si number density = 29.758049 Si / 1000 Ang^3
#
#
#
# Elastic Constant Matrix: (Units=GPa)
#
#
# Indices 1 2 3 4 5 6 
#
# 1 74.3126 33.7774 6.4891 0.0000 -15.2153 0.0000
# 2 33.7774 231.2027 36.5134 0.0000 -9.6787 0.0000
# 3 6.4891 36.5134 144.9061 0.0000 -0.0085 0.0000
# 4 0.0000 0.0000 0.0000 61.6668 0.0000 -10.4756
# 5 -15.2153 -9.6787 -0.0085 0.0000 42.7119 0.0000
# 6 0.0000 0.0000 0.0000 -10.4756 0.0000 47.3793
#
#
#
# Elastic Compliance Matrix: (Units=1/GPa)
#
#
# Indices 1 2 3 4 5 6 
#
# 1 0.015419 -0.002013 -0.000183 0.000000 0.005036 0.000000
# 2 -0.002013 0.004812 -0.001122 0.000000 0.000373 0.000000
# 3 -0.000183 -0.001122 0.007192 0.000000 -0.000318 0.000000
# 4 0.000000 0.000000 0.000000 0.016849 0.000000 0.003725
# 5 0.005036 0.000373 -0.000318 0.000000 0.025291 0.000000
# 6 0.000000 0.000000 0.000000 0.003725 0.000000 0.021930
#
#
# Mechanical properties :
#
#
# Convention : Reuss Voigt Hill
#
# Bulk Modulus (GPa) = 48.10828 67.10904 57.60866
# Shear Modulus (GPa) = 47.59252 55.26103 51.42678
#
# Velocity S-wave (km/s) = 4.00348 4.31398 4.16163
# Velocity P-wave (km/s) = 6.12961 6.88581 6.51868
#
# Compressibility (1/GPa) = 0.02078644
#
# Stress axis : x y z
#
# Youngs Moduli (GPa) = 64.85612 207.80702 139.04302
#
# Poissons Ratio (x) = 0.41828 0.02544
# Poissons Ratio (y) = 0.13055 0.15606
# Poissons Ratio (z) = 0.01187 0.23324
#
# Static dielectric constant tensor:
#      x y z
#    x 2.485250 0.000000 -0.019960 
#    y 0.000000 2.137960 0.000000 
#    z -0.019960 0.000000 2.462040 
# 
# From -- ./inp_files/74696.got.cif
#   From: 2010.05.17/outbox.cif.g08.bks.cpg/sg13_38_cif.got.tgz:74696.got - 2010.06.03 16:44:36.
