data_PCOD9226569
_publ_section_title
;
Structure prediction by ZEFSAII (Michael W. Deem and Ramdas Pophale) SiO2 
 PCOD9226569
Probable space group: P 2/C
;
_chemical_formula_sum "Si O2"
_cell_formula_units_Z 26
_cell_length_a 8.829723
_cell_length_b 15.168405
_cell_length_c 11.602085
_cell_angle_alpha 90.000000
_cell_angle_beta 63.084454
_cell_angle_gamma 90.000000
_cell_volume 1385.573285
_symmetry_space_group_name_H-M "P 2/C"
_symmetry_group_IT_number 13
_symmetry_cell_setting 'monoclinic'
loop_
_space_group_symop_operation_xyz
x,y,z
-x,y,1/2-z
-x,-y,-z
x,-y,1/2+z
loop_
_atom_site_type_symbol
_atom_site_label
_atom_site_fract_x
_atom_site_fract_y
_atom_site_fract_z
Si Si1 0.323176 0.386533 0.768602
Si Si2 0.570832 0.139162 0.938778
Si Si3 0.888647 0.091330 0.678331
Si Si4 0.370958 0.669096 0.996816
Si Si5 0.500000 0.556606 0.750000
Si Si6 0.002138 0.275016 0.608287
Si Si7 0.648011 0.000351 0.606046
O O1 0.500000 0.342472 0.750000
O O2 0.334256 0.384253 0.626547
O O3 0.342668 0.487571 0.801958
O O4 0.157691 0.335625 0.868815
O O5 0.717157 0.135433 0.791269
O O6 0.407814 0.089273 0.943015
O O7 0.549818 0.237623 0.991154
O O8 0.641937 0.077804 0.016870
O O9 0.979532 0.172798 0.584311
O O10 0.819939 0.017298 0.616386
O O11 0.000000 0.061064 0.750000
O O12 0.483666 0.616209 0.868096
O O13 0.185138 0.690100 0.008064
O O14 0.000000 0.273911 0.750000
O O15 0.500000 0.983127 0.750000
#
# Coordination Sequence:
#
# PCOD9226569 Si02
#       7
#     4   4   4   4   2   4   4
#     4   9  20  35  58  85 103 135 190 229 276 328
#     4  10  19  34  52  79 106 149 183 226 274 324
#     4  10  17  33  53  82 105 140 190 227 274 320
#     4  11  20  37  57  79 115 145 185 227 279 341
#     4  10  24  34  56  84 112 148 178 224 290 338
#     4   9  17  33  56  81 104 139 182 231 270 320
#     4   9  21  32  52  79 112 141 186 228 271 329
#
# _framework density 18.764796
#
# number of rings (size 3 to 8) (size 9 to 14) (size 15 to 20)
#    0.462    1.846    4.615    0.462    3.231    1.231 
#    0.000    0.000    0.000    0.000    0.000    0.000 
#    0.000    0.000    0.000    0.000    0.000    0.000 
#
# Total GULP energy -144896.270041 kJ/mol
# GULP energy per Si atom -5572.933463 kJ/mol
# Density = 1.872209 g / cm^3
# Si number density = 18.764796 Si / 1000 Ang^3
#
#
#
# Elastic Constant Matrix: (Units=GPa)
#
#
# Indices 1 2 3 4 5 6 
#
# 1 67.3553 8.7524 4.2569 0.0000 4.2322 0.0000
# 2 8.7524 65.3252 11.0447 0.0000 10.0858 0.0000
# 3 4.2569 11.0447 29.2160 0.0000 5.5767 0.0000
# 4 0.0000 0.0000 0.0000 11.9806 0.0000 3.6727
# 5 4.2322 10.0858 5.5767 0.0000 22.7791 0.0000
# 6 0.0000 0.0000 0.0000 3.6727 0.0000 23.9886
#
#
#
# Elastic Compliance Matrix: (Units=1/GPa)
#
#
# Indices 1 2 3 4 5 6 
#
# 1 0.015244 -0.001541 -0.001288 0.000000 -0.001834 0.000000
# 2 -0.001541 0.017332 -0.005159 0.000000 -0.006125 0.000000
# 3 -0.001288 -0.005159 0.037643 0.000000 -0.006692 0.000000
# 4 0.000000 0.000000 0.000000 0.087579 0.000000 -0.013409
# 5 -0.001834 -0.006125 -0.006692 0.000000 0.048591 0.000000
# 6 0.000000 0.000000 0.000000 -0.013409 0.000000 0.043739
#
#
# Mechanical properties :
#
#
# Convention : Reuss Voigt Hill
#
# Bulk Modulus (GPa) = 18.43565 23.33382 20.88474
# Shear Modulus (GPa) = 17.59415 20.93916 19.26666
#
# Velocity S-wave (km/s) = 3.06537 3.34410 3.20776
# Velocity P-wave (km/s) = 4.73018 5.23188 4.98734
#
# Compressibility (1/GPa) = 0.05424274
#
# Stress axis : x y z
#
# Youngs Moduli (GPa) = 65.60127 57.69552 26.56531
#
# Poissons Ratio (x) = 0.08893 0.03422
# Poissons Ratio (y) = 0.10112 0.13704
# Poissons Ratio (z) = 0.08451 0.29763
#
# Static dielectric constant tensor:
#      x y z
#    x 1.718900 0.000000 -0.009740 
#    y 0.000000 1.662360 0.000000 
#    z -0.009740 0.000000 1.633160 
# 
# From -- ./inp_files/30018.got.cif
#   From: 2010.05.17/outbox.cif.g08.bks.cpg/sg13_16_cif.got.tgz:30018.got - 2010.06.03 16:44:36.
