data_PCOD9226439
_publ_section_title
;
Structure prediction by ZEFSAII (Michael W. Deem and Ramdas Pophale) SiO2 
 PCOD9226439
Probable space group: P 2/C
;
_chemical_formula_sum "Si O2"
_cell_formula_units_Z 32
_cell_length_a 9.266256
_cell_length_b 11.905143
_cell_length_c 21.361385
_cell_angle_alpha 90.000000
_cell_angle_beta 43.368638
_cell_angle_gamma 90.000000
_cell_volume 1618.187541
_symmetry_space_group_name_H-M "P 2/C"
_symmetry_group_IT_number 13
_symmetry_cell_setting 'monoclinic'
loop_
_space_group_symop_operation_xyz
x,y,z
-x,y,1/2-z
-x,-y,-z
x,-y,1/2+z
loop_
_atom_site_type_symbol
_atom_site_label
_atom_site_fract_x
_atom_site_fract_y
_atom_site_fract_z
Si Si1 0.088499 0.569829 0.585784
Si Si2 0.600820 0.890135 0.999492
Si Si3 0.599363 0.635763 0.301462
Si Si4 0.790191 0.747365 0.349962
Si Si5 0.796895 0.771612 0.042921
Si Si6 0.606694 0.612253 0.777545
Si Si7 0.763653 0.295761 0.351538
Si Si8 0.009709 0.677605 0.088326
O O1 0.151225 0.667740 0.519110
O O2 0.224535 0.596429 0.605309
O O3 0.849136 0.588533 0.683478
O O4 0.095060 0.448714 0.550820
O O5 0.397511 0.832670 0.093513
O O6 0.764170 0.878930 0.007250
O O7 0.693376 0.809722 0.915745
O O8 0.500000 0.000000 0.000000
O O9 0.713026 0.641089 0.333511
O O10 0.421786 0.730771 0.356611
O O11 0.509283 0.511735 0.318953
O O12 0.784826 0.660947 0.194152
O O13 0.000000 0.788998 0.250000
O O14 0.839053 0.725099 0.406218
O O15 0.971456 0.759805 0.042082
O O16 0.500000 0.665170 0.750000
O O17 0.613217 0.680623 0.839939
O O18 0.000000 0.277989 0.250000
#
# Coordination Sequence:
#
# PCOD9226439 Si02
#       8
#     4   4   4   4   4   4   4   4
#     4   9  18  30  46  73 107 139 164 190 240 307
#     4  10  22  39  55  70  92 130 177 221 263 303
#     4   9  17  30  47  72 107 141 161 183 235 306
#     4   9  19  33  52  76 101 128 163 204 250 300
#     4  10  19  31  49  73 100 132 170 206 244 295
#     4  10  18  29  48  75 106 137 163 195 240 300
#     4   9  19  35  53  73 101 136 171 208 253 308
#     4  10  17  29  49  76 107 133 158 199 244 299
#
# _framework density 19.775210999999999
#
# number of rings (size 3 to 8) (size 9 to 14) (size 15 to 20)
#    0.000    2.500    0.000    3.000    0.000    5.500 
#    0.000    4.375    0.000    4.500    0.000    0.000 
#    0.000    0.000    0.000    0.000    0.000    0.000 
#
# Total GULP energy -178177.534790 kJ/mol
# GULP energy per Si atom -5568.047962 kJ/mol
# Density = 1.973020 g / cm^3
# Si number density = 19.775211 Si / 1000 Ang^3
#
#
#
# Elastic Constant Matrix: (Units=GPa)
#
#
# Indices 1 2 3 4 5 6 
#
# 1 152.2083 32.2535 9.4456 0.0000 52.1716 0.0000
# 2 32.2535 53.3530 8.5965 0.0000 13.2437 0.0000
# 3 9.4456 8.5965 26.4937 0.0000 6.2307 0.0000
# 4 0.0000 0.0000 0.0000 107.9905 0.0000 377.1577
# 5 52.1716 13.2437 6.2307 0.0000 29.0204 0.0000
# 6 0.0000 0.0000 0.0000 377.1577 0.0000 1517.7088
#
#
#
# Elastic Compliance Matrix: (Units=1/GPa)
#
#
# Indices 1 2 3 4 5 6 
#
# 1 0.017670 -0.003399 0.002011 0.000000 -0.030648 0.000000
# 2 -0.003399 0.022396 -0.005359 0.000000 -0.002960 0.000000
# 3 0.002011 -0.005359 0.041118 0.000000 -0.009997 0.000000
# 4 0.000000 0.000000 0.000000 0.070101 0.000000 -0.017421
# 5 -0.030648 -0.002960 -0.009997 0.000000 0.093053 0.000000
# 6 0.000000 0.000000 0.000000 -0.017421 0.000000 0.004988
#
#
# Mechanical properties :
#
#
# Convention : Reuss Voigt Hill
#
# Bulk Modulus (GPa) = 14.77324 36.96068 25.86696
# Shear Modulus (GPa) = 17.52028 343.06122 180.29075
#
# Velocity S-wave (km/s) = 2.97976 13.18549 9.55866
# Velocity P-wave (km/s) = 4.39607 15.82847 11.61606
#
# Compressibility (1/GPa) = 0.06768998
#
# Stress axis : x y z
#
# Youngs Moduli (GPa) = 56.59232 44.65107 24.32032
#
# Poissons Ratio (x) = 0.15175 -0.04890
# Poissons Ratio (y) = 0.19233 0.13033
# Poissons Ratio (z) = -0.11378 0.23929
#
# Static dielectric constant tensor:
#      x y z
#    x 1.640370 0.000000 -0.049900 
#    y 0.000000 1.704040 0.000000 
#    z -0.049900 0.000000 1.711930 
# 
# From -- ./inp_files/69851.got.cif
#   From: 2010.05.17/outbox.cif.g08.bks.cpg/sg13_35_cif.got.tgz:69851.got - 2010.06.03 16:44:36.
