data_PCOD9226784
_publ_section_title
;
Structure prediction by ZEFSAII (Michael W. Deem and Ramdas Pophale) SiO2 
 PCOD9226784
Probable space group: P 2/C
;
_chemical_formula_sum "Si O2"
_cell_formula_units_Z 24
_cell_length_a 9.230656
_cell_length_b 17.054596
_cell_length_c 14.808707
_cell_angle_alpha 90.000000
_cell_angle_beta 157.628305
_cell_angle_gamma 90.000000
_cell_volume 887.310117
_symmetry_space_group_name_H-M "P 2/C"
_symmetry_group_IT_number 13
_symmetry_cell_setting 'monoclinic'
loop_
_space_group_symop_operation_xyz
x,y,z
-x,y,1/2-z
-x,-y,-z
x,-y,1/2+z
loop_
_atom_site_type_symbol
_atom_site_label
_atom_site_fract_x
_atom_site_fract_y
_atom_site_fract_z
Si Si1 0.331293 0.095708 0.017785
Si Si2 0.557588 0.766824 0.177082
Si Si3 0.294621 0.431572 0.036404
Si Si4 0.645927 0.067086 0.731757
Si Si5 0.301062 0.735465 0.504890
Si Si6 0.544221 0.397602 0.885199
O O1 0.000000 0.095239 0.750000
O O2 0.091354 0.084261 0.972573
O O3 0.521224 0.181946 0.126009
O O4 0.572097 0.017305 0.145397
O O5 0.500000 0.772971 0.250000
O O6 0.464916 0.853003 0.085448
O O7 0.008237 0.747309 0.420131
O O8 0.332390 0.689618 0.015359
O O9 0.500000 0.442408 0.250000
O O10 0.273698 0.519044 0.985060
O O11 0.484187 0.351242 0.107944
O O12 0.864952 0.407912 0.805143
O O13 0.500000 0.063976 0.750000
O O14 0.000000 0.735731 0.250000
O O15 0.500000 0.394657 0.750000
#
# Coordination Sequence:
#
# PCOD9226784 Si02
#       6
#     4   4   4   4   4   4
#     4  10  20  35  53  73 102 137 166 200 253 306
#     4   8  16  31  51  69  95 133 165 194 244 299
#     4  10  18  30  50  75  98 129 168 206 242 291
#     4  10  19  33  53  77 100 128 168 211 247 290
#     4   9  19  34  50  71 102 136 165 200 250 300
#     4   9  16  29  49  73  99 129 164 203 245 294
#
# _framework density 27.04804
#
# number of rings (size 3 to 8) (size 9 to 14) (size 15 to 20)
#    0.000    2.667    0.000    3.000    0.000    0.667 
#    0.000   10.000    0.000    1.000    0.000    7.000 
#    0.000    0.000    0.000    0.000    0.000    0.000 
#
# Total GULP energy -133874.211435 kJ/mol
# GULP energy per Si atom -5578.092143 kJ/mol
# Density = 2.698648 g / cm^3
# Si number density = 27.048040 Si / 1000 Ang^3
#
#
#
# Elastic Constant Matrix: (Units=GPa)
#
#
# Indices 1 2 3 4 5 6 
#
# 1 65.4660 8.7356 11.4135 0.0000 8.4192 0.0000
# 2 8.7356 400.2461 31.9027 0.0000 -18.2454 0.0000
# 3 11.4135 31.9027 27.8504 0.0000 -13.4029 0.0000
# 4 0.0000 0.0000 0.0000 42.7795 0.0000 -14.9026
# 5 8.4192 -18.2454 -13.4029 0.0000 29.6901 0.0000
# 6 0.0000 0.0000 0.0000 -14.9026 0.0000 49.5940
#
#
#
# Elastic Compliance Matrix: (Units=1/GPa)
#
#
# Indices 1 2 3 4 5 6 
#
# 1 0.019069 0.000137 -0.013457 0.000000 -0.011398 0.000000
# 2 0.000137 0.002753 -0.003084 0.000000 0.000261 0.000000
# 3 -0.013457 -0.003084 0.058612 0.000000 0.028379 0.000000
# 4 0.000000 0.000000 0.000000 0.026109 0.000000 0.007845
# 5 -0.011398 0.000261 0.028379 0.000000 0.049885 0.000000
# 6 0.000000 0.000000 0.000000 0.007845 0.000000 0.022521
#
#
# Mechanical properties :
#
#
# Convention : Reuss Voigt Hill
#
# Bulk Modulus (GPa) = 20.99735 66.40735 43.70235
# Shear Modulus (GPa) = 21.96532 53.84674 37.90603
#
# Velocity S-wave (km/s) = 2.85280 4.46666 3.74763
# Velocity P-wave (km/s) = 4.31638 7.15586 5.90921
#
# Compressibility (1/GPa) = 0.04762507
#
# Stress axis : x y z
#
# Youngs Moduli (GPa) = 52.44187 363.21177 17.06150
#
# Poissons Ratio (x) = -0.04970 0.22959
# Poissons Ratio (y) = -0.00718 0.05262
# Poissons Ratio (z) = 0.70569 1.12030
#
# Static dielectric constant tensor:
#      x y z
#    x 2.215240 0.000000 0.017130 
#    y 0.000000 2.258170 0.000000 
#    z 0.017130 0.000000 2.142110 
# 
# From -- ./inp_files/78748.got.cif
#   From: 2010.05.17/outbox.cif.g08.bks.cpg/sg13_40_cif.got.tgz:78748.got - 2010.06.03 16:44:36.
