data_PCOD9226391
_publ_section_title
;
Structure prediction by ZEFSAII (Michael W. Deem and Ramdas Pophale) SiO2 
 PCOD9226391
Probable space group: P 2/C
;
_chemical_formula_sum "Si O2"
_cell_formula_units_Z 30
_cell_length_a 5.428573
_cell_length_b 17.094594
_cell_length_c 16.329401
_cell_angle_alpha 90.000000
_cell_angle_beta 114.889805
_cell_angle_gamma 90.000000
_cell_volume 1374.608266
_symmetry_space_group_name_H-M "P 2/C"
_symmetry_group_IT_number 13
_symmetry_cell_setting 'monoclinic'
loop_
_space_group_symop_operation_xyz
x,y,z
-x,y,1/2-z
-x,-y,-z
x,-y,1/2+z
loop_
_atom_site_type_symbol
_atom_site_label
_atom_site_fract_x
_atom_site_fract_y
_atom_site_fract_z
Si Si1 0.571055 0.881228 0.899937
Si Si2 0.829405 0.136631 0.607361
Si Si3 0.777401 0.260072 0.807541
Si Si4 0.853625 0.673795 0.494158
Si Si5 0.694453 0.936199 0.417349
Si Si6 0.316312 0.576995 0.458251
Si Si7 0.063467 0.830109 0.898849
Si Si8 0.000000 0.399879 0.750000
O O1 0.263788 0.853013 0.854327
O O2 0.752619 0.854142 0.850379
O O3 0.635753 0.972680 0.923118
O O4 0.691912 0.842279 0.000701
O O5 0.605714 0.097881 0.632192
O O6 0.944103 0.213988 0.663466
O O7 0.086716 0.081416 0.622333
O O8 0.500000 0.217122 0.750000
O O9 0.784008 0.276821 0.904272
O O10 0.783544 0.341279 0.760441
O O11 0.564314 0.637401 0.479760
O O12 0.930299 0.739503 0.572176
O O13 0.094019 0.612626 0.494394
O O14 0.820617 0.889682 0.513143
O O15 0.500000 0.500000 0.500000
O O16 0.146146 0.562029 0.349554
#
# Coordination Sequence:
#
# PCOD9226391 Si02
#       8
#     4   4   4   4   4   4   4   2
#     4  10  17  27  43  67 102 147 177 218 273 310
#     4  10  19  27  43  63  99 140 183 226 263 308
#     4  11  21  33  51  77 109 147 196 228 272 354
#     4  11  21  36  55  80 111 153 188 238 289 351
#     4  10  18  28  42  66 102 147 180 219 272 309
#     4  11  24  41  59  84 116 156 189 236 297 366
#     4  10  17  27  45  69 100 138 180 225 274 318
#     4  10  24  36  62  82 114 154 194 222 304 366
#
# _framework density 21.824400000000001
#
# number of rings (size 3 to 8) (size 9 to 14) (size 15 to 20)
#    0.000    1.600    4.000    5.200    7.467    0.000 
#    0.000    0.000    0.000    0.000    0.000    0.000 
#    0.000    0.000   77.067    0.000    0.000    0.000 
#
# Total GULP energy -167134.693268 kJ/mol
# GULP energy per Si atom -5571.156442 kJ/mol
# Density = 2.177473 g / cm^3
# Si number density = 21.824400 Si / 1000 Ang^3
#
#
#
# Elastic Constant Matrix: (Units=GPa)
#
#
# Indices 1 2 3 4 5 6 
#
# 1 188.6393 29.3148 25.5245 0.0000 25.8157 0.0000
# 2 29.3148 69.2417 33.9525 0.0000 15.2248 0.0000
# 3 25.5245 33.9525 50.2839 0.0000 9.0593 0.0000
# 4 0.0000 0.0000 0.0000 -26.1514 0.0000 16.7066
# 5 25.8157 15.2248 9.0593 0.0000 26.8899 0.0000
# 6 0.0000 0.0000 0.0000 16.7066 0.0000 30.8771
#
#
#
# Elastic Compliance Matrix: (Units=1/GPa)
#
#
# Indices 1 2 3 4 5 6 
#
# 1 0.006353 -0.000654 -0.001864 0.000000 -0.005101 0.000000
# 2 -0.000654 0.023306 -0.013989 0.000000 -0.007855 0.000000
# 3 -0.001864 -0.013989 0.030373 0.000000 -0.000522 0.000000
# 4 0.000000 0.000000 0.000000 -0.028417 0.000000 0.015375
# 5 -0.005101 -0.007855 -0.000522 0.000000 0.046709 0.000000
# 6 0.000000 0.000000 0.000000 0.015375 0.000000 0.024067
#
#
# Mechanical properties :
#
#
# Convention : Reuss Voigt Hill
#
# Bulk Modulus (GPa) = 37.01380 53.97206 45.49293
# Shear Modulus (GPa) = 34.62290 20.94800 27.78545
#
# Velocity S-wave (km/s) = 3.98732 3.10149 3.57198
# Velocity P-wave (km/s) = 6.18021 6.13266 6.15648
#
# Compressibility (1/GPa) = 0.02701695
#
# Stress axis : x y z
#
# Youngs Moduli (GPa) = 157.40407 42.90787 32.92359
#
# Poissons Ratio (x) = 0.02806 0.06138
# Poissons Ratio (y) = 0.10293 0.46058
# Poissons Ratio (z) = 0.29345 0.60025
#
# Static dielectric constant tensor:
#      x y z
#    x 1.939740 0.000000 0.004910 
#    y 0.000000 1.846840 0.000000 
#    z 0.004910 0.000000 1.814520 
# 
# From -- ./inp_files/73944.got.cif
#   From: 2010.05.17/outbox.cif.g08.bks.cpg/sg13_37_cif.got.tgz:73944.got - 2010.06.03 16:44:36.
