data_PCOD9226650
_publ_section_title
;
Structure prediction by ZEFSAII (Michael W. Deem and Ramdas Pophale) SiO2 
 PCOD9226650
Probable space group: P 2/C
;
_chemical_formula_sum "Si O2"
_cell_formula_units_Z 32
_cell_length_a 9.856252
_cell_length_b 13.066193
_cell_length_c 18.216265
_cell_angle_alpha 90.000000
_cell_angle_beta 41.625361
_cell_angle_gamma 90.000000
_cell_volume 1558.319264
_symmetry_space_group_name_H-M "P 2/C"
_symmetry_group_IT_number 13
_symmetry_cell_setting 'monoclinic'
loop_
_space_group_symop_operation_xyz
x,y,z
-x,y,1/2-z
-x,-y,-z
x,-y,1/2+z
loop_
_atom_site_type_symbol
_atom_site_label
_atom_site_fract_x
_atom_site_fract_y
_atom_site_fract_z
Si Si1 0.959891 0.877865 0.850931
Si Si2 0.319974 0.660639 0.269994
Si Si3 0.929321 0.558681 0.363088
Si Si4 0.392729 0.282613 0.566945
Si Si5 0.736824 0.930178 0.658595
Si Si6 0.915870 0.149548 0.578803
Si Si7 0.154836 0.335694 0.118748
Si Si8 0.838254 0.086750 0.880381
O O1 0.899686 0.766426 0.905399
O O2 0.000000 0.860464 0.750000
O O3 0.171743 0.919146 0.797532
O O4 0.797372 0.970714 0.924773
O O5 0.500000 0.617379 0.250000
O O6 0.379866 0.693486 0.160823
O O7 0.235605 0.756705 0.351062
O O8 0.121859 0.589942 0.334767
O O9 0.762275 0.648012 0.419014
O O10 0.848822 0.446549 0.418104
O O11 0.000000 0.548894 0.250000
O O12 0.616018 0.312380 0.449318
O O13 0.336684 0.164208 0.574266
O O14 0.500000 0.907591 0.750000
O O15 0.888417 0.855396 0.553383
O O16 0.787761 0.046230 0.613553
O O17 0.028668 0.139912 0.610849
O O18 0.000000 0.342389 0.250000
O O19 0.000000 0.075238 0.750000
#
# Coordination Sequence:
#
# PCOD9226650 Si02
#       8
#     4   4   4   4   4   4   4   4
#     4   9  21  38  58  84 128 158 198 253 298 368
#     4  11  22  37  64  94 120 156 205 264 319 360
#     4   9  19  40  64  88 119 152 209 259 301 368
#     4  11  20  36  67  92 116 160 208 258 307 360
#     4  10  22  39  60  86 124 173 209 243 311 383
#     4  10  20  37  61  89 126 159 206 259 300 369
#     4  10  22  39  58  88 125 162 201 250 310 369
#     4  10  17  36  61  92 121 150 203 256 297 357
#
# _framework density 20.534945
#
# number of rings (size 3 to 8) (size 9 to 14) (size 15 to 20)
#    0.000    2.000    2.500    1.125    1.750    2.500 
#    2.250    1.250    0.000    0.000    0.000    0.000 
#    0.000    0.000    0.000    0.000    0.000    0.000 
#
# Total GULP energy -178137.334951 kJ/mol
# GULP energy per Si atom -5566.791717 kJ/mol
# Density = 2.048821 g / cm^3
# Si number density = 20.534945 Si / 1000 Ang^3
#
#
#
# Elastic Constant Matrix: (Units=GPa)
#
#
# Indices 1 2 3 4 5 6 
#
# 1 122.0634 36.8420 36.5553 0.0000 -22.0638 0.0000
# 2 36.8420 134.3501 24.2504 0.0000 -25.6640 0.0000
# 3 36.5553 24.2504 86.5596 0.0000 -18.9252 0.0000
# 4 0.0000 0.0000 0.0000 -164.9749 0.0000 257.7391
# 5 -22.0638 -25.6640 -18.9252 0.0000 27.2230 0.0000
# 6 0.0000 0.0000 0.0000 257.7391 0.0000 -387.2881
#
#
#
# Elastic Compliance Matrix: (Units=1/GPa)
#
#
# Indices 1 2 3 4 5 6 
#
# 1 0.010394 -0.001346 -0.002887 0.000000 0.005148 0.000000
# 2 -0.001346 0.009299 -0.000423 0.000000 0.007381 0.000000
# 3 -0.002887 -0.000423 0.014495 0.000000 0.007338 0.000000
# 4 0.000000 0.000000 0.000000 0.152678 0.000000 0.101607
# 5 0.005148 0.007381 0.007338 0.000000 0.052967 0.000000
# 6 0.000000 0.000000 0.000000 0.101607 0.000000 0.065037
#
#
# Mechanical properties :
#
#
# Convention : Reuss Voigt Hill
#
# Bulk Modulus (GPa) = 40.19872 59.80763 50.00317
# Shear Modulus (GPa) = 15.50522 -88.65297 -36.57388
#
# Velocity S-wave (km/s) = 2.75083 -6.57765 -4.22483
# Velocity P-wave (km/s) = 5.45047 5.33847 0.77729
#
# Compressibility (1/GPa) = 0.02487641
#
# Stress axis : x y z
#
# Youngs Moduli (GPa) = 96.21140 107.54280 68.99045
#
# Poissons Ratio (x) = 0.14472 0.19916
# Poissons Ratio (y) = 0.12947 0.02918
# Poissons Ratio (z) = 0.27774 0.04548
#
# Static dielectric constant tensor:
#      x y z
#    x 1.885220 0.000000 0.127660 
#    y 0.000000 1.845660 0.000000 
#    z 0.127660 0.000000 1.845820 
# 
# From -- ./inp_files/76611.got.cif
#   From: 2010.05.17/outbox.cif.g08.bks.cpg/sg13_39_cif.got.tgz:76611.got - 2010.06.03 16:44:36.
