data_PCOD9226618
_publ_section_title
;
Structure prediction by ZEFSAII (Michael W. Deem and Ramdas Pophale) SiO2 
 PCOD9226618
Probable space group: P 2/C
;
_chemical_formula_sum "Si O2"
_cell_formula_units_Z 16
_cell_length_a 14.949955
_cell_length_b 5.170924
_cell_length_c 21.174958
_cell_angle_alpha 90.000000
_cell_angle_beta 157.947772
_cell_angle_gamma 90.000000
_cell_volume 614.588701
_symmetry_space_group_name_H-M "P 2/C"
_symmetry_group_IT_number 13
_symmetry_cell_setting 'monoclinic'
loop_
_space_group_symop_operation_xyz
x,y,z
-x,y,1/2-z
-x,-y,-z
x,-y,1/2+z
loop_
_atom_site_type_symbol
_atom_site_label
_atom_site_fract_x
_atom_site_fract_y
_atom_site_fract_z
Si Si1 0.627192 0.185862 0.924462
Si Si2 0.746072 0.080056 0.619058
Si Si3 0.901750 0.575646 0.785620
Si Si4 0.858634 0.196736 0.950592
O O1 0.753376 0.055892 0.945581
O O2 0.378483 0.298682 0.738484
O O3 0.835215 0.395239 0.076452
O O4 0.582231 0.991991 0.952324
O O5 0.753129 0.333848 0.665624
O O6 0.000000 0.086276 0.750000
O O7 0.757340 0.831235 0.671683
O O8 0.975566 0.589488 0.907411
O O9 0.000000 0.000000 0.000000
#
# Coordination Sequence:
#
# PCOD9226618 Si02
#       4
#     4   4   4   4
#     4   8  18  35  61  92 119 166 210 260 317 373
#     4  10  17  34  61  88 117 156 211 249 311 366
#     4   9  19  34  61  89 115 162 202 257 307 371
#     4   9  18  38  60  90 128 166 210 260 318 384
#
# _framework density 26.033669
#
# number of rings (size 3 to 8) (size 9 to 14) (size 15 to 20)
#    1.500    1.500    0.000    2.250    0.000    0.000 
#    0.000   16.250    0.000    1.500    0.000    0.000 
#    0.000    0.000    0.000    0.000    0.000    0.000 
#
# Total GULP energy -89312.216920 kJ/mol
# GULP energy per Si atom -5582.013557 kJ/mol
# Density = 2.597442 g / cm^3
# Si number density = 26.033669 Si / 1000 Ang^3
#
#
#
# Elastic Constant Matrix: (Units=GPa)
#
#
# Indices 1 2 3 4 5 6 
#
# 1 124.9759 48.9156 72.6116 0.0000 9.1528 0.0000
# 2 48.9156 158.6413 74.8400 0.0000 -17.1659 0.0000
# 3 72.6116 74.8400 136.3029 0.0000 -37.0043 0.0000
# 4 0.0000 0.0000 0.0000 8.8632 0.0000 33.4088
# 5 9.1528 -17.1659 -37.0043 0.0000 41.1449 0.0000
# 6 0.0000 0.0000 0.0000 33.4088 0.0000 -39.2820
#
#
#
# Elastic Compliance Matrix: (Units=1/GPa)
#
#
# Indices 1 2 3 4 5 6 
#
# 1 0.016897 -0.000882 -0.012751 0.000000 -0.015595 0.000000
# 2 -0.000882 0.008576 -0.004253 0.000000 -0.000050 0.000000
# 3 -0.012751 -0.004253 0.022164 0.000000 0.020996 0.000000
# 4 0.000000 0.000000 0.000000 0.026826 0.000000 0.022815
# 5 -0.015595 -0.000050 0.020996 0.000000 0.046636 0.000000
# 6 0.000000 0.000000 0.000000 0.022815 0.000000 -0.006053
#
#
# Mechanical properties :
#
#
# Convention : Reuss Voigt Hill
#
# Bulk Modulus (GPa) = 84.27107 90.29495 87.28301
# Shear Modulus (GPa) = 32.30510 17.04876 24.67693
#
# Velocity S-wave (km/s) = 3.52646 2.56183 3.08211
# Velocity P-wave (km/s) = 7.00154 6.59620 6.80189
#
# Compressibility (1/GPa) = 0.01186647
#
# Stress axis : x y z
#
# Youngs Moduli (GPa) = 59.18123 116.59969 45.11721
#
# Poissons Ratio (x) = 0.10287 0.57528
# Poissons Ratio (y) = 0.05221 0.19187
# Poissons Ratio (z) = 0.75461 0.49587
#
# Static dielectric constant tensor:
#      x y z
#    x 2.123290 0.000000 -0.010600 
#    y 0.000000 2.037470 0.000000 
#    z -0.010600 0.000000 2.075620 
# 
# From -- ./inp_files/79155.got.cif
#   From: 2010.05.17/outbox.cif.g08.bks.cpg/sg13_40_cif.got.tgz:79155.got - 2010.06.03 16:44:36.
