data_PCOD9226232
_publ_section_title
;
Structure prediction by ZEFSAII (Michael W. Deem and Ramdas Pophale) SiO2 
 PCOD9226232
Probable space group: P 2/C
;
_chemical_formula_sum "Si O2"
_cell_formula_units_Z 26
_cell_length_a 12.619440
_cell_length_b 8.366417
_cell_length_c 11.828943
_cell_angle_alpha 90.000000
_cell_angle_beta 97.798074
_cell_angle_gamma 90.000000
_cell_volume 1237.344588
_symmetry_space_group_name_H-M "P 2/C"
_symmetry_group_IT_number 13
_symmetry_cell_setting 'monoclinic'
loop_
_space_group_symop_operation_xyz
x,y,z
-x,y,1/2-z
-x,-y,-z
x,-y,1/2+z
loop_
_atom_site_type_symbol
_atom_site_label
_atom_site_fract_x
_atom_site_fract_y
_atom_site_fract_z
Si Si1 0.356936 0.515305 0.596454
Si Si2 0.011369 0.694468 0.507301
Si Si3 0.500000 0.236279 0.250000
Si Si4 0.000000 0.644641 0.750000
Si Si5 0.500000 0.723577 0.250000
Si Si6 0.762182 0.243992 0.566251
Si Si7 0.154125 0.366967 0.691553
Si Si8 0.405611 0.981044 0.396232
O O1 0.415818 0.659597 0.668401
O O2 0.443161 0.377321 0.641098
O O3 0.315604 0.604719 0.476835
O O4 0.250035 0.438905 0.632363
O O5 0.926867 0.735804 0.397548
O O6 0.000000 0.500000 0.500000
O O7 0.982398 0.739664 0.631383
O O8 0.131954 0.744583 0.495939
O O9 0.423267 0.136091 0.322213
O O10 0.096362 0.521763 0.738429
O O11 0.422068 0.838800 0.307991
O O12 0.804120 0.265777 0.698522
O O13 0.698881 0.076541 0.551252
O O14 0.500000 0.000000 0.500000
#
# Coordination Sequence:
#
# PCOD9226232 Si02
#       8
#     4   4   2   2   2   4   4   4
#     4  11  21  36  61  94 123 157 218 278 320 369
#     4  10  18  30  53  91 132 160 198 255 319 384
#     4  10  24  42  58  86 124 172 220 264 320 384
#     4  10  16  30  52  84 138 156 194 250 322 380
#     4  10  24  38  58  92 124 158 220 274 322 378
#     4  12  20  34  61  91 128 168 211 259 327 381
#     4  11  18  32  55  97 129 159 199 267 322 371
#     4  11  23  41  60  83 124 176 214 255 320 398
#
# _framework density 21.012740000000001
#
# number of rings (size 3 to 8) (size 9 to 14) (size 15 to 20)
#    0.000    1.231    9.231    0.000    0.000    1.846 
#    0.000    0.000    0.000    0.000    4.000    6.462 
#    0.000    0.000    0.000    0.000    0.000    0.000 
#
# Total GULP energy -144773.310431 kJ/mol
# GULP energy per Si atom -5568.204247 kJ/mol
# Density = 2.096491 g / cm^3
# Si number density = 21.012740 Si / 1000 Ang^3
#
#
#
# Elastic Constant Matrix: (Units=GPa)
#
#
# Indices 1 2 3 4 5 6 
#
# 1 100.9138 14.0163 23.4385 0.0000 2.6370 0.0000
# 2 14.0163 34.3890 6.2965 0.0000 1.6588 0.0000
# 3 23.4385 6.2965 117.8297 0.0000 23.8648 0.0000
# 4 0.0000 0.0000 0.0000 4.7315 0.0000 9.0576
# 5 2.6370 1.6588 23.8648 0.0000 40.7210 0.0000
# 6 0.0000 0.0000 0.0000 9.0576 0.0000 23.9579
#
#
#
# Elastic Compliance Matrix: (Units=1/GPa)
#
#
# Indices 1 2 3 4 5 6 
#
# 1 0.010950 -0.004112 -0.002098 0.000000 0.000688 0.000000
# 2 -0.004112 0.030914 -0.000718 0.000000 -0.000572 0.000000
# 3 -0.002098 -0.000718 0.010109 0.000000 -0.005759 0.000000
# 4 0.000000 0.000000 0.000000 0.764987 0.000000 -0.289212
# 5 0.000688 -0.000572 -0.005759 0.000000 0.027911 0.000000
# 6 0.000000 0.000000 0.000000 -0.289212 0.000000 0.151080
#
#
# Mechanical properties :
#
#
# Convention : Reuss Voigt Hill
#
# Bulk Modulus (GPa) = 26.23488 37.84834 32.04161
# Shear Modulus (GPa) = 4.88991 27.84084 16.36538
#
# Velocity S-wave (km/s) = 1.52714 3.64394 2.79378
# Velocity P-wave (km/s) = 3.95245 5.97959 5.06840
#
# Compressibility (1/GPa) = 0.03811720
#
# Stress axis : x y z
#
# Youngs Moduli (GPa) = 91.32562 32.34769 98.92237
#
# Poissons Ratio (x) = 0.13302 0.20751
# Poissons Ratio (y) = 0.37553 0.07104
# Poissons Ratio (z) = 0.19157 0.02323
#
# Static dielectric constant tensor:
#      x y z
#    x 1.785730 0.000000 0.112680 
#    y 0.000000 1.774440 0.000000 
#    z 0.112680 0.000000 1.672650 
# 
# From -- ./inp_files/32661.got.cif
#   From: 2010.05.17/outbox.cif.g08.bks.cpg/sg13_17_cif.got.tgz:32661.got - 2010.06.03 16:44:36.
