data_PCOD9226179
_publ_section_title
;
Structure prediction by ZEFSAII (Michael W. Deem and Ramdas Pophale) SiO2 
 PCOD9226179
Probable space group: P 2/C
;
_chemical_formula_sum "Si O2"
_cell_formula_units_Z 24
_cell_length_a 15.629427
_cell_length_b 7.806559
_cell_length_c 14.329631
_cell_angle_alpha 90.000000
_cell_angle_beta 139.400590
_cell_angle_gamma 90.000000
_cell_volume 1137.791881
_symmetry_space_group_name_H-M "P 2/C"
_symmetry_group_IT_number 13
_symmetry_cell_setting 'monoclinic'
loop_
_space_group_symop_operation_xyz
x,y,z
-x,y,1/2-z
-x,-y,-z
x,-y,1/2+z
loop_
_atom_site_type_symbol
_atom_site_label
_atom_site_fract_x
_atom_site_fract_y
_atom_site_fract_z
Si Si1 0.921413 0.318107 0.558344
Si Si2 0.639688 0.463659 0.660574
Si Si3 0.919203 0.998622 0.833901
Si Si4 0.639035 0.754346 0.815111
Si Si5 0.630777 0.940255 0.164366
Si Si6 0.097142 0.623226 0.684320
O O1 0.779001 0.271037 0.481435
O O2 0.914395 0.337995 0.437840
O O3 0.986597 0.499171 0.633320
O O4 0.018616 0.163610 0.662019
O O5 0.500000 0.500000 0.500000
O O6 0.642967 0.592307 0.749667
O O7 0.638155 0.263726 0.687237
O O8 0.762314 0.524071 0.696954
O O9 0.924449 0.811681 0.792692
O O10 0.764510 0.023829 0.720030
O O11 0.000000 0.000000 0.000000
O O12 0.500000 0.748160 0.750000
O O13 0.641643 0.935039 0.762476
O O14 0.500000 0.000000 0.000000
#
# Coordination Sequence:
#
# PCOD9226179 Si02
#       6
#     4   4   4   4   4   4
#     4   9  17  29  51  79 108 140 183 235 278 321
#     4  11  20  35  58  84 112 149 190 236 284 334
#     4  10  16  29  52  84 108 136 191 245 274 315
#     4  11  24  38  54  86 123 151 184 232 292 350
#     4  12  21  35  59  87 115 149 191 240 284 332
#     4   9  16  27  50  82 106 132 186 243 274 309
#
# _framework density 21.093489000000002
#
# number of rings (size 3 to 8) (size 9 to 14) (size 15 to 20)
#    0.000    1.667    8.333    0.000    2.333    0.667 
#    0.000    0.000    0.000    4.000    0.000    4.667 
#    0.000    0.000    0.000    0.000    0.000    0.000 
#
# Total GULP energy -133705.071023 kJ/mol
# GULP energy per Si atom -5571.044626 kJ/mol
# Density = 2.104548 g / cm^3
# Si number density = 21.093489 Si / 1000 Ang^3
#
#
#
# Elastic Constant Matrix: (Units=GPa)
#
#
# Indices 1 2 3 4 5 6 
#
# 1 56.1581 31.8859 35.6317 0.0000 29.4212 0.0000
# 2 31.8859 232.2489 52.6260 0.0000 31.2244 0.0000
# 3 35.6317 52.6260 132.0958 0.0000 46.3502 0.0000
# 4 0.0000 0.0000 0.0000 35.5113 0.0000 14.8074
# 5 29.4212 31.2244 46.3502 0.0000 42.3916 0.0000
# 6 0.0000 0.0000 0.0000 14.8074 0.0000 3.9930
#
#
#
# Elastic Compliance Matrix: (Units=1/GPa)
#
#
# Indices 1 2 3 4 5 6 
#
# 1 0.028443 -0.001308 -0.000913 0.000000 -0.017779 0.000000
# 2 -0.001308 0.004937 -0.001065 0.000000 -0.001564 0.000000
# 3 -0.000913 -0.001065 0.012563 0.000000 -0.012318 0.000000
# 4 0.000000 0.000000 0.000000 -0.051549 0.000000 0.191160
# 5 -0.017779 -0.001564 -0.012318 0.000000 0.050549 0.000000
# 6 0.000000 0.000000 0.000000 0.191160 0.000000 -0.458444
#
#
# Mechanical properties :
#
#
# Convention : Reuss Voigt Hill
#
# Bulk Modulus (GPa) = 25.39943 73.42111 49.41027
# Shear Modulus (GPa) = -12.69664 36.40313 11.85324
#
# Velocity S-wave (km/s) = -2.45607 4.15878 2.37310
# Velocity P-wave (km/s) = 2.00610 7.61207 5.56633
#
# Compressibility (1/GPa) = 0.03937096
#
# Stress axis : x y z
#
# Youngs Moduli (GPa) = 35.15798 202.55492 79.59810
#
# Poissons Ratio (x) = 0.26492 0.07267
# Poissons Ratio (y) = 0.04598 0.08480
# Poissons Ratio (z) = 0.03210 0.21578
#
# Static dielectric constant tensor:
#      x y z
#    x 1.791370 0.000000 -0.023750 
#    y 0.000000 1.683180 0.000000 
#    z -0.023750 0.000000 1.770950 
# 
# From -- ./inp_files/80772.got.cif
#   From: 2010.05.17/outbox.cif.g08.bks.cpg/sg13_41_cif.got.tgz:80772.got - 2010.06.03 16:44:36.
