data_PCOD9226619
_publ_section_title
;
Structure prediction by ZEFSAII (Michael W. Deem and Ramdas Pophale) SiO2 
 PCOD9226619
Probable space group: P 2/C
;
_chemical_formula_sum "Si O2"
_cell_formula_units_Z 28
_cell_length_a 8.754559
_cell_length_b 7.982789
_cell_length_c 16.106521
_cell_angle_alpha 90.000000
_cell_angle_beta 93.518556
_cell_angle_gamma 90.000000
_cell_volume 1123.495245
_symmetry_space_group_name_H-M "P 2/C"
_symmetry_group_IT_number 13
_symmetry_cell_setting 'monoclinic'
loop_
_space_group_symop_operation_xyz
x,y,z
-x,y,1/2-z
-x,-y,-z
x,-y,1/2+z
loop_
_atom_site_type_symbol
_atom_site_label
_atom_site_fract_x
_atom_site_fract_y
_atom_site_fract_z
Si Si1 0.358475 0.117884 0.974931
Si Si2 0.096449 0.537528 0.380374
Si Si3 0.553923 0.271571 0.840670
Si Si4 0.151154 0.366005 0.216967
Si Si5 0.669276 0.531582 0.967854
Si Si6 0.226163 0.026156 0.199113
Si Si7 0.914272 0.067709 0.627655
O O1 0.412442 0.221406 0.894803
O O2 0.323585 0.265956 0.038634
O O3 0.208748 0.013607 0.945316
O O4 0.500000 0.000000 0.000000
O O5 0.175442 0.496668 0.293025
O O6 0.202148 0.481598 0.460037
O O7 0.064701 0.733766 0.384481
O O8 0.933021 0.443970 0.365951
O O9 0.500000 0.333279 0.750000
O O10 0.646965 0.100040 0.829306
O O11 0.656861 0.413177 0.887258
O O12 0.000000 0.270797 0.250000
O O13 0.272334 0.219752 0.212605
O O14 0.500000 0.500000 0.000000
O O15 0.166450 0.958699 0.285886
O O16 0.079391 0.016209 0.133615
#
# Coordination Sequence:
#
# PCOD9226619 Si02
#       7
#     4   4   4   4   4   4   4
#     4  10  22  42  65  86 125 168 209 254 326 392
#     4   8  16  33  56  86 114 156 210 250 299 388
#     4  11  23  41  59  89 127 163 213 271 315 377
#     4   8  16  30  54  87 121 151 205 257 305 371
#     4   9  20  38  61  83 115 168 208 242 318 381
#     4  11  19  32  58  90 119 160 206 261 318 367
#     4  10  17  34  62  88 116 164 204 245 323 387
#
# _framework density 24.922225000000001
#
# number of rings (size 3 to 8) (size 9 to 14) (size 15 to 20)
#    0.857    1.429    2.857    1.714    0.000    4.571 
#    0.000    9.286    0.000    0.000    0.000    0.000 
#    0.000    0.000    0.000    0.000    0.000    0.000 
#
# Total GULP energy -156386.650497 kJ/mol
# GULP energy per Si atom -5585.237518 kJ/mol
# Density = 2.486550 g / cm^3
# Si number density = 24.922225 Si / 1000 Ang^3
#
#
#
# Elastic Constant Matrix: (Units=GPa)
#
#
# Indices 1 2 3 4 5 6 
#
# 1 52.3883 17.2008 25.7152 0.0000 15.7850 0.0000
# 2 17.2008 87.0336 24.7670 0.0000 27.9242 0.0000
# 3 25.7152 24.7670 133.7905 0.0000 24.9995 0.0000
# 4 0.0000 0.0000 0.0000 20.5094 0.0000 -2.2811
# 5 15.7850 27.9242 24.9995 0.0000 51.5717 0.0000
# 6 0.0000 0.0000 0.0000 -2.2811 0.0000 42.6576
#
#
#
# Elastic Compliance Matrix: (Units=1/GPa)
#
#
# Indices 1 2 3 4 5 6 
#
# 1 0.022631 -0.002231 -0.003154 0.000000 -0.004190 0.000000
# 2 -0.002231 0.014329 -0.000991 0.000000 -0.006595 0.000000
# 3 -0.003154 -0.000991 0.008779 0.000000 -0.002753 0.000000
# 4 0.000000 0.000000 0.000000 0.049050 0.000000 0.002623
# 5 -0.004190 -0.006595 -0.002753 0.000000 0.025579 0.000000
# 6 0.000000 0.000000 0.000000 0.002623 0.000000 0.023583
#
#
# Mechanical properties :
#
#
# Convention : Reuss Voigt Hill
#
# Bulk Modulus (GPa) = 30.31551 45.39761 37.85656
# Shear Modulus (GPa) = 29.81552 36.64969 33.23261
#
# Velocity S-wave (km/s) = 3.46257 3.83895 3.65561
# Velocity P-wave (km/s) = 5.30814 6.15673 5.74811
#
# Compressibility (1/GPa) = 0.03298641
#
# Stress axis : x y z
#
# Youngs Moduli (GPa) = 44.18652 69.78929 113.91381
#
# Poissons Ratio (x) = 0.15569 0.35928
# Poissons Ratio (y) = 0.09857 0.11294
# Poissons Ratio (z) = 0.13936 0.06919
#
# Static dielectric constant tensor:
#      x y z
#    x -0.547710 0.000000 -0.249960 
#    y 0.000000 1.964380 0.000000 
#    z -0.249960 0.000000 2.053730 
# 
# From -- ./inp_files/49723.got.cif
#   From: 2010.05.17/outbox.cif.g08.bks.cpg/sg13_25_cif.got.tgz:49723.got - 2010.06.03 16:44:36.
