data_PCOD9226354
_publ_section_title
;
Structure prediction by ZEFSAII (Michael W. Deem and Ramdas Pophale) SiO2 
 PCOD9226354
Probable space group: P 2/C
;
_chemical_formula_sum "Si O2"
_cell_formula_units_Z 22
_cell_length_a 16.795998
_cell_length_b 8.501307
_cell_length_c 21.254963
_cell_angle_alpha 90.000000
_cell_angle_beta 22.394347
_cell_angle_gamma 90.000000
_cell_volume 1156.253558
_symmetry_space_group_name_H-M "P 2/C"
_symmetry_group_IT_number 13
_symmetry_cell_setting 'monoclinic'
loop_
_space_group_symop_operation_xyz
x,y,z
-x,y,1/2-z
-x,-y,-z
x,-y,1/2+z
loop_
_atom_site_type_symbol
_atom_site_label
_atom_site_fract_x
_atom_site_fract_y
_atom_site_fract_z
Si Si1 0.775040 0.110253 0.383739
Si Si2 0.354116 0.105119 0.408146
Si Si3 0.452224 0.378463 0.591720
Si Si4 0.575607 0.536125 0.624781
Si Si5 0.000000 0.582394 0.250000
Si Si6 0.885237 0.183168 0.727134
O O1 0.646746 0.259261 0.455328
O O2 0.000000 0.150102 0.250000
O O3 0.668152 0.010422 0.517383
O O4 0.795543 0.985544 0.312202
O O5 0.500000 0.028494 0.250000
O O6 0.445253 0.274680 0.360668
O O7 0.130856 0.149855 0.540281
O O8 0.500000 0.500000 0.500000
O O9 0.440490 0.464004 0.667358
O O10 0.247788 0.273700 0.727270
O O11 0.500000 0.485055 0.750000
O O12 0.819868 0.502533 0.425089
O O13 0.876203 0.699473 0.293861
#
# Coordination Sequence:
#
# PCOD9226354 Si02
#       6
#     4   4   4   4   2   4
#     4  10  20  36  61  87 114 157 208 242 300 372
#     4   9  18  38  62  81 115 162 199 245 309 363
#     4  12  23  34  60  93 126 157 201 259 301 356
#     4  10  21  37  60  88 122 166 204 241 314 367
#     4  10  16  38  64  78 122 164 202 246 312 362
#     4  10  18  37  60  87 113 156 210 250 295 362
#
# _framework density 19.026968
#
# number of rings (size 3 to 8) (size 9 to 14) (size 15 to 20)
#    0.000    1.818    6.364    0.545    1.273    0.727 
#    0.000    9.091    0.000    0.000    0.000    0.000 
#    0.000    0.000    0.000    0.000    0.000    0.000 
#
# Total GULP energy -122583.375722 kJ/mol
# GULP energy per Si atom -5571.971624 kJ/mol
# Density = 1.898366 g / cm^3
# Si number density = 19.026968 Si / 1000 Ang^3
#
#
#
# Elastic Constant Matrix: (Units=GPa)
#
#
# Indices 1 2 3 4 5 6 
#
# 1 113.4766 68.4304 36.3407 0.0000 8.3116 0.0000
# 2 68.4304 96.9906 34.7115 0.0000 -4.5731 0.0000
# 3 36.3407 34.7115 94.0224 0.0000 22.9863 0.0000
# 4 0.0000 0.0000 0.0000 17.2909 0.0000 -9.6661
# 5 8.3116 -4.5731 22.9863 0.0000 19.8022 0.0000
# 6 0.0000 0.0000 0.0000 -9.6661 0.0000 35.9370
#
#
#
# Elastic Compliance Matrix: (Units=1/GPa)
#
#
# Indices 1 2 3 4 5 6 
#
# 1 0.017164 -0.012962 0.000900 0.000000 -0.011242 0.000000
# 2 -0.012962 0.023648 -0.008916 0.000000 0.021252 0.000000
# 3 0.000900 -0.008916 0.019792 0.000000 -0.025412 0.000000
# 4 0.000000 0.000000 0.000000 0.068069 0.000000 0.018309
# 5 -0.011242 0.021252 -0.025412 0.000000 0.089624 0.000000
# 6 0.000000 0.000000 0.000000 0.018309 0.000000 0.032751
#
#
# Mechanical properties :
#
#
# Convention : Reuss Voigt Hill
#
# Bulk Modulus (GPa) = 53.62571 64.82831 59.22701
# Shear Modulus (GPa) = 16.70998 25.60648 21.15823
#
# Velocity S-wave (km/s) = 2.96670 3.67249 3.33830
# Velocity P-wave (km/s) = 6.32300 7.22002 6.78635
#
# Compressibility (1/GPa) = 0.01864777
#
# Stress axis : x y z
#
# Youngs Moduli (GPa) = 58.26045 42.28600 50.52455
#
# Poissons Ratio (x) = 0.54811 -0.04545
# Poissons Ratio (y) = 0.75518 0.45049
# Poissons Ratio (z) = -0.05241 0.37703
#
# Static dielectric constant tensor:
#      x y z
#    x 1.674510 0.000000 -0.012650 
#    y 0.000000 1.678700 0.000000 
#    z -0.012650 0.000000 1.714590 
# 
# From -- ./inp_files/62980.got.cif
#   From: 2010.05.17/outbox.cif.g08.bks.cpg/sg13_32_cif.got.tgz:62980.got - 2010.06.03 16:44:36.
