data_PCOD9226973
_publ_section_title
;
Structure prediction by ZEFSAII (Michael W. Deem and Ramdas Pophale) SiO2 
 PCOD9226973
Probable space group: P 2/C
;
_chemical_formula_sum "Si O2"
_cell_formula_units_Z 32
_cell_length_a 8.269358
_cell_length_b 15.668056
_cell_length_c 26.292739
_cell_angle_alpha 90.000000
_cell_angle_beta 150.197314
_cell_angle_gamma 90.000000
_cell_volume 1693.136303
_symmetry_space_group_name_H-M "P 2/C"
_symmetry_group_IT_number 13
_symmetry_cell_setting 'monoclinic'
loop_
_space_group_symop_operation_xyz
x,y,z
-x,y,1/2-z
-x,-y,-z
x,-y,1/2+z
loop_
_atom_site_type_symbol
_atom_site_label
_atom_site_fract_x
_atom_site_fract_y
_atom_site_fract_z
Si Si1 0.219581 0.490757 0.630867
Si Si2 0.276952 0.146857 0.992912
Si Si3 0.710202 0.912605 0.705463
Si Si4 0.307785 0.585625 0.803841
Si Si5 0.908325 0.839712 0.600093
Si Si6 0.289440 0.340570 0.000325
Si Si7 0.854838 0.994875 0.903674
Si Si8 0.101779 0.645030 0.903722
O O1 0.500000 0.481737 0.750000
O O2 0.425059 0.515033 0.637213
O O3 0.996412 0.408068 0.571079
O O4 0.994822 0.572732 0.582664
O O5 0.466102 0.129945 0.098137
O O6 0.548861 0.137836 0.023054
O O7 0.166688 0.244547 0.960811
O O8 0.993112 0.077220 0.912726
O O9 0.526023 0.982222 0.689535
O O10 0.000000 0.949327 0.750000
O O11 0.864801 0.847043 0.787785
O O12 0.479617 0.653655 0.887129
O O13 0.000000 0.548135 0.750000
O O14 0.158281 0.628827 0.712821
O O15 0.923939 0.742627 0.585140
O O16 0.022415 0.909582 0.590931
O O17 0.537831 0.364554 0.022192
O O18 0.000000 0.000000 0.000000
#
# Coordination Sequence:
#
# PCOD9226973 Si02
#       8
#     4   4   4   4   4   4   4   4
#     4  10  20  32  48  72 104 139 172 209 249 304
#     4   9  19  33  51  74 101 129 165 209 252 304
#     4   9  18  32  51  74  98 125 161 210 263 302
#     4   9  18  32  51  76 102 129 168 218 267 306
#     4  10  18  32  53  76  99 127 162 210 266 308
#     4  10  18  33  53  73 101 137 169 206 256 309
#     4  10  20  32  48  72 102 132 160 197 245 306
#     4   9  19  32  52  79 102 124 164 219 267 307
#
# _framework density 18.899837999999999
#
# number of rings (size 3 to 8) (size 9 to 14) (size 15 to 20)
#    0.000    2.500    0.000    2.250    0.000    8.000 
#    0.000    1.250    0.000    0.750    0.000    0.000 
#    0.000    0.000    0.000    0.000    0.000    0.000 
#
# Total GULP energy -178405.828176 kJ/mol
# GULP energy per Si atom -5575.182130 kJ/mol
# Density = 1.885682 g / cm^3
# Si number density = 18.899838 Si / 1000 Ang^3
#
#
#
# Elastic Constant Matrix: (Units=GPa)
#
#
# Indices 1 2 3 4 5 6 
#
# 1 95.3211 76.1960 24.4504 0.0000 20.6088 0.0000
# 2 76.1960 130.1418 43.0286 0.0000 40.2403 0.0000
# 3 24.4504 43.0286 32.1623 0.0000 18.4817 0.0000
# 4 0.0000 0.0000 0.0000 19.5387 0.0000 3.5846
# 5 20.6088 40.2403 18.4817 0.0000 29.8419 0.0000
# 6 0.0000 0.0000 0.0000 3.5846 0.0000 19.1193
#
#
#
# Elastic Compliance Matrix: (Units=1/GPa)
#
#
# Indices 1 2 3 4 5 6 
#
# 1 0.019917 -0.012666 -0.000165 0.000000 0.003428 0.000000
# 2 -0.012666 0.024707 -0.014449 0.000000 -0.015620 0.000000
# 3 -0.000165 -0.014449 0.060994 0.000000 -0.018176 0.000000
# 4 0.000000 0.000000 0.000000 0.053004 0.000000 -0.009938
# 5 0.003428 -0.015620 -0.018176 0.000000 0.063463 0.000000
# 6 0.000000 0.000000 0.000000 -0.009938 0.000000 0.054166
#
#
# Mechanical properties :
#
#
# Convention : Reuss Voigt Hill
#
# Bulk Modulus (GPa) = 19.58621 60.55278 40.06949
# Shear Modulus (GPa) = 14.37475 21.29665 17.83570
#
# Velocity S-wave (km/s) = 2.76084 3.36045 3.07530
# Velocity P-wave (km/s) = 4.53306 6.86769 5.81867
#
# Compressibility (1/GPa) = 0.05105634
#
# Stress axis : x y z
#
# Youngs Moduli (GPa) = 50.20781 40.47424 16.39504
#
# Poissons Ratio (x) = 0.51266 0.00271
# Poissons Ratio (y) = 0.63595 0.23690
# Poissons Ratio (z) = 0.00829 0.58483
#
# Static dielectric constant tensor:
#      x y z
#    x 1.702440 0.000000 0.001890 
#    y 0.000000 1.632870 0.000000 
#    z 0.001890 0.000000 1.686040 
# 
# From -- ./inp_files/96180.got.cif
#   From: 2010.05.17/outbox.cif.g08.bks.cpg/sg13_49_cif.got.tgz:96180.got - 2010.06.03 16:44:36.
