data_PCOD9226040
_publ_section_title
;
Structure prediction by ZEFSAII (Michael W. Deem and Ramdas Pophale) SiO2 
 PCOD9226040
Probable space group: P 2/C
;
_chemical_formula_sum "Si O2"
_cell_formula_units_Z 28
_cell_length_a 17.725843
_cell_length_b 5.290628
_cell_length_c 16.958515
_cell_angle_alpha 90.000000
_cell_angle_beta 47.798677
_cell_angle_gamma 90.000000
_cell_volume 1178.138964
_symmetry_space_group_name_H-M "P 2/C"
_symmetry_group_IT_number 13
_symmetry_cell_setting 'monoclinic'
loop_
_space_group_symop_operation_xyz
x,y,z
-x,y,1/2-z
-x,-y,-z
x,-y,1/2+z
loop_
_atom_site_type_symbol
_atom_site_label
_atom_site_fract_x
_atom_site_fract_y
_atom_site_fract_z
Si Si1 0.948705 0.011816 0.446296
Si Si2 0.238778 0.436076 0.723374
Si Si3 0.886849 0.506062 0.539146
Si Si4 0.852264 0.929446 0.788225
Si Si5 0.580991 0.192817 0.977419
Si Si6 0.402022 0.437163 0.373954
Si Si7 0.285760 0.951043 0.485457
O O1 0.032722 0.090929 0.324010
O O2 0.869254 0.237329 0.511986
O O3 0.000000 0.000000 0.500000
O O4 0.898479 0.739329 0.473331
O O5 0.201609 0.662758 0.693936
O O6 0.355860 0.358879 0.629619
O O7 0.181999 0.176656 0.738354
O O8 0.200046 0.530123 0.834843
O O9 0.000000 0.500000 0.500000
O O10 0.827681 0.969032 0.897648
O O11 0.554912 0.380813 0.067830
O O12 0.658062 0.007740 0.969611
O O13 0.500000 0.000000 0.000000
O O14 0.500000 0.459900 0.250000
O O15 0.332330 0.687106 0.423525
O O16 0.331152 0.190452 0.405008
#
# Coordination Sequence:
#
# PCOD9226040 Si02
#       7
#     4   4   4   4   4   4   4
#     4  10  15  20  35  51  80 110 147 179 211 270
#     4  11  17  26  39  56  84 120 153 184 225 278
#     4  10  15  22  33  54  79 111 152 176 216 271
#     4  11  15  26  37  59  82 114 151 183 224 282
#     4   9  21  34  47  68  94 125 166 203 242 297
#     4  10  19  33  50  67  86 118 161 204 248 289
#     4   9  19  31  47  64  89 119 157 193 243 287
#
# _framework density 23.766295
#
# number of rings (size 3 to 8) (size 9 to 14) (size 15 to 20)
#    0.857    1.143    7.143    0.429    0.000    0.571 
#    0.000    0.000    0.000    0.000    0.000    0.000 
#    0.000    0.000    0.000    1.286    8.857    2.571 
#
# Total GULP energy -156071.344174 kJ/mol
# GULP energy per Si atom -5573.976578 kJ/mol
# Density = 2.371220 g / cm^3
# Si number density = 23.766295 Si / 1000 Ang^3
#
#
#
# Elastic Constant Matrix: (Units=GPa)
#
#
# Indices 1 2 3 4 5 6 
#
# 1 63.8479 5.8459 18.8430 0.0000 -10.4475 0.0000
# 2 5.8459 169.5207 43.5090 0.0000 -12.6468 0.0000
# 3 18.8430 43.5090 210.1086 0.0000 -12.5103 0.0000
# 4 0.0000 0.0000 0.0000 48.2825 0.0000 -0.7038
# 5 -10.4475 -12.6468 -12.5103 0.0000 22.4610 0.0000
# 6 0.0000 0.0000 0.0000 -0.7038 0.0000 9.6682
#
#
#
# Elastic Compliance Matrix: (Units=1/GPa)
#
#
# Indices 1 2 3 4 5 6 
#
# 1 0.017207 0.000262 -0.001150 0.000000 0.007510 0.000000
# 2 0.000262 0.006420 -0.001169 0.000000 0.003086 0.000000
# 3 -0.001150 -0.001169 0.005206 0.000000 0.001706 0.000000
# 4 0.000000 0.000000 0.000000 0.020733 0.000000 0.001509
# 5 0.007510 0.003086 0.001706 0.000000 0.050703 0.000000
# 6 0.000000 0.000000 0.000000 0.001509 0.000000 0.103542
#
#
# Mechanical properties :
#
#
# Convention : Reuss Voigt Hill
#
# Bulk Modulus (GPa) = 40.45555 64.43035 52.44295
# Shear Modulus (GPa) = 23.13038 41.10095 32.11567
#
# Velocity S-wave (km/s) = 3.12307 4.16309 3.68001
# Velocity P-wave (km/s) = 5.48306 7.09065 6.33803
#
# Compressibility (1/GPa) = 0.02471849
#
# Stress axis : x y z
#
# Youngs Moduli (GPa) = 58.11718 155.75718 192.07363
#
# Poissons Ratio (x) = -0.04083 0.22093
# Poissons Ratio (y) = -0.01524 0.22459
# Poissons Ratio (z) = 0.06685 0.18212
#
# Static dielectric constant tensor:
#      x y z
#    x 2.165770 0.000000 -0.056550 
#    y 0.000000 1.756940 0.000000 
#    z -0.056550 0.000000 1.949770 
# 
# From -- ./inp_files/89579.got.cif
#   From: 2010.05.17/outbox.cif.g08.bks.cpg/sg13_45_cif.got.tgz:89579.got - 2010.06.03 16:44:36.
