data_PCOD9226822
_publ_section_title
;
Structure prediction by ZEFSAII (Michael W. Deem and Ramdas Pophale) SiO2 
 PCOD9226822
Probable space group: P 2/C
;
_chemical_formula_sum "Si O2"
_cell_formula_units_Z 22
_cell_length_a 6.960376
_cell_length_b 9.019216
_cell_length_c 23.226052
_cell_angle_alpha 90.000000
_cell_angle_beta 116.869260
_cell_angle_gamma 90.000000
_cell_volume 1300.652498
_symmetry_space_group_name_H-M "P 2/C"
_symmetry_group_IT_number 13
_symmetry_cell_setting 'monoclinic'
loop_
_space_group_symop_operation_xyz
x,y,z
-x,y,1/2-z
-x,-y,-z
x,-y,1/2+z
loop_
_atom_site_type_symbol
_atom_site_label
_atom_site_fract_x
_atom_site_fract_y
_atom_site_fract_z
Si Si1 0.964287 0.164892 0.016398
Si Si2 0.000000 0.594480 0.750000
Si Si3 0.433606 0.335383 0.558808
Si Si4 0.531564 0.544661 0.190943
Si Si5 0.126744 0.655874 0.640888
Si Si6 0.830660 0.408632 0.539957
O O1 0.074198 0.207527 0.091908
O O2 0.711254 0.202333 0.983903
O O3 0.055264 0.284965 0.982878
O O4 0.000000 0.000000 0.000000
O O5 0.779067 0.500630 0.713371
O O6 0.953454 0.677781 0.804298
O O7 0.454052 0.348778 0.629772
O O8 0.667045 0.335445 0.562263
O O9 0.312160 0.485014 0.520573
O O10 0.500000 0.611697 0.250000
O O11 0.373838 0.399950 0.171049
O O12 0.991300 0.517532 0.595714
#
# Coordination Sequence:
#
# PCOD9226822 Si02
#       6
#     4   2   4   4   4   4
#     4  11  22  34  53  80 113 147 177 213 266 328
#     4  10  20  30  54  88 100 132 180 234 266 312
#     4  10  18  33  55  78 105 137 171 232 268 306
#     4  10  18  30  53  82 105 132 171 224 273 312
#     4  10  18  34  55  81 107 133 179 227 270 313
#     4  10  18  32  56  79 104 132 179 225 273 308
#
# _framework density 16.914587000000001
#
# number of rings (size 3 to 8) (size 9 to 14) (size 15 to 20)
#    0.000    1.818    5.455    1.091    0.000    0.727 
#    0.000    0.000    0.000    6.545    0.000    0.000 
#    0.000    0.000    0.000    0.000    0.000    0.000 
#
# Total GULP energy -122605.648718 kJ/mol
# GULP energy per Si atom -5572.984033 kJ/mol
# Density = 1.687609 g / cm^3
# Si number density = 16.914587 Si / 1000 Ang^3
#
#
#
# Elastic Constant Matrix: (Units=GPa)
#
#
# Indices 1 2 3 4 5 6 
#
# 1 92.3359 7.1674 16.2914 0.0000 3.2635 0.0000
# 2 7.1674 46.3591 5.1292 0.0000 -6.3341 0.0000
# 3 16.2914 5.1292 95.6136 0.0000 -14.4580 0.0000
# 4 0.0000 0.0000 0.0000 12.1850 0.0000 -4.7486
# 5 3.2635 -6.3341 -14.4580 0.0000 36.5761 0.0000
# 6 0.0000 0.0000 0.0000 -4.7486 0.0000 10.9457
#
#
#
# Elastic Compliance Matrix: (Units=1/GPa)
#
#
# Indices 1 2 3 4 5 6 
#
# 1 0.011435 -0.001827 -0.002183 0.000000 -0.002200 0.000000
# 2 -0.001827 0.022423 -0.000298 0.000000 0.003929 0.000000
# 3 -0.002183 -0.000298 0.011559 0.000000 0.004712 0.000000
# 4 0.000000 0.000000 0.000000 0.098767 0.000000 0.042849
# 5 -0.002200 0.003929 0.004712 0.000000 0.030080 0.000000
# 6 0.000000 0.000000 0.000000 0.042849 0.000000 0.109949
#
#
# Mechanical properties :
#
#
# Convention : Reuss Voigt Hill
#
# Bulk Modulus (GPa) = 27.17235 32.38717 29.77976
# Shear Modulus (GPa) = 16.38838 25.65608 21.02223
#
# Velocity S-wave (km/s) = 3.11608 3.89884 3.52923
# Velocity P-wave (km/s) = 5.38943 6.28148 5.85247
#
# Compressibility (1/GPa) = 0.03680212
#
# Stress axis : x y z
#
# Youngs Moduli (GPa) = 87.45297 44.59730 86.51081
#
# Poissons Ratio (x) = 0.08147 0.18885
# Poissons Ratio (y) = 0.15977 0.02574
# Poissons Ratio (z) = 0.19090 0.01327
#
# Static dielectric constant tensor:
#      x y z
#    x 1.619260 0.000000 0.001170 
#    y 0.000000 1.524480 0.000000 
#    z 0.001170 0.000000 1.612930 
# 
# From -- ./inp_files/90169.got.cif
#   From: 2010.05.17/outbox.cif.g08.bks.cpg/sg13_46_cif.got.tgz:90169.got - 2010.06.03 16:44:36.
