data_PCOD9226800
_publ_section_title
;
Structure prediction by ZEFSAII (Michael W. Deem and Ramdas Pophale) SiO2 
 PCOD9226800
Probable space group: P 2/C
;
_chemical_formula_sum "Si O2"
_cell_formula_units_Z 28
_cell_length_a 8.448308
_cell_length_b 19.791806
_cell_length_c 15.324108
_cell_angle_alpha 90.000000
_cell_angle_beta 30.870715
_cell_angle_gamma 90.000000
_cell_volume 1314.724005
_symmetry_space_group_name_H-M "P 2/C"
_symmetry_group_IT_number 13
_symmetry_cell_setting 'monoclinic'
loop_
_space_group_symop_operation_xyz
x,y,z
-x,y,1/2-z
-x,-y,-z
x,-y,1/2+z
loop_
_atom_site_type_symbol
_atom_site_label
_atom_site_fract_x
_atom_site_fract_y
_atom_site_fract_z
Si Si1 0.898442 0.660884 0.392936
Si Si2 0.222903 0.466308 0.823009
Si Si3 0.121166 0.940294 0.381684
Si Si4 0.176314 0.853303 0.848212
Si Si5 0.137098 0.294101 0.404501
Si Si6 0.777000 0.602271 0.773325
Si Si7 0.498410 0.034753 0.408170
O O1 0.980406 0.706278 0.439754
O O2 0.533274 0.644410 0.559816
O O3 0.000000 0.686531 0.250000
O O4 0.064597 0.590326 0.338953
O O5 0.500000 0.437958 0.750000
O O6 0.323204 0.529159 0.715064
O O7 0.000000 0.500000 0.000000
O O8 0.094682 0.877242 0.458325
O O9 0.840269 0.934255 0.445859
O O10 0.416782 0.971617 0.195612
O O11 0.000000 0.000000 0.500000
O O12 0.500000 0.856168 0.750000
O O13 0.108223 0.775161 0.864208
O O14 0.251614 0.906600 0.735085
O O15 0.500000 0.304952 0.250000
O O16 0.045692 0.357027 0.387756
O O17 0.000000 0.595535 0.750000
O O18 0.500000 0.000000 0.500000
#
# Coordination Sequence:
#
# PCOD9226800 Si02
#       7
#     4   4   4   4   4   4   4
#     4  11  24  38  60  88 114 149 195 250 297 347
#     4  12  22  39  63  90 117 154 193 242 305 353
#     4   9  17  31  50  75 104 142 178 214 277 333
#     4   8  16  32  56  75 103 151 187 222 277 344
#     4   9  18  39  58  76 111 153 197 233 284 353
#     4  11  23  39  59  84 117 155 192 236 296 360
#     4  10  18  30  51  83 110 135 178 231 280 326
#
# _framework density 21.297243999999999
#
# number of rings (size 3 to 8) (size 9 to 14) (size 15 to 20)
#    0.000    2.000    2.857    2.571    2.000    1.143 
#    0.000    8.571    0.000    6.857    0.000    0.000 
#    0.000    0.000    0.000    0.000    0.000    0.000 
#
# Total GULP energy -155993.829803 kJ/mol
# GULP energy per Si atom -5571.208207 kJ/mol
# Density = 2.124877 g / cm^3
# Si number density = 21.297244 Si / 1000 Ang^3
#
#
#
# Elastic Constant Matrix: (Units=GPa)
#
#
# Indices 1 2 3 4 5 6 
#
# 1 90.3561 23.1176 29.0847 0.0000 15.6855 0.0000
# 2 23.1176 79.6342 5.1011 0.0000 12.1642 0.0000
# 3 29.0847 5.1011 79.7006 0.0000 14.3255 0.0000
# 4 0.0000 0.0000 0.0000 17.3051 0.0000 2.0433
# 5 15.6855 12.1642 14.3255 0.0000 37.1989 0.0000
# 6 0.0000 0.0000 0.0000 2.0433 0.0000 19.4420
#
#
#
# Elastic Compliance Matrix: (Units=1/GPa)
#
#
# Indices 1 2 3 4 5 6 
#
# 1 0.013818 -0.003262 -0.004274 0.000000 -0.003114 0.000000
# 2 -0.003262 0.013988 0.000935 0.000000 -0.003559 0.000000
# 3 -0.004274 0.000935 0.014802 0.000000 -0.004204 0.000000
# 4 0.000000 0.000000 0.000000 0.058512 0.000000 -0.006150
# 5 -0.003114 -0.003559 -0.004204 0.000000 0.030978 0.000000
# 6 0.000000 0.000000 0.000000 -0.006150 0.000000 0.052081
#
#
# Mechanical properties :
#
#
# Convention : Reuss Voigt Hill
#
# Bulk Modulus (GPa) = 34.00654 40.47751 37.24202
# Shear Modulus (GPa) = 24.13296 27.61504 25.87400
#
# Velocity S-wave (km/s) = 3.36988 3.60481 3.48932
# Velocity P-wave (km/s) = 5.58065 6.03104 5.81021
#
# Compressibility (1/GPa) = 0.02940611
#
# Stress axis : x y z
#
# Youngs Moduli (GPa) = 72.36794 71.48955 67.55621
#
# Poissons Ratio (x) = 0.23319 0.28874
# Poissons Ratio (y) = 0.23606 -0.06315
# Poissons Ratio (z) = 0.30931 -0.06682
#
# Static dielectric constant tensor:
#      x y z
#    x 1.845000 0.000000 0.000480 
#    y 0.000000 1.907170 0.000000 
#    z 0.000480 0.000000 1.875950 
# 
# From -- ./inp_files/48214.got.cif
#   From: 2010.05.17/outbox.cif.g08.bks.cpg/sg13_25_cif.got.tgz:48214.got - 2010.06.03 16:44:36.
