data_PCOD9226638
_publ_section_title
;
Structure prediction by ZEFSAII (Michael W. Deem and Ramdas Pophale) SiO2 
 PCOD9226638
Probable space group: P 2/C
;
_chemical_formula_sum "Si O2"
_cell_formula_units_Z 28
_cell_length_a 7.094860
_cell_length_b 15.338450
_cell_length_c 11.132556
_cell_angle_alpha 90.000000
_cell_angle_beta 75.917090
_cell_angle_gamma 90.000000
_cell_volume 1175.079202
_symmetry_space_group_name_H-M "P 2/C"
_symmetry_group_IT_number 13
_symmetry_cell_setting 'monoclinic'
loop_
_space_group_symop_operation_xyz
x,y,z
-x,y,1/2-z
-x,-y,-z
x,-y,1/2+z
loop_
_atom_site_type_symbol
_atom_site_label
_atom_site_fract_x
_atom_site_fract_y
_atom_site_fract_z
Si Si1 0.403068 0.813727 0.632665
Si Si2 0.719534 0.638427 0.776259
Si Si3 0.032980 0.326578 0.490965
Si Si4 0.221180 0.179951 0.593933
Si Si5 0.627300 0.996822 0.356264
Si Si6 0.698196 0.466361 0.907659
Si Si7 0.705777 0.315428 0.721917
O O1 0.500000 0.808774 0.750000
O O2 0.295472 0.722856 0.637007
O O3 0.569098 0.813813 0.505221
O O4 0.289143 0.904807 0.655845
O O5 0.500000 0.623396 0.750000
O O6 0.876760 0.662365 0.653065
O O7 0.782296 0.554553 0.840877
O O8 0.081570 0.224977 0.517673
O O9 0.161965 0.404631 0.535339
O O10 0.822998 0.337743 0.584795
O O11 0.222735 0.082203 0.645777
O O12 0.192243 0.247751 0.705872
O O13 0.500000 0.985766 0.250000
O O14 0.500000 0.000000 0.500000
O O15 0.664202 0.403466 0.800617
O O16 0.500000 0.500000 0.000000
O O17 0.500000 0.269008 0.750000
#
# Coordination Sequence:
#
# PCOD9226638 Si02
#       7
#     4   4   4   4   4   4   4
#     4   9  16  31  57  95 126 167 209 253 321 405
#     4  11  18  35  62  90 126 169 211 259 327 401
#     4  11  23  40  63  93 123 169 220 264 334 401
#     4  10  17  35  62  90 127 163 211 268 327 396
#     4   9  18  30  56 100 138 180 224 268 337 415
#     4  11  21  37  61  89 125 162 207 261 322 401
#     4  11  25  42  58  90 124 162 220 275 323 393
#
# _framework density 23.828178000000001
#
# number of rings (size 3 to 8) (size 9 to 14) (size 15 to 20)
#    0.000    1.714    4.286    3.429    0.000    0.571 
#    2.571    0.000    0.000    0.857   11.143    0.000 
#    0.000    0.000    0.000    0.000    0.000    0.000 
#
# Total GULP energy -156039.201085 kJ/mol
# GULP energy per Si atom -5572.828610 kJ/mol
# Density = 2.377394 g / cm^3
# Si number density = 23.828178 Si / 1000 Ang^3
#
#
#
# Elastic Constant Matrix: (Units=GPa)
#
#
# Indices 1 2 3 4 5 6 
#
# 1 60.7778 12.7005 50.2317 0.0000 -23.6155 0.0000
# 2 12.7005 156.3119 18.9974 0.0000 11.1181 0.0000
# 3 50.2317 18.9974 157.1298 0.0000 -12.8275 0.0000
# 4 0.0000 0.0000 0.0000 576.0713 0.0000 -236.3256
# 5 -23.6155 11.1181 -12.8275 0.0000 36.2050 0.0000
# 6 0.0000 0.0000 0.0000 -236.3256 0.0000 123.7896
#
#
#
# Elastic Compliance Matrix: (Units=1/GPa)
#
#
# Indices 1 2 3 4 5 6 
#
# 1 0.030638 -0.002800 -0.007985 0.000000 0.018015 0.000000
# 2 -0.002800 0.006947 -0.000276 0.000000 -0.004058 0.000000
# 3 -0.007985 -0.000276 0.008786 0.000000 -0.002011 0.000000
# 4 0.000000 0.000000 0.000000 0.008006 0.000000 0.015284
# 5 0.018015 -0.004058 -0.002011 0.000000 0.039905 0.000000
# 6 0.000000 0.000000 0.000000 0.015284 0.000000 0.037258
#
#
# Mechanical properties :
#
#
# Convention : Reuss Voigt Hill
#
# Bulk Modulus (GPa) = 41.23985 59.78651 50.51318
# Shear Modulus (GPa) = 30.91275 166.69918 98.80596
#
# Velocity S-wave (km/s) = 3.60574 8.37321 6.44640
# Velocity P-wave (km/s) = 5.88896 10.89156 8.75517
#
# Compressibility (1/GPa) = 0.02424839
#
# Stress axis : x y z
#
# Youngs Moduli (GPa) = 32.63917 143.94409 113.81597
#
# Poissons Ratio (x) = 0.40308 0.90884
# Poissons Ratio (y) = 0.09140 0.03141
# Poissons Ratio (z) = 0.26063 0.03973
#
# Static dielectric constant tensor:
#      x y z
#    x 1.943800 0.000000 -0.049100 
#    y 0.000000 1.969060 0.000000 
#    z -0.049100 0.000000 1.867940 
# 
# From -- ./inp_files/30269.got.cif
#   From: 2010.05.17/outbox.cif.g08.bks.cpg/sg13_16_cif.got.tgz:30269.got - 2010.06.03 16:44:36.
