data_PCOD9226983
_publ_section_title
;
Structure prediction by ZEFSAII (Michael W. Deem and Ramdas Pophale) SiO2 
 PCOD9226983
Probable space group: P 2/C
;
_chemical_formula_sum "Si O2"
_cell_formula_units_Z 32
_cell_length_a 28.526482
_cell_length_b 7.867400
_cell_length_c 11.089842
_cell_angle_alpha 90.000000
_cell_angle_beta 29.751957
_cell_angle_gamma 90.000000
_cell_volume 1235.099549
_symmetry_space_group_name_H-M "P 2/C"
_symmetry_group_IT_number 13
_symmetry_cell_setting 'monoclinic'
loop_
_space_group_symop_operation_xyz
x,y,z
-x,y,1/2-z
-x,-y,-z
x,-y,1/2+z
loop_
_atom_site_type_symbol
_atom_site_label
_atom_site_fract_x
_atom_site_fract_y
_atom_site_fract_z
Si Si1 0.150070 0.323514 0.872492
Si Si2 0.417174 0.181436 0.287598
Si Si3 0.609930 0.672779 0.352967
Si Si4 0.321144 0.542668 0.535592
Si Si5 0.410503 0.713395 0.530801
Si Si6 0.251603 0.018636 0.232857
Si Si7 0.799575 0.138797 0.415076
Si Si8 0.024137 0.674024 0.883545
O O1 0.224036 0.477101 0.691609
O O2 0.206814 0.161253 0.788345
O O3 0.084610 0.372031 0.130618
O O4 0.078602 0.262416 0.928597
O O5 0.375702 0.361296 0.432033
O O6 0.398825 0.189389 0.183290
O O7 0.362541 0.025161 0.468870
O O8 0.528982 0.190948 0.058412
O O9 0.577005 0.485619 0.463450
O O10 0.615248 0.646242 0.198198
O O11 0.716611 0.730286 0.143881
O O12 0.316478 0.676761 0.657179
O O13 0.500000 0.763257 0.250000
O O14 0.219326 0.015944 0.446324
O O15 0.217788 0.124221 0.190307
O O16 0.905793 0.204987 0.199229
O O17 0.000000 0.500000 0.000000
#
# Coordination Sequence:
#
# PCOD9226983 Si02
#       8
#     4   4   4   4   4   4   4   4
#     4   9  20  37  63  88 127 164 199 263 331 403
#     4  10  20  34  54  85 125 168 218 270 321 388
#     4  11  20  32  56  86 122 172 214 268 330 388
#     4  10  18  32  53  89 126 161 209 260 333 401
#     4  11  17  29  53  87 124 162 210 271 331 392
#     4  10  24  44  61  88 121 172 222 263 320 385
#     4  11  25  43  65  89 127 172 223 274 324 400
#     4  10  20  40  65  96 124 155 204 269 345 404
#
# _framework density 25.908843000000001
#
# number of rings (size 3 to 8) (size 9 to 14) (size 15 to 20)
#    0.000    1.750    2.500    3.750    0.000    4.000 
#    0.000    2.500    0.000    0.000    0.000    0.000 
#    0.000    0.000    0.000    0.000    0.000    0.000 
#
# Total GULP energy -178574.422640 kJ/mol
# GULP energy per Si atom -5580.450708 kJ/mol
# Density = 2.584987 g / cm^3
# Si number density = 25.908843 Si / 1000 Ang^3
#
#
#
# Elastic Constant Matrix: (Units=GPa)
#
#
# Indices 1 2 3 4 5 6 
#
# 1 130.8382 -0.0448 22.6971 0.0000 -20.6393 0.0000
# 2 -0.0448 48.7561 23.8292 0.0000 -0.7438 0.0000
# 3 22.6971 23.8292 74.4094 0.0000 -15.5665 0.0000
# 4 0.0000 0.0000 0.0000 35.0771 0.0000 -2.0181
# 5 -20.6393 -0.7438 -15.5665 0.0000 56.0000 0.0000
# 6 0.0000 0.0000 0.0000 -2.0181 0.0000 36.6462
#
#
#
# Elastic Compliance Matrix: (Units=1/GPa)
#
#
# Indices 1 2 3 4 5 6 
#
# 1 0.008458 0.001252 -0.002469 0.000000 0.002448 0.000000
# 2 0.001252 0.024705 -0.008630 0.000000 -0.001609 0.000000
# 3 -0.002469 -0.008630 0.017775 0.000000 0.003917 0.000000
# 4 0.000000 0.000000 0.000000 0.028599 0.000000 0.001575
# 5 0.002448 -0.001609 0.003917 0.000000 0.019827 0.000000
# 6 0.000000 0.000000 0.000000 0.001575 0.000000 0.027375
#
#
# Mechanical properties :
#
#
# Convention : Reuss Voigt Hill
#
# Bulk Modulus (GPa) = 32.00651 38.55188 35.27919
# Shear Modulus (GPa) = 31.87819 39.37946 35.62883
#
# Velocity S-wave (km/s) = 3.51151 3.90285 3.71234
# Velocity P-wave (km/s) = 5.36854 5.93479 5.65875
#
# Compressibility (1/GPa) = 0.03124364
#
# Stress axis : x y z
#
# Youngs Moduli (GPa) = 118.23385 40.47808 56.25798
#
# Poissons Ratio (x) = -0.05067 0.13888
# Poissons Ratio (y) = -0.14799 0.48551
# Poissons Ratio (z) = 0.29188 0.34933
#
# Static dielectric constant tensor:
#      x y z
#    x 2.433490 0.000000 -0.043090 
#    y 0.000000 2.253970 0.000000 
#    z -0.043090 0.000000 2.098540 
# 
# From -- ./inp_files/42769.got.cif
#   From: 2010.05.17/outbox.cif.g08.bks.cpg/sg13_22_cif.got.tgz:42769.got - 2010.06.03 16:44:36.
