data_PCOD9226540
_publ_section_title
;
Structure prediction by ZEFSAII (Michael W. Deem and Ramdas Pophale) SiO2 
 PCOD9226540
Probable space group: P 2/C
;
_chemical_formula_sum "Si O2"
_cell_formula_units_Z 26
_cell_length_a 11.205761
_cell_length_b 20.700998
_cell_length_c 8.037060
_cell_angle_alpha 90.000000
_cell_angle_beta 137.496702
_cell_angle_gamma 90.000000
_cell_volume 1259.622689
_symmetry_space_group_name_H-M "P 2/C"
_symmetry_group_IT_number 13
_symmetry_cell_setting 'monoclinic'
loop_
_space_group_symop_operation_xyz
x,y,z
-x,y,1/2-z
-x,-y,-z
x,-y,1/2+z
loop_
_atom_site_type_symbol
_atom_site_label
_atom_site_fract_x
_atom_site_fract_y
_atom_site_fract_z
Si Si1 0.635136 0.036104 0.014455
Si Si2 0.894529 0.633817 0.978455
Si Si3 0.522233 0.688444 0.581564
Si Si4 0.800706 0.913968 0.997167
Si Si5 0.289534 0.481867 0.014016
Si Si6 0.773697 0.397545 0.874238
Si Si7 0.500000 0.187500 0.250000
O O1 0.764560 0.076778 0.263375
O O2 0.742379 0.980900 0.026641
O O3 0.500000 0.071609 0.750000
O O4 0.500000 0.000000 0.000000
O O5 0.724739 0.674391 0.749734
O O6 0.816066 0.565621 0.968287
O O7 0.000000 0.660915 0.250000
O O8 0.039800 0.631963 0.984205
O O9 0.500000 0.661096 0.750000
O O10 0.384151 0.653309 0.318922
O O11 0.491549 0.764010 0.583658
O O12 0.000000 0.899859 0.250000
O O13 0.668986 0.858129 0.919929
O O14 0.500000 0.482112 0.250000
O O15 0.232936 0.556502 0.972924
O O16 0.254512 0.451036 0.799783
#
# Coordination Sequence:
#
# PCOD9226540 Si02
#       7
#     4   4   4   4   4   4   2
#     4   9  17  34  56  83 131 161 179 230 291 332
#     4  10  17  32  49  72 100 129 167 216 277 327
#     4  10  19  35  51  71 102 141 177 221 265 323
#     4  11  20  33  58  93 121 152 198 234 279 335
#     4  11  19  31  50  73 102 126 165 213 280 345
#     4  11  21  34  50  76 101 130 169 222 281 333
#     4  10  20  34  54  80 108 146 196 234 270 320
#
# _framework density 20.641100000000002
#
# number of rings (size 3 to 8) (size 9 to 14) (size 15 to 20)
#    0.462    1.231    6.923    1.385    0.000    1.846 
#    0.000    0.000    0.000    0.923    0.000    0.000 
#   23.077    0.000    0.000    0.000    0.000    0.000 
#
# Total GULP energy -145102.294187 kJ/mol
# GULP energy per Si atom -5580.857469 kJ/mol
# Density = 2.059412 g / cm^3
# Si number density = 20.641100 Si / 1000 Ang^3
#
#
#
# Elastic Constant Matrix: (Units=GPa)
#
#
# Indices 1 2 3 4 5 6 
#
# 1 62.6887 22.2522 58.1460 0.0000 29.6408 0.0000
# 2 22.2522 98.6183 59.9538 0.0000 20.2473 0.0000
# 3 58.1460 59.9538 145.0261 0.0000 28.4669 0.0000
# 4 0.0000 0.0000 0.0000 -1.1673 0.0000 -5.2184
# 5 29.6408 20.2473 28.4669 0.0000 41.4595 0.0000
# 6 0.0000 0.0000 0.0000 -5.2184 0.0000 -244.7121
#
#
#
# Elastic Compliance Matrix: (Units=1/GPa)
#
#
# Indices 1 2 3 4 5 6 
#
# 1 0.033787 0.002866 -0.011229 0.000000 -0.017846 0.000000
# 2 0.002866 0.014165 -0.006062 0.000000 -0.004805 0.000000
# 3 -0.011229 -0.006062 0.013576 0.000000 0.001667 0.000000
# 4 0.000000 0.000000 0.000000 -0.946929 0.000000 0.020193
# 5 -0.017846 -0.004805 0.001667 0.000000 0.038081 0.000000
# 6 0.000000 0.000000 0.000000 0.020193 0.000000 -0.004517
#
#
# Mechanical properties :
#
#
# Convention : Reuss Voigt Hill
#
# Bulk Modulus (GPa) = 30.59952 65.22633 47.91292
# Shear Modulus (GPa) = -6.15691 -29.81856 -17.98774
#
# Velocity S-wave (km/s) = -1.72896 -3.80494 -2.95524
# Velocity P-wave (km/s) = 3.29712 3.51645 3.40855
#
# Compressibility (1/GPa) = 0.03268026
#
# Stress axis : x y z
#
# Youngs Moduli (GPa) = 29.59704 70.59598 73.65868
#
# Poissons Ratio (x) = -0.20236 0.82708
# Poissons Ratio (y) = -0.08484 0.44652
# Poissons Ratio (z) = 0.33233 0.42795
#
# Static dielectric constant tensor:
#      x y z
#    x 1.838650 0.000000 -0.060590 
#    y 0.000000 1.676870 0.000000 
#    z -0.060590 0.000000 1.800010 
# 
# From -- ./inp_files/17323.got.cif
#   From: 2010.05.17/outbox.cif.g08.bks.cpg/sg13_9_cif.got.tgz:17323.got - 2010.06.03 16:44:36.
