data_PCOD9226010
_publ_section_title
;
Structure prediction by ZEFSAII (Michael W. Deem and Ramdas Pophale) SiO2 
 PCOD9226010
Probable space group: P 2/C
;
_chemical_formula_sum "Si O2"
_cell_formula_units_Z 20
_cell_length_a 29.627567
_cell_length_b 6.980104
_cell_length_c 5.341534
_cell_angle_alpha 90.000000
_cell_angle_beta 56.890064
_cell_angle_gamma 90.000000
_cell_volume 925.279611
_symmetry_space_group_name_H-M "P 2/C"
_symmetry_group_IT_number 13
_symmetry_cell_setting 'monoclinic'
loop_
_space_group_symop_operation_xyz
x,y,z
-x,y,1/2-z
-x,-y,-z
x,-y,1/2+z
loop_
_atom_site_type_symbol
_atom_site_label
_atom_site_fract_x
_atom_site_fract_y
_atom_site_fract_z
Si Si1 0.000000 0.872369 0.750000
Si Si2 0.721602 0.125605 0.628591
Si Si3 0.117790 0.222958 0.789136
Si Si4 0.500000 0.625068 0.750000
Si Si5 0.393219 0.124284 0.615650
Si Si6 0.160132 0.221219 0.160785
O O1 0.056587 0.764321 0.566619
O O2 0.000000 0.000000 0.500000
O O3 0.722104 0.967320 0.404401
O O4 0.778367 0.231110 0.436190
O O5 0.664359 0.228316 0.756628
O O6 0.123469 0.301891 0.493277
O O7 0.138774 0.000560 0.695754
O O8 0.154622 0.301897 0.899528
O O9 0.500000 0.500000 0.500000
O O10 0.553951 0.751140 0.582551
O O11 0.393999 0.036828 0.893434
#
# Coordination Sequence:
#
# PCOD9226010 Si02
#       6
#     2   4   4   2   4   4
#     4  12  16  20  24  38  56  96 134 190 208 266
#     4  10  16  25  42  63  86 111 145 191 250 280
#     4  10  16  20  29  40  67  95 143 177 231 261
#     4  12  24  40  60  80 110 144 174 204 254 320
#     4  10  21  36  57  82 107 134 171 219 259 298
#     4  10  14  22  31  46  67  97 131 180 232 270
#
# _framework density 21.615086000000002
#
# number of rings (size 3 to 8) (size 9 to 14) (size 15 to 20)
#    0.000    1.600    8.000    1.800    0.000    0.000 
#    0.000    0.000    0.000    0.000    0.000    0.000 
#    0.000    0.000    0.000    0.000    0.000    0.000 
#
# Total GULP energy -111519.908020 kJ/mol
# GULP energy per Si atom -5575.995401 kJ/mol
# Density = 2.156589 g / cm^3
# Si number density = 21.615086 Si / 1000 Ang^3
#
#
#
# Elastic Constant Matrix: (Units=GPa)
#
#
# Indices 1 2 3 4 5 6 
#
# 1 111.0842 -7.7701 19.4641 0.0000 -11.8415 0.0000
# 2 -7.7701 31.0247 -15.5977 0.0000 -2.6477 0.0000
# 3 19.4641 -15.5977 92.4321 0.0000 6.4216 0.0000
# 4 0.0000 0.0000 0.0000 -16.3314 0.0000 -7.4909
# 5 -11.8415 -2.6477 6.4216 0.0000 79.0715 0.0000
# 6 0.0000 0.0000 0.0000 -7.4909 0.0000 -5.2009
#
#
#
# Elastic Compliance Matrix: (Units=1/GPa)
#
#
# Indices 1 2 3 4 5 6 
#
# 1 0.009618 0.001610 -0.001868 0.000000 0.001646 0.000000
# 2 0.001610 0.035529 0.005588 0.000000 0.000977 0.000000
# 3 -0.001868 0.005588 0.012231 0.000000 -0.001086 0.000000
# 4 0.000000 0.000000 0.000000 -0.180434 0.000000 0.259879
# 5 0.001646 0.000977 -0.001086 0.000000 0.013014 0.000000
# 6 0.000000 0.000000 0.000000 0.259879 0.000000 -0.566579
#
#
# Mechanical properties :
#
#
# Convention : Reuss Voigt Hill
#
# Bulk Modulus (GPa) = 14.69766 25.19262 19.94514
# Shear Modulus (GPa) = -7.52328 27.40414 9.94043
#
# Velocity S-wave (km/s) = -1.86765 3.56452 2.14682
# Velocity P-wave (km/s) = 1.47094 5.34990 3.92333
#
# Compressibility (1/GPa) = 0.06803806
#
# Stress axis : x y z
#
# Youngs Moduli (GPa) = 103.97663 28.14632 81.76233
#
# Poissons Ratio (x) = -0.04532 0.15272
# Poissons Ratio (y) = -0.16741 -0.45693
# Poissons Ratio (z) = 0.19422 -0.15729
#
# Static dielectric constant tensor:
#      x y z
#    x 1.825770 0.000000 -0.008050 
#    y 0.000000 2.063360 0.000000 
#    z -0.008050 0.000000 1.819680 
# 
# From -- ./inp_files/6747.got.cif
#   From: 2010.05.17/outbox.cif.g08.bks.cpg/sg13_4_cif.got.tgz:6747.got - 2010.06.03 16:44:36.
