data_PCOD9226916
_publ_section_title
;
Structure prediction by ZEFSAII (Michael W. Deem and Ramdas Pophale) SiO2 
 PCOD9226916
Probable space group: P 2/C
;
_chemical_formula_sum "Si O2"
_cell_formula_units_Z 16
_cell_length_a 7.203595
_cell_length_b 20.500250
_cell_length_c 5.252309
_cell_angle_alpha 90.000000
_cell_angle_beta 104.889511
_cell_angle_gamma 90.000000
_cell_volume 749.593879
_symmetry_space_group_name_H-M "P 2/C"
_symmetry_group_IT_number 13
_symmetry_cell_setting 'monoclinic'
loop_
_space_group_symop_operation_xyz
x,y,z
-x,y,1/2-z
-x,-y,-z
x,-y,1/2+z
loop_
_atom_site_type_symbol
_atom_site_label
_atom_site_fract_x
_atom_site_fract_y
_atom_site_fract_z
Si Si1 0.716334 0.973782 0.632252
Si Si2 0.877204 0.686106 0.453521
Si Si3 0.500000 0.771064 0.250000
Si Si4 0.267925 0.459981 0.674698
Si Si5 0.500000 0.144589 0.250000
O O1 0.678612 0.901986 0.729045
O O2 0.500000 0.000000 0.500000
O O3 0.803565 0.980764 0.382936
O O4 0.680959 0.726526 0.385870
O O5 0.825017 0.609696 0.409956
O O6 0.000000 0.704895 0.250000
O O7 0.000000 0.696973 0.750000
O O8 0.453054 0.814193 0.482433
O O9 0.500000 0.451860 0.750000
O O10 0.217704 0.510329 0.431727
#
# Coordination Sequence:
#
# PCOD9226916 Si02
#       5
#     4   4   2   4   2
#     4   8  13  24  44  78 119 142 183 250 287 334
#     4  12  26  43  63  87 120 160 200 245 299 352
#     4  12  24  41  58  87 122 160 206 242 286 352
#     4  10  21  39  64  90 116 146 191 247 301 357
#     4  10  18  31  56  81 120 162 192 242 300 340
#
# _framework density 21.344891000000001
#
# number of rings (size 3 to 8) (size 9 to 14) (size 15 to 20)
#    0.000    2.000    1.250    6.000    0.000    3.000 
#    0.000    0.000    0.000    0.000    0.000    0.000 
#    0.000  630.000    0.000    0.000    0.000    0.000 
#
# Total GULP energy -89382.203970 kJ/mol
# GULP energy per Si atom -5586.387748 kJ/mol
# Density = 2.129631 g / cm^3
# Si number density = 21.344891 Si / 1000 Ang^3
#
#
#
# Elastic Constant Matrix: (Units=GPa)
#
#
# Indices 1 2 3 4 5 6 
#
# 1 70.2010 28.2238 66.3043 0.0000 16.9117 0.0000
# 2 28.2238 108.6533 74.0615 0.0000 4.3096 0.0000
# 3 66.3043 74.0615 221.5242 0.0000 -20.6653 0.0000
# 4 0.0000 0.0000 0.0000 39.1380 0.0000 -1.1161
# 5 16.9117 4.3096 -20.6653 0.0000 36.8699 0.0000
# 6 0.0000 0.0000 0.0000 -1.1161 0.0000 -23.4169
#
#
#
# Elastic Compliance Matrix: (Units=1/GPa)
#
#
# Indices 1 2 3 4 5 6 
#
# 1 0.028518 0.000483 -0.010470 0.000000 -0.019006 0.000000
# 2 0.000483 0.012463 -0.004714 0.000000 -0.004320 0.000000
# 3 -0.010470 -0.004714 0.010260 0.000000 0.011104 0.000000
# 4 0.000000 0.000000 0.000000 0.025516 0.000000 -0.001216
# 5 -0.019006 -0.004320 0.011104 0.000000 0.042569 0.000000
# 6 0.000000 0.000000 0.000000 -0.001216 0.000000 -0.042646
#
#
# Mechanical properties :
#
#
# Convention : Reuss Voigt Hill
#
# Bulk Modulus (GPa) = 45.79207 81.95085 63.87146
# Shear Modulus (GPa) = 44.10631 25.97079 35.03855
#
# Velocity S-wave (km/s) = 4.55066 3.49194 4.05599
# Velocity P-wave (km/s) = 7.00795 7.39832 7.20578
#
# Compressibility (1/GPa) = 0.02183784
#
# Stress axis : x y z
#
# Youngs Moduli (GPa) = 35.06521 80.23811 97.46613
#
# Poissons Ratio (x) = -0.03873 1.02049
# Poissons Ratio (y) = -0.01693 0.45948
# Poissons Ratio (z) = 0.36714 0.37826
#
# Static dielectric constant tensor:
#      x y z
#    x 2.006650 0.000000 -0.099250 
#    y 0.000000 1.761660 0.000000 
#    z -0.099250 0.000000 1.800220 
# 
# From -- ./inp_files/1408.got.cif
#   From: 2010.05.17/outbox.cif.g08.bks.cpg/sg13_1_cif.got.tgz:1408.got - 2010.06.03 16:44:36.
