data_PCOD9226862
_publ_section_title
;
Structure prediction by ZEFSAII (Michael W. Deem and Ramdas Pophale) SiO2 
 PCOD9226862
Probable space group: P 2/C
;
_chemical_formula_sum "Si O2"
_cell_formula_units_Z 20
_cell_length_a 10.388122
_cell_length_b 18.281216
_cell_length_c 5.093620
_cell_angle_alpha 90.000000
_cell_angle_beta 98.285636
_cell_angle_gamma 90.000000
_cell_volume 957.219749
_symmetry_space_group_name_H-M "P 2/C"
_symmetry_group_IT_number 13
_symmetry_cell_setting 'monoclinic'
loop_
_space_group_symop_operation_xyz
x,y,z
-x,y,1/2-z
-x,-y,-z
x,-y,1/2+z
loop_
_atom_site_type_symbol
_atom_site_label
_atom_site_fract_x
_atom_site_fract_y
_atom_site_fract_z
Si Si1 0.000000 0.669387 0.250000
Si Si2 0.265736 0.289746 0.580542
Si Si3 0.000000 0.425447 0.250000
Si Si4 0.658162 0.957402 0.808393
Si Si5 0.714053 0.458553 0.022909
Si Si6 0.352356 0.791746 0.604705
O O1 0.878994 0.711049 0.340206
O O2 0.049014 0.621998 0.514288
O O3 0.308996 0.374567 0.563906
O O4 0.272823 0.254307 0.296353
O O5 0.346756 0.244258 0.817191
O O6 0.127615 0.463814 0.403767
O O7 0.500000 0.958445 0.750000
O O8 0.694411 0.875672 0.903286
O O9 0.701834 0.983449 0.535720
O O10 0.665489 0.514443 0.788999
O O11 0.500000 0.790873 0.750000
#
# Coordination Sequence:
#
# PCOD9226862 Si02
#       6
#     2   4   2   4   4   4
#     4  10  20  35  54  80 112 143 178 226 278 329
#     4  11  22  37  55  81 112 145 186 226 272 328
#     4  10  18  31  50  78 106 133 174 232 300 339
#     4   9  17  31  53  83 112 133 164 216 276 327
#     4  11  20  32  51  75 106 141 182 233 281 322
#     4  11  22  37  59  84 112 146 179 219 271 325
#
# _framework density 20.893844999999999
#
# number of rings (size 3 to 8) (size 9 to 14) (size 15 to 20)
#    0.000    1.600    0.000    8.400    0.000    4.000 
#    0.000    0.000    0.000   12.000    0.000   14.000 
#    0.000    0.000    0.000    0.000    0.000    0.000 
#
# Total GULP energy -111706.435017 kJ/mol
# GULP energy per Si atom -5585.321751 kJ/mol
# Density = 2.084629 g / cm^3
# Si number density = 20.893845 Si / 1000 Ang^3
#
#
#
# Elastic Constant Matrix: (Units=GPa)
#
#
# Indices 1 2 3 4 5 6 
#
# 1 30.3099 5.9532 -2.6713 0.0000 -7.2052 0.0000
# 2 5.9532 117.2354 42.1466 0.0000 16.1187 0.0000
# 3 -2.6713 42.1466 127.8877 0.0000 -0.6936 0.0000
# 4 0.0000 0.0000 0.0000 49.7742 0.0000 9.5737
# 5 -7.2052 16.1187 -0.6936 0.0000 26.5350 0.0000
# 6 0.0000 0.0000 0.0000 9.5737 0.0000 18.3269
#
#
#
# Elastic Compliance Matrix: (Units=1/GPa)
#
#
# Indices 1 2 3 4 5 6 
#
# 1 0.037140 -0.004492 0.002326 0.000000 0.012875 0.000000
# 2 -0.004492 0.011265 -0.003850 0.000000 -0.008163 0.000000
# 3 0.002326 -0.003850 0.009154 0.000000 0.003210 0.000000
# 4 0.000000 0.000000 0.000000 0.022335 0.000000 -0.011667
# 5 0.012875 -0.008163 0.003210 0.000000 0.046225 0.000000
# 6 0.000000 0.000000 0.000000 -0.011667 0.000000 0.060659
#
#
# Mechanical properties :
#
#
# Convention : Reuss Voigt Hill
#
# Bulk Modulus (GPa) = 21.96553 40.69890 31.33221
# Shear Modulus (GPa) = 23.36591 34.26085 28.81338
#
# Velocity S-wave (km/s) = 3.34775 4.05379 3.71757
# Velocity P-wave (km/s) = 5.04767 6.43678 5.78408
#
# Compressibility (1/GPa) = 0.04552588
#
# Stress axis : x y z
#
# Youngs Moduli (GPa) = 26.92483 88.77379 109.23814
#
# Poissons Ratio (x) = 0.39880 -0.25410
# Poissons Ratio (y) = 0.12096 0.42062
# Poissons Ratio (z) = -0.06263 0.34182
#
# Static dielectric constant tensor:
#      x y z
#    x 1.793510 0.000000 0.021060 
#    y 0.000000 1.766290 0.000000 
#    z 0.021060 0.000000 1.753600 
# 
# From -- ./inp_files/3319.got.cif
#   From: 2010.05.17/outbox.cif.g08.bks.cpg/sg13_2_cif.got.tgz:3319.got - 2010.06.03 16:44:36.
