data_PCOD9226689
_publ_section_title
;
Structure prediction by ZEFSAII (Michael W. Deem and Ramdas Pophale) SiO2 
 PCOD9226689
Probable space group: P 2/C
;
_chemical_formula_sum "Si O2"
_cell_formula_units_Z 30
_cell_length_a 15.396638
_cell_length_b 17.715329
_cell_length_c 9.089320
_cell_angle_alpha 90.000000
_cell_angle_beta 135.679453
_cell_angle_gamma 90.000000
_cell_volume 1732.127232
_symmetry_space_group_name_H-M "P 2/C"
_symmetry_group_IT_number 13
_symmetry_cell_setting 'monoclinic'
loop_
_space_group_symop_operation_xyz
x,y,z
-x,y,1/2-z
-x,-y,-z
x,-y,1/2+z
loop_
_atom_site_type_symbol
_atom_site_label
_atom_site_fract_x
_atom_site_fract_y
_atom_site_fract_z
Si Si1 0.636368 0.185116 0.448475
Si Si2 0.583714 0.334439 0.576008
Si Si3 0.838752 0.934885 0.203764
Si Si4 0.279230 0.230958 0.274810
Si Si5 0.500000 0.266106 0.750000
Si Si6 0.877413 0.088102 0.402099
Si Si7 0.647547 0.527244 0.968689
Si Si8 0.697514 0.606151 0.741523
O O1 0.500000 0.152323 0.250000
O O2 0.616805 0.258904 0.526459
O O3 0.730774 0.122312 0.622444
O O4 0.689168 0.212366 0.356025
O O5 0.589477 0.316022 0.754914
O O6 0.655378 0.405513 0.598068
O O7 0.439118 0.358886 0.384739
O O8 0.973379 0.910463 0.429403
O O9 0.822720 0.020459 0.238178
O O10 0.847845 0.930589 0.037499
O O11 0.405250 0.224236 0.525662
O O12 0.182062 0.168340 0.207898
O O13 0.230900 0.317377 0.213031
O O14 0.500000 0.517381 0.750000
O O15 0.722179 0.556314 0.916618
O O16 0.689861 0.450755 0.096658
#
# Coordination Sequence:
#
# PCOD9226689 Si02
#       8
#     4   4   4   4   2   4   4   4
#     4  11  17  35  52  75 107 141 166 211 262 324
#     4  10  18  29  43  66 106 140 173 212 257 309
#     4   9  20  35  63  79 101 132 174 218 263 301
#     4  10  20  33  50  70 111 140 173 214 262 311
#     4  10  20  26  44  72 102 142 172 210 264 298
#     4   9  19  40  56  81 102 132 177 223 251 309
#     4  10  18  27  41  65 100 139 180 211 254 306
#     4  10  19  27  44  68 100 144 173 216 255 302
#
# _framework density 17.319744
#
# number of rings (size 3 to 8) (size 9 to 14) (size 15 to 20)
#    0.000    2.133    4.000    2.000    7.467    1.067 
#    1.200    1.333    0.000    0.000    0.000    0.933 
#    0.000    0.000    0.000    0.000    0.000    1.467 
#
# Total GULP energy -167032.896166 kJ/mol
# GULP energy per Si atom -5567.763206 kJ/mol
# Density = 1.728032 g / cm^3
# Si number density = 17.319744 Si / 1000 Ang^3
#
#
#
# Elastic Constant Matrix: (Units=GPa)
#
#
# Indices 1 2 3 4 5 6 
#
# 1 38.8685 50.3899 19.6755 0.0000 -2.5839 0.0000
# 2 50.3899 164.9565 56.7880 0.0000 3.7344 0.0000
# 3 19.6755 56.7880 51.2020 0.0000 -10.1022 0.0000
# 4 0.0000 0.0000 0.0000 19.0571 0.0000 -9.8772
# 5 -2.5839 3.7344 -10.1022 0.0000 17.0893 0.0000
# 6 0.0000 0.0000 0.0000 -9.8772 0.0000 22.4948
#
#
#
# Elastic Compliance Matrix: (Units=1/GPa)
#
#
# Indices 1 2 3 4 5 6 
#
# 1 0.044133 -0.013810 0.000305 0.000000 0.009871 0.000000
# 2 -0.013810 0.015791 -0.015055 0.000000 -0.014438 0.000000
# 3 0.000305 -0.015055 0.041624 0.000000 0.027942 0.000000
# 4 0.000000 0.000000 0.000000 0.067934 0.000000 0.029829
# 5 0.009871 -0.014438 0.027942 0.000000 0.079681 0.000000
# 6 0.000000 0.000000 0.000000 0.029829 0.000000 0.057552
#
#
# Mechanical properties :
#
#
# Convention : Reuss Voigt Hill
#
# Bulk Modulus (GPa) = 22.50866 56.52598 39.51732
# Shear Modulus (GPa) = 13.20499 20.27316 16.73907
#
# Velocity S-wave (km/s) = 2.76420 3.42500 3.11219
# Velocity P-wave (km/s) = 4.81787 6.95330 5.98165
#
# Compressibility (1/GPa) = 0.04442735
#
# Stress axis : x y z
#
# Youngs Moduli (GPa) = 22.65867 63.32880 24.02474
#
# Poissons Ratio (x) = 0.87458 -0.00733
# Poissons Ratio (y) = 0.31292 0.36170
# Poissons Ratio (z) = -0.00691 0.95343
#
# Static dielectric constant tensor:
#      x y z
#    x 1.610440 0.000000 -0.027620 
#    y 0.000000 1.627370 0.000000 
#    z -0.027620 0.000000 1.612450 
# 
# From -- ./inp_files/20028.got.cif
#   From: 2010.05.17/outbox.cif.g08.bks.cpg/sg13_11_cif.got.tgz:20028.got - 2010.06.03 16:44:36.
