data_PCOD9226585
_publ_section_title
;
Structure prediction by ZEFSAII (Michael W. Deem and Ramdas Pophale) SiO2 
 PCOD9226585
Probable space group: P 2/C
;
_chemical_formula_sum "Si O2"
_cell_formula_units_Z 18
_cell_length_a 7.785288
_cell_length_b 8.135697
_cell_length_c 12.259429
_cell_angle_alpha 90.000000
_cell_angle_beta 78.976488
_cell_angle_gamma 90.000000
_cell_volume 762.169539
_symmetry_space_group_name_H-M "P 2/C"
_symmetry_group_IT_number 13
_symmetry_cell_setting 'monoclinic'
loop_
_space_group_symop_operation_xyz
x,y,z
-x,y,1/2-z
-x,-y,-z
x,-y,1/2+z
loop_
_atom_site_type_symbol
_atom_site_label
_atom_site_fract_x
_atom_site_fract_y
_atom_site_fract_z
Si Si1 0.112977 0.413302 0.394669
Si Si2 0.638360 0.961054 0.332354
Si Si3 0.000000 0.139737 0.250000
Si Si4 0.491147 0.287764 0.383456
Si Si5 0.331447 0.593754 0.191036
O O1 0.291799 0.339454 0.422220
O O2 0.175079 0.539012 0.290805
O O3 0.000000 0.500000 0.500000
O O4 0.012085 0.261879 0.351436
O O5 0.500000 0.944074 0.250000
O O6 0.825635 0.031907 0.272235
O O7 0.561142 0.111964 0.414475
O O8 0.675644 0.772762 0.362185
O O9 0.500000 0.270449 0.250000
O O10 0.622533 0.438458 0.391760
O O11 0.500000 0.602139 0.250000
#
# Coordination Sequence:
#
# PCOD9226585 Si02
#       5
#     4   4   2   4   4
#     4  10  20  36  59  92 120 150 199 243 293 352
#     4  10  17  33  59  82 108 152 198 232 286 346
#     4  12  20  34  64  82 116 164 186 242 304 342
#     4   8  14  34  56  72 115 151 186 233 291 325
#     4   8  16  32  60  77 110 159 188 235 293 339
#
# _framework density 23.616793000000001
#
# number of rings (size 3 to 8) (size 9 to 14) (size 15 to 20)
#    0.000    3.111    6.667    0.000    0.000    0.889 
#    0.000    2.222    0.000   12.000    0.000    0.000 
#    0.000    0.000    0.000    0.000    0.000    0.000 
#
# Total GULP energy -100415.976000 kJ/mol
# GULP energy per Si atom -5578.665333 kJ/mol
# Density = 2.356304 g / cm^3
# Si number density = 23.616793 Si / 1000 Ang^3
#
#
#
# Elastic Constant Matrix: (Units=GPa)
#
#
# Indices 1 2 3 4 5 6 
#
# 1 132.6137 57.5354 56.3723 0.0000 -30.8475 0.0000
# 2 57.5354 252.9791 55.0791 0.0000 -12.5478 0.0000
# 3 56.3723 55.0791 84.5355 0.0000 -13.9867 0.0000
# 4 0.0000 0.0000 0.0000 23.3256 0.0000 -8.9084
# 5 -30.8475 -12.5478 -13.9867 0.0000 31.5261 0.0000
# 6 0.0000 0.0000 0.0000 -8.9084 0.0000 -66.2819
#
#
#
# Elastic Compliance Matrix: (Units=1/GPa)
#
#
# Indices 1 2 3 4 5 6 
#
# 1 0.012882 -0.001086 -0.006334 0.000000 0.009363 0.000000
# 2 -0.001086 0.004707 -0.002383 0.000000 -0.000247 0.000000
# 3 -0.006334 -0.002383 0.017724 0.000000 0.000718 0.000000
# 4 0.000000 0.000000 0.000000 0.040778 0.000000 -0.005481
# 5 0.009363 -0.000247 0.000718 0.000000 0.041101 0.000000
# 6 0.000000 0.000000 0.000000 -0.005481 0.000000 -0.014350
#
#
# Mechanical properties :
#
#
# Convention : Reuss Voigt Hill
#
# Bulk Modulus (GPa) = 63.66518 89.78908 76.72713
# Shear Modulus (GPa) = 39.15945 17.79007 28.47476
#
# Velocity S-wave (km/s) = 4.07642 2.74757 3.47609
# Velocity P-wave (km/s) = 7.01230 6.94026 6.97637
#
# Compressibility (1/GPa) = 0.01570717
#
# Stress axis : x y z
#
# Youngs Moduli (GPa) = 77.62633 212.46962 56.42005
#
# Poissons Ratio (x) = 0.23085 0.35734
# Poissons Ratio (y) = 0.08434 0.13444
# Poissons Ratio (z) = 0.49165 0.50629
#
# Static dielectric constant tensor:
#      x y z
#    x 1.895110 0.000000 0.028960 
#    y 0.000000 2.022250 0.000000 
#    z 0.028960 0.000000 1.984400 
# 
# From -- ./inp_files/62613.got.cif
#   From: 2010.05.17/outbox.cif.g08.bks.cpg/sg13_32_cif.got.tgz:62613.got - 2010.06.03 16:44:36.
