data_PCOD9226980
_publ_section_title
;
Structure prediction by ZEFSAII (Michael W. Deem and Ramdas Pophale) SiO2 
 PCOD9226980
Probable space group: P 2/C
;
_chemical_formula_sum "Si O2"
_cell_formula_units_Z 22
_cell_length_a 9.323398
_cell_length_b 13.476714
_cell_length_c 7.592688
_cell_angle_alpha 90.000000
_cell_angle_beta 94.137865
_cell_angle_gamma 90.000000
_cell_volume 951.525087
_symmetry_space_group_name_H-M "P 2/C"
_symmetry_group_IT_number 13
_symmetry_cell_setting 'monoclinic'
loop_
_space_group_symop_operation_xyz
x,y,z
-x,y,1/2-z
-x,-y,-z
x,-y,1/2+z
loop_
_atom_site_type_symbol
_atom_site_label
_atom_site_fract_x
_atom_site_fract_y
_atom_site_fract_z
Si Si1 0.300242 0.640994 0.534465
Si Si2 0.173187 0.866371 0.991533
Si Si3 0.020604 0.664793 0.039409
Si Si4 0.000000 0.026250 0.750000
Si Si5 0.462065 0.764484 0.041651
Si Si6 0.700532 0.428637 0.871465
O O1 0.133403 0.654866 0.563419
O O2 0.394116 0.741143 0.556921
O O3 0.352649 0.540640 0.631051
O O4 0.301270 0.611830 0.327278
O O5 0.341685 0.844545 0.978806
O O6 0.096856 0.760757 0.966322
O O7 0.096112 0.950973 0.872789
O O8 0.122596 0.902764 0.179584
O O9 0.000000 0.678362 0.250000
O O10 0.137402 0.576724 0.037403
O O11 0.500000 0.785818 0.250000
O O12 0.389524 0.654448 0.033614
#
# Coordination Sequence:
#
# PCOD9226980 Si02
#       6
#     4   4   4   2   4   4
#     4  10  18  32  53  79 116 156 190 228 271 324
#     4  10  20  40  62  87 107 142 190 235 299 346
#     4   9  17  32  56  79 112 153 192 229 276 339
#     4  10  22  38  70  82 108 138 190 252 292 354
#     4   9  19  34  58  79 116 155 185 222 283 354
#     4   9  18  31  50  79 112 156 198 221 266 324
#
# _framework density 23.120774999999998
#
# number of rings (size 3 to 8) (size 9 to 14) (size 15 to 20)
#    0.000    2.545    0.909    2.182    0.000    0.000 
#    6.545    0.909    0.000    0.000    0.000    0.000 
#    0.000    0.000    0.000    0.000    0.000    0.000 
#
# Total GULP energy -122737.477451 kJ/mol
# GULP energy per Si atom -5578.976248 kJ/mol
# Density = 2.306815 g / cm^3
# Si number density = 23.120775 Si / 1000 Ang^3
#
#
#
# Elastic Constant Matrix: (Units=GPa)
#
#
# Indices 1 2 3 4 5 6 
#
# 1 136.4509 38.6394 13.4562 0.0000 26.8177 0.0000
# 2 38.6394 77.9151 9.2776 0.0000 7.3512 0.0000
# 3 13.4562 9.2776 11.3972 0.0000 5.7000 0.0000
# 4 0.0000 0.0000 0.0000 15.6902 0.0000 0.5963
# 5 26.8177 7.3512 5.7000 0.0000 19.8606 0.0000
# 6 0.0000 0.0000 0.0000 0.5963 0.0000 41.4295
#
#
#
# Elastic Compliance Matrix: (Units=1/GPa)
#
#
# Indices 1 2 3 4 5 6 
#
# 1 0.011329 -0.003966 -0.003772 0.000000 -0.012747 0.000000
# 2 -0.003966 0.015689 -0.009180 0.000000 0.002184 0.000000
# 3 -0.003772 -0.009180 0.111412 0.000000 -0.023485 0.000000
# 4 0.000000 0.000000 0.000000 0.063769 0.000000 -0.000918
# 5 -0.012747 0.002184 -0.023485 0.000000 0.073495 0.000000
# 6 0.000000 0.000000 0.000000 -0.000918 0.000000 0.024151
#
#
# Mechanical properties :
#
#
# Convention : Reuss Voigt Hill
#
# Bulk Modulus (GPa) = 9.56088 38.72329 24.14208
# Shear Modulus (GPa) = 13.56688 26.35539 19.96113
#
# Velocity S-wave (km/s) = 2.42499 3.37990 2.94146
# Velocity P-wave (km/s) = 3.46192 5.65829 4.69048
#
# Compressibility (1/GPa) = 0.10459289
#
# Stress axis : x y z
#
# Youngs Moduli (GPa) = 88.26863 63.74061 8.97572
#
# Poissons Ratio (x) = 0.25283 0.03385
# Poissons Ratio (y) = 0.35012 0.08240
# Poissons Ratio (z) = 0.33293 0.58513
#
# Static dielectric constant tensor:
#      x y z
#    x 1.965980 0.000000 -0.015290 
#    y 0.000000 1.794090 0.000000 
#    z -0.015290 0.000000 1.961990 
# 
# From -- ./inp_files/12371.got.cif
#   From: 2010.05.17/outbox.cif.g08.bks.cpg/sg13_7_cif.got.tgz:12371.got - 2010.06.03 16:44:36.
