data_PCOD9226339
_publ_section_title
;
Structure prediction by ZEFSAII (Michael W. Deem and Ramdas Pophale) SiO2 
 PCOD9226339
Probable space group: P 2/C
;
_chemical_formula_sum "Si O2"
_cell_formula_units_Z 28
_cell_length_a 17.760219
_cell_length_b 6.249291
_cell_length_c 14.294469
_cell_angle_alpha 90.000000
_cell_angle_beta 114.067678
_cell_angle_gamma 90.000000
_cell_volume 1448.600042
_symmetry_space_group_name_H-M "P 2/C"
_symmetry_group_IT_number 13
_symmetry_cell_setting 'monoclinic'
loop_
_space_group_symop_operation_xyz
x,y,z
-x,y,1/2-z
-x,-y,-z
x,-y,1/2+z
loop_
_atom_site_type_symbol
_atom_site_label
_atom_site_fract_x
_atom_site_fract_y
_atom_site_fract_z
Si Si1 0.957004 0.817949 0.040250
Si Si2 0.301360 0.185993 0.120777
Si Si3 0.707144 0.459856 0.737014
Si Si4 0.168700 0.126473 0.473740
Si Si5 0.696930 0.567912 0.524456
Si Si6 0.406071 0.197061 0.676501
Si Si7 0.888220 0.434424 0.893623
O O1 0.030074 0.663004 0.112917
O O2 0.899448 0.945802 0.084738
O O3 0.904953 0.672169 0.940967
O O4 0.000000 0.000000 0.000000
O O5 0.299801 0.309115 0.217212
O O6 0.385866 0.054036 0.155545
O O7 0.285313 0.368284 0.035136
O O8 0.232892 0.006096 0.069757
O O9 0.678762 0.477814 0.616780
O O10 0.652545 0.299207 0.772196
O O11 0.804680 0.408395 0.793053
O O12 0.225825 0.264503 0.432835
O O13 0.126312 0.300647 0.518577
O O14 0.623142 0.690963 0.434426
O O15 0.500000 0.237105 0.750000
#
# Coordination Sequence:
#
# PCOD9226339 Si02
#       7
#     4   4   4   4   4   4   4
#     4   9  18  28  57  84 116 155 201 242 295 349
#     4  10  19  38  60  83 117 157 193 243 307 362
#     4  11  21  38  63  90 118 158 204 248 305 365
#     4  10  16  35  55  84 115 157 198 240 294 355
#     4  10  22  36  61  91 119 157 199 249 301 363
#     4  10  23  42  61  87 120 156 202 252 309 370
#     4  10  17  33  56  88 113 157 202 247 294 355
#
# _framework density 19.329007000000001
#
# number of rings (size 3 to 8) (size 9 to 14) (size 15 to 20)
#    0.000    2.000    5.714    0.000    0.000    5.143 
#    0.000    1.429    0.000   20.571    0.000    0.000 
#    0.000    0.000    0.000    0.000    0.000    0.000 
#
# Total GULP energy -155916.728766 kJ/mol
# GULP energy per Si atom -5568.454599 kJ/mol
# Density = 1.928501 g / cm^3
# Si number density = 19.329007 Si / 1000 Ang^3
#
#
#
# Elastic Constant Matrix: (Units=GPa)
#
#
# Indices 1 2 3 4 5 6 
#
# 1 68.7519 26.1464 40.7925 0.0000 23.5478 0.0000
# 2 26.1464 86.6488 9.2752 0.0000 6.8168 0.0000
# 3 40.7925 9.2752 74.5255 0.0000 3.3385 0.0000
# 4 0.0000 0.0000 0.0000 6.1963 0.0000 6.8680
# 5 23.5478 6.8168 3.3385 0.0000 25.3878 0.0000
# 6 0.0000 0.0000 0.0000 6.8680 0.0000 20.5470
#
#
#
# Elastic Compliance Matrix: (Units=1/GPa)
#
#
# Indices 1 2 3 4 5 6 
#
# 1 0.040251 -0.007468 -0.019636 0.000000 -0.032747 0.000000
# 2 -0.007468 0.013309 0.002295 0.000000 0.003051 0.000000
# 3 -0.019636 0.002295 0.023229 0.000000 0.014542 0.000000
# 4 0.000000 0.000000 0.000000 0.256373 0.000000 -0.085695
# 5 -0.032747 0.003051 0.014542 0.000000 0.067031 0.000000
# 6 0.000000 0.000000 0.000000 -0.085695 0.000000 0.077313
#
#
# Mechanical properties :
#
#
# Convention : Reuss Voigt Hill
#
# Bulk Modulus (GPa) = 36.80375 42.48380 39.64378
# Shear Modulus (GPa) = 9.32520 20.67366 14.99943
#
# Velocity S-wave (km/s) = 2.19885 3.27397 2.78871
# Velocity P-wave (km/s) = 5.05258 6.02651 5.56091
#
# Compressibility (1/GPa) = 0.02717115
#
# Stress axis : x y z
#
# Youngs Moduli (GPa) = 24.84381 75.13940 43.04941
#
# Poissons Ratio (x) = 0.56113 0.84531
# Poissons Ratio (y) = 0.18553 -0.09878
# Poissons Ratio (z) = 0.48783 -0.17241
#
# Static dielectric constant tensor:
#      x y z
#    x 1.742580 0.000000 0.037130 
#    y 0.000000 1.724250 0.000000 
#    z 0.037130 0.000000 1.650480 
# 
# From -- ./inp_files/54712.got.cif
#   From: 2010.05.17/outbox.cif.g08.bks.cpg/sg13_28_cif.got.tgz:54712.got - 2010.06.03 16:44:36.
