data_PCOD9226479
_publ_section_title
;
Structure prediction by ZEFSAII (Michael W. Deem and Ramdas Pophale) SiO2 
 PCOD9226479
Probable space group: P 2/C
;
_chemical_formula_sum "Si O2"
_cell_formula_units_Z 30
_cell_length_a 11.433899
_cell_length_b 8.662419
_cell_length_c 21.026325
_cell_angle_alpha 90.000000
_cell_angle_beta 130.360393
_cell_angle_gamma 90.000000
_cell_volume 1586.879649
_symmetry_space_group_name_H-M "P 2/C"
_symmetry_group_IT_number 13
_symmetry_cell_setting 'monoclinic'
loop_
_space_group_symop_operation_xyz
x,y,z
-x,y,1/2-z
-x,-y,-z
x,-y,1/2+z
loop_
_atom_site_type_symbol
_atom_site_label
_atom_site_fract_x
_atom_site_fract_y
_atom_site_fract_z
Si Si1 0.913737 0.581992 0.785102
Si Si2 0.208468 0.425105 0.043415
Si Si3 0.861565 0.995357 0.894777
Si Si4 0.020283 0.277048 0.633319
Si Si5 0.423954 0.165996 0.152980
Si Si6 0.264048 0.875283 0.785896
Si Si7 0.950458 0.289434 0.044635
Si Si8 0.000000 0.932368 0.250000
O O1 0.879524 0.420448 0.806970
O O2 0.771302 0.693501 0.723082
O O3 0.000000 0.550135 0.750000
O O4 0.025135 0.677535 0.872088
O O5 0.364541 0.335325 0.111797
O O6 0.095324 0.374414 0.061307
O O7 0.194452 0.609567 0.029530
O O8 0.128456 0.350284 0.952831
O O9 0.726343 0.942956 0.894539
O O10 0.795492 0.932492 0.803796
O O11 0.016500 0.890850 0.957498
O O12 0.897625 0.171524 0.890427
O O13 0.984330 0.172036 0.681580
O O14 0.500000 0.175683 0.250000
O O15 0.553800 0.102292 0.151280
O O16 0.152234 0.963082 0.795155
#
# Coordination Sequence:
#
# PCOD9226479 Si02
#       8
#     4   4   4   4   4   4   4   2
#     4  10  17  30  51  80 101 133 175 225 256 299
#     4   9  17  31  51  77 105 135 173 223 268 303
#     4   8  16  30  51  77 104 135 172 210 266 317
#     4  10  19  30  52  82 105 135 171 223 267 310
#     4   9  17  31  51  73 102 138 171 216 265 316
#     4   9  17  30  52  73  98 136 183 214 256 312
#     4   8  16  29  49  74 102 129 173 217 254 308
#     4  10  18  32  50  78 100 138 184 214 258 326
#
# _framework density 18.905027
#
# number of rings (size 3 to 8) (size 9 to 14) (size 15 to 20)
#    0.000    2.933    1.333    0.800    0.000    2.133 
#    0.000    0.667    0.000   60.000    0.000    0.000 
#    0.000    0.000    0.000    0.000    0.000    0.000 
#
# Total GULP energy -167008.945648 kJ/mol
# GULP energy per Si atom -5566.964855 kJ/mol
# Density = 1.886200 g / cm^3
# Si number density = 18.905027 Si / 1000 Ang^3
#
#
#
# Elastic Constant Matrix: (Units=GPa)
#
#
# Indices 1 2 3 4 5 6 
#
# 1 82.2043 45.1282 27.3298 0.0000 5.5091 0.0000
# 2 45.1282 128.4838 24.7219 0.0000 10.4660 0.0000
# 3 27.3298 24.7219 52.7261 0.0000 4.3918 0.0000
# 4 0.0000 0.0000 0.0000 21.6746 0.0000 -5.3681
# 5 5.5091 10.4660 4.3918 0.0000 29.0667 0.0000
# 6 0.0000 0.0000 0.0000 -5.3681 0.0000 26.3012
#
#
#
# Elastic Compliance Matrix: (Units=1/GPa)
#
#
# Indices 1 2 3 4 5 6 
#
# 1 0.016927 -0.004640 -0.006553 0.000000 -0.000547 0.000000
# 2 -0.004640 0.010011 -0.002088 0.000000 -0.002410 0.000000
# 3 -0.006553 -0.002088 0.023471 0.000000 -0.001553 0.000000
# 4 0.000000 0.000000 0.000000 0.048593 0.000000 0.009918
# 5 -0.000547 -0.002410 -0.001553 0.000000 0.035610 0.000000
# 6 0.000000 0.000000 0.000000 0.009918 0.000000 0.040045
#
#
# Mechanical properties :
#
#
# Convention : Reuss Voigt Hill
#
# Bulk Modulus (GPa) = 41.93361 50.86380 46.39871
# Shear Modulus (GPa) = 23.90422 26.49081 25.19751
#
# Velocity S-wave (km/s) = 3.55975 3.74740 3.65478
# Velocity P-wave (km/s) = 6.25501 6.75924 6.51201
#
# Compressibility (1/GPa) = 0.02384722
#
# Stress axis : x y z
#
# Youngs Moduli (GPa) = 59.07596 99.89117 42.60606
#
# Poissons Ratio (x) = 0.46350 0.27919
# Poissons Ratio (y) = 0.27412 0.08896
# Poissons Ratio (z) = 0.38712 0.20857
#
# Static dielectric constant tensor:
#      x y z
#    x 1.674890 0.000000 -0.026040 
#    y 0.000000 1.729500 0.000000 
#    z -0.026040 0.000000 1.715520 
# 
# From -- ./inp_files/77800.got.cif
#   From: 2010.05.17/outbox.cif.g08.bks.cpg/sg13_39_cif.got.tgz:77800.got - 2010.06.03 16:44:36.
