data_PCOD9226581
_publ_section_title
;
Structure prediction by ZEFSAII (Michael W. Deem and Ramdas Pophale) SiO2 
 PCOD9226581
Probable space group: P 2/C
;
_chemical_formula_sum "Si O2"
_cell_formula_units_Z 26
_cell_length_a 11.903081
_cell_length_b 7.524677
_cell_length_c 24.639109
_cell_angle_alpha 90.000000
_cell_angle_beta 146.974245
_cell_angle_gamma 90.000000
_cell_volume 1202.766930
_symmetry_space_group_name_H-M "P 2/C"
_symmetry_group_IT_number 13
_symmetry_cell_setting 'monoclinic'
loop_
_space_group_symop_operation_xyz
x,y,z
-x,y,1/2-z
-x,-y,-z
x,-y,1/2+z
loop_
_atom_site_type_symbol
_atom_site_label
_atom_site_fract_x
_atom_site_fract_y
_atom_site_fract_z
Si Si1 0.277636 0.946775 0.889309
Si Si2 0.834533 0.303723 0.720223
Si Si3 0.583246 0.540563 0.401260
Si Si4 0.642098 0.781205 0.688771
Si Si5 0.172869 0.903987 0.176642
Si Si6 0.056323 0.230935 0.402107
Si Si7 0.500000 0.695733 0.250000
O O1 0.296549 0.809562 0.848108
O O2 0.148325 0.856435 0.884578
O O3 0.201945 0.129723 0.831838
O O4 0.500000 0.000000 0.000000
O O5 0.614345 0.394838 0.643042
O O6 0.000000 0.409204 0.750000
O O7 0.906772 0.230622 0.808790
O O8 0.567633 0.327384 0.394986
O O9 0.784705 0.636583 0.506010
O O10 0.543146 0.592342 0.322851
O O11 0.653206 0.974580 0.721346
O O12 0.834313 0.683707 0.796875
O O13 0.007178 0.050986 0.091324
O O14 0.294531 0.807952 0.178966
#
# Coordination Sequence:
#
# PCOD9226581 Si02
#       7
#     4   4   4   4   4   4   2
#     4  11  18  35  62  91 124 164 198 245 301 383
#     4  10  17  33  57  89 121 156 199 251 302 363
#     4  11  23  39  62  92 122 164 209 262 310 373
#     4   9  22  40  56  89 131 161 193 252 322 368
#     4   8  19  37  62  81 118 167 198 252 311 353
#     4  10  20  37  64  88 126 160 210 246 320 370
#     4  10  22  42  66  88 120 154 220 274 296 362
#
# _framework density 21.616824000000001
#
# number of rings (size 3 to 8) (size 9 to 14) (size 15 to 20)
#    0.923    1.231    3.077    0.462    0.000    3.077 
#    2.769    0.769    0.000    0.000    0.000    0.000 
#    0.000    0.000    0.000    0.000    0.000    0.000 
#
# Total GULP energy -144844.300912 kJ/mol
# GULP energy per Si atom -5570.934650 kJ/mol
# Density = 2.156762 g / cm^3
# Si number density = 21.616824 Si / 1000 Ang^3
#
#
#
# Elastic Constant Matrix: (Units=GPa)
#
#
# Indices 1 2 3 4 5 6 
#
# 1 92.6854 5.8523 -2.0888 0.0000 -7.2231 0.0000
# 2 5.8523 31.9494 -7.9692 0.0000 -4.2637 0.0000
# 3 -2.0888 -7.9692 68.3391 0.0000 7.0748 0.0000
# 4 0.0000 0.0000 0.0000 23.3660 0.0000 15.3530
# 5 -7.2231 -4.2637 7.0748 0.0000 19.2294 0.0000
# 6 0.0000 0.0000 0.0000 15.3530 0.0000 6.8773
#
#
#
# Elastic Compliance Matrix: (Units=1/GPa)
#
#
# Indices 1 2 3 4 5 6 
#
# 1 0.011191 -0.001586 -0.000251 0.000000 0.003944 0.000000
# 2 -0.001586 0.033140 0.003240 0.000000 0.005560 0.000000
# 3 -0.000251 0.003240 0.015530 0.000000 -0.005090 0.000000
# 4 0.000000 0.000000 0.000000 -0.091673 0.000000 0.204653
# 5 0.003944 0.005560 -0.005090 0.000000 0.056591 0.000000
# 6 0.000000 0.000000 0.000000 0.204653 0.000000 -0.311466
#
#
# Mechanical properties :
#
#
# Convention : Reuss Voigt Hill
#
# Bulk Modulus (GPa) = 15.95724 20.50693 18.23208
# Shear Modulus (GPa) = -18.61476 23.03985 2.21255
#
# Velocity S-wave (km/s) = -2.93767 3.26825 1.01279
# Velocity P-wave (km/s) = 2.02699 4.87330 3.13372
#
# Compressibility (1/GPa) = 0.06266749
#
# Stress axis : x y z
#
# Youngs Moduli (GPa) = 89.35690 30.17473 64.39149
#
# Poissons Ratio (x) = 0.04786 0.01618
# Poissons Ratio (y) = 0.14174 -0.20866
# Poissons Ratio (z) = 0.02245 -0.09778
#
# Static dielectric constant tensor:
#      x y z
#    x 1.793580 0.000000 0.022730 
#    y 0.000000 1.834860 0.000000 
#    z 0.022730 0.000000 1.804660 
# 
# From -- ./inp_files/86230.got.cif
#   From: 2010.05.17/outbox.cif.g08.bks.cpg/sg13_44_cif.got.tgz:86230.got - 2010.06.03 16:44:36.
