data_PCOD9226900
_publ_section_title
;
Structure prediction by ZEFSAII (Michael W. Deem and Ramdas Pophale) SiO2 
 PCOD9226900
Probable space group: P 2/C
;
_chemical_formula_sum "Si O2"
_cell_formula_units_Z 26
_cell_length_a 13.691339
_cell_length_b 15.667423
_cell_length_c 8.433839
_cell_angle_alpha 90.000000
_cell_angle_beta 45.527541
_cell_angle_gamma 90.000000
_cell_volume 1290.969254
_symmetry_space_group_name_H-M "P 2/C"
_symmetry_group_IT_number 13
_symmetry_cell_setting 'monoclinic'
loop_
_space_group_symop_operation_xyz
x,y,z
-x,y,1/2-z
-x,-y,-z
x,-y,1/2+z
loop_
_atom_site_type_symbol
_atom_site_label
_atom_site_fract_x
_atom_site_fract_y
_atom_site_fract_z
Si Si1 0.854800 0.537846 0.890296
Si Si2 0.500000 0.365714 0.750000
Si Si3 0.844658 0.930700 0.364026
Si Si4 0.153585 0.896009 0.511451
Si Si5 0.717954 0.588186 0.747059
Si Si6 0.754682 0.708980 0.146440
Si Si7 0.167659 0.742015 0.075548
O O1 0.837845 0.557032 0.726265
O O2 0.000000 0.493925 0.750000
O O3 0.729208 0.479599 0.093111
O O4 0.847484 0.629035 0.986166
O O5 0.588437 0.411595 0.510991
O O6 0.391135 0.314658 0.765298
O O7 0.848031 0.917853 0.172585
O O8 0.792351 0.841431 0.495441
O O9 0.000000 0.936825 0.250000
O O10 0.778522 0.021571 0.482317
O O11 0.212604 0.801681 0.462259
O O12 0.000000 0.889034 0.750000
O O13 0.756731 0.680038 0.633186
O O14 0.779971 0.717231 0.306913
O O15 0.000000 0.735519 0.250000
#
# Coordination Sequence:
#
# PCOD9226900 Si02
#       7
#     4   2   4   4   4   4   4
#     4  11  21  36  60  90 114 147 187 241 303 343
#     4  10  26  42  56  82 110 168 204 222 276 328
#     4   9  18  29  51  85 118 145 182 230 300 359
#     4  10  18  31  54  84 116 150 184 240 296 341
#     4  11  23  38  59  82 119 152 192 238 277 348
#     4  10  22  38  57  81 119 153 195 237 276 345
#     4  10  20  37  61  91 116 146 185 244 306 341
#
# _framework density 20.139906
#
# number of rings (size 3 to 8) (size 9 to 14) (size 15 to 20)
#    0.000    1.846    0.000    5.077    0.000   11.692 
#    0.000    0.000    0.000    8.308    0.000    0.000 
#    0.000    0.000    0.000    0.000    0.000    0.000 
#
# Total GULP energy -144869.113260 kJ/mol
# GULP energy per Si atom -5571.888972 kJ/mol
# Density = 2.009407 g / cm^3
# Si number density = 20.139906 Si / 1000 Ang^3
#
#
#
# Elastic Constant Matrix: (Units=GPa)
#
#
# Indices 1 2 3 4 5 6 
#
# 1 74.3229 11.6628 26.2063 0.0000 -4.5826 0.0000
# 2 11.6628 136.5717 71.4053 0.0000 6.1723 0.0000
# 3 26.2063 71.4053 102.5977 0.0000 4.0381 0.0000
# 4 0.0000 0.0000 0.0000 37.6793 0.0000 12.4269
# 5 -4.5826 6.1723 4.0381 0.0000 17.5099 0.0000
# 6 0.0000 0.0000 0.0000 12.4269 0.0000 26.8129
#
#
#
# Elastic Compliance Matrix: (Units=1/GPa)
#
#
# Indices 1 2 3 4 5 6 
#
# 1 0.015276 0.000972 -0.004766 0.000000 0.004754 0.000000
# 2 0.000972 0.011660 -0.008287 0.000000 -0.001945 0.000000
# 3 -0.004766 -0.008287 0.016818 0.000000 -0.002205 0.000000
# 4 0.000000 0.000000 0.000000 0.031328 0.000000 -0.014520
# 5 0.004754 -0.001945 -0.002205 0.000000 0.059549 0.000000
# 6 0.000000 0.000000 0.000000 -0.014520 0.000000 0.044025
#
#
# Mechanical properties :
#
#
# Convention : Reuss Voigt Hill
#
# Bulk Modulus (GPa) = 51.03720 59.11569 55.07645
# Shear Modulus (GPa) = 23.88382 30.01495 26.94939
#
# Velocity S-wave (km/s) = 3.44742 3.86466 3.66199
# Velocity P-wave (km/s) = 6.42204 7.02356 6.72952
#
# Compressibility (1/GPa) = 0.01959355
#
# Stress axis : x y z
#
# Youngs Moduli (GPa) = 65.46325 85.76639 59.45964
#
# Poissons Ratio (x) = -0.08339 0.28337
# Poissons Ratio (y) = -0.06365 0.49272
# Poissons Ratio (z) = 0.31198 0.71071
#
# Static dielectric constant tensor:
#      x y z
#    x 1.755490 0.000000 -0.012880 
#    y 0.000000 1.788650 0.000000 
#    z -0.012880 0.000000 1.762300 
# 
# From -- ./inp_files/19830.got.cif
#   From: 2010.05.17/outbox.cif.g08.bks.cpg/sg13_10_cif.got.tgz:19830.got - 2010.06.03 16:44:36.
