data_PCOD9226187
_publ_section_title
;
Structure prediction by ZEFSAII (Michael W. Deem and Ramdas Pophale) SiO2 
 PCOD9226187
Probable space group: P 2/C
;
_chemical_formula_sum "Si O2"
_cell_formula_units_Z 24
_cell_length_a 17.520066
_cell_length_b 15.496972
_cell_length_c 5.538864
_cell_angle_alpha 90.000000
_cell_angle_beta 80.905105
_cell_angle_gamma 90.000000
_cell_volume 1484.939226
_symmetry_space_group_name_H-M "P 2/C"
_symmetry_group_IT_number 13
_symmetry_cell_setting 'monoclinic'
loop_
_space_group_symop_operation_xyz
x,y,z
-x,y,1/2-z
-x,-y,-z
x,-y,1/2+z
loop_
_atom_site_type_symbol
_atom_site_label
_atom_site_fract_x
_atom_site_fract_y
_atom_site_fract_z
Si Si1 0.409662 0.552785 0.295168
Si Si2 0.789539 0.681184 0.605230
Si Si3 0.735060 0.671061 0.132470
Si Si4 0.088548 0.964824 0.955726
Si Si5 0.047452 0.235318 0.476274
Si Si6 0.153377 0.504775 0.423312
O O1 0.500000 0.578070 0.250000
O O2 0.396356 0.499999 0.551819
O O3 0.349717 0.630875 0.325142
O O4 0.752088 0.716263 0.378383
O O5 0.880100 0.701280 0.559949
O O6 0.786240 0.575939 0.606880
O O7 0.752089 0.716263 0.869528
O O8 0.797623 0.592475 0.101189
O O9 0.081123 0.862023 0.959438
O O10 0.123820 0.000000 0.688090
O O11 0.000000 0.000000 0.000000
O O12 0.000000 0.245996 0.250000
O O13 0.000000 0.245995 0.750000
O O14 0.108435 0.500000 0.695782
#
# Coordination Sequence:
#
# PCOD9226187 Si02
#       6
#     4   4   4   4   4   4
#     4  10  18  27  44  71  92 109 144 194 230 253
#     4  10  20  29  44  64  80 113 149 179 224 259
#     4  10  17  31  46  59  84 119 151 178 213 269
#     4  10  16  30  48  66  81 109 133 161 209 286
#     4  12  21  32  47  65  90 106 141 195 219 253
#     4   8  14  25  42  53  68 100 142 168 195 245
#
# _framework density 16.162279000000002
#
# number of rings (size 3 to 8) (size 9 to 14) (size 15 to 20)
#    0.000    2.000    3.333    5.000    0.000    0.000 
#    0.000    0.000    0.000   27.000    0.000    0.000 
#    0.000    0.000    0.000    0.000    0.000   16.667 
#
# Total GULP energy -133602.722580 kJ/mol
# GULP energy per Si atom -5566.780108 kJ/mol
# Density = 1.612549 g / cm^3
# Si number density = 16.162279 Si / 1000 Ang^3
#
#
#
# Elastic Constant Matrix: (Units=GPa)
#
#
# Indices 1 2 3 4 5 6 
#
# 1 58.3697 6.7055 45.0185 0.0000 1.1754 0.0000
# 2 6.7055 14.9960 1.7550 0.0000 -0.4436 0.0000
# 3 45.0185 1.7550 214.5124 0.0000 12.8180 0.0000
# 4 0.0000 0.0000 0.0000 9.9890 0.0000 1.8765
# 5 1.1754 -0.4436 12.8180 0.0000 14.2781 0.0000
# 6 0.0000 0.0000 0.0000 1.8765 0.0000 -10.9497
#
#
#
# Elastic Compliance Matrix: (Units=1/GPa)
#
#
# Indices 1 2 3 4 5 6 
#
# 1 0.021683 -0.009096 -0.004599 0.000000 0.002061 0.000000
# 2 -0.009096 0.070664 0.001220 0.000000 0.001848 0.000000
# 3 -0.004599 0.001220 0.005909 0.000000 -0.004888 0.000000
# 4 0.000000 0.000000 0.000000 0.096988 0.000000 0.016621
# 5 0.002061 0.001848 -0.004888 0.000000 0.074314 0.000000
# 6 0.000000 0.000000 0.000000 0.016621 0.000000 -0.088479
#
#
# Mechanical properties :
#
#
# Convention : Reuss Voigt Hill
#
# Bulk Modulus (GPa) = 13.64156 43.87068 28.75612
# Shear Modulus (GPa) = 21.69536 18.29009 19.99272
#
# Velocity S-wave (km/s) = 3.66778 3.36765 3.52092
# Velocity P-wave (km/s) = 5.13765 6.50571 5.86173
#
# Compressibility (1/GPa) = 0.07330541
#
# Stress axis : x y z
#
# Youngs Moduli (GPa) = 46.11934 14.15153 169.23173
#
# Poissons Ratio (x) = 0.12873 0.77833
# Poissons Ratio (y) = 0.41952 -0.20653
# Poissons Ratio (z) = 0.21211 -0.01727
#
# Static dielectric constant tensor:
#      x y z
#    x 1.498290 0.000000 0.019040 
#    y 0.000000 1.618450 0.000000 
#    z 0.019040 0.000000 1.710680 
# 
# From -- ./inp_files/4940.got.cif
#   From: 2010.05.17/outbox.cif.g08.bks.cpg/sg13_3_cif.got.tgz:4940.got - 2010.06.03 16:44:36.
