data_PCOD9226322
_publ_section_title
;
Structure prediction by ZEFSAII (Michael W. Deem and Ramdas Pophale) SiO2 
 PCOD9226322
Probable space group: P 2/C
;
_chemical_formula_sum "Si O2"
_cell_formula_units_Z 22
_cell_length_a 12.412865
_cell_length_b 18.244957
_cell_length_c 5.603114
_cell_angle_alpha 90.000000
_cell_angle_beta 66.144488
_cell_angle_gamma 90.000000
_cell_volume 1160.540921
_symmetry_space_group_name_H-M "P 2/C"
_symmetry_group_IT_number 13
_symmetry_cell_setting 'monoclinic'
loop_
_space_group_symop_operation_xyz
x,y,z
-x,y,1/2-z
-x,-y,-z
x,-y,1/2+z
loop_
_atom_site_type_symbol
_atom_site_label
_atom_site_fract_x
_atom_site_fract_y
_atom_site_fract_z
Si Si1 0.384342 0.429375 0.965555
Si Si2 0.500000 0.325272 0.250000
Si Si3 0.836453 0.527650 0.299472
Si Si4 0.264088 0.677629 0.192684
Si Si5 0.927007 0.801398 0.064627
Si Si6 0.135327 0.029385 0.878086
O O1 0.439690 0.377916 0.113934
O O2 0.291019 0.489268 0.125613
O O3 0.500000 0.465523 0.750000
O O4 0.316079 0.371451 0.859735
O O5 0.382327 0.288690 0.465152
O O6 0.889078 0.488942 0.488637
O O7 0.812135 0.613640 0.374182
O O8 0.174455 0.740509 0.344032
O O9 0.873120 0.883105 0.115151
O O10 0.000000 0.793728 0.250000
O O11 0.000000 0.794579 0.750000
O O12 0.188014 0.999806 0.581139
O O13 0.000000 0.000000 0.000000
#
# Coordination Sequence:
#
# PCOD9226322 Si02
#       6
#     4   2   4   4   4   4
#     4   9  19  32  53  79 108 143 194 250 291 324
#     4  10  18  36  54  84 110 144 196 238 298 338
#     4  10  19  32  51  75 106 140 189 242 283 325
#     4  10  23  34  54  84 117 149 188 240 292 338
#     4  12  24  38  61  86 123 153 183 227 285 343
#     4  10  16  34  59  89 111 134 179 237 277 324
#
# _framework density 18.956679000000001
#
# number of rings (size 3 to 8) (size 9 to 14) (size 15 to 20)
#    0.000    1.818    5.455    0.000    3.818    2.182 
#    0.000    0.000    0.000   13.091    0.000    1.273 
#    0.000    0.000    0.000    0.000    0.000    0.000 
#
# Total GULP energy -122534.216616 kJ/mol
# GULP energy per Si atom -5569.737119 kJ/mol
# Density = 1.891353 g / cm^3
# Si number density = 18.956679 Si / 1000 Ang^3
#
#
#
# Elastic Constant Matrix: (Units=GPa)
#
#
# Indices 1 2 3 4 5 6 
#
# 1 73.9221 40.8201 52.2256 0.0000 4.7820 0.0000
# 2 40.8201 128.0765 47.8434 0.0000 -18.8116 0.0000
# 3 52.2256 47.8434 143.6211 0.0000 7.5666 0.0000
# 4 0.0000 0.0000 0.0000 28.6730 0.0000 -4.8685
# 5 4.7820 -18.8116 7.5666 0.0000 28.5559 0.0000
# 6 0.0000 0.0000 0.0000 -4.8685 0.0000 13.0050
#
#
#
# Elastic Compliance Matrix: (Units=1/GPa)
#
#
# Indices 1 2 3 4 5 6 
#
# 1 0.020707 -0.005385 -0.005442 0.000000 -0.005573 0.000000
# 2 -0.005385 0.011820 -0.002471 0.000000 0.009343 0.000000
# 3 -0.005442 -0.002471 0.009942 0.000000 -0.003351 0.000000
# 4 0.000000 0.000000 0.000000 0.037243 0.000000 0.013942
# 5 -0.005573 0.009343 -0.003351 0.000000 0.042995 0.000000
# 6 0.000000 0.000000 0.000000 0.013942 0.000000 0.082113
#
#
# Mechanical properties :
#
#
# Convention : Reuss Voigt Hill
#
# Bulk Modulus (GPa) = 63.00990 69.71086 66.36038
# Shear Modulus (GPa) = 21.12313 27.69548 24.40930
#
# Velocity S-wave (km/s) = 3.34171 3.82643 3.59226
# Velocity P-wave (km/s) = 6.94265 7.50838 7.23105
#
# Compressibility (1/GPa) = 0.01587052
#
# Stress axis : x y z
#
# Youngs Moduli (GPa) = 48.29305 84.60468 100.58802
#
# Poissons Ratio (x) = 0.45562 0.54742
# Poissons Ratio (y) = 0.26007 0.24859
# Poissons Ratio (z) = 0.26282 0.20909
#
# Static dielectric constant tensor:
#      x y z
#    x 1.691610 0.000000 0.023720 
#    y 0.000000 1.617640 0.000000 
#    z 0.023720 0.000000 1.862270 
# 
# From -- ./inp_files/4914.got.cif
#   From: 2010.05.17/outbox.cif.g08.bks.cpg/sg13_3_cif.got.tgz:4914.got - 2010.06.03 16:44:36.
