data_PCOD9226921
_publ_section_title
;
Structure prediction by ZEFSAII (Michael W. Deem and Ramdas Pophale) SiO2 
 PCOD9226921
Probable space group: P 2/C
;
_chemical_formula_sum "Si O2"
_cell_formula_units_Z 30
_cell_length_a 18.940788
_cell_length_b 8.805315
_cell_length_c 14.885568
_cell_angle_alpha 90.000000
_cell_angle_beta 137.122706
_cell_angle_gamma 90.000000
_cell_volume 1689.243015
_symmetry_space_group_name_H-M "P 2/C"
_symmetry_group_IT_number 13
_symmetry_cell_setting 'monoclinic'
loop_
_space_group_symop_operation_xyz
x,y,z
-x,y,1/2-z
-x,-y,-z
x,-y,1/2+z
loop_
_atom_site_type_symbol
_atom_site_label
_atom_site_fract_x
_atom_site_fract_y
_atom_site_fract_z
Si Si1 0.010957 0.072471 0.107884
Si Si2 0.421725 0.690621 0.259168
Si Si3 0.551384 0.165540 0.037553
Si Si4 0.786061 0.882567 0.413306
Si Si5 0.410712 0.328801 0.236881
Si Si6 0.237980 0.028176 0.307616
Si Si7 0.000000 0.180571 0.750000
Si Si8 0.222945 0.826071 0.464679
O O1 0.131142 0.121699 0.226036
O O2 0.006219 0.931852 0.171435
O O3 0.907380 0.172464 0.027938
O O4 0.000000 0.000000 0.000000
O O5 0.500000 0.734023 0.250000
O O6 0.477932 0.740264 0.403333
O O7 0.308484 0.770605 0.150681
O O8 0.410493 0.509479 0.248525
O O9 0.569479 0.244467 0.150477
O O10 0.663268 0.136612 0.097268
O O11 0.500000 0.000000 0.000000
O O12 0.766825 0.952323 0.295891
O O13 0.783632 0.022024 0.480702
O O14 0.500000 0.285384 0.250000
O O15 0.306227 0.276809 0.090828
O O16 0.248518 0.892623 0.390097
O O17 0.888531 0.257835 0.641837
#
# Coordination Sequence:
#
# PCOD9226921 Si02
#       8
#     4   4   4   4   4   4   2   4
#     4   8  16  28  50  82 111 135 168 224 278 319
#     4  11  24  39  54  78 114 151 181 225 277 332
#     4  12  21  36  59  84 109 141 189 234 276 324
#     4  10  18  35  56  82 110 144 181 226 276 324
#     4  11  24  38  54  77 112 153 185 223 276 338
#     4  10  18  31  56  89 109 137 179 235 275 318
#     4   8  16  28  52  82 104 136 174 230 268 312
#     4  10  18  34  57  82 110 139 187 226 272 325
#
# _framework density 17.759433999999999
#
# number of rings (size 3 to 8) (size 9 to 14) (size 15 to 20)
#    0.000    1.867    2.667    2.000    0.000    1.067 
#    0.000    0.000    0.000    8.800    0.000    0.000 
#    0.000    0.000    0.000    0.000    0.000    0.000 
#
# Total GULP energy -167106.235311 kJ/mol
# GULP energy per Si atom -5570.207844 kJ/mol
# Density = 1.771901 g / cm^3
# Si number density = 17.759434 Si / 1000 Ang^3
#
#
#
# Elastic Constant Matrix: (Units=GPa)
#
#
# Indices 1 2 3 4 5 6 
#
# 1 102.0651 31.2563 48.9004 0.0000 27.7619 0.0000
# 2 31.2563 38.3500 30.7807 0.0000 15.0302 0.0000
# 3 48.9004 30.7807 114.6178 0.0000 26.7977 0.0000
# 4 0.0000 0.0000 0.0000 16.6093 0.0000 -3.4843
# 5 27.7619 15.0302 26.7977 0.0000 56.1452 0.0000
# 6 0.0000 0.0000 0.0000 -3.4843 0.0000 25.3270
#
#
#
# Elastic Compliance Matrix: (Units=1/GPa)
#
#
# Indices 1 2 3 4 5 6 
#
# 1 0.014822 -0.007993 -0.003336 0.000000 -0.003597 0.000000
# 2 -0.007993 0.038968 -0.006236 0.000000 -0.003503 0.000000
# 3 -0.003336 -0.006236 0.012434 0.000000 -0.002616 0.000000
# 4 0.000000 0.000000 0.000000 0.061996 0.000000 0.008529
# 5 -0.003597 -0.003503 -0.002616 0.000000 0.021776 0.000000
# 6 0.000000 0.000000 0.000000 0.008529 0.000000 0.040657
#
#
# Mechanical properties :
#
#
# Convention : Reuss Voigt Hill
#
# Bulk Modulus (GPa) = 32.15991 52.98973 42.57482
# Shear Modulus (GPa) = 21.17310 29.22266 25.19788
#
# Velocity S-wave (km/s) = 3.45660 4.06084 3.77084
# Velocity P-wave (km/s) = 5.83769 7.20344 6.55623
#
# Compressibility (1/GPa) = 0.03109461
#
# Stress axis : x y z
#
# Youngs Moduli (GPa) = 67.46609 25.66196 80.42338
#
# Poissons Ratio (x) = 0.20512 0.26831
# Poissons Ratio (y) = 0.53926 0.50150
# Poissons Ratio (z) = 0.22508 0.16002
#
# Static dielectric constant tensor:
#      x y z
#    x 1.677010 0.000000 0.033890 
#    y 0.000000 1.552080 0.000000 
#    z 0.033890 0.000000 1.664450 
# 
# From -- ./inp_files/57053.got.cif
#   From: 2010.05.17/outbox.cif.g08.bks.cpg/sg13_29_cif.got.tgz:57053.got - 2010.06.03 16:44:36.
