data_PCOD9226424
_publ_section_title
;
Structure prediction by ZEFSAII (Michael W. Deem and Ramdas Pophale) SiO2 
 PCOD9226424
Probable space group: P 2/C
;
_chemical_formula_sum "Si O2"
_cell_formula_units_Z 24
_cell_length_a 10.378187
_cell_length_b 8.499659
_cell_length_c 18.475036
_cell_angle_alpha 90.000000
_cell_angle_beta 49.327098
_cell_angle_gamma 90.000000
_cell_volume 1236.035775
_symmetry_space_group_name_H-M "P 2/C"
_symmetry_group_IT_number 13
_symmetry_cell_setting 'monoclinic'
loop_
_space_group_symop_operation_xyz
x,y,z
-x,y,1/2-z
-x,-y,-z
x,-y,1/2+z
loop_
_atom_site_type_symbol
_atom_site_label
_atom_site_fract_x
_atom_site_fract_y
_atom_site_fract_z
Si Si1 0.065220 0.148958 0.310388
Si Si2 0.287962 0.939680 0.533309
Si Si3 0.987228 0.528402 0.920497
Si Si4 0.683949 0.574600 0.936250
Si Si5 0.624439 0.059976 0.846962
Si Si6 0.840891 0.349796 0.762755
O O1 0.913821 0.048260 0.403554
O O2 0.059567 0.308734 0.359248
O O3 0.000000 0.171023 0.250000
O O4 0.247151 0.063078 0.238065
O O5 0.320135 0.762707 0.553398
O O6 0.421671 0.965564 0.419484
O O7 0.334100 0.052409 0.582394
O O8 0.792270 0.520569 0.965747
O O9 0.086862 0.396706 0.840479
O O10 0.000000 0.500000 0.000000
O O11 0.784068 0.502175 0.830638
O O12 0.500000 0.500000 0.000000
O O13 0.685385 0.233873 0.806170
O O14 0.000000 0.277000 0.750000
#
# Coordination Sequence:
#
# PCOD9226424 Si02
#       6
#     4   4   4   4   4   4
#     4   9  17  33  54  78 112 146 179 227 282 328
#     4   9  17  28  48  82 113 134 173 229 283 319
#     4  10  21  36  54  78 110 148 182 224 283 333
#     4  10  18  34  57  85 105 138 182 234 271 318
#     4  10  17  28  51  83 108 139 180 231 276 320
#     4  10  18  30  53  81 107 135 187 229 264 324
#
# _framework density 19.416912
#
# number of rings (size 3 to 8) (size 9 to 14) (size 15 to 20)
#    0.000    2.333    1.667    5.000    0.000    0.000 
#    0.000    1.667    0.000    0.000    8.667    0.000 
#    0.000    0.000    0.000    0.000    0.000    0.000 
#
# Total GULP energy -133638.610120 kJ/mol
# GULP energy per Si atom -5568.275422 kJ/mol
# Density = 1.937272 g / cm^3
# Si number density = 19.416912 Si / 1000 Ang^3
#
#
#
# Elastic Constant Matrix: (Units=GPa)
#
#
# Indices 1 2 3 4 5 6 
#
# 1 60.7014 17.9968 71.6179 0.0000 -8.2744 0.0000
# 2 17.9968 44.8346 32.8280 0.0000 -0.9290 0.0000
# 3 71.6179 32.8280 133.3662 0.0000 -18.6503 0.0000
# 4 0.0000 0.0000 0.0000 27.9213 0.0000 -12.3811
# 5 -8.2744 -0.9290 -18.6503 0.0000 46.6930 0.0000
# 6 0.0000 0.0000 0.0000 -12.3811 0.0000 14.9891
#
#
#
# Elastic Compliance Matrix: (Units=1/GPa)
#
#
# Indices 1 2 3 4 5 6 
#
# 1 0.045101 -0.000277 -0.024397 0.000000 -0.001758 0.000000
# 2 -0.000277 0.027437 -0.006922 0.000000 -0.002268 0.000000
# 3 -0.024397 -0.006922 0.022962 0.000000 0.004711 0.000000
# 4 0.000000 0.000000 0.000000 0.056515 0.000000 0.046681
# 5 -0.001758 -0.002268 0.004711 0.000000 0.022941 0.000000
# 6 0.000000 0.000000 0.000000 0.046681 0.000000 0.105274
#
#
# Mechanical properties :
#
#
# Convention : Reuss Voigt Hill
#
# Bulk Modulus (GPa) = 30.95199 53.75418 42.35309
# Shear Modulus (GPa) = 14.11666 25.68467 19.90066
#
# Velocity S-wave (km/s) = 2.69927 3.64098 3.20490
# Velocity P-wave (km/s) = 5.06854 6.73943 5.96280
#
# Compressibility (1/GPa) = 0.03230810
#
# Stress axis : x y z
#
# Youngs Moduli (GPa) = 22.17234 36.44762 43.54996
#
# Poissons Ratio (x) = 0.01008 1.06250
# Poissons Ratio (y) = 0.00613 0.30146
# Poissons Ratio (z) = 0.54094 0.25230
#
# Static dielectric constant tensor:
#      x y z
#    x 1.719860 0.000000 -0.062190 
#    y 0.000000 1.759770 0.000000 
#    z -0.062190 0.000000 1.721090 
# 
# From -- ./inp_files/65898.got.cif
#   From: 2010.05.17/outbox.cif.g08.bks.cpg/sg13_33_cif.got.tgz:65898.got - 2010.06.03 16:44:36.
