data_PCOD9226207
_publ_section_title
;
Structure prediction by ZEFSAII (Michael W. Deem and Ramdas Pophale) SiO2 
 PCOD9226207
Probable space group: P 2/C
;
_chemical_formula_sum "Si O2"
_cell_formula_units_Z 20
_cell_length_a 12.185655
_cell_length_b 16.492223
_cell_length_c 5.419469
_cell_angle_alpha 90.000000
_cell_angle_beta 67.735032
_cell_angle_gamma 90.000000
_cell_volume 1007.937978
_symmetry_space_group_name_H-M "P 2/C"
_symmetry_group_IT_number 13
_symmetry_cell_setting 'monoclinic'
loop_
_space_group_symop_operation_xyz
x,y,z
-x,y,1/2-z
-x,-y,-z
x,-y,1/2+z
loop_
_atom_site_type_symbol
_atom_site_label
_atom_site_fract_x
_atom_site_fract_y
_atom_site_fract_z
Si Si1 0.636074 0.968237 0.352815
Si Si2 0.637826 0.217636 0.685527
Si Si3 0.672847 0.550316 0.782236
Si Si4 0.049720 0.407844 0.457730
Si Si5 0.628274 0.725555 0.694807
O O1 0.639935 0.875202 0.267954
O O2 0.500000 0.000000 0.500000
O O3 0.689404 0.981845 0.578216
O O4 0.500000 0.240554 0.750000
O O5 0.693080 0.231250 0.367760
O O6 0.686101 0.270392 0.873864
O O7 0.650832 0.494047 0.561291
O O8 0.809843 0.579790 0.660959
O O9 0.605624 0.634574 0.806154
O O10 0.000000 0.369094 0.250000
O O11 0.000000 0.500000 0.500000
O O12 0.000000 0.369020 0.750000
O O13 0.500000 0.766608 0.750000
#
# Coordination Sequence:
#
# PCOD9226207 Si02
#       5
#     4   4   4   4   4
#     4  10  17  24  44  72  83 107 150 203 226 256
#     4  10  18  32  45  59  95 119 155 196 224 282
#     4  12  21  33  52  67  88 115 167 209 230 278
#     4  10  16  30  49  74  87 104 130 201 261 289
#     4  10  23  34  44  62  89 136 161 191 235 260
#
# _framework density 19.842492
#
# number of rings (size 3 to 8) (size 9 to 14) (size 15 to 20)
#    0.000    1.600    6.000    2.400    5.600    0.800 
#    0.000    0.000    0.000    0.000    0.000    0.000 
#    0.000    0.000    0.000    0.000    0.000   70.000 
#
# Total GULP energy -111435.232706 kJ/mol
# GULP energy per Si atom -5571.761635 kJ/mol
# Density = 1.979733 g / cm^3
# Si number density = 19.842492 Si / 1000 Ang^3
#
#
#
# Elastic Constant Matrix: (Units=GPa)
#
#
# Indices 1 2 3 4 5 6 
#
# 1 29.3028 8.6477 24.6242 0.0000 9.0876 0.0000
# 2 8.6477 81.6085 38.4144 0.0000 21.9546 0.0000
# 3 24.6242 38.4144 188.7092 0.0000 64.6562 0.0000
# 4 0.0000 0.0000 0.0000 23.7019 0.0000 8.3401
# 5 9.0876 21.9546 64.6562 0.0000 32.7860 0.0000
# 6 0.0000 0.0000 0.0000 8.3401 0.0000 -0.7727
#
#
#
# Elastic Compliance Matrix: (Units=1/GPa)
#
#
# Indices 1 2 3 4 5 6 
#
# 1 0.038602 -0.001797 -0.004371 0.000000 -0.000876 0.000000
# 2 -0.001797 0.015117 0.001403 0.000000 -0.012391 0.000000
# 3 -0.004371 0.001403 0.016930 0.000000 -0.033114 0.000000
# 4 0.000000 0.000000 0.000000 0.008793 0.000000 0.094912
# 5 -0.000876 -0.012391 -0.033114 0.000000 0.104344 0.000000
# 6 0.000000 0.000000 0.000000 0.094912 0.000000 -0.269733
#
#
# Mechanical properties :
#
#
# Convention : Reuss Voigt Hill
#
# Bulk Modulus (GPa) = 16.36197 49.22145 32.79171
# Shear Modulus (GPa) = -89.21547 26.33866 -31.43840
#
# Velocity S-wave (km/s) = -6.71263 3.64728 -3.98477
# Velocity P-wave (km/s) = 7.19829 6.52663 2.14692
#
# Compressibility (1/GPa) = 0.06111735
#
# Stress axis : x y z
#
# Youngs Moduli (GPa) = 25.90565 66.14951 59.06811
#
# Poissons Ratio (x) = 0.11888 0.25818
# Poissons Ratio (y) = 0.04656 -0.08285
# Poissons Ratio (z) = 0.11323 -0.09278
#
# Static dielectric constant tensor:
#      x y z
#    x 1.719500 0.000000 0.188320 
#    y 0.000000 1.653330 0.000000 
#    z 0.188320 0.000000 2.259030 
# 
# From -- ./inp_files/3262.got.cif
#   From: 2010.05.17/outbox.cif.g08.bks.cpg/sg13_2_cif.got.tgz:3262.got - 2010.06.03 16:44:36.
