data_PCOD9226601
_publ_section_title
;
Structure prediction by ZEFSAII (Michael W. Deem and Ramdas Pophale) SiO2 
 PCOD9226601
Probable space group: P 2/C
;
_chemical_formula_sum "Si O2"
_cell_formula_units_Z 30
_cell_length_a 19.761225
_cell_length_b 8.639768
_cell_length_c 28.444806
_cell_angle_alpha 90.000000
_cell_angle_beta 19.543722
_cell_angle_gamma 90.000000
_cell_volume 1624.609198
_symmetry_space_group_name_H-M "P 2/C"
_symmetry_group_IT_number 13
_symmetry_cell_setting 'monoclinic'
loop_
_space_group_symop_operation_xyz
x,y,z
-x,y,1/2-z
-x,-y,-z
x,-y,1/2+z
loop_
_atom_site_type_symbol
_atom_site_label
_atom_site_fract_x
_atom_site_fract_y
_atom_site_fract_z
Si Si1 0.951695 0.785218 0.936067
Si Si2 0.000000 0.826370 0.750000
Si Si3 0.858466 0.152115 0.596641
Si Si4 0.796802 0.623842 0.802547
Si Si5 0.755922 0.918166 0.261938
Si Si6 0.666808 0.064274 0.995959
Si Si7 0.567370 0.981024 0.157332
Si Si8 0.332027 0.717378 0.089410
O O1 0.935051 0.745762 0.002575
O O2 0.048472 0.650844 0.841598
O O3 0.100599 0.932163 0.831060
O O4 0.842652 0.938195 0.878603
O O5 0.118341 0.723023 0.709829
O O6 0.841875 0.189503 0.662954
O O7 0.631243 0.104690 0.731637
O O8 0.737883 0.146501 0.557890
O O9 0.000000 0.000000 0.500000
O O10 0.772611 0.446736 0.833449
O O11 0.573628 0.687330 0.935349
O O12 0.534966 0.982575 0.392489
O O13 0.736970 0.833259 0.323975
O O14 0.634313 0.096205 0.072283
O O15 0.712473 0.206342 0.931812
O O16 0.500000 0.059654 0.250000
#
# Coordination Sequence:
#
# PCOD9226601 Si02
#       8
#     4   2   4   4   4   4   4   4
#     4  10  17  34  56  81 110 147 191 237 283 335
#     4  12  22  36  58  82 110 148 192 248 286 344
#     4   8  17  30  54  84 112 140 187 241 281 333
#     4  11  23  38  54  80 119 157 189 233 294 352
#     4  10  18  34  55  82 109 146 193 236 279 343
#     4  11  20  33  58  85 110 147 198 238 284 344
#     4   9  18  31  53  87 114 144 190 248 290 328
#     4  11  23  37  55  82 118 156 190 233 289 355
#
# _framework density 18.465979999999998
#
# number of rings (size 3 to 8) (size 9 to 14) (size 15 to 20)
#    0.000    1.867    4.000    1.200    0.000    0.533 
#    0.000    0.667    0.000    0.000    0.000    9.333 
#    0.000    0.000    0.000    0.000    0.000    0.000 
#
# Total GULP energy -167233.288361 kJ/mol
# GULP energy per Si atom -5574.442945 kJ/mol
# Density = 1.842395 g / cm^3
# Si number density = 18.465980 Si / 1000 Ang^3
#
#
#
# Elastic Constant Matrix: (Units=GPa)
#
#
# Indices 1 2 3 4 5 6 
#
# 1 100.2370 38.7879 34.4439 0.0000 39.0794 0.0000
# 2 38.7879 60.5032 28.4630 0.0000 12.7352 0.0000
# 3 34.4439 28.4630 92.3902 0.0000 9.9887 0.0000
# 4 0.0000 0.0000 0.0000 18.6126 0.0000 1.3890
# 5 39.0794 12.7352 9.9887 0.0000 52.1073 0.0000
# 6 0.0000 0.0000 0.0000 1.3890 0.0000 11.8058
#
#
#
# Elastic Compliance Matrix: (Units=1/GPa)
#
#
# Indices 1 2 3 4 5 6 
#
# 1 0.018639 -0.008024 -0.003245 0.000000 -0.011396 0.000000
# 2 -0.008024 0.023492 -0.004366 0.000000 0.001113 0.000000
# 3 -0.003245 -0.004366 0.013275 0.000000 0.000956 0.000000
# 4 0.000000 0.000000 0.000000 0.054203 0.000000 -0.006377
# 5 -0.011396 0.001113 0.000956 0.000000 0.027283 0.000000
# 6 0.000000 0.000000 0.000000 -0.006377 0.000000 0.085455
#
#
# Mechanical properties :
#
#
# Convention : Reuss Voigt Hill
#
# Bulk Modulus (GPa) = 41.43184 50.72445 46.07814
# Shear Modulus (GPa) = 19.10860 26.60085 22.85472
#
# Velocity S-wave (km/s) = 3.22032 3.79955 3.52186
# Velocity P-wave (km/s) = 6.02601 6.83941 6.44556
#
# Compressibility (1/GPa) = 0.02413603
#
# Stress axis : x y z
#
# Youngs Moduli (GPa) = 53.64989 42.56784 75.32912
#
# Poissons Ratio (x) = 0.34158 0.24443
# Poissons Ratio (y) = 0.43050 0.32889
# Poissons Ratio (z) = 0.17408 0.18586
#
# Static dielectric constant tensor:
#      x y z
#    x 1.691240 0.000000 0.035250 
#    y 0.000000 1.583760 0.000000 
#    z 0.035250 0.000000 1.679820 
# 
# From -- ./inp_files/87273.got.cif
#   From: 2010.05.17/outbox.cif.g08.bks.cpg/sg13_44_cif.got.tgz:87273.got - 2010.06.03 16:44:36.
