data_PCOD9226561
_publ_section_title
;
Structure prediction by ZEFSAII (Michael W. Deem and Ramdas Pophale) SiO2 
 PCOD9226561
Probable space group: P 2/C
;
_chemical_formula_sum "Si O2"
_cell_formula_units_Z 32
_cell_length_a 27.936494
_cell_length_b 10.527544
_cell_length_c 8.923649
_cell_angle_alpha 90.000000
_cell_angle_beta 144.521372
_cell_angle_gamma 90.000000
_cell_volume 1523.239812
_symmetry_space_group_name_H-M "P 2/C"
_symmetry_group_IT_number 13
_symmetry_cell_setting 'monoclinic'
loop_
_space_group_symop_operation_xyz
x,y,z
-x,y,1/2-z
-x,-y,-z
x,-y,1/2+z
loop_
_atom_site_type_symbol
_atom_site_label
_atom_site_fract_x
_atom_site_fract_y
_atom_site_fract_z
Si Si1 0.593756 0.364864 0.538662
Si Si2 0.867544 0.557457 0.367399
Si Si3 0.765852 0.914107 0.135869
Si Si4 0.191609 0.274020 0.024319
Si Si5 0.308354 0.517912 0.957218
Si Si6 0.927906 0.806196 0.679553
Si Si7 0.286702 0.839915 0.182889
Si Si8 0.878577 0.267697 0.351317
O O1 0.653402 0.423970 0.564843
O O2 0.617575 0.444080 0.745425
O O3 0.628554 0.223732 0.650825
O O4 0.500000 0.370759 0.250000
O O5 0.906061 0.658566 0.580528
O O6 0.900736 0.414943 0.436847
O O7 0.869354 0.626596 0.212069
O O8 0.770493 0.543580 0.161204
O O9 0.853767 0.899788 0.444098
O O10 0.707982 0.876326 0.128160
O O11 0.776291 0.818586 0.022374
O O12 0.738175 0.043174 0.986726
O O13 0.267666 0.355635 0.282516
O O14 0.142269 0.213719 0.037411
O O15 0.937860 0.803180 0.884944
O O16 0.000000 0.840517 0.750000
O O17 0.210381 0.741675 0.961070
#
# Coordination Sequence:
#
# PCOD9226561 Si02
#       8
#     4   4   4   4   4   4   4   4
#     4  12  24  38  61  96 130 158 193 256 316 358
#     4  10  18  33  59  85 117 162 205 242 295 370
#     4  10  23  39  65  85 114 160 216 246 298 353
#     4  10  17  32  59  87 108 151 216 244 278 355
#     4  11  20  37  61  87 126 158 206 235 300 378
#     4  10  22  38  56  89 127 157 199 263 314 351
#     4  11  21  40  63  86 114 160 215 249 291 367
#     4  10  18  33  57  84 113 159 202 245 296 366
#
# _framework density 21.007854999999999
#
# number of rings (size 3 to 8) (size 9 to 14) (size 15 to 20)
#    0.000    1.500    3.750    4.875    0.000    0.500 
#    0.000    5.625    0.000    0.750    0.000    0.000 
#    0.000    0.000    0.000    0.000    0.000    0.000 
#
# Total GULP energy -178601.345388 kJ/mol
# GULP energy per Si atom -5581.292043 kJ/mol
# Density = 2.096004 g / cm^3
# Si number density = 21.007855 Si / 1000 Ang^3
#
#
#
# Elastic Constant Matrix: (Units=GPa)
#
#
# Indices 1 2 3 4 5 6 
#
# 1 81.4872 18.2120 11.2370 0.0000 -27.7010 0.0000
# 2 18.2120 72.4943 14.1628 0.0000 -14.4278 0.0000
# 3 11.2370 14.1628 41.2014 0.0000 -8.1299 0.0000
# 4 0.0000 0.0000 0.0000 18.7904 0.0000 -12.0501
# 5 -27.7010 -14.4278 -8.1299 0.0000 37.9737 0.0000
# 6 0.0000 0.0000 0.0000 -12.0501 0.0000 15.3505
#
#
#
# Elastic Compliance Matrix: (Units=1/GPa)
#
#
# Indices 1 2 3 4 5 6 
#
# 1 0.016676 -0.001617 -0.001789 0.000000 0.011168 0.000000
# 2 -0.001617 0.015805 -0.004218 0.000000 0.003922 0.000000
# 3 -0.001789 -0.004218 0.026766 0.000000 0.002823 0.000000
# 4 0.000000 0.000000 0.000000 0.107169 0.000000 0.084127
# 5 0.011168 0.003922 0.002823 0.000000 0.036575 0.000000
# 6 0.000000 0.000000 0.000000 0.084127 0.000000 0.131184
#
#
# Mechanical properties :
#
#
# Convention : Reuss Voigt Hill
#
# Bulk Modulus (GPa) = 22.72764 31.37851 27.05308
# Shear Modulus (GPa) = 13.73290 24.52765 19.13027
#
# Velocity S-wave (km/s) = 2.55954 3.42065 3.02093
# Velocity P-wave (km/s) = 4.42460 5.52902 5.00735
#
# Compressibility (1/GPa) = 0.04399929
#
# Stress axis : x y z
#
# Youngs Moduli (GPa) = 59.96528 63.27055 37.36119
#
# Poissons Ratio (x) = 0.10233 0.06683
# Poissons Ratio (y) = 0.09699 0.15759
# Poissons Ratio (z) = 0.10726 0.26687
#
# Static dielectric constant tensor:
#      x y z
#    x 1.830170 0.000000 -0.037650 
#    y 0.000000 1.814230 0.000000 
#    z -0.037650 0.000000 1.759340 
# 
# From -- ./inp_files/24955.got.cif
#   From: 2010.05.17/outbox.cif.g08.bks.cpg/sg13_13_cif.got.tgz:24955.got - 2010.06.03 16:44:36.
