data_PCOD9226580
_publ_section_title
;
Structure prediction by ZEFSAII (Michael W. Deem and Ramdas Pophale) SiO2 
 PCOD9226580
Probable space group: P 2/C
;
_chemical_formula_sum "Si O2"
_cell_formula_units_Z 28
_cell_length_a 21.903534
_cell_length_b 7.779505
_cell_length_c 14.835576
_cell_angle_alpha 90.000000
_cell_angle_beta 28.230936
_cell_angle_gamma 90.000000
_cell_volume 1195.793198
_symmetry_space_group_name_H-M "P 2/C"
_symmetry_group_IT_number 13
_symmetry_cell_setting 'monoclinic'
loop_
_space_group_symop_operation_xyz
x,y,z
-x,y,1/2-z
-x,-y,-z
x,-y,1/2+z
loop_
_atom_site_type_symbol
_atom_site_label
_atom_site_fract_x
_atom_site_fract_y
_atom_site_fract_z
Si Si1 0.471949 0.731187 0.419280
Si Si2 0.097369 0.592268 0.808733
Si Si3 0.863333 0.232588 0.544976
Si Si4 0.677262 0.602742 0.422767
Si Si5 0.484210 0.163888 0.089590
Si Si6 0.278370 0.053234 0.935332
Si Si7 0.785452 0.064603 0.283394
O O1 0.422231 0.553637 0.444925
O O2 0.486121 0.697597 0.507804
O O3 0.602592 0.810623 0.207946
O O4 0.359794 0.874568 0.551442
O O5 0.215958 0.458238 0.641489
O O6 0.146285 0.752083 0.804048
O O7 0.000000 0.500000 0.000000
O O8 0.003832 0.679218 0.856011
O O9 0.764119 0.371363 0.718539
O O10 0.810248 0.143734 0.523954
O O11 0.850839 0.076658 0.634847
O O12 0.587496 0.773403 0.530158
O O13 0.348056 0.119020 0.310226
O O14 0.500000 0.000000 0.000000
O O15 0.212142 0.011959 0.115270
#
# Coordination Sequence:
#
# PCOD9226580 Si02
#       7
#     4   4   4   4   4   4   4
#     4  10  19  35  58  88 126 165 205 259 335 390
#     4   9  22  40  63  86 115 167 211 261 318 369
#     4  11  20  40  63  86 123 169 220 264 321 381
#     4  10  19  35  64  86 120 165 209 256 321 392
#     4  10  17  33  57  89 120 162 206 250 325 388
#     4  11  22  36  61  95 127 167 214 265 321 389
#     4  11  22  39  62  90 125 165 219 269 318 389
#
# _framework density 23.415420000000001
#
# number of rings (size 3 to 8) (size 9 to 14) (size 15 to 20)
#    0.000    1.714    4.286    2.143    0.000    0.571 
#    0.000    7.143    0.000    5.143    0.000    0.000 
#    0.000    0.000    0.000    0.000    0.000    0.000 
#
# Total GULP energy -155905.933628 kJ/mol
# GULP energy per Si atom -5568.069058 kJ/mol
# Density = 2.336213 g / cm^3
# Si number density = 23.415420 Si / 1000 Ang^3
#
#
#
# Elastic Constant Matrix: (Units=GPa)
#
#
# Indices 1 2 3 4 5 6 
#
# 1 125.1185 24.8037 55.4591 0.0000 -27.0356 0.0000
# 2 24.8037 104.5495 35.1653 0.0000 -18.7281 0.0000
# 3 55.4591 35.1653 60.8754 0.0000 -5.8531 0.0000
# 4 0.0000 0.0000 0.0000 34.6346 0.0000 -25.9830
# 5 -27.0356 -18.7281 -5.8531 0.0000 44.5450 0.0000
# 6 0.0000 0.0000 0.0000 -25.9830 0.0000 36.9468
#
#
#
# Elastic Compliance Matrix: (Units=1/GPa)
#
#
# Indices 1 2 3 4 5 6 
#
# 1 0.016365 0.003072 -0.015804 0.000000 0.009147 0.000000
# 2 0.003072 0.013254 -0.009864 0.000000 0.006141 0.000000
# 3 -0.015804 -0.009864 0.035653 0.000000 -0.009055 0.000000
# 4 0.000000 0.000000 0.000000 0.061117 0.000000 0.042981
# 5 0.009147 0.006141 -0.009055 0.000000 0.029393 0.000000
# 6 0.000000 0.000000 0.000000 0.042981 0.000000 0.057292
#
#
# Mechanical properties :
#
#
# Convention : Reuss Voigt Hill
#
# Bulk Modulus (GPa) = 49.80462 57.93327 53.86895
# Shear Modulus (GPa) = 18.87076 34.89964 26.88520
#
# Velocity S-wave (km/s) = 2.84194 3.86483 3.39216
# Velocity P-wave (km/s) = 5.66436 6.68664 6.19662
#
# Compressibility (1/GPa) = 0.02007846
#
# Stress axis : x y z
#
# Youngs Moduli (GPa) = 61.10506 75.44940 28.04847
#
# Poissons Ratio (x) = -0.23176 0.44328
# Poissons Ratio (y) = -0.18770 0.27668
# Poissons Ratio (z) = 0.96571 0.74426
#
# Static dielectric constant tensor:
#      x y z
#    x 2.032440 0.000000 -0.035150 
#    y 0.000000 -4.283000 0.000000 
#    z -0.035150 0.000000 1.934880 
# 
# From -- ./inp_files/57447.got.cif
#   From: 2010.05.17/outbox.cif.g08.bks.cpg/sg13_29_cif.got.tgz:57447.got - 2010.06.03 16:44:36.
