data_PCOD9226556
_publ_section_title
;
Structure prediction by ZEFSAII (Michael W. Deem and Ramdas Pophale) SiO2 
 PCOD9226556
Probable space group: P 2/C
;
_chemical_formula_sum "Si O2"
_cell_formula_units_Z 22
_cell_length_a 7.972585
_cell_length_b 13.587050
_cell_length_c 10.287615
_cell_angle_alpha 90.000000
_cell_angle_beta 73.159248
_cell_angle_gamma 90.000000
_cell_volume 1066.602404
_symmetry_space_group_name_H-M "P 2/C"
_symmetry_group_IT_number 13
_symmetry_cell_setting 'monoclinic'
loop_
_space_group_symop_operation_xyz
x,y,z
-x,y,1/2-z
-x,-y,-z
x,-y,1/2+z
loop_
_atom_site_type_symbol
_atom_site_label
_atom_site_fract_x
_atom_site_fract_y
_atom_site_fract_z
Si Si1 0.000000 0.372155 0.250000
Si Si2 0.421936 0.331192 0.412838
Si Si3 0.755246 0.703141 0.022630
Si Si4 0.386826 0.120602 0.407417
Si Si5 0.636337 0.090598 0.600280
Si Si6 0.189874 0.500604 0.391918
O O1 0.915907 0.310088 0.385411
O O2 0.844780 0.442656 0.233382
O O3 0.500000 0.335744 0.250000
O O4 0.577974 0.315908 0.479628
O O5 0.308020 0.229711 0.443743
O O6 0.316352 0.432183 0.449513
O O7 0.753949 0.812184 0.081169
O O8 0.757318 0.614059 0.125488
O O9 0.500000 0.126022 0.250000
O O10 0.523344 0.104079 0.494201
O O11 0.279207 0.018650 0.423092
O O12 0.500000 0.092063 0.750000
O O13 0.000000 0.500000 0.500000
#
# Coordination Sequence:
#
# PCOD9226556 Si02
#       6
#     2   4   4   4   4   4
#     4  10  20  38  52  74 110 154 190 226 278 334
#     4  10  17  32  57  84 101 138 192 230 267 332
#     4  10  20  34  56  81 110 144 186 233 280 333
#     4   8  16  30  54  83 111 141 179 232 277 327
#     4   9  17  32  51  86 117 137 175 233 291 324
#     4  10  21  35  51  76 109 143 180 232 281 322
#
# _framework density 20.626242999999999
#
# number of rings (size 3 to 8) (size 9 to 14) (size 15 to 20)
#    0.000    2.545    1.818    0.545    0.000    0.727 
#   13.091    0.000    0.000    4.364    0.000    1.273 
#    0.000    0.000    0.000    0.000    0.000    0.000 
#
# Total GULP energy -122497.145035 kJ/mol
# GULP energy per Si atom -5568.052047 kJ/mol
# Density = 2.057930 g / cm^3
# Si number density = 20.626243 Si / 1000 Ang^3
#
#
#
# Elastic Constant Matrix: (Units=GPa)
#
#
# Indices 1 2 3 4 5 6 
#
# 1 36.8334 16.1644 -4.2541 0.0000 2.2349 0.0000
# 2 16.1644 177.1259 -1.0274 0.0000 -25.1864 0.0000
# 3 -4.2541 -1.0274 51.8379 0.0000 4.4741 0.0000
# 4 0.0000 0.0000 0.0000 22.4903 0.0000 4.5362
# 5 2.2349 -25.1864 4.4741 0.0000 15.8001 0.0000
# 6 0.0000 0.0000 0.0000 4.5362 0.0000 10.2199
#
#
#
# Elastic Compliance Matrix: (Units=1/GPa)
#
#
# Indices 1 2 3 4 5 6 
#
# 1 0.030289 -0.004517 0.003472 0.000000 -0.012468 0.000000
# 2 -0.004517 0.008014 -0.001404 0.000000 0.013811 0.000000
# 3 0.003472 -0.001404 0.020279 0.000000 -0.008471 0.000000
# 4 0.000000 0.000000 0.000000 0.048836 0.000000 -0.021676
# 5 -0.012468 0.013811 -0.008471 0.000000 0.089468 0.000000
# 6 0.000000 0.000000 0.000000 -0.021676 0.000000 0.107470
#
#
# Mechanical properties :
#
#
# Convention : Reuss Voigt Hill
#
# Bulk Modulus (GPa) = 18.62722 31.95146 25.28934
# Shear Modulus (GPa) = 15.28363 26.69633 20.98998
#
# Velocity S-wave (km/s) = 2.72505 3.60153 3.19350
# Velocity P-wave (km/s) = 4.35335 5.72878 5.08776
#
# Compressibility (1/GPa) = 0.05368486
#
# Stress axis : x y z
#
# Youngs Moduli (GPa) = 33.01519 124.78837 49.31161
#
# Poissons Ratio (x) = 0.56366 -0.17122
# Poissons Ratio (y) = 0.14913 0.06923
# Poissons Ratio (z) = -0.11464 0.17518
#
# Static dielectric constant tensor:
#      x y z
#    x 1.747810 0.000000 0.027650 
#    y 0.000000 1.852130 0.000000 
#    z 0.027650 0.000000 1.737770 
# 
# From -- ./inp_files/29025.got.cif
#   From: 2010.05.17/outbox.cif.g08.bks.cpg/sg13_15_cif.got.tgz:29025.got - 2010.06.03 16:44:36.
