data_PCOD9226533
_publ_section_title
;
Structure prediction by ZEFSAII (Michael W. Deem and Ramdas Pophale) SiO2 
 PCOD9226533
Probable space group: P 2/C
;
_chemical_formula_sum "Si O2"
_cell_formula_units_Z 32
_cell_length_a 24.630807
_cell_length_b 7.132574
_cell_length_c 13.152172
_cell_angle_alpha 90.000000
_cell_angle_beta 145.399046
_cell_angle_gamma 90.000000
_cell_volume 1312.084290
_symmetry_space_group_name_H-M "P 2/C"
_symmetry_group_IT_number 13
_symmetry_cell_setting 'monoclinic'
loop_
_space_group_symop_operation_xyz
x,y,z
-x,y,1/2-z
-x,-y,-z
x,-y,1/2+z
loop_
_atom_site_type_symbol
_atom_site_label
_atom_site_fract_x
_atom_site_fract_y
_atom_site_fract_z
Si Si1 0.898367 0.185407 0.792263
Si Si2 0.620690 0.844445 0.544862
Si Si3 0.223871 0.250145 0.540004
Si Si4 0.258001 0.190719 0.092015
Si Si5 0.265567 0.784167 0.314828
Si Si6 0.583217 0.702141 0.814044
Si Si7 0.028910 0.795493 0.674273
Si Si8 0.575455 0.699245 0.249293
O O1 0.833214 0.285568 0.604201
O O2 0.810780 0.114874 0.729660
O O3 0.958656 0.018292 0.833198
O O4 0.964287 0.279226 0.981078
O O5 0.701149 0.741781 0.737357
O O6 0.607116 0.775540 0.408708
O O7 0.514568 0.818763 0.427488
O O8 0.659769 0.056086 0.604109
O O9 0.212892 0.308428 0.639689
O O10 0.134410 0.293970 0.332142
O O11 0.328143 0.309464 0.665896
O O12 0.224114 0.023436 0.546984
O O13 0.354138 0.187816 0.170994
O O14 0.331396 0.641952 0.478113
O O15 0.500000 0.799940 0.750000
O O16 0.538760 0.514387 0.700187
O O17 0.000000 0.778470 0.750000
#
# Coordination Sequence:
#
# PCOD9226533 Si02
#       8
#     4   4   4   4   4   4   4   4
#     4   9  18  34  53  91 122 147 185 243 296 350
#     4  10  21  37  56  82 115 155 197 246 288 350
#     4  10  21  37  58  92 112 155 196 244 300 340
#     4   9  21  36  57  82 115 147 195 241 293 344
#     4  10  21  36  61  83 119 153 199 241 293 349
#     4  11  23  37  54  82 114 162 198 238 285 351
#     4  10  17  31  60  89 122 149 189 242 300 351
#     4  11  23  38  52  82 121 155 197 242 287 353
#
# _framework density 24.388677999999999
#
# number of rings (size 3 to 8) (size 9 to 14) (size 15 to 20)
#    0.000    2.000    2.500    2.250    5.250    2.500 
#    0.000    0.000    0.000    3.000    0.000    0.875 
#    0.000    0.000    0.000    0.000    0.000    0.000 
#
# Total GULP energy -178298.831574 kJ/mol
# GULP energy per Si atom -5571.838487 kJ/mol
# Density = 2.433317 g / cm^3
# Si number density = 24.388678 Si / 1000 Ang^3
#
#
#
# Elastic Constant Matrix: (Units=GPa)
#
#
# Indices 1 2 3 4 5 6 
#
# 1 35.5439 -2.0513 17.4036 0.0000 -7.5035 0.0000
# 2 -2.0513 44.3865 17.9536 0.0000 6.1850 0.0000
# 3 17.4036 17.9536 176.7246 0.0000 -27.6113 0.0000
# 4 0.0000 0.0000 0.0000 4.1855 0.0000 0.8179
# 5 -7.5035 6.1850 -27.6113 0.0000 40.4126 0.0000
# 6 0.0000 0.0000 0.0000 0.8179 0.0000 11.8858
#
#
#
# Elastic Compliance Matrix: (Units=1/GPa)
#
#
# Indices 1 2 3 4 5 6 
#
# 1 0.030280 0.001973 -0.002632 0.000000 0.003522 0.000000
# 2 0.001973 0.024928 -0.003656 0.000000 -0.005947 0.000000
# 3 -0.002632 -0.003656 0.007053 0.000000 0.004890 0.000000
# 4 0.000000 0.000000 0.000000 0.242174 0.000000 -0.016665
# 5 0.003522 -0.005947 0.004890 0.000000 0.029650 0.000000
# 6 0.000000 0.000000 0.000000 -0.016665 0.000000 0.085281
#
#
# Mechanical properties :
#
#
# Convention : Reuss Voigt Hill
#
# Bulk Modulus (GPa) = 18.64558 35.91852 27.28205
# Shear Modulus (GPa) = 11.21396 26.18673 18.70035
#
# Velocity S-wave (km/s) = 2.14663 3.28033 2.77205
# Velocity P-wave (km/s) = 3.71561 5.39508 4.63210
#
# Compressibility (1/GPa) = 0.05363203
#
# Stress axis : x y z
#
# Youngs Moduli (GPa) = 33.02463 40.11564 141.78152
#
# Poissons Ratio (x) = -0.07916 0.37320
# Poissons Ratio (y) = -0.06517 0.51833
# Poissons Ratio (z) = 0.08693 0.14666
#
# Static dielectric constant tensor:
#      x y z
#    x 1.993730 0.000000 -0.041400 
#    y 0.000000 1.928340 0.000000 
#    z -0.041400 0.000000 2.043820 
# 
# From -- ./inp_files/59519.got.cif
#   From: 2010.05.17/outbox.cif.g08.bks.cpg/sg13_30_cif.got.tgz:59519.got - 2010.06.03 16:44:36.
