data_PCOD9226816
_publ_section_title
;
Structure prediction by ZEFSAII (Michael W. Deem and Ramdas Pophale) SiO2 
 PCOD9226816
Probable space group: P 2/C
;
_chemical_formula_sum "Si O2"
_cell_formula_units_Z 24
_cell_length_a 10.886688
_cell_length_b 9.379715
_cell_length_c 11.423756
_cell_angle_alpha 90.000000
_cell_angle_beta 82.024826
_cell_angle_gamma 90.000000
_cell_volume 1155.243459
_symmetry_space_group_name_H-M "P 2/C"
_symmetry_group_IT_number 13
_symmetry_cell_setting 'monoclinic'
loop_
_space_group_symop_operation_xyz
x,y,z
-x,y,1/2-z
-x,-y,-z
x,-y,1/2+z
loop_
_atom_site_type_symbol
_atom_site_label
_atom_site_fract_x
_atom_site_fract_y
_atom_site_fract_z
Si Si1 0.500000 0.118063 0.750000
Si Si2 0.315249 0.479839 0.925672
Si Si3 0.681658 0.708737 0.392921
Si Si4 0.500000 0.645291 0.750000
Si Si5 0.855093 0.489688 0.246229
Si Si6 0.639818 0.018626 0.030032
Si Si7 0.694959 0.750066 0.900428
O O1 0.419874 0.219232 0.675656
O O2 0.392929 0.025587 0.832145
O O3 0.400004 0.537001 0.812912
O O4 0.180806 0.511855 0.887225
O O5 0.359921 0.570250 0.030788
O O6 0.326071 0.321864 0.969921
O O7 0.794398 0.637433 0.305121
O O8 0.697167 0.826847 0.494412
O O9 0.570963 0.737672 0.837941
O O10 0.795036 0.350833 0.320819
O O11 0.000000 0.489280 0.250000
O O12 0.719022 0.910839 0.937300
O O13 0.500000 0.000000 0.000000
#
# Coordination Sequence:
#
# PCOD9226816 Si02
#       7
#     2   4   4   2   4   4   4
#     4  10  20  36  58  88 128 158 180 224 292 362
#     4  10  21  35  56  83 112 148 193 241 292 344
#     4  10  22  37  59  88 118 153 193 237 287 346
#     4  10  18  30  52  84 116 146 184 230 286 350
#     4  10  23  42  61  79 109 155 205 251 290 330
#     4  10  21  35  55  87 125 156 184 226 286 354
#     4  10  21  34  54  84 117 150 189 235 285 344
#
# _framework density 20.774839
#
# number of rings (size 3 to 8) (size 9 to 14) (size 15 to 20)
#    0.000    2.000    0.000    3.500    0.000   23.333 
#    0.000    0.833    0.000    5.000    0.000    0.000 
#    0.000    0.000    0.000    0.000    0.000    0.000 
#
# Total GULP energy -133678.608306 kJ/mol
# GULP energy per Si atom -5569.942013 kJ/mol
# Density = 2.072755 g / cm^3
# Si number density = 20.774839 Si / 1000 Ang^3
#
#
#
# Elastic Constant Matrix: (Units=GPa)
#
#
# Indices 1 2 3 4 5 6 
#
# 1 93.0823 17.9838 22.9308 0.0000 4.5744 0.0000
# 2 17.9838 87.4514 7.8866 0.0000 -11.2285 0.0000
# 3 22.9308 7.8866 72.1289 0.0000 7.5039 0.0000
# 4 0.0000 0.0000 0.0000 31.2201 0.0000 -14.2745
# 5 4.5744 -11.2285 7.5039 0.0000 18.3062 0.0000
# 6 0.0000 0.0000 0.0000 -14.2745 0.0000 13.9735
#
#
#
# Elastic Compliance Matrix: (Units=1/GPa)
#
#
# Indices 1 2 3 4 5 6 
#
# 1 0.012220 -0.002650 -0.003247 0.000000 -0.003348 0.000000
# 2 -0.002650 0.013345 -0.001606 0.000000 0.009506 0.000000
# 3 -0.003247 -0.001606 0.015762 0.000000 -0.006635 0.000000
# 4 0.000000 0.000000 0.000000 0.060103 0.000000 0.061398
# 5 -0.003348 0.009506 -0.006635 0.000000 0.064013 0.000000
# 6 0.000000 0.000000 0.000000 0.061398 0.000000 0.134284
#
#
# Mechanical properties :
#
#
# Convention : Reuss Voigt Hill
#
# Bulk Modulus (GPa) = 37.99083 38.91833 38.45458
# Shear Modulus (GPa) = 15.45568 26.29072 20.87320
#
# Velocity S-wave (km/s) = 2.73052 3.56126 3.17319
# Velocity P-wave (km/s) = 5.31673 5.97362 5.65472
#
# Compressibility (1/GPa) = 0.02632214
#
# Stress axis : x y z
#
# Youngs Moduli (GPa) = 81.83631 74.93342 63.44363
#
# Poissons Ratio (x) = 0.19857 0.20598
# Poissons Ratio (y) = 0.21686 0.10187
# Poissons Ratio (z) = 0.26570 0.12032
#
# Static dielectric constant tensor:
#      x y z
#    x 1.735030 0.000000 -0.011480 
#    y 0.000000 1.773930 0.000000 
#    z -0.011480 0.000000 1.922460 
# 
# From -- ./inp_files/32645.got.cif
#   From: 2010.05.17/outbox.cif.g08.bks.cpg/sg13_17_cif.got.tgz:32645.got - 2010.06.03 16:44:36.
