data_PCOD9226037
_publ_section_title
;
Structure prediction by ZEFSAII (Michael W. Deem and Ramdas Pophale) SiO2 
 PCOD9226037
Probable space group: P 2/C
;
_chemical_formula_sum "Si O2"
_cell_formula_units_Z 24
_cell_length_a 13.488345
_cell_length_b 5.753516
_cell_length_c 12.734796
_cell_angle_alpha 90.000000
_cell_angle_beta 92.258107
_cell_angle_gamma 90.000000
_cell_volume 987.521614
_symmetry_space_group_name_H-M "P 2/C"
_symmetry_group_IT_number 13
_symmetry_cell_setting 'monoclinic'
loop_
_space_group_symop_operation_xyz
x,y,z
-x,y,1/2-z
-x,-y,-z
x,-y,1/2+z
loop_
_atom_site_type_symbol
_atom_site_label
_atom_site_fract_x
_atom_site_fract_y
_atom_site_fract_z
Si Si1 0.919686 0.308009 0.537281
Si Si2 0.451577 0.802188 0.425133
Si Si3 0.500000 0.498439 0.250000
Si Si4 0.000000 0.669277 0.250000
Si Si5 0.283570 0.522142 0.001282
Si Si6 0.326380 0.159998 0.324437
Si Si7 0.834489 0.324865 0.328317
O O1 0.965015 0.196994 0.643814
O O2 0.813788 0.421516 0.564195
O O3 0.886125 0.185075 0.427441
O O4 0.000000 0.500000 0.500000
O O5 0.523423 0.652101 0.354441
O O6 0.378712 0.640194 0.488661
O O7 0.500000 0.000000 0.500000
O O8 0.380102 0.917533 0.335645
O O9 0.407680 0.338238 0.280948
O O10 0.087071 0.491572 0.222250
O O11 0.304509 0.761655 0.943495
O O12 0.242804 0.498828 0.116331
O O13 0.227792 0.167770 0.252305
#
# Coordination Sequence:
#
# PCOD9226037 Si02
#       7
#     4   4   2   2   4   4   4
#     4   8  16  28  56  90 117 153 201 247 296 368
#     4  11  26  41  62  91 127 164 211 264 313 373
#     4  10  26  40  62  92 120 164 216 242 318 376
#     4  10  14  32  58  96 118 160 206 248 306 374
#     4   9  21  37  57  93 118 162 212 249 311 378
#     4  11  22  39  62  87 125 164 202 261 312 365
#     4   9  18  32  61  88 120 155 204 247 303 370
#
# _framework density 24.303265
#
# number of rings (size 3 to 8) (size 9 to 14) (size 15 to 20)
#    1.000    1.333    1.667    0.500    7.000    1.333 
#    0.000    0.000    0.000    5.000    0.000    0.000 
#    0.000    0.000    0.000    0.000    0.000    0.000 
#
# Total GULP energy -133872.644307 kJ/mol
# GULP energy per Si atom -5578.026846 kJ/mol
# Density = 2.424795 g / cm^3
# Si number density = 24.303265 Si / 1000 Ang^3
#
#
#
# Elastic Constant Matrix: (Units=GPa)
#
#
# Indices 1 2 3 4 5 6 
#
# 1 93.8952 24.3476 52.0683 0.0000 -8.9167 0.0000
# 2 24.3476 36.9405 35.4960 0.0000 1.0628 0.0000
# 3 52.0683 35.4960 120.6038 0.0000 11.2050 0.0000
# 4 0.0000 0.0000 0.0000 15.8209 0.0000 2.6936
# 5 -8.9167 1.0628 11.2050 0.0000 66.3897 0.0000
# 6 0.0000 0.0000 0.0000 2.6936 0.0000 23.6639
#
#
#
# Elastic Compliance Matrix: (Units=1/GPa)
#
#
# Indices 1 2 3 4 5 6 
#
# 1 0.015209 -0.004924 -0.005399 0.000000 0.003033 0.000000
# 2 -0.004924 0.039449 -0.009514 0.000000 0.000313 0.000000
# 3 -0.005399 -0.009514 0.013690 0.000000 -0.002883 0.000000
# 4 0.000000 0.000000 0.000000 0.064457 0.000000 -0.007337
# 5 0.003033 0.000313 -0.002883 0.000000 0.015952 0.000000
# 6 0.000000 0.000000 0.000000 -0.007337 0.000000 0.043094
#
#
# Mechanical properties :
#
#
# Convention : Reuss Voigt Hill
#
# Bulk Modulus (GPa) = 34.87340 52.80703 43.84021
# Shear Modulus (GPa) = 20.73998 30.47674 25.60836
#
# Velocity S-wave (km/s) = 2.92444 3.54505 3.24960
# Velocity P-wave (km/s) = 5.07775 6.20742 5.67079
#
# Compressibility (1/GPa) = 0.02867515
#
# Stress axis : x y z
#
# Youngs Moduli (GPa) = 65.75198 25.34949 73.04420
#
# Poissons Ratio (x) = 0.12482 0.39434
# Poissons Ratio (y) = 0.32375 0.69493
# Poissons Ratio (z) = 0.35497 0.24117
#
# Static dielectric constant tensor:
#      x y z
#    x 1.942110 0.000000 0.033700 
#    y 0.000000 1.899790 0.000000 
#    z 0.033700 0.000000 2.003880 
# 
# From -- ./inp_files/52265.got.cif
#   From: 2010.05.17/outbox.cif.g08.bks.cpg/sg13_27_cif.got.tgz:52265.got - 2010.06.03 16:44:36.
