data_PCOD9226430
_publ_section_title
;
Structure prediction by ZEFSAII (Michael W. Deem and Ramdas Pophale) SiO2 
 PCOD9226430
Probable space group: P 2/C
;
_chemical_formula_sum "Si O2"
_cell_formula_units_Z 26
_cell_length_a 12.413098
_cell_length_b 21.777101
_cell_length_c 5.370829
_cell_angle_alpha 90.000000
_cell_angle_beta 61.758654
_cell_angle_gamma 90.000000
_cell_volume 1279.024484
_symmetry_space_group_name_H-M "P 2/C"
_symmetry_group_IT_number 13
_symmetry_cell_setting 'monoclinic'
loop_
_space_group_symop_operation_xyz
x,y,z
-x,y,1/2-z
-x,-y,-z
x,-y,1/2+z
loop_
_atom_site_type_symbol
_atom_site_label
_atom_site_fract_x
_atom_site_fract_y
_atom_site_fract_z
Si Si1 0.143801 0.330097 0.547978
Si Si2 0.500000 0.354913 0.750000
Si Si3 0.368505 0.145303 0.780334
Si Si4 0.500000 0.436359 0.250000
Si Si5 0.500000 0.940931 0.750000
Si Si6 0.226865 0.469137 0.502170
Si Si7 0.256373 0.722960 0.434085
Si Si8 0.264335 0.979002 0.472256
O O1 0.194922 0.399397 0.467990
O O2 0.172558 0.291517 0.266288
O O3 0.000000 0.333099 0.750000
O O4 0.204733 0.302719 0.730832
O O5 0.497085 0.395069 0.502117
O O6 0.619313 0.312744 0.632763
O O7 0.500000 0.162501 0.750000
O O8 0.413979 0.106977 0.492033
O O9 0.293636 0.091699 0.002419
O O10 0.288842 0.205929 0.853483
O O11 0.374169 0.473600 0.366595
O O12 0.604530 0.987490 0.736838
O O13 0.180662 0.511557 0.326318
O O14 0.201369 0.012035 0.773529
#
# Coordination Sequence:
#
# PCOD9226430 Si02
#       8
#     4   2   4   2   2   4   4   4
#     4  12  28  51  68  86 125 170 218 270 316 360
#     4  12  20  38  64  92 131 163 196 238 310 386
#     4  11  20  30  54  87 128 172 205 246 302 382
#     4  12  22  40  62  96 139 165 182 232 310 400
#     4  10  18  30  48  80 136 184 194 238 310 390
#     4  12  24  41  70 102 123 160 205 251 317 386
#     4  12  25  41  66  95 125 169 215 259 316 381
#     4  10  17  29  45  74 123 180 198 231 294 380
#
# _framework density 20.327991000000001
#
# number of rings (size 3 to 8) (size 9 to 14) (size 15 to 20)
#    0.000    0.615    6.154    3.692    2.154    1.231 
#    0.000    0.000    0.000    0.000    0.000    0.000 
#    0.000   49.231    0.000    0.000    0.000    0.000 
#
# Total GULP energy -145035.442833 kJ/mol
# GULP energy per Si atom -5578.286263 kJ/mol
# Density = 2.028172 g / cm^3
# Si number density = 20.327991 Si / 1000 Ang^3
#
#
#
# Elastic Constant Matrix: (Units=GPa)
#
#
# Indices 1 2 3 4 5 6 
#
# 1 12.2788 17.2238 10.5655 0.0000 2.0215 0.0000
# 2 17.2238 119.8560 24.0757 0.0000 15.3448 0.0000
# 3 10.5655 24.0757 79.5000 0.0000 22.5575 0.0000
# 4 0.0000 0.0000 0.0000 10.2856 0.0000 4.7111
# 5 2.0215 15.3448 22.5575 0.0000 33.9775 0.0000
# 6 0.0000 0.0000 0.0000 4.7111 0.0000 -0.8623
#
#
#
# Elastic Compliance Matrix: (Units=1/GPa)
#
#
# Indices 1 2 3 4 5 6 
#
# 1 0.111441 -0.014522 -0.012804 0.000000 0.008429 0.000000
# 2 -0.014522 0.010988 -0.000289 0.000000 -0.003906 0.000000
# 3 -0.012804 -0.000289 0.017391 0.000000 -0.010653 0.000000
# 4 0.000000 0.000000 0.000000 0.027759 0.000000 0.151661
# 5 0.008429 -0.003906 -0.010653 0.000000 0.037767 0.000000
# 6 0.000000 0.000000 0.000000 0.151661 0.000000 -0.331119
#
#
# Mechanical properties :
#
#
# Convention : Reuss Voigt Hill
#
# Bulk Modulus (GPa) = 11.82180 35.04054 23.43117
# Shear Modulus (GPa) = -118.07524 19.33148 -49.37188
#
# Velocity S-wave (km/s) = -7.62962 3.08714 -4.93360
# Velocity P-wave (km/s) = 8.47270 5.47560 4.57190
#
# Compressibility (1/GPa) = 0.08458950
#
# Stress axis : x y z
#
# Youngs Moduli (GPa) = 8.97335 91.00492 57.50201
#
# Poissons Ratio (x) = 1.32154 0.73628
# Poissons Ratio (y) = 0.13031 0.01664
# Poissons Ratio (z) = 0.11490 0.02633
#
# Static dielectric constant tensor:
#      x y z
#    x 1.747350 0.000000 0.073180 
#    y 0.000000 1.700600 0.000000 
#    z 0.073180 0.000000 1.833730 
# 
# From -- ./inp_files/4072.got.cif
#   From: 2010.05.17/outbox.cif.g08.bks.cpg/sg13_3_cif.got.tgz:4072.got - 2010.06.03 16:44:36.
