data_PCOD9226746
_publ_section_title
;
Structure prediction by ZEFSAII (Michael W. Deem and Ramdas Pophale) SiO2 
 PCOD9226746
Probable space group: P 2/C
;
_chemical_formula_sum "Si O2"
_cell_formula_units_Z 28
_cell_length_a 8.193130
_cell_length_b 5.720826
_cell_length_c 33.495576
_cell_angle_alpha 90.000000
_cell_angle_beta 52.587653
_cell_angle_gamma 90.000000
_cell_volume 1247.015046
_symmetry_space_group_name_H-M "P 2/C"
_symmetry_group_IT_number 13
_symmetry_cell_setting 'monoclinic'
loop_
_space_group_symop_operation_xyz
x,y,z
-x,y,1/2-z
-x,-y,-z
x,-y,1/2+z
loop_
_atom_site_type_symbol
_atom_site_label
_atom_site_fract_x
_atom_site_fract_y
_atom_site_fract_z
Si Si1 0.154810 0.801852 0.461069
Si Si2 0.695713 0.674047 0.704826
Si Si3 0.131460 0.423118 0.040433
Si Si4 0.752912 0.887473 0.780149
Si Si5 0.183791 0.035652 0.380734
Si Si6 0.219408 0.621290 0.194099
Si Si7 0.920968 0.648515 0.373603
O O1 0.010830 0.613478 0.460375
O O2 0.260009 0.688823 0.484595
O O3 0.277270 0.910820 0.405847
O O4 0.000000 0.000000 0.500000
O O5 0.500000 0.530079 0.750000
O O6 0.733650 0.844977 0.735903
O O7 0.660296 0.827823 0.670741
O O8 0.894917 0.525345 0.666226
O O9 0.977725 0.223147 0.078305
O O10 0.209625 0.540343 0.069829
O O11 0.694155 0.642204 0.811783
O O12 0.000000 0.904295 0.750000
O O13 0.675389 0.147360 0.803190
O O14 0.044438 0.866946 0.373868
O O15 0.000000 0.606456 0.250000
O O16 0.196677 0.677683 0.150389
#
# Coordination Sequence:
#
# PCOD9226746 Si02
#       7
#     4   4   4   4   4   4   4
#     4   8  13  25  41  64  93 130 155 195 252 316
#     4  11  22  33  46  70 101 136 176 215 257 308
#     4   8  15  24  42  66  95 123 159 201 254 309
#     4  10  19  34  50  69  92 132 172 217 259 303
#     4   9  17  28  44  63  95 131 165 203 254 307
#     4  10  18  30  51  65  92 125 171 207 260 300
#     4  10  18  30  45  69  93 133 165 213 256 305
#
# _framework density 22.453617000000001
#
# number of rings (size 3 to 8) (size 9 to 14) (size 15 to 20)
#    0.000    2.571    2.857    1.714    2.000    0.571 
#    0.000    0.000    0.000    0.000    0.000    0.000 
#    0.000    2.286    0.286    4.000    0.000    0.000 
#
# Total GULP energy -155872.406429 kJ/mol
# GULP energy per Si atom -5566.871658 kJ/mol
# Density = 2.240251 g / cm^3
# Si number density = 22.453617 Si / 1000 Ang^3
#
#
#
# Elastic Constant Matrix: (Units=GPa)
#
#
# Indices 1 2 3 4 5 6 
#
# 1 32.6257 12.4423 30.4889 0.0000 16.6786 0.0000
# 2 12.4423 117.9296 43.5363 0.0000 14.3513 0.0000
# 3 30.4889 43.5363 134.2498 0.0000 42.7122 0.0000
# 4 0.0000 0.0000 0.0000 49.5224 0.0000 25.8100
# 5 16.6786 14.3513 42.7122 0.0000 31.2965 0.0000
# 6 0.0000 0.0000 0.0000 25.8100 0.0000 22.7550
#
#
#
# Elastic Compliance Matrix: (Units=1/GPa)
#
#
# Indices 1 2 3 4 5 6 
#
# 1 0.043672 -0.000992 -0.004130 0.000000 -0.017183 0.000000
# 2 -0.000992 0.009657 -0.002944 0.000000 0.000118 0.000000
# 3 -0.004130 -0.002944 0.014514 0.000000 -0.016257 0.000000
# 4 0.000000 0.000000 0.000000 0.049389 0.000000 -0.056020
# 5 -0.017183 0.000118 -0.016257 0.000000 0.063242 0.000000
# 6 0.000000 0.000000 0.000000 -0.056020 0.000000 0.107488
#
#
# Mechanical properties :
#
#
# Convention : Reuss Voigt Hill
#
# Bulk Modulus (GPa) = 19.33816 50.86002 35.09909
# Shear Modulus (GPa) = 15.56032 33.93729 24.74881
#
# Velocity S-wave (km/s) = 2.63534 3.89194 3.32357
# Velocity P-wave (km/s) = 4.22980 6.54955 5.51307
#
# Compressibility (1/GPa) = 0.05171122
#
# Stress axis : x y z
#
# Youngs Moduli (GPa) = 22.89781 103.55465 68.90133
#
# Poissons Ratio (x) = 0.10274 0.28454
# Poissons Ratio (y) = 0.02272 0.20284
# Poissons Ratio (z) = 0.09456 0.30486
#
# Static dielectric constant tensor:
#      x y z
#    x 1.964820 0.000000 0.040270 
#    y 0.000000 1.896890 0.000000 
#    z 0.040270 0.000000 1.713460 
# 
# From -- ./inp_files/95452.got.cif
#   From: 2010.05.17/outbox.cif.g08.bks.cpg/sg13_48_cif.got.tgz:95452.got - 2010.06.03 16:44:36.
