data_PCOD9226820
_publ_section_title
;
Structure prediction by ZEFSAII (Michael W. Deem and Ramdas Pophale) SiO2 
 PCOD9226820
Probable space group: P 2/C
;
_chemical_formula_sum "Si O2"
_cell_formula_units_Z 24
_cell_length_a 10.600059
_cell_length_b 11.937362
_cell_length_c 9.379016
_cell_angle_alpha 90.000000
_cell_angle_beta 86.694526
_cell_angle_gamma 90.000000
_cell_volume 1184.815675
_symmetry_space_group_name_H-M "P 2/C"
_symmetry_group_IT_number 13
_symmetry_cell_setting 'monoclinic'
loop_
_space_group_symop_operation_xyz
x,y,z
-x,y,1/2-z
-x,-y,-z
x,-y,1/2+z
loop_
_atom_site_type_symbol
_atom_site_label
_atom_site_fract_x
_atom_site_fract_y
_atom_site_fract_z
Si Si1 0.248355 0.251842 0.802610
Si Si2 0.434598 0.122146 0.613585
Si Si3 0.830257 0.590665 0.969271
Si Si4 0.690331 0.095981 0.459839
Si Si5 0.110799 0.338551 0.555289
Si Si6 0.147063 0.771973 0.766188
O O1 0.363850 0.225895 0.689384
O O2 0.135420 0.281227 0.704171
O O3 0.265052 0.353425 0.912322
O O4 0.233287 0.143923 0.907995
O O5 0.500000 0.065013 0.750000
O O6 0.549018 0.144725 0.498213
O O7 0.335954 0.035520 0.552268
O O8 0.819809 0.458830 0.952144
O O9 0.827343 0.655310 0.819716
O O10 0.967758 0.626783 0.023749
O O11 0.760189 0.140780 0.315433
O O12 0.160741 0.255499 0.430296
O O13 0.000000 0.803410 0.750000
#
# Coordination Sequence:
#
# PCOD9226820 Si02
#       6
#     4   4   4   4   4   4
#     4  10  19  32  55  82 107 136 182 232 267 307
#     4   9  19  36  59  77  98 141 187 224 268 325
#     4   9  18  33  51  76 110 145 181 216 259 325
#     4   9  19  36  55  77 107 140 181 223 267 327
#     4  10  18  30  53  80 107 144 181 216 267 322
#     4   9  18  31  50  77 107 137 174 223 270 315
#
# _framework density 20.256315000000001
#
# number of rings (size 3 to 8) (size 9 to 14) (size 15 to 20)
#    0.000    2.667    0.000    1.500    0.000    6.667 
#    0.000    1.667    0.000   39.000    0.000    0.000 
#    0.000    0.000    0.000    0.000    0.000    0.000 
#
# Total GULP energy -133702.514229 kJ/mol
# GULP energy per Si atom -5570.938093 kJ/mol
# Density = 2.021021 g / cm^3
# Si number density = 20.256315 Si / 1000 Ang^3
#
#
#
# Elastic Constant Matrix: (Units=GPa)
#
#
# Indices 1 2 3 4 5 6 
#
# 1 54.9690 46.0070 31.4010 0.0000 -24.8197 0.0000
# 2 46.0070 64.5076 31.5552 0.0000 -5.0010 0.0000
# 3 31.4010 31.5552 102.9082 0.0000 -4.3519 0.0000
# 4 0.0000 0.0000 0.0000 -24.1362 0.0000 20.2867
# 5 -24.8197 -5.0010 -4.3519 0.0000 47.1969 0.0000
# 6 0.0000 0.0000 0.0000 20.2867 0.0000 14.0146
#
#
#
# Elastic Compliance Matrix: (Units=1/GPa)
#
#
# Indices 1 2 3 4 5 6 
#
# 1 0.084967 -0.053814 -0.007807 0.000000 0.038260 0.000000
# 2 -0.053814 0.052416 -0.000616 0.000000 -0.022802 0.000000
# 3 -0.007807 -0.000616 0.012160 0.000000 -0.003050 0.000000
# 4 0.000000 0.000000 0.000000 -0.018691 0.000000 0.027056
# 5 0.038260 -0.022802 -0.003050 0.000000 0.038611 0.000000
# 6 0.000000 0.000000 0.000000 0.027056 0.000000 0.032190
#
#
# Mechanical properties :
#
#
# Convention : Reuss Voigt Hill
#
# Bulk Modulus (GPa) = 39.89139 48.92347 44.40743
# Shear Modulus (GPa) = 14.94845 14.97652 14.96249
#
# Velocity S-wave (km/s) = 2.71950 2.72205 2.72077
# Velocity P-wave (km/s) = 5.44031 5.83815 5.64274
#
# Compressibility (1/GPa) = 0.02506807
#
# Stress axis : x y z
#
# Youngs Moduli (GPa) = 11.76924 19.07823 82.23850
#
# Poissons Ratio (x) = 1.02667 0.64208
# Poissons Ratio (y) = 0.63334 0.05068
# Poissons Ratio (z) = 0.09189 0.01176
#
# Static dielectric constant tensor:
#      x y z
#    x 1.782300 0.000000 0.012630 
#    y 0.000000 1.716940 0.000000 
#    z 0.012630 0.000000 1.744460 
# 
# From -- ./inp_files/15892.got.cif
#   From: 2010.05.17/outbox.cif.g08.bks.cpg/sg13_8_cif.got.tgz:15892.got - 2010.06.03 16:44:36.
