data_PCOD9226171
_publ_section_title
;
Structure prediction by ZEFSAII (Michael W. Deem and Ramdas Pophale) SiO2 
 PCOD9226171
Probable space group: P 2/C
;
_chemical_formula_sum "Si O2"
_cell_formula_units_Z 30
_cell_length_a 9.676652
_cell_length_b 8.830211
_cell_length_c 21.282237
_cell_angle_alpha 90.000000
_cell_angle_beta 64.742321
_cell_angle_gamma 90.000000
_cell_volume 1644.648362
_symmetry_space_group_name_H-M "P 2/C"
_symmetry_group_IT_number 13
_symmetry_cell_setting 'monoclinic'
loop_
_space_group_symop_operation_xyz
x,y,z
-x,y,1/2-z
-x,-y,-z
x,-y,1/2+z
loop_
_atom_site_type_symbol
_atom_site_label
_atom_site_fract_x
_atom_site_fract_y
_atom_site_fract_z
Si Si1 0.984664 0.182154 0.499994
Si Si2 0.338834 0.988963 0.763578
Si Si3 0.845565 0.581095 0.207681
Si Si4 0.991838 0.875589 0.643202
Si Si5 0.352023 0.774445 0.156960
Si Si6 0.881084 0.216156 0.900759
Si Si7 0.685972 0.272440 0.633302
Si Si8 0.000000 0.316316 0.250000
O O1 0.821553 0.232565 0.559215
O O2 0.999796 0.215609 0.423691
O O3 0.106958 0.244385 0.526813
O O4 0.000000 0.000000 0.500000
O O5 0.500000 0.912669 0.750000
O O6 0.185383 0.895945 0.803377
O O7 0.346183 0.062184 0.692794
O O8 0.327292 0.131783 0.814701
O O9 0.759723 0.673436 0.278624
O O10 0.737092 0.587812 0.167423
O O11 0.997602 0.672110 0.156413
O O12 0.892775 0.424036 0.229230
O O13 0.076438 0.790854 0.683216
O O14 0.057416 0.045068 0.622371
O O15 0.281391 0.773461 0.101455
O O16 0.523820 0.714678 0.131226
#
# Coordination Sequence:
#
# PCOD9226171 Si02
#       8
#     4   4   4   4   4   4   4   2
#     4   9  17  33  53  77 110 145 176 214 262 324
#     4   9  16  28  51  79 105 133 172 216 267 314
#     4  10  18  34  51  80 103 132 183 224 257 310
#     4  11  20  34  53  80 114 141 169 220 275 320
#     4  10  16  28  56  85 100 127 186 233 254 294
#     4  10  17  32  58  77 104 139 184 221 250 313
#     4   9  17  31  56  81 101 138 178 223 262 306
#     4  12  24  30  54  82 106 132 180 224 276 318
#
# _framework density 18.240983
#
# number of rings (size 3 to 8) (size 9 to 14) (size 15 to 20)
#    0.000    2.133    6.667    2.000    0.000    0.000 
#    0.000    6.667    2.933    0.800    0.000    0.000 
#    0.000    0.000    0.000    0.000    0.000    0.000 
#
# Total GULP energy -167091.105790 kJ/mol
# GULP energy per Si atom -5569.703526 kJ/mol
# Density = 1.819947 g / cm^3
# Si number density = 18.240983 Si / 1000 Ang^3
#
#
#
# Elastic Constant Matrix: (Units=GPa)
#
#
# Indices 1 2 3 4 5 6 
#
# 1 129.6655 11.0564 34.3568 0.0000 24.5431 0.0000
# 2 11.0564 35.8280 9.3764 0.0000 10.7492 0.0000
# 3 34.3568 9.3764 75.6966 0.0000 28.7389 0.0000
# 4 0.0000 0.0000 0.0000 8.8680 0.0000 12.4708
# 5 24.5431 10.7492 28.7389 0.0000 23.4071 0.0000
# 6 0.0000 0.0000 0.0000 12.4708 0.0000 18.3244
#
#
#
# Elastic Compliance Matrix: (Units=1/GPa)
#
#
# Indices 1 2 3 4 5 6 
#
# 1 0.009663 -0.000059 -0.001015 0.000000 -0.008858 0.000000
# 2 -0.000059 0.032755 0.003103 0.000000 -0.018791 0.000000
# 3 -0.001015 0.003103 0.025145 0.000000 -0.031233 0.000000
# 4 0.000000 0.000000 0.000000 2.625692 0.000000 -1.786937
# 5 -0.008858 -0.018791 -0.031233 0.000000 0.098988 0.000000
# 6 0.000000 0.000000 0.000000 -1.786937 0.000000 1.270686
#
#
# Mechanical properties :
#
#
# Convention : Reuss Voigt Hill
#
# Bulk Modulus (GPa) = 13.96223 38.97437 26.46830
# Shear Modulus (GPa) = 1.22467 22.54659 11.88563
#
# Velocity S-wave (km/s) = 0.82027 3.51955 2.55539
# Velocity P-wave (km/s) = 2.92712 6.15866 4.82168
#
# Compressibility (1/GPa) = 0.07162181
#
# Stress axis : x y z
#
# Youngs Moduli (GPa) = 103.48890 30.53002 39.76911
#
# Poissons Ratio (x) = 0.00179 0.04038
# Poissons Ratio (y) = 0.00605 -0.12342
# Poissons Ratio (z) = 0.10507 -0.09475
#
# Static dielectric constant tensor:
#      x y z
#    x 1.659100 0.000000 0.031450 
#    y 0.000000 1.666180 0.000000 
#    z 0.031450 0.000000 1.633620 
# 
# From -- ./inp_files/84766.got.cif
#   From: 2010.05.17/outbox.cif.g08.bks.cpg/sg13_43_cif.got.tgz:84766.got - 2010.06.03 16:44:36.
