data_PCOD9226679
_publ_section_title
;
Structure prediction by ZEFSAII (Michael W. Deem and Ramdas Pophale) SiO2 
 PCOD9226679
Probable space group: P 2/C
;
_chemical_formula_sum "Si O2"
_cell_formula_units_Z 32
_cell_length_a 18.589963
_cell_length_b 13.237403
_cell_length_c 11.950068
_cell_angle_alpha 90.000000
_cell_angle_beta 150.563925
_cell_angle_gamma 90.000000
_cell_volume 1445.216706
_symmetry_space_group_name_H-M "P 2/C"
_symmetry_group_IT_number 13
_symmetry_cell_setting 'monoclinic'
loop_
_space_group_symop_operation_xyz
x,y,z
-x,y,1/2-z
-x,-y,-z
x,-y,1/2+z
loop_
_atom_site_type_symbol
_atom_site_label
_atom_site_fract_x
_atom_site_fract_y
_atom_site_fract_z
Si Si1 0.028194 0.656668 0.412927
Si Si2 0.228526 0.787097 0.349100
Si Si3 0.268988 0.629472 0.906579
Si Si4 0.163952 0.006937 0.683972
Si Si5 0.576627 0.212530 0.577274
Si Si6 0.438867 0.417458 0.833826
Si Si7 0.334629 0.853447 0.071958
Si Si8 0.236676 0.840261 0.612754
O O1 0.132179 0.600826 0.643438
O O2 0.126079 0.756305 0.513138
O O3 0.000000 0.610734 0.250000
O O4 0.880098 0.693410 0.275477
O O5 0.385376 0.776205 0.502852
O O6 0.223713 0.840386 0.462408
O O7 0.178135 0.872908 0.194168
O O8 0.416521 0.621986 0.033754
O O9 0.312637 0.559299 0.071890
O O10 0.257421 0.746671 0.932353
O O11 0.197340 0.944502 0.617856
O O12 0.261401 0.947710 0.909302
O O13 0.000000 0.000000 0.500000
O O14 0.619445 0.323508 0.676432
O O15 0.650320 0.141885 0.773221
O O16 0.404677 0.190476 0.359684
O O17 0.500000 0.500000 0.000000
O O18 0.500000 0.846127 0.250000
#
# Coordination Sequence:
#
# PCOD9226679 Si02
#       8
#     4   4   4   4   4   4   4   4
#     4  10  19  39  65  87 124 189 215 252 325 401
#     4  11  26  37  57  97 131 171 223 277 325 382
#     4  10  17  40  64  92 128 169 219 250 337 417
#     4  12  23  38  59  87 123 171 239 271 316 379
#     4  11  22  42  63  96 127 164 219 271 346 400
#     4  10  20  37  69 102 124 155 213 288 334 400
#     4  11  18  37  66  85 120 179 212 264 325 398
#     4  11  21  42  62  82 130 176 219 275 329 390
#
# _framework density 22.142008000000001
#
# number of rings (size 3 to 8) (size 9 to 14) (size 15 to 20)
#    0.000    1.250    7.500    0.375    1.750    1.500 
#    4.500    5.000    0.000    3.000    0.000    0.000 
#    0.000    0.000    0.000    0.000    0.000    0.000 
#
# Total GULP energy -178205.044161 kJ/mol
# GULP energy per Si atom -5568.907630 kJ/mol
# Density = 2.209161 g / cm^3
# Si number density = 22.142008 Si / 1000 Ang^3
#
#
#
# Elastic Constant Matrix: (Units=GPa)
#
#
# Indices 1 2 3 4 5 6 
#
# 1 124.4825 -2.8127 28.2917 0.0000 1.1657 0.0000
# 2 -2.8127 14.2403 -1.4922 0.0000 -0.3302 0.0000
# 3 28.2917 -1.4922 110.2255 0.0000 -11.4897 0.0000
# 4 0.0000 0.0000 0.0000 7.0127 0.0000 3.5074
# 5 1.1657 -0.3302 -11.4897 0.0000 11.5033 0.0000
# 6 0.0000 0.0000 0.0000 3.5074 0.0000 -9.6967
#
#
#
# Elastic Compliance Matrix: (Units=1/GPa)
#
#
# Indices 1 2 3 4 5 6 
#
# 1 0.008679 0.001367 -0.002564 0.000000 -0.003401 0.000000
# 2 0.001367 0.070651 0.000896 0.000000 0.002784 0.000000
# 3 -0.002564 0.000896 0.010908 0.000000 0.011180 0.000000
# 4 0.000000 0.000000 0.000000 0.120754 0.000000 0.043678
# 5 -0.003401 0.002784 0.011180 0.000000 0.098523 0.000000
# 6 0.000000 0.000000 0.000000 0.043678 0.000000 -0.087329
#
#
# Mechanical properties :
#
#
# Convention : Reuss Voigt Hill
#
# Bulk Modulus (GPa) = 11.15624 32.99134 22.07379
# Shear Modulus (GPa) = 19.78898 16.76129 18.27514
#
# Velocity S-wave (km/s) = 2.99278 2.75433 2.87603
# Velocity P-wave (km/s) = 4.12210 5.00473 4.58471
#
# Compressibility (1/GPa) = 0.08963596
#
# Stress axis : x y z
#
# Youngs Moduli (GPa) = 115.22581 14.15399 91.67710
#
# Poissons Ratio (x) = -0.01934 0.23502
# Poissons Ratio (y) = -0.15748 -0.08213
# Poissons Ratio (z) = 0.29539 -0.01268
#
# Static dielectric constant tensor:
#      x y z
#    x 1.543240 0.000000 -0.223920 
#    y 0.000000 1.832190 0.000000 
#    z -0.223920 0.000000 1.773410 
# 
# From -- ./inp_files/39502.got.cif
#   From: 2010.05.17/outbox.cif.g08.bks.cpg/sg13_20_cif.got.tgz:39502.got - 2010.06.03 16:44:36.
