data_PCOD9226007
_publ_section_title
;
Structure prediction by ZEFSAII (Michael W. Deem and Ramdas Pophale) SiO2 
 PCOD9226007
Probable space group: P 2/C
;
_chemical_formula_sum "Si O2"
_cell_formula_units_Z 22
_cell_length_a 28.083582
_cell_length_b 7.149795
_cell_length_c 5.484179
_cell_angle_alpha 90.000000
_cell_angle_beta 72.966851
_cell_angle_gamma 90.000000
_cell_volume 1052.875763
_symmetry_space_group_name_H-M "P 2/C"
_symmetry_group_IT_number 13
_symmetry_cell_setting 'monoclinic'
loop_
_space_group_symop_operation_xyz
x,y,z
-x,y,1/2-z
-x,-y,-z
x,-y,1/2+z
loop_
_atom_site_type_symbol
_atom_site_label
_atom_site_fract_x
_atom_site_fract_y
_atom_site_fract_z
Si Si1 0.479177 0.211456 0.531235
Si Si2 0.000000 0.618590 0.250000
Si Si3 0.264054 0.379549 0.854002
Si Si4 0.846346 0.719691 0.980459
Si Si5 0.887726 0.285189 0.918386
Si Si6 0.374699 0.623277 0.187907
O O1 0.500000 0.296100 0.750000
O O2 0.419831 0.230794 0.620246
O O3 0.500000 0.000000 0.500000
O O4 0.500000 0.296102 0.250000
O O5 0.947291 0.721831 0.329060
O O6 0.000000 0.500000 0.500000
O O7 0.261725 0.500077 0.607555
O O8 0.213174 0.265142 0.930247
O O9 0.319082 0.290333 0.771377
O O10 0.867500 0.796714 0.199061
O O11 0.866119 0.501061 0.950790
O O12 0.867493 0.796715 0.698389
O O13 0.378901 0.499967 0.431577
#
# Coordination Sequence:
#
# PCOD9226007 Si02
#       6
#     4   2   4   4   4   4
#     4  10  21  37  55  72  95 127 157 182 222 280
#     4  12  16  20  24  38  56  78 118 170 210 234
#     4  10  16  25  38  54  79 102 130 168 217 271
#     4  10  14  22  31  42  58  90 122 154 205 267
#     4  10  16  20  29  40  58  87 124 164 208 254
#     4  10  21  32  48  75  98 119 148 193 238 274
#
# _framework density 20.895154000000002
#
# number of rings (size 3 to 8) (size 9 to 14) (size 15 to 20)
#    0.000    1.818    7.273    1.091    0.000    2.182 
#    0.000    0.000    0.000    0.000    0.000    0.000 
#    0.000    0.000    0.000    0.000    0.000    0.000 
#
# Total GULP energy -122607.211677 kJ/mol
# GULP energy per Si atom -5573.055076 kJ/mol
# Density = 2.084760 g / cm^3
# Si number density = 20.895154 Si / 1000 Ang^3
#
#
#
# Elastic Constant Matrix: (Units=GPa)
#
#
# Indices 1 2 3 4 5 6 
#
# 1 245.1524 27.6941 95.6017 0.0000 -29.2207 0.0000
# 2 27.6941 69.2599 18.7657 0.0000 -3.9858 0.0000
# 3 95.6017 18.7657 224.3136 0.0000 19.8946 0.0000
# 4 0.0000 0.0000 0.0000 -21.1559 0.0000 -0.1180
# 5 -29.2207 -3.9858 19.8946 0.0000 63.9435 0.0000
# 6 0.0000 0.0000 0.0000 -0.1180 0.0000 -20.9040
#
#
#
# Elastic Compliance Matrix: (Units=1/GPa)
#
#
# Indices 1 2 3 4 5 6 
#
# 1 0.005630 -0.001364 -0.002577 0.000000 0.003290 0.000000
# 2 -0.001364 0.015216 -0.000741 0.000000 0.000556 0.000000
# 3 -0.002577 -0.000741 0.005890 0.000000 -0.003056 0.000000
# 4 0.000000 0.000000 0.000000 -0.047270 0.000000 0.000267
# 5 0.003290 0.000556 -0.003056 0.000000 0.018128 0.000000
# 6 0.000000 0.000000 0.000000 0.000267 0.000000 -0.047839
#
#
# Mechanical properties :
#
#
# Convention : Reuss Voigt Hill
#
# Bulk Modulus (GPa) = 57.56345 91.42766 74.49556
# Shear Modulus (GPa) = -142.49199 30.82099 -55.83550
#
# Velocity S-wave (km/s) = -8.26691 3.84478 -5.17492
# Velocity P-wave (km/s) = 7.96956 7.97247 0.15209
#
# Compressibility (1/GPa) = 0.01737213
#
# Stress axis : x y z
#
# Youngs Moduli (GPa) = 177.60871 65.71840 169.79178
#
# Poissons Ratio (x) = 0.08962 0.43761
# Poissons Ratio (y) = 0.24221 0.12583
# Poissons Ratio (z) = 0.45776 0.04870
#
# Static dielectric constant tensor:
#      x y z
#    x 1.755670 0.000000 -0.003710 
#    y 0.000000 1.709750 0.000000 
#    z -0.003710 0.000000 1.746960 
# 
# From -- ./inp_files/7328.got.cif
#   From: 2010.05.17/outbox.cif.g08.bks.cpg/sg13_4_cif.got.tgz:7328.got - 2010.06.03 16:44:36.
