data_PCOD9226596
_publ_section_title
;
Structure prediction by ZEFSAII (Michael W. Deem and Ramdas Pophale) SiO2 
 PCOD9226596
Probable space group: P 2/C
;
_chemical_formula_sum "Si O2"
_cell_formula_units_Z 30
_cell_length_a 10.671929
_cell_length_b 9.148036
_cell_length_c 26.464507
_cell_angle_alpha 90.000000
_cell_angle_beta 144.669672
_cell_angle_gamma 90.000000
_cell_volume 1494.100945
_symmetry_space_group_name_H-M "P 2/C"
_symmetry_group_IT_number 13
_symmetry_cell_setting 'monoclinic'
loop_
_space_group_symop_operation_xyz
x,y,z
-x,y,1/2-z
-x,-y,-z
x,-y,1/2+z
loop_
_atom_site_type_symbol
_atom_site_label
_atom_site_fract_x
_atom_site_fract_y
_atom_site_fract_z
Si Si1 0.210817 0.125757 0.415116
Si Si2 0.292909 0.582122 0.648639
Si Si3 0.000000 0.019233 0.250000
Si Si4 0.207905 0.880853 0.669273
Si Si5 0.380703 0.185357 0.003137
Si Si6 0.173718 0.114161 0.579133
Si Si7 0.891482 0.388746 0.518802
Si Si8 0.580659 0.995903 0.661481
O O1 0.430771 0.212464 0.476255
O O2 0.041527 0.163113 0.402390
O O3 0.084338 0.125222 0.321213
O O4 0.255807 0.953096 0.438644
O O5 0.500000 0.524790 0.750000
O O6 0.289317 0.754222 0.659696
O O7 0.272942 0.565160 0.580851
O O8 0.065410 0.511071 0.591638
O O9 0.205580 0.934537 0.294299
O O10 0.333599 0.901309 0.763111
O O11 0.226897 0.039347 0.650169
O O12 0.482506 0.112507 0.087254
O O13 0.235436 0.316550 0.976052
O O14 0.049725 0.264558 0.546562
O O15 0.391789 0.104805 0.617704
O O16 0.000000 0.000000 0.500000
#
# Coordination Sequence:
#
# PCOD9226596 Si02
#       8
#     4   4   2   4   4   4   4   4
#     4   9  18  30  56  82 113 145 182 234 290 340
#     4  11  24  40  56  79 118 158 193 238 295 351
#     4   8  18  32  44  84 116 146 178 228 292 344
#     4  11  19  34  55  84 110 148 193 238 287 345
#     4  10  17  34  53  81 114 144 180 233 289 344
#     4  12  19  32  56  87 112 137 190 244 290 343
#     4  11  23  38  58  85 116 153 192 241 297 348
#     4  10  19  30  54  82 114 144 187 236 287 341
#
# _framework density 20.078963999999999
#
# number of rings (size 3 to 8) (size 9 to 14) (size 15 to 20)
#    0.000    1.600    4.000    2.000    0.000    1.067 
#    0.000    0.667    0.000    0.000    0.000    3.733 
#    0.000    0.000    0.000    0.000    0.000    0.000 
#
# Total GULP energy -167047.126214 kJ/mol
# GULP energy per Si atom -5568.237540 kJ/mol
# Density = 2.003326 g / cm^3
# Si number density = 20.078964 Si / 1000 Ang^3
#
#
#
# Elastic Constant Matrix: (Units=GPa)
#
#
# Indices 1 2 3 4 5 6 
#
# 1 113.6833 7.9358 21.9597 0.0000 44.0079 0.0000
# 2 7.9358 37.6058 19.0794 0.0000 2.8701 0.0000
# 3 21.9597 19.0794 88.0221 0.0000 6.2073 0.0000
# 4 0.0000 0.0000 0.0000 16.7714 0.0000 9.1994
# 5 44.0079 2.8701 6.2073 0.0000 44.6718 0.0000
# 6 0.0000 0.0000 0.0000 9.1994 0.0000 29.7825
#
#
#
# Elastic Compliance Matrix: (Units=1/GPa)
#
#
# Indices 1 2 3 4 5 6 
#
# 1 0.014845 -0.000761 -0.002536 0.000000 -0.014223 0.000000
# 2 -0.000761 0.029963 -0.006284 0.000000 -0.000303 0.000000
# 3 -0.002536 -0.006284 0.013281 0.000000 0.001056 0.000000
# 4 0.000000 0.000000 0.000000 0.071788 0.000000 -0.022174
# 5 -0.014223 -0.000303 0.001056 0.000000 0.036270 0.000000
# 6 0.000000 0.000000 0.000000 -0.022174 0.000000 0.040426
#
#
# Mechanical properties :
#
#
# Convention : Reuss Voigt Hill
#
# Bulk Modulus (GPa) = 25.68750 37.47346 31.58048
# Shear Modulus (GPa) = 20.94588 30.93424 25.94006
#
# Velocity S-wave (km/s) = 3.23333 3.92934 3.59820
# Velocity P-wave (km/s) = 5.17303 6.26816 5.74674
#
# Compressibility (1/GPa) = 0.03892944
#
# Stress axis : x y z
#
# Youngs Moduli (GPa) = 67.36127 33.37419 75.29597
#
# Poissons Ratio (x) = 0.02539 0.19093
# Poissons Ratio (y) = 0.05124 0.47313
# Poissons Ratio (z) = 0.17081 0.20971
#
# Static dielectric constant tensor:
#      x y z
#    x 1.798300 0.000000 0.015350 
#    y 0.000000 1.679220 0.000000 
#    z 0.015350 0.000000 1.831310 
# 
# From -- ./inp_files/96631.got.cif
#   From: 2010.05.17/outbox.cif.g08.bks.cpg/sg13_49_cif.got.tgz:96631.got - 2010.06.03 16:44:36.
