data_PCOD9226799
_publ_section_title
;
Structure prediction by ZEFSAII (Michael W. Deem and Ramdas Pophale) SiO2 
 PCOD9226799
Probable space group: P 2/C
;
_chemical_formula_sum "Si O2"
_cell_formula_units_Z 24
_cell_length_a 11.690855
_cell_length_b 7.424727
_cell_length_c 18.114865
_cell_angle_alpha 90.000000
_cell_angle_beta 55.599774
_cell_angle_gamma 90.000000
_cell_volume 1297.401467
_symmetry_space_group_name_H-M "P 2/C"
_symmetry_group_IT_number 13
_symmetry_cell_setting 'monoclinic'
loop_
_space_group_symop_operation_xyz
x,y,z
-x,y,1/2-z
-x,-y,-z
x,-y,1/2+z
loop_
_atom_site_type_symbol
_atom_site_label
_atom_site_fract_x
_atom_site_fract_y
_atom_site_fract_z
Si Si1 0.165689 0.109532 0.491033
Si Si2 0.583451 0.142398 0.795326
Si Si3 0.542271 0.868036 0.549548
Si Si4 0.541563 0.530095 0.852734
Si Si5 0.267657 0.418494 0.352332
Si Si6 0.857846 0.195130 0.613010
O O1 0.292284 0.137063 0.500597
O O2 0.191482 0.245421 0.412786
O O3 0.014885 0.152489 0.577884
O O4 0.167770 0.911791 0.454152
O O5 0.500000 0.182463 0.750000
O O6 0.565977 0.317387 0.853967
O O7 0.742736 0.127621 0.713111
O O8 0.517987 0.966538 0.855140
O O9 0.477229 0.668589 0.573468
O O10 0.500000 0.000000 0.500000
O O11 0.664566 0.595744 0.753318
O O12 0.398194 0.547803 0.859085
O O13 0.171068 0.593992 0.387500
#
# Coordination Sequence:
#
# PCOD9226799 Si02
#       6
#     4   4   4   4   4   4
#     4  10  19  30  49  76 111 134 169 220 272 315
#     4  11  18  34  57  78 103 138 184 230 265 320
#     4  11  23  35  51  78 112 147 180 217 267 328
#     4   9  17  30  53  77 104 135 181 219 264 314
#     4   9  15  28  49  79 103 129 169 224 266 308
#     4  10  18  30  51  81 101 132 172 228 275 305
#
# _framework density 18.498515999999999
#
# number of rings (size 3 to 8) (size 9 to 14) (size 15 to 20)
#    0.000    2.000    5.000    1.500    2.333    0.667 
#    0.000    0.833    0.000    0.000    0.000    7.000 
#    0.000    0.000    0.000    0.000    0.000    0.000 
#
# Total GULP energy -133856.863652 kJ/mol
# GULP energy per Si atom -5577.369319 kJ/mol
# Density = 1.845641 g / cm^3
# Si number density = 18.498516 Si / 1000 Ang^3
#
#
#
# Elastic Constant Matrix: (Units=GPa)
#
#
# Indices 1 2 3 4 5 6 
#
# 1 54.4613 24.1760 36.1430 0.0000 -25.5746 0.0000
# 2 24.1760 87.2826 28.8252 0.0000 -7.5650 0.0000
# 3 36.1430 28.8252 57.0972 0.0000 -26.1775 0.0000
# 4 0.0000 0.0000 0.0000 31.0760 0.0000 -0.9967
# 5 -25.5746 -7.5650 -26.1775 0.0000 29.8187 0.0000
# 6 0.0000 0.0000 0.0000 -0.9967 0.0000 16.1955
#
#
#
# Elastic Compliance Matrix: (Units=1/GPa)
#
#
# Indices 1 2 3 4 5 6 
#
# 1 0.038544 -0.004773 -0.012365 0.000000 0.020992 0.000000
# 2 -0.004773 0.014688 -0.007635 0.000000 -0.007070 0.000000
# 3 -0.012365 -0.007635 0.039238 0.000000 0.021905 0.000000
# 4 0.000000 0.000000 0.000000 0.032243 0.000000 0.001984
# 5 0.020992 -0.007070 0.021905 0.000000 0.068977 0.000000
# 6 0.000000 0.000000 0.000000 0.001984 0.000000 0.061868
#
#
# Mechanical properties :
#
#
# Convention : Reuss Voigt Hill
#
# Bulk Modulus (GPa) = 23.29685 41.90327 32.60006
# Shear Modulus (GPa) = 15.65380 22.73117 19.19248
#
# Velocity S-wave (km/s) = 2.91214 3.50924 3.22454
# Velocity P-wave (km/s) = 4.89169 6.25469 5.61470
#
# Compressibility (1/GPa) = 0.04292425
#
# Stress axis : x y z
#
# Youngs Moduli (GPa) = 25.94430 68.08348 25.48540
#
# Poissons Ratio (x) = 0.32498 0.31512
# Poissons Ratio (y) = 0.12384 0.19458
# Poissons Ratio (z) = 0.32079 0.51982
#
# Static dielectric constant tensor:
#      x y z
#    x 1.621700 0.000000 0.003540 
#    y 0.000000 1.681070 0.000000 
#    z 0.003540 0.000000 1.655470 
# 
# From -- ./inp_files/65918.got.cif
#   From: 2010.05.17/outbox.cif.g08.bks.cpg/sg13_33_cif.got.tgz:65918.got - 2010.06.03 16:44:36.
