data_PCOD9226128
_publ_section_title
;
Structure prediction by ZEFSAII (Michael W. Deem and Ramdas Pophale) SiO2 
 PCOD9226128
Probable space group: P 2/C
;
_chemical_formula_sum "Si O2"
_cell_formula_units_Z 30
_cell_length_a 35.676744
_cell_length_b 7.154625
_cell_length_c 5.444850
_cell_angle_alpha 90.000000
_cell_angle_beta 102.840692
_cell_angle_gamma 90.000000
_cell_volume 1355.061337
_symmetry_space_group_name_H-M "P 2/C"
_symmetry_group_IT_number 13
_symmetry_cell_setting 'monoclinic'
loop_
_space_group_symop_operation_xyz
x,y,z
-x,y,1/2-z
-x,-y,-z
x,-y,1/2+z
loop_
_atom_site_type_symbol
_atom_site_label
_atom_site_fract_x
_atom_site_fract_y
_atom_site_fract_z
Si Si1 0.483811 0.712579 0.976423
Si Si2 0.359649 0.290408 0.791925
Si Si3 0.392102 0.713603 0.839202
Si Si4 0.884729 0.704751 0.653587
Si Si5 0.000000 0.377659 0.750000
Si Si6 0.279942 0.878037 0.174282
Si Si7 0.084657 0.276210 0.801195
Si Si8 0.192536 0.878463 0.065393
O O1 0.500000 0.796977 0.750000
O O2 0.437955 0.708681 0.909291
O O3 0.500000 0.796939 0.250000
O O4 0.500000 0.500000 0.000000
O O5 0.375276 0.502206 0.813333
O O6 0.375909 0.203285 0.566302
O O7 0.313811 0.273126 0.727851
O O8 0.376693 0.203409 0.063983
O O9 0.901534 0.494672 0.701148
O O10 0.907320 0.797374 0.459366
O O11 0.840233 0.722798 0.516563
O O12 0.891589 0.794056 0.930326
O O13 0.960146 0.266864 0.699772
O O14 0.000000 0.500000 0.500000
O O15 0.236217 0.804495 0.115527
O O16 0.284187 0.003857 0.427347
O O17 0.188186 0.981033 0.324036
#
# Coordination Sequence:
#
# PCOD9226128 Si02
#       8
#     4   4   4   4   2   4   4   4
#     4  10  16  25  41  65 102 133 158 188 225 291
#     4  10  18  32  49  70 102 131 155 202 252 296
#     4  10  19  30  47  76 108 129 155 195 252 310
#     4  10  18  32  49  75 105 127 163 210 248 294
#     4  12  16  30  48  78 110 138 168 196 246 294
#     4  10  21  37  55  73  94 126 174 214 241 287
#     4  10  19  30  50  81 105 131 162 203 251 294
#     4  10  21  37  55  73  95 131 172 210 248 291
#
# _framework density 22.139222
#
# number of rings (size 3 to 8) (size 9 to 14) (size 15 to 20)
#    0.000    1.867    2.667    5.600    0.000    0.000 
#    0.000    5.333    0.000    0.000    0.000   15.867 
#    0.000  130.133    0.000    0.000    0.000    0.000 
#
# Total GULP energy -167445.795216 kJ/mol
# GULP energy per Si atom -5581.526507 kJ/mol
# Density = 2.208883 g / cm^3
# Si number density = 22.139222 Si / 1000 Ang^3
#
#
#
# Elastic Constant Matrix: (Units=GPa)
#
#
# Indices 1 2 3 4 5 6 
#
# 1 150.0060 7.1669 27.6610 0.0000 23.1532 0.0000
# 2 7.1669 70.5989 -2.7288 0.0000 4.6049 0.0000
# 3 27.6610 -2.7288 184.2133 0.0000 -26.0518 0.0000
# 4 0.0000 0.0000 0.0000 -92.7510 0.0000 -104.1294
# 5 23.1532 4.6049 -26.0518 0.0000 60.4099 0.0000
# 6 0.0000 0.0000 0.0000 -104.1294 0.0000 -155.1888
#
#
#
# Elastic Compliance Matrix: (Units=1/GPa)
#
#
# Indices 1 2 3 4 5 6 
#
# 1 0.007547 -0.000598 -0.001645 0.000000 -0.003557 0.000000
# 2 -0.000598 0.014283 0.000191 0.000000 -0.000777 0.000000
# 3 -0.001645 0.000191 0.006140 0.000000 0.003264 0.000000
# 4 0.000000 0.000000 0.000000 -0.043703 0.000000 0.029324
# 5 -0.003557 -0.000777 0.003264 0.000000 0.019383 0.000000
# 6 0.000000 0.000000 0.000000 0.029324 0.000000 -0.026120
#
#
# Mechanical properties :
#
#
# Convention : Reuss Voigt Hill
#
# Bulk Modulus (GPa) = 41.89778 52.11293 47.00535
# Shear Modulus (GPa) = -480.29179 -12.65804 -246.47492
#
# Velocity S-wave (km/s) = -14.74492 -2.39372 -10.56273
# Velocity P-wave (km/s) = 16.45958 3.99374 11.29087
#
# Compressibility (1/GPa) = 0.02386761
#
# Stress axis : x y z
#
# Youngs Moduli (GPa) = 132.49849 70.01183 162.86859
#
# Poissons Ratio (x) = 0.04185 0.26794
# Poissons Ratio (y) = 0.07920 -0.03118
# Poissons Ratio (z) = 0.21797 -0.01340
#
# Static dielectric constant tensor:
#      x y z
#    x 1.781260 0.000000 -0.028540 
#    y 0.000000 1.625860 0.000000 
#    z -0.028540 0.000000 1.857410 
# 
# From -- ./inp_files/8104.got.cif
#   From: 2010.05.17/outbox.cif.g08.bks.cpg/sg13_5_cif.got.tgz:8104.got - 2010.06.03 16:44:36.
