data_PCOD9226760
_publ_section_title
;
Structure prediction by ZEFSAII (Michael W. Deem and Ramdas Pophale) SiO2 
 PCOD9226760
Probable space group: P 2/C
;
_chemical_formula_sum "Si O2"
_cell_formula_units_Z 30
_cell_length_a 17.479832
_cell_length_b 9.096676
_cell_length_c 9.330678
_cell_angle_alpha 90.000000
_cell_angle_beta 124.465497
_cell_angle_gamma 90.000000
_cell_volume 1223.225499
_symmetry_space_group_name_H-M "P 2/C"
_symmetry_group_IT_number 13
_symmetry_cell_setting 'monoclinic'
loop_
_space_group_symop_operation_xyz
x,y,z
-x,y,1/2-z
-x,-y,-z
x,-y,1/2+z
loop_
_atom_site_type_symbol
_atom_site_label
_atom_site_fract_x
_atom_site_fract_y
_atom_site_fract_z
Si Si1 0.959547 0.178332 0.503971
Si Si2 0.849786 0.098464 0.647562
Si Si3 0.342918 0.034503 0.095824
Si Si4 0.127050 0.510531 0.533161
Si Si5 0.436025 0.325650 0.054210
Si Si6 0.566687 0.865835 0.528180
Si Si7 0.758738 0.416601 0.592422
Si Si8 0.000000 0.270802 0.250000
O O1 0.889284 0.087532 0.528096
O O2 0.936966 0.344213 0.535878
O O3 0.949868 0.179369 0.322213
O O4 0.061476 0.124131 0.657096
O O5 0.761813 0.992597 0.559597
O O6 0.792492 0.249398 0.611826
O O7 0.399311 0.892585 0.097468
O O8 0.392651 0.169505 0.064016
O O9 0.351635 0.096275 0.267944
O O10 0.161470 0.491515 0.729689
O O11 0.222520 0.521605 0.545027
O O12 0.069572 0.374166 0.412222
O O13 0.500000 0.384155 0.250000
O O14 0.507703 0.279995 0.004457
O O15 0.343068 0.422772 0.947309
O O16 0.500000 0.000000 0.500000
#
# Coordination Sequence:
#
# PCOD9226760 Si02
#       8
#     4   4   4   4   4   4   4   2
#     4  10  19  30  48  70 106 146 183 223 269 313
#     4   9  18  32  48  73 105 148 173 212 276 328
#     4   9  17  31  56  81 106 129 173 218 270 347
#     4  11  19  29  47  75 101 144 191 235 264 304
#     4   8  16  31  52  74 103 142 173 218 279 335
#     4   9  16  31  57  83 102 130 171 220 278 338
#     4  10  18  30  48  71 106 141 191 228 265 315
#     4  12  18  28  46  72 104 132 190 234 260 300
#
# _framework density 24.525324000000001
#
# number of rings (size 3 to 8) (size 9 to 14) (size 15 to 20)
#    0.000    2.400    2.667    3.200    0.000    0.000 
#    0.000    2.000    2.933    6.400    0.000    0.000 
#    0.000    0.000    0.000    0.000    0.000    0.000 
#
# Total GULP energy -167209.771976 kJ/mol
# GULP energy per Si atom -5573.659066 kJ/mol
# Density = 2.446950 g / cm^3
# Si number density = 24.525324 Si / 1000 Ang^3
#
#
#
# Elastic Constant Matrix: (Units=GPa)
#
#
# Indices 1 2 3 4 5 6 
#
# 1 121.5261 22.9713 54.4696 0.0000 14.9001 0.0000
# 2 22.9713 31.1726 13.2491 0.0000 4.0932 0.0000
# 3 54.4696 13.2491 87.5392 0.0000 11.3581 0.0000
# 4 0.0000 0.0000 0.0000 15.1922 0.0000 0.5308
# 5 14.9001 4.0932 11.3581 0.0000 50.7034 0.0000
# 6 0.0000 0.0000 0.0000 0.5308 0.0000 27.0804
#
#
#
# Elastic Compliance Matrix: (Units=1/GPa)
#
#
# Indices 1 2 3 4 5 6 
#
# 1 0.012610 -0.006228 -0.006683 0.000000 -0.001706 0.000000
# 2 -0.006228 0.037496 -0.001694 0.000000 -0.000817 0.000000
# 3 -0.006683 -0.001694 0.016031 0.000000 -0.001491 0.000000
# 4 0.000000 0.000000 0.000000 0.065869 0.000000 -0.001291
# 5 -0.001706 -0.000817 -0.001491 0.000000 0.020624 0.000000
# 6 0.000000 0.000000 0.000000 -0.001291 0.000000 0.036952
#
#
# Mechanical properties :
#
#
# Convention : Reuss Voigt Hill
#
# Bulk Modulus (GPa) = 27.07899 46.84643 36.96271
# Shear Modulus (GPa) = 21.63552 28.56505 25.10029
#
# Velocity S-wave (km/s) = 2.97336 3.41650 3.20260
# Velocity P-wave (km/s) = 4.78048 5.89118 5.36465
#
# Compressibility (1/GPa) = 0.03692900
#
# Stress axis : x y z
#
# Youngs Moduli (GPa) = 79.29977 26.66925 62.37807
#
# Poissons Ratio (x) = 0.16611 0.41684
# Poissons Ratio (y) = 0.49391 0.10564
# Poissons Ratio (z) = 0.52992 0.04517
#
# Static dielectric constant tensor:
#      x y z
#    x 2.022510 0.000000 0.044820 
#    y 0.000000 2.007000 0.000000 
#    z 0.044820 0.000000 2.126150 
# 
# From -- ./inp_files/21906.got.cif
#   From: 2010.05.17/outbox.cif.g08.bks.cpg/sg13_11_cif.got.tgz:21906.got - 2010.06.03 16:44:36.
