data_PCOD9226637
_publ_section_title
;
Structure prediction by ZEFSAII (Michael W. Deem and Ramdas Pophale) SiO2 
 PCOD9226637
Probable space group: P 2/C
;
_chemical_formula_sum "Si O2"
_cell_formula_units_Z 28
_cell_length_a 9.150769
_cell_length_b 9.026742
_cell_length_c 28.041717
_cell_angle_alpha 90.000000
_cell_angle_beta 35.665351
_cell_angle_gamma 90.000000
_cell_volume 1350.513806
_symmetry_space_group_name_H-M "P 2/C"
_symmetry_group_IT_number 13
_symmetry_cell_setting 'monoclinic'
loop_
_space_group_symop_operation_xyz
x,y,z
-x,y,1/2-z
-x,-y,-z
x,-y,1/2+z
loop_
_atom_site_type_symbol
_atom_site_label
_atom_site_fract_x
_atom_site_fract_y
_atom_site_fract_z
Si Si1 0.156544 0.822334 0.805226
Si Si2 0.109435 0.097259 0.611832
Si Si3 0.946507 0.314306 0.457997
Si Si4 0.809182 0.405112 0.932903
Si Si5 0.563353 0.237653 0.124602
Si Si6 0.566739 0.056225 0.558233
Si Si7 0.715271 0.637351 0.885325
O O1 0.413474 0.775525 0.713526
O O2 0.086291 0.755174 0.874748
O O3 0.923118 0.762984 0.835347
O O4 0.129550 0.997731 0.814080
O O5 0.034169 0.256827 0.611966
O O6 0.296360 0.098296 0.607837
O O7 0.268754 0.014125 0.528439
O O8 0.865487 0.475373 0.459354
O O9 0.714876 0.206729 0.532440
O O10 0.158095 0.300424 0.442189
O O11 0.828760 0.488543 0.877077
O O12 0.525319 0.343564 0.015834
O O13 0.403139 0.350517 0.134782
O O14 0.560255 0.076523 0.099003
#
# Coordination Sequence:
#
# PCOD9226637 Si02
#       7
#     4   4   4   4   4   4   4
#     4  10  21  37  62  84 113 161 200 247 303 357
#     4  10  17  35  62  86 112 146 205 246 292 342
#     4  10  23  37  59  86 122 161 199 238 308 370
#     4  10  19  37  60  87 114 156 196 246 300 360
#     4  12  21  36  60  90 121 153 203 253 299 359
#     4  10  19  34  59  89 111 150 197 258 285 340
#     4  10  19  34  60  87 112 151 201 247 287 359
#
# _framework density 20.732849000000002
#
# number of rings (size 3 to 8) (size 9 to 14) (size 15 to 20)
#    0.000    1.714    2.857    4.714    0.000    0.571 
#    0.000    0.000   22.000    6.857    0.000    0.000 
#    0.000    0.000    0.000    0.000    0.000    0.000 
#
# Total GULP energy -156129.947058 kJ/mol
# GULP energy per Si atom -5576.069538 kJ/mol
# Density = 2.068566 g / cm^3
# Si number density = 20.732849 Si / 1000 Ang^3
#
#
#
# Elastic Constant Matrix: (Units=GPa)
#
#
# Indices 1 2 3 4 5 6 
#
# 1 56.7720 16.4485 -4.8230 0.0000 -6.0555 0.0000
# 2 16.4485 116.9316 8.3746 0.0000 -11.4003 0.0000
# 3 -4.8230 8.3746 42.6447 0.0000 -0.0912 0.0000
# 4 0.0000 0.0000 0.0000 18.5127 0.0000 8.5361
# 5 -6.0555 -11.4003 -0.0912 0.0000 19.2862 0.0000
# 6 0.0000 0.0000 0.0000 8.5361 0.0000 18.0269
#
#
#
# Elastic Compliance Matrix: (Units=1/GPa)
#
#
# Indices 1 2 3 4 5 6 
#
# 1 0.019026 -0.002421 0.002637 0.000000 0.004555 0.000000
# 2 -0.002421 0.009519 -0.002133 0.000000 0.004856 0.000000
# 3 0.002637 -0.002133 0.024166 0.000000 -0.000318 0.000000
# 4 0.000000 0.000000 0.000000 0.069105 0.000000 -0.032723
# 5 0.004555 0.004856 -0.000318 0.000000 0.056150 0.000000
# 6 0.000000 0.000000 0.000000 -0.032723 0.000000 0.070968
#
#
# Mechanical properties :
#
#
# Convention : Reuss Voigt Hill
#
# Bulk Modulus (GPa) = 20.45963 28.48316 24.47139
# Shear Modulus (GPa) = 18.58325 24.25503 21.41914
#
# Velocity S-wave (km/s) = 2.99711 3.42407 3.21768
# Velocity P-wave (km/s) = 4.67616 5.42221 5.06295
#
# Compressibility (1/GPa) = 0.04887674
#
# Stress axis : x y z
#
# Youngs Moduli (GPa) = 52.56067 105.05522 41.38049
#
# Poissons Ratio (x) = 0.25434 -0.10912
# Poissons Ratio (y) = 0.12725 0.08825
# Poissons Ratio (z) = -0.13860 0.22406
#
# Static dielectric constant tensor:
#      x y z
#    x 1.809250 0.000000 0.005360 
#    y 0.000000 1.788890 0.000000 
#    z 0.005360 0.000000 1.740420 
# 
# From -- ./inp_files/91399.got.cif
#   From: 2010.05.17/outbox.cif.g08.bks.cpg/sg13_46_cif.got.tgz:91399.got - 2010.06.03 16:44:36.
