data_PCOD9226418
_publ_section_title
;
Structure prediction by ZEFSAII (Michael W. Deem and Ramdas Pophale) SiO2 
 PCOD9226418
Probable space group: P 2/C
;
_chemical_formula_sum "Si O2"
_cell_formula_units_Z 32
_cell_length_a 22.470591
_cell_length_b 8.109090
_cell_length_c 28.861908
_cell_angle_alpha 90.000000
_cell_angle_beta 161.067507
_cell_angle_gamma 90.000000
_cell_volume 1706.336390
_symmetry_space_group_name_H-M "P 2/C"
_symmetry_group_IT_number 13
_symmetry_cell_setting 'monoclinic'
loop_
_space_group_symop_operation_xyz
x,y,z
-x,y,1/2-z
-x,-y,-z
x,-y,1/2+z
loop_
_atom_site_type_symbol
_atom_site_label
_atom_site_fract_x
_atom_site_fract_y
_atom_site_fract_z
Si Si1 0.143807 0.421568 0.675492
Si Si2 0.867527 0.221167 0.418220
Si Si3 0.380164 0.105364 0.342980
Si Si4 0.356856 0.637943 0.416802
Si Si5 0.191131 0.116596 0.583838
Si Si6 0.448848 0.756992 0.344041
Si Si7 0.174813 0.380576 0.347157
Si Si8 0.077779 0.232067 0.178738
O O1 0.210588 0.318025 0.769348
O O2 0.310728 0.382448 0.763066
O O3 0.124074 0.601550 0.683454
O O4 0.954979 0.372312 0.510943
O O5 0.695077 0.213769 0.256299
O O6 0.037395 0.169529 0.509522
O O7 0.819441 0.079615 0.419722
O O8 0.534986 0.206584 0.483852
O O9 0.213295 0.097363 0.256549
O O10 0.426616 0.924973 0.358027
O O11 0.500000 0.500000 0.500000
O O12 0.252468 0.545936 0.380999
O O13 0.376650 0.192755 0.740311
O O14 0.124828 0.181512 0.485834
O O15 0.655694 0.698472 0.500660
O O16 0.118104 0.267075 0.261505
O O17 0.000000 0.408216 0.250000
#
# Coordination Sequence:
#
# PCOD9226418 Si02
#       8
#     4   4   4   4   4   4   4   4
#     4  10  17  28  48  77 107 131 173 213 263 311
#     4   8  16  27  44  79 109 132 159 213 271 310
#     4  10  18  31  54  79 109 131 170 219 264 308
#     4  11  19  36  51  78 105 137 183 220 260 313
#     4   8  16  29  46  73 110 133 167 209 261 313
#     4  10  19  32  52  80 104 138 170 213 265 318
#     4  11  23  38  52  73 108 142 176 221 266 314
#     4  10  18  31  50  78 105 137 171 216 258 312
#
# _framework density 18.753629
#
# number of rings (size 3 to 8) (size 9 to 14) (size 15 to 20)
#    0.000    2.250    3.750    2.250    0.000    8.500 
#    0.000    1.250    0.000    0.000    0.000    3.500 
#    0.000    0.000    0.000    0.000    0.000    0.000 
#
# Total GULP energy -178256.225294 kJ/mol
# GULP energy per Si atom -5570.507040 kJ/mol
# Density = 1.871094 g / cm^3
# Si number density = 18.753629 Si / 1000 Ang^3
#
#
#
# Elastic Constant Matrix: (Units=GPa)
#
#
# Indices 1 2 3 4 5 6 
#
# 1 33.5529 6.7067 31.0171 0.0000 10.9381 0.0000
# 2 6.7067 37.0523 20.7396 0.0000 1.6861 0.0000
# 3 31.0171 20.7396 72.8515 0.0000 -6.9318 0.0000
# 4 0.0000 0.0000 0.0000 22.2331 0.0000 -9.0504
# 5 10.9381 1.6861 -6.9318 0.0000 23.8184 0.0000
# 6 0.0000 0.0000 0.0000 -9.0504 0.0000 14.0350
#
#
#
# Elastic Compliance Matrix: (Units=1/GPa)
#
#
# Indices 1 2 3 4 5 6 
#
# 1 0.087665 0.012383 -0.046038 0.000000 -0.054533 0.000000
# 2 0.012383 0.034461 -0.016307 0.000000 -0.012872 0.000000
# 3 -0.046038 -0.016307 0.041233 0.000000 0.034296 0.000000
# 4 0.000000 0.000000 0.000000 0.060987 0.000000 0.039327
# 5 -0.054533 -0.012872 0.034296 0.000000 0.077920 0.000000
# 6 0.000000 0.000000 0.000000 0.039327 0.000000 0.096611
#
#
# Mechanical properties :
#
#
# Convention : Reuss Voigt Hill
#
# Bulk Modulus (GPa) = 15.76433 28.93148 22.34791
# Shear Modulus (GPa) = 9.61639 17.68350 13.64995
#
# Velocity S-wave (km/s) = 2.26691 3.07406 2.70081
# Velocity P-wave (km/s) = 3.90847 5.29721 4.65492
#
# Compressibility (1/GPa) = 0.06343435
#
# Stress axis : x y z
#
# Youngs Moduli (GPa) = 11.40712 29.01819 24.25228
#
# Poissons Ratio (x) = -0.35933 1.11652
# Poissons Ratio (y) = -0.14125 0.39549
# Poissons Ratio (z) = 0.52516 0.47321
#
# Static dielectric constant tensor:
#      x y z
#    x 1.624110 0.000000 -0.041090 
#    y 0.000000 1.706250 0.000000 
#    z -0.041090 0.000000 1.742780 
# 
# From -- ./inp_files/93602.got.cif
#   From: 2010.05.17/outbox.cif.g08.bks.cpg/sg13_47_cif.got.tgz:93602.got - 2010.06.03 16:44:36.
