data_PCOD9226477
_publ_section_title
;
Structure prediction by ZEFSAII (Michael W. Deem and Ramdas Pophale) SiO2 
 PCOD9226477
Probable space group: P 2/C
;
_chemical_formula_sum "Si O2"
_cell_formula_units_Z 24
_cell_length_a 9.836140
_cell_length_b 8.976348
_cell_length_c 13.748241
_cell_angle_alpha 90.000000
_cell_angle_beta 137.121576
_cell_angle_gamma 90.000000
_cell_volume 825.970477
_symmetry_space_group_name_H-M "P 2/C"
_symmetry_group_IT_number 13
_symmetry_cell_setting 'monoclinic'
loop_
_space_group_symop_operation_xyz
x,y,z
-x,y,1/2-z
-x,-y,-z
x,-y,1/2+z
loop_
_atom_site_type_symbol
_atom_site_label
_atom_site_fract_x
_atom_site_fract_y
_atom_site_fract_z
Si Si1 0.735534 0.747375 0.849379
Si Si2 0.257983 0.586284 0.140672
Si Si3 0.256862 0.081775 0.637801
Si Si4 0.720349 0.430331 0.617069
Si Si5 0.385819 0.142672 0.905813
Si Si6 0.208039 0.733914 0.854895
O O1 0.500000 0.749393 0.750000
O O2 0.811006 0.582760 0.923767
O O3 0.744470 0.737535 0.735558
O O4 0.812932 0.912742 0.924509
O O5 0.500000 0.585302 0.250000
O O6 0.181919 0.751955 0.065484
O O7 0.228991 0.590349 0.242921
O O8 0.500000 0.078808 0.750000
O O9 0.240716 0.092614 0.745786
O O10 0.500000 0.500000 0.500000
O O11 0.718187 0.261860 0.577715
O O12 0.830823 0.566453 0.625538
O O13 0.592411 0.223437 0.983803
O O14 0.500000 0.000000 0.000000
O O15 0.000000 0.821403 0.750000
#
# Coordination Sequence:
#
# PCOD9226477 Si02
#       6
#     4   4   4   4   4   4
#     4   9  16  28  48  72  96 133 178 214 246 311
#     4   8  14  24  41  68  92 118 161 213 244 282
#     4   9  16  27  47  74  98 127 176 222 246 297
#     4   8  16  28  45  68  94 129 169 206 247 307
#     4  10  17  30  51  77  99 133 182 217 248 316
#     4  10  19  32  50  77 109 137 168 220 275 305
#
# _framework density 29.056730000000002
#
# number of rings (size 3 to 8) (size 9 to 14) (size 15 to 20)
#    0.000    3.000    1.667    0.000    0.000    0.000 
#    0.000    0.833    0.000    4.000    0.000  227.500 
#    0.000    0.000    0.000    0.000    0.000    0.000 
#
# Total GULP energy -133681.169164 kJ/mol
# GULP energy per Si atom -5570.048715 kJ/mol
# Density = 2.899060 g / cm^3
# Si number density = 29.056730 Si / 1000 Ang^3
#
#
#
# Elastic Constant Matrix: (Units=GPa)
#
#
# Indices 1 2 3 4 5 6 
#
# 1 82.5467 30.0905 11.1639 0.0000 -14.1135 0.0000
# 2 30.0905 352.3930 41.6997 0.0000 -3.7305 0.0000
# 3 11.1639 41.6997 100.9195 0.0000 1.8013 0.0000
# 4 0.0000 0.0000 0.0000 36.4545 0.0000 -2.6223
# 5 -14.1135 -3.7305 1.8013 0.0000 29.6314 0.0000
# 6 0.0000 0.0000 0.0000 -2.6223 0.0000 26.8778
#
#
#
# Elastic Compliance Matrix: (Units=1/GPa)
#
#
# Indices 1 2 3 4 5 6 
#
# 1 0.013743 -0.000958 -0.001240 0.000000 0.006501 0.000000
# 2 -0.000958 0.003056 -0.001157 0.000000 -0.000001 0.000000
# 3 -0.001240 -0.001157 0.010549 0.000000 -0.001378 0.000000
# 4 0.000000 0.000000 0.000000 0.027625 0.000000 0.002695
# 5 0.006501 -0.000001 -0.001378 0.000000 0.036928 0.000000
# 6 0.000000 0.000000 0.000000 0.002695 0.000000 0.037468
#
#
# Mechanical properties :
#
#
# Convention : Reuss Voigt Hill
#
# Bulk Modulus (GPa) = 48.45586 77.97416 63.21501
# Shear Modulus (GPa) = 34.97503 48.78641 41.88072
#
# Velocity S-wave (km/s) = 3.47317 4.10201 3.80062
# Velocity P-wave (km/s) = 5.72682 7.02344 6.40801
#
# Compressibility (1/GPa) = 0.02063734
#
# Stress axis : x y z
#
# Youngs Moduli (GPa) = 72.76575 327.17974 94.79798
#
# Poissons Ratio (x) = 0.31340 0.11759
# Poissons Ratio (y) = 0.06970 0.10967
# Poissons Ratio (z) = 0.09026 0.37852
#
# Static dielectric constant tensor:
#      x y z
#    x 2.380060 0.000000 0.001730 
#    y 0.000000 3.112640 0.000000 
#    z 0.001730 0.000000 2.289460 
# 
# From -- ./inp_files/53173.got.cif
#   From: 2010.05.17/outbox.cif.g08.bks.cpg/sg13_27_cif.got.tgz:53173.got - 2010.06.03 16:44:36.
