data_PCOD9226507
_publ_section_title
;
Structure prediction by ZEFSAII (Michael W. Deem and Ramdas Pophale) SiO2 
 PCOD9226507
Probable space group: P 2/C
;
_chemical_formula_sum "Si O2"
_cell_formula_units_Z 26
_cell_length_a 20.138199
_cell_length_b 6.804154
_cell_length_c 9.266651
_cell_angle_alpha 90.000000
_cell_angle_beta 45.701933
_cell_angle_gamma 90.000000
_cell_volume 908.779403
_symmetry_space_group_name_H-M "P 2/C"
_symmetry_group_IT_number 13
_symmetry_cell_setting 'monoclinic'
loop_
_space_group_symop_operation_xyz
x,y,z
-x,y,1/2-z
-x,-y,-z
x,-y,1/2+z
loop_
_atom_site_type_symbol
_atom_site_label
_atom_site_fract_x
_atom_site_fract_y
_atom_site_fract_z
Si Si1 0.866991 0.972695 0.205594
Si Si2 0.900334 0.560685 0.697437
Si Si3 0.460139 0.210796 0.458808
Si Si4 0.315747 0.114855 0.895671
Si Si5 0.384202 0.638390 0.558889
Si Si6 0.790759 0.449474 0.616161
Si Si7 0.000000 0.010044 0.750000
O O1 0.883863 0.211214 0.181080
O O2 0.756560 0.969862 0.413057
O O3 0.922321 0.909389 0.975568
O O4 0.929594 0.894684 0.242395
O O5 0.819609 0.439572 0.737874
O O6 0.000000 0.500000 0.500000
O O7 0.884506 0.519398 0.888010
O O8 0.500000 0.123047 0.250000
O O9 0.392846 0.070954 0.655519
O O10 0.406330 0.409229 0.489456
O O11 0.537506 0.293614 0.450117
O O12 0.252645 0.263136 0.897529
O O13 0.369934 0.238835 0.935463
O O14 0.283294 0.624410 0.785362
#
# Coordination Sequence:
#
# PCOD9226507 Si02
#       7
#     4   4   4   4   4   4   2
#     4  10  23  43  63  85 118 149 211 253 295 356
#     4  11  23  33  55  86 126 160 188 238 310 362
#     4  10  19  28  50  80 122 163 196 226 282 366
#     4  10  20  34  53  81 119 158 193 239 289 349
#     4  10  17  31  47  76 122 168 196 224 278 365
#     4  10  19  32  46  81 120 158 194 222 285 361
#     4  10  24  46  66  84 106 162 212 260 296 340
#
# _framework density 28.609801999999998
#
# number of rings (size 3 to 8) (size 9 to 14) (size 15 to 20)
#    0.000    1.846    3.077    3.692    8.615    0.000 
#    0.000    3.077    0.000    0.000    0.000    7.538 
#    0.000    0.000    0.000    0.000    0.000    0.000 
#
# Total GULP energy -145551.852372 kJ/mol
# GULP energy per Si atom -5598.148168 kJ/mol
# Density = 2.854468 g / cm^3
# Si number density = 28.609802 Si / 1000 Ang^3
#
#
#
# Elastic Constant Matrix: (Units=GPa)
#
#
# Indices 1 2 3 4 5 6 
#
# 1 171.8379 23.3895 58.8781 0.0000 12.2184 0.0000
# 2 23.3895 114.9090 48.2316 0.0000 0.1392 0.0000
# 3 58.8781 48.2316 267.6007 0.0000 -11.6871 0.0000
# 4 0.0000 0.0000 0.0000 33.8553 0.0000 0.0359
# 5 12.2184 0.1392 -11.6871 0.0000 52.4978 0.0000
# 6 0.0000 0.0000 0.0000 0.0359 0.0000 25.6217
#
#
#
# Elastic Compliance Matrix: (Units=1/GPa)
#
#
# Indices 1 2 3 4 5 6 
#
# 1 0.006524 -0.000746 -0.001381 0.000000 -0.001824 0.000000
# 2 -0.000746 0.009509 -0.001558 0.000000 -0.000198 0.000000
# 3 -0.001381 -0.001558 0.004378 0.000000 0.001300 0.000000
# 4 0.000000 0.000000 0.000000 0.029537 0.000000 -0.000041
# 5 -0.001824 -0.000198 0.001300 0.000000 0.019763 0.000000
# 6 0.000000 0.000000 0.000000 -0.000041 0.000000 0.039029
#
#
# Mechanical properties :
#
#
# Convention : Reuss Voigt Hill
#
# Bulk Modulus (GPa) = 76.68324 90.59401 83.63862
# Shear Modulus (GPa) = 41.50841 50.65153 46.07997
#
# Velocity S-wave (km/s) = 3.81313 4.21221 4.01763
# Velocity P-wave (km/s) = 6.80058 7.44252 7.12878
#
# Compressibility (1/GPa) = 0.01304066
#
# Stress axis : x y z
#
# Youngs Moduli (GPa) = 153.28744 105.16625 228.39916
#
# Poissons Ratio (x) = 0.07848 0.31531
# Poissons Ratio (y) = 0.11439 0.35592
# Poissons Ratio (z) = 0.21161 0.16388
#
# Static dielectric constant tensor:
#      x y z
#    x 2.140280 0.000000 -0.081550 
#    y 0.000000 2.305740 0.000000 
#    z -0.081550 0.000000 2.256020 
# 
# From -- ./inp_files/22934.got.cif
#   From: 2010.05.17/outbox.cif.g08.bks.cpg/sg13_12_cif.got.tgz:22934.got - 2010.06.03 16:44:36.
