data_PCOD9226226
_publ_section_title
;
Structure prediction by ZEFSAII (Michael W. Deem and Ramdas Pophale) SiO2 
 PCOD9226226
Probable space group: P 2/C
;
_chemical_formula_sum "Si O2"
_cell_formula_units_Z 24
_cell_length_a 24.986183
_cell_length_b 13.230292
_cell_length_c 5.349290
_cell_angle_alpha 90.000000
_cell_angle_beta 130.314238
_cell_angle_gamma 90.000000
_cell_volume 1348.371776
_symmetry_space_group_name_H-M "P 2/C"
_symmetry_group_IT_number 13
_symmetry_cell_setting 'monoclinic'
loop_
_space_group_symop_operation_xyz
x,y,z
-x,y,1/2-z
-x,-y,-z
x,-y,1/2+z
loop_
_atom_site_type_symbol
_atom_site_label
_atom_site_fract_x
_atom_site_fract_y
_atom_site_fract_z
Si Si1 0.397619 0.549460 0.515563
Si Si2 0.238748 0.464495 0.015422
Si Si3 0.845047 0.930802 0.282322
Si Si4 0.627975 0.778961 0.121023
Si Si5 0.000000 0.067855 0.250000
Si Si6 0.720470 0.229931 0.399534
Si Si7 0.500000 0.066718 0.250000
O O1 0.424959 0.516333 0.867499
O O2 0.313579 0.524598 0.265995
O O3 0.405744 0.666968 0.485605
O O4 0.201699 0.489457 0.162808
O O5 0.254641 0.346541 0.032692
O O6 0.785237 0.846674 0.100293
O O7 0.838708 0.000328 0.013679
O O8 0.923328 0.118439 0.018407
O O9 0.675450 0.786738 0.512131
O O10 0.673798 0.786270 0.006687
O O11 0.568434 0.862884 0.949692
O O12 0.000000 0.000000 0.500000
O O13 0.500000 0.000000 0.500000
#
# Coordination Sequence:
#
# PCOD9226226 Si02
#       7
#     4   4   4   4   2   4   2
#     4  10  16  32  56  80 107 129 164 220 272 327
#     4  10  16  30  51  79 113 135 161 212 272 330
#     4  10  21  35  52  83 114 143 184 221 267 315
#     4  12  23  39  61  79 106 143 186 224 267 327
#     4   8  16  34  54  70 110 152 172 218 272 316
#     4  12  21  33  61  87 108 137 182 229 268 312
#     4  12  30  50  58  72 106 154 188 214 280 334
#
# _framework density 17.799247000000001
#
# number of rings (size 3 to 8) (size 9 to 14) (size 15 to 20)
#    0.000    1.333    6.667    2.000    0.000    4.000 
#    0.000    0.833    0.000    0.000    0.000    1.167 
#    0.000    0.000    0.000    0.000    0.000    0.000 
#
# Total GULP energy -133913.943972 kJ/mol
# GULP energy per Si atom -5579.747665 kJ/mol
# Density = 1.775874 g / cm^3
# Si number density = 17.799247 Si / 1000 Ang^3
#
#
#
# Elastic Constant Matrix: (Units=GPa)
#
#
# Indices 1 2 3 4 5 6 
#
# 1 89.0394 52.9350 76.6152 0.0000 -16.1445 0.0000
# 2 52.9350 125.2670 62.9157 0.0000 8.9470 0.0000
# 3 76.6152 62.9157 124.6804 0.0000 -29.6507 0.0000
# 4 0.0000 0.0000 0.0000 5.1018 0.0000 -18.9468
# 5 -16.1445 8.9470 -29.6507 0.0000 41.1485 0.0000
# 6 0.0000 0.0000 0.0000 -18.9468 0.0000 0.6161
#
#
#
# Elastic Compliance Matrix: (Units=1/GPa)
#
#
# Indices 1 2 3 4 5 6 
#
# 1 0.025193 -0.004207 -0.013021 0.000000 0.001417 0.000000
# 2 -0.004207 0.013731 -0.006573 0.000000 -0.009372 0.000000
# 3 -0.013021 -0.006573 0.022282 0.000000 0.012376 0.000000
# 4 0.000000 0.000000 0.000000 -0.001731 0.000000 -0.053246
# 5 0.001417 -0.009372 0.012376 0.000000 0.035814 0.000000
# 6 0.000000 0.000000 0.000000 -0.053246 0.000000 -0.014337
#
#
# Mechanical properties :
#
#
# Convention : Reuss Voigt Hill
#
# Bulk Modulus (GPa) = 73.50628 80.43540 76.97084
# Shear Modulus (GPa) = 37.56896 19.14134 28.35515
#
# Velocity S-wave (km/s) = 4.59923 3.28289 3.99564
# Velocity P-wave (km/s) = 8.34212 7.72388 8.03894
#
# Compressibility (1/GPa) = 0.01360428
#
# Stress axis : x y z
#
# Youngs Moduli (GPa) = 39.69288 72.82574 44.87989
#
# Poissons Ratio (x) = 0.30641 0.58439
# Poissons Ratio (y) = 0.16701 0.29498
# Poissons Ratio (z) = 0.51685 0.47865
#
# Static dielectric constant tensor:
#      x y z
#    x 1.654290 0.000000 -0.034120 
#    y 0.000000 1.577010 0.000000 
#    z -0.034120 0.000000 1.647720 
# 
# From -- ./inp_files/6014.got.cif
#   From: 2010.05.17/outbox.cif.g08.bks.cpg/sg13_4_cif.got.tgz:6014.got - 2010.06.03 16:44:36.
