data_PCOD9226285
_publ_section_title
;
Structure prediction by ZEFSAII (Michael W. Deem and Ramdas Pophale) SiO2 
 PCOD9226285
Probable space group: P 2/C
;
_chemical_formula_sum "Si O2"
_cell_formula_units_Z 30
_cell_length_a 8.632185
_cell_length_b 7.918144
_cell_length_c 21.420901
_cell_angle_alpha 90.000000
_cell_angle_beta 113.542833
_cell_angle_gamma 90.000000
_cell_volume 1342.265232
_symmetry_space_group_name_H-M "P 2/C"
_symmetry_group_IT_number 13
_symmetry_cell_setting 'monoclinic'
loop_
_space_group_symop_operation_xyz
x,y,z
-x,y,1/2-z
-x,-y,-z
x,-y,1/2+z
loop_
_atom_site_type_symbol
_atom_site_label
_atom_site_fract_x
_atom_site_fract_y
_atom_site_fract_z
Si Si1 0.935849 0.895556 0.048814
Si Si2 0.688398 0.600484 0.852882
Si Si3 0.956438 0.235531 0.116109
Si Si4 0.367768 0.246559 0.365068
Si Si5 0.577745 0.810436 0.008150
Si Si6 0.500000 0.334418 0.750000
Si Si7 0.194104 0.677143 0.043152
Si Si8 0.538617 0.853354 0.130018
O O1 0.751602 0.834425 0.001737
O O2 0.053656 0.734081 0.070575
O O3 0.939548 0.031669 0.104674
O O4 0.000000 0.000000 0.000000
O O5 0.500551 0.675961 0.836764
O O6 0.651374 0.452151 0.797950
O O7 0.742672 0.504418 0.925166
O O8 0.844848 0.713959 0.853684
O O9 0.831410 0.281129 0.154117
O O10 0.878419 0.310691 0.038456
O O11 0.449179 0.292359 0.445948
O O12 0.399483 0.045634 0.360490
O O13 0.624860 0.756534 0.085709
O O14 0.500000 0.000000 0.000000
O O15 0.441600 0.224127 0.799121
O O16 0.344378 0.813394 0.078330
#
# Coordination Sequence:
#
# PCOD9226285 Si02
#       8
#     4   4   4   4   4   2   4   4
#     4  10  17  30  58  91 135 163 198 253 315 387
#     4  11  25  42  61  88 136 172 211 252 329 395
#     4  11  19  36  62 100 130 157 210 264 325 378
#     4  11  20  37  68 104 124 159 208 274 336 379
#     4  10  16  32  59 102 133 147 200 271 327 382
#     4  10  26  48  62  80 120 188 226 260 310 388
#     4  10  20  36  56  94 136 173 194 251 330 396
#     4  10  19  40  67  89 124 168 221 265 315 384
#
# _framework density 22.350277999999999
#
# number of rings (size 3 to 8) (size 9 to 14) (size 15 to 20)
#    0.000    1.600    4.000    5.200    0.000    1.067 
#    4.800    0.667    2.933    0.000    0.000    0.000 
#    0.000    0.000    0.000    0.000    0.000    0.000 
#
# Total GULP energy -167121.476334 kJ/mol
# GULP energy per Si atom -5570.715878 kJ/mol
# Density = 2.229941 g / cm^3
# Si number density = 22.350278 Si / 1000 Ang^3
#
#
#
# Elastic Constant Matrix: (Units=GPa)
#
#
# Indices 1 2 3 4 5 6 
#
# 1 154.4911 33.0036 11.9701 0.0000 3.0515 0.0000
# 2 33.0036 63.5098 18.4415 0.0000 -2.5439 0.0000
# 3 11.9701 18.4415 60.2399 0.0000 -19.7347 0.0000
# 4 0.0000 0.0000 0.0000 20.1590 0.0000 2.7393
# 5 3.0515 -2.5439 -19.7347 0.0000 24.3814 0.0000
# 6 0.0000 0.0000 0.0000 2.7393 0.0000 19.9371
#
#
#
# Elastic Compliance Matrix: (Units=1/GPa)
#
#
# Indices 1 2 3 4 5 6 
#
# 1 0.007369 -0.003605 -0.001069 0.000000 -0.002164 0.000000
# 2 -0.003605 0.019252 -0.005949 0.000000 -0.002355 0.000000
# 3 -0.001069 -0.005949 0.025141 0.000000 0.019863 0.000000
# 4 0.000000 0.000000 0.000000 0.050549 0.000000 -0.006945
# 5 -0.002164 -0.002355 0.019863 0.000000 0.057117 0.000000
# 6 0.000000 0.000000 0.000000 -0.006945 0.000000 0.051112
#
#
# Mechanical properties :
#
#
# Convention : Reuss Voigt Hill
#
# Bulk Modulus (GPa) = 32.77129 45.00792 38.88960
# Shear Modulus (GPa) = 20.66461 27.21720 23.94091
#
# Velocity S-wave (km/s) = 3.04399 3.49342 3.27642
# Velocity P-wave (km/s) = 5.20086 6.03765 5.63481
#
# Compressibility (1/GPa) = 0.03051452
#
# Stress axis : x y z
#
# Youngs Moduli (GPa) = 135.70957 51.94194 39.77557
#
# Poissons Ratio (x) = 0.18727 0.04254
# Poissons Ratio (y) = 0.48928 0.23662
# Poissons Ratio (z) = 0.14513 0.30900
#
# Static dielectric constant tensor:
#      x y z
#    x 1.989280 0.000000 -0.033350 
#    y 0.000000 1.900980 0.000000 
#    z -0.033350 0.000000 1.877820 
# 
# From -- ./inp_files/84981.got.cif
#   From: 2010.05.17/outbox.cif.g08.bks.cpg/sg13_43_cif.got.tgz:84981.got - 2010.06.03 16:44:36.
