data_PCOD9226932
_publ_section_title
;
Structure prediction by ZEFSAII (Michael W. Deem and Ramdas Pophale) SiO2 
 PCOD9226932
Probable space group: P 2/C
;
_chemical_formula_sum "Si O2"
_cell_formula_units_Z 18
_cell_length_a 7.825895
_cell_length_b 18.758987
_cell_length_c 5.610961
_cell_angle_alpha 90.000000
_cell_angle_beta 61.646103
_cell_angle_gamma 90.000000
_cell_volume 724.900867
_symmetry_space_group_name_H-M "P 2/C"
_symmetry_group_IT_number 13
_symmetry_cell_setting 'monoclinic'
loop_
_space_group_symop_operation_xyz
x,y,z
-x,y,1/2-z
-x,-y,-z
x,-y,1/2+z
loop_
_atom_site_type_symbol
_atom_site_label
_atom_site_fract_x
_atom_site_fract_y
_atom_site_fract_z
Si Si1 0.219055 0.473280 0.897655
Si Si2 0.500000 0.722803 0.750000
Si Si3 0.818428 0.320825 0.695534
Si Si4 0.727996 0.973536 0.860112
Si Si5 0.708132 0.189988 0.480599
O O1 0.301833 0.487676 0.576090
O O2 0.205063 0.388907 0.958284
O O3 0.000000 0.500000 0.000000
O O4 0.617192 0.680339 0.475557
O O5 0.337750 0.772605 0.738338
O O6 0.834520 0.245053 0.550841
O O7 0.000000 0.332114 0.750000
O O8 0.761645 0.891286 0.905251
O O9 0.803590 0.984847 0.542152
O O10 0.500000 0.000000 0.000000
O O11 0.500000 0.186881 0.750000
#
# Coordination Sequence:
#
# PCOD9226932 Si02
#       5
#     4   2   4   4   4
#     4  10  21  40  69  96 130 179 235 275 347 423
#     4  10  24  40  64  96 140 172 240 282 346 410
#     4  11  24  42  68  99 137 181 227 293 352 414
#     4  10  18  31  60  92 130 180 228 274 339 403
#     4  10  21  37  61  98 135 176 235 283 339 417
#
# _framework density 24.830981999999999
#
# number of rings (size 3 to 8) (size 9 to 14) (size 15 to 20)
#    0.000    1.778    4.444    1.333    6.222    0.889 
#    0.000    1.111    0.000    1.333    0.000    0.000 
#    0.000    0.000    0.000    0.000    0.000    0.000 
#
# Total GULP energy -100598.758408 kJ/mol
# GULP energy per Si atom -5588.819912 kJ/mol
# Density = 2.477447 g / cm^3
# Si number density = 24.830982 Si / 1000 Ang^3
#
#
#
# Elastic Constant Matrix: (Units=GPa)
#
#
# Indices 1 2 3 4 5 6 
#
# 1 104.2340 16.7862 18.7098 0.0000 4.0416 0.0000
# 2 16.7862 184.5377 26.4990 0.0000 10.5276 0.0000
# 3 18.7098 26.4990 115.9582 0.0000 30.5955 0.0000
# 4 0.0000 0.0000 0.0000 7.2395 0.0000 6.9406
# 5 4.0416 10.5276 30.5955 0.0000 38.1256 0.0000
# 6 0.0000 0.0000 0.0000 6.9406 0.0000 26.4702
#
#
#
# Elastic Compliance Matrix: (Units=1/GPa)
#
#
# Indices 1 2 3 4 5 6 
#
# 1 0.009971 -0.000706 -0.001548 0.000000 0.000380 0.000000
# 2 -0.000706 0.005666 -0.000999 0.000000 -0.000688 0.000000
# 3 -0.001548 -0.000999 0.011399 0.000000 -0.008708 0.000000
# 4 0.000000 0.000000 0.000000 0.184513 0.000000 -0.048380
# 5 0.000380 -0.000688 -0.008708 0.000000 0.033367 0.000000
# 6 0.000000 0.000000 0.000000 -0.048380 0.000000 0.050464
#
#
# Mechanical properties :
#
#
# Convention : Reuss Voigt Hill
#
# Bulk Modulus (GPa) = 48.71094 58.74666 53.72880
# Shear Modulus (GPa) = 16.19540 37.21607 26.70574
#
# Velocity S-wave (km/s) = 2.55664 3.87560 3.28304
# Velocity P-wave (km/s) = 5.32680 6.61340 6.00466
#
# Compressibility (1/GPa) = 0.02052927
#
# Stress axis : x y z
#
# Youngs Moduli (GPa) = 100.29471 176.49324 87.72328
#
# Poissons Ratio (x) = 0.12468 0.13576
# Poissons Ratio (y) = 0.07085 0.08767
# Poissons Ratio (z) = 0.15522 0.17638
#
# Static dielectric constant tensor:
#      x y z
#    x 1.960260 0.000000 -0.039860 
#    y 0.000000 1.916180 0.000000 
#    z -0.039860 0.000000 2.027150 
# 
# From -- ./inp_files/1489.got.cif
#   From: 2010.05.17/outbox.cif.g08.bks.cpg/sg13_1_cif.got.tgz:1489.got - 2010.06.03 16:44:36.
