data_PCOD9226204
_publ_section_title
;
Structure prediction by ZEFSAII (Michael W. Deem and Ramdas Pophale) SiO2 
 PCOD9226204
Probable space group: P 2/C
;
_chemical_formula_sum "Si O2"
_cell_formula_units_Z 20
_cell_length_a 11.526405
_cell_length_b 16.841184
_cell_length_c 5.404226
_cell_angle_alpha 90.000000
_cell_angle_beta 67.207781
_cell_angle_gamma 90.000000
_cell_volume 967.144223
_symmetry_space_group_name_H-M "P 2/C"
_symmetry_group_IT_number 13
_symmetry_cell_setting 'monoclinic'
loop_
_space_group_symop_operation_xyz
x,y,z
-x,y,1/2-z
-x,-y,-z
x,-y,1/2+z
loop_
_atom_site_type_symbol
_atom_site_label
_atom_site_fract_x
_atom_site_fract_y
_atom_site_fract_z
Si Si1 0.348367 0.537848 0.841508
Si Si2 0.347082 0.049612 0.713635
Si Si3 0.654140 0.286323 0.349882
Si Si4 0.374133 0.776465 0.120616
Si Si5 0.052757 0.090360 0.956299
O O1 0.500000 0.530987 0.750000
O O2 0.303565 0.478135 0.659956
O O3 0.319669 0.624058 0.751583
O O4 0.415940 0.132862 0.615798
O O5 0.201709 0.078524 0.832408
O O6 0.368602 0.992850 0.459454
O O7 0.699112 0.255354 0.578805
O O8 0.502047 0.275147 0.496524
O O9 0.694625 0.232830 0.084099
O O10 0.000000 0.128450 0.750000
O O11 0.000000 0.128453 0.250000
O O12 0.000000 0.000000 0.000000
#
# Coordination Sequence:
#
# PCOD9226204 Si02
#       5
#     4   4   4   4   4
#     4  10  18  26  48  72  83 109 156 193 211 252
#     4  12  21  33  48  68  86 107 162 202 220 277
#     4  10  19  37  44  60  97 124 156 178 223 276
#     4  10  21  32  47  60  84 129 151 188 233 262
#     4  10  16  30  49  68  85 104 125 189 247 277
#
# _framework density 20.679437
#
# number of rings (size 3 to 8) (size 9 to 14) (size 15 to 20)
#    0.000    1.600    6.000    2.400    5.600    0.000 
#    0.000   12.000    0.000    0.000    0.000    0.000 
#    0.000    0.000    0.000    0.000    0.000  116.000 
#
# Total GULP energy -111532.504204 kJ/mol
# GULP energy per Si atom -5576.625210 kJ/mol
# Density = 2.063237 g / cm^3
# Si number density = 20.679437 Si / 1000 Ang^3
#
#
#
# Elastic Constant Matrix: (Units=GPa)
#
#
# Indices 1 2 3 4 5 6 
#
# 1 32.2946 2.9840 30.9790 0.0000 11.9451 0.0000
# 2 2.9840 102.1392 42.8809 0.0000 22.9561 0.0000
# 3 30.9790 42.8809 180.3790 0.0000 66.3616 0.0000
# 4 0.0000 0.0000 0.0000 24.5044 0.0000 9.1022
# 5 11.9451 22.9561 66.3616 0.0000 44.4631 0.0000
# 6 0.0000 0.0000 0.0000 9.1022 0.0000 3.3482
#
#
#
# Elastic Compliance Matrix: (Units=1/GPa)
#
#
# Indices 1 2 3 4 5 6 
#
# 1 0.037418 0.001916 -0.006253 0.000000 -0.001709 0.000000
# 2 0.001916 0.011287 -0.001506 0.000000 -0.004095 0.000000
# 3 -0.006253 -0.001506 0.013466 0.000000 -0.017640 0.000000
# 4 0.000000 0.000000 0.000000 -4.159763 0.000000 11.308585
# 5 -0.001709 -0.004095 -0.017640 0.000000 0.051392 0.000000
# 6 0.000000 0.000000 0.000000 11.308585 0.000000-30.444450
#
#
# Mechanical properties :
#
#
# Convention : Reuss Voigt Hill
#
# Bulk Modulus (GPa) = 19.80778 52.05563 35.93171
# Shear Modulus (GPa) = -0.14509 30.32774 15.09132
#
# Velocity S-wave (km/s) = -0.26516 3.83373 2.70436
# Velocity P-wave (km/s) = 3.08311 6.69507 5.21198
#
# Compressibility (1/GPa) = 0.05048520
#
# Stress axis : x y z
#
# Youngs Moduli (GPa) = 26.72483 88.59681 74.26268
#
# Poissons Ratio (x) = -0.16977 0.46438
# Poissons Ratio (y) = -0.05121 0.11183
# Poissons Ratio (z) = 0.16712 0.13342
#
# Static dielectric constant tensor:
#      x y z
#    x 1.905750 0.000000 0.057870 
#    y 0.000000 1.714160 0.000000 
#    z 0.057870 0.000000 1.805450 
# 
# From -- ./inp_files/5060.got.cif
#   From: 2010.05.17/outbox.cif.g08.bks.cpg/sg13_3_cif.got.tgz:5060.got - 2010.06.03 16:44:36.
