data_PCOD9226830
_publ_section_title
;
Structure prediction by ZEFSAII (Michael W. Deem and Ramdas Pophale) SiO2 
 PCOD9226830
Probable space group: P 2/C
;
_chemical_formula_sum "Si O2"
_cell_formula_units_Z 26
_cell_length_a 8.933022
_cell_length_b 8.076774
_cell_length_c 14.705005
_cell_angle_alpha 90.000000
_cell_angle_beta 60.062031
_cell_angle_gamma 90.000000
_cell_volume 919.397389
_symmetry_space_group_name_H-M "P 2/C"
_symmetry_group_IT_number 13
_symmetry_cell_setting 'monoclinic'
loop_
_space_group_symop_operation_xyz
x,y,z
-x,y,1/2-z
-x,-y,-z
x,-y,1/2+z
loop_
_atom_site_type_symbol
_atom_site_label
_atom_site_fract_x
_atom_site_fract_y
_atom_site_fract_z
Si Si1 0.544828 0.849629 0.394297
Si Si2 0.633841 0.489499 0.336360
Si Si3 0.735181 0.533388 0.512502
Si Si4 0.500000 0.885316 0.750000
Si Si5 0.209037 0.025620 0.058245
Si Si6 0.852843 0.049869 0.134039
Si Si7 0.883517 0.340397 0.629399
O O1 0.555004 0.673424 0.346582
O O2 0.499748 0.990279 0.336177
O O3 0.378311 0.860677 0.509709
O O4 0.721241 0.885175 0.395173
O O5 0.689589 0.481396 0.423992
O O6 0.446995 0.390296 0.389005
O O7 0.802020 0.521313 0.222050
O O8 0.799021 0.387030 0.558815
O O9 0.911570 0.638189 0.446833
O O10 0.304399 0.825615 0.795178
O O11 0.161212 0.961388 0.971392
O O12 0.025230 0.107892 0.132707
O O13 0.839692 0.852665 0.165316
#
# Coordination Sequence:
#
# PCOD9226830 Si02
#       7
#     4   4   4   2   4   4   4
#     4  10  19  35  57  89 114 147 194 245 305 341
#     4  11  21  38  62  91 119 157 206 259 292 360
#     4  10  23  34  55 100 116 154 203 253 322 343
#     4  10  18  30  54  84 106 140 184 238 286 346
#     4   9  20  32  52  90 117 147 175 246 301 357
#     4  10  19  35  57  89 114 147 194 245 305 341
#     4  11  21  38  62  91 119 157 206 259 292 360
#
# _framework density 28.279391
#
# number of rings (size 3 to 8) (size 9 to 14) (size 15 to 20)
#    0.000    1.846    1.538    3.692    0.000    0.615 
#    0.000    0.000    0.000    0.000  504.000    0.000 
#    0.000    0.000    0.000    0.000    0.000    0.000 
#
# Total GULP energy -145006.587982 kJ/mol
# GULP energy per Si atom -5577.176461 kJ/mol
# Density = 2.821503 g / cm^3
# Si number density = 28.279391 Si / 1000 Ang^3
#
#
#
# Elastic Constant Matrix: (Units=GPa)
#
#
# Indices 1 2 3 4 5 6 
#
# 1 224.5825 -10.7661 30.5891 0.0000 -30.5070 0.0000
# 2 -10.7661 49.2283 -0.4375 0.0000 -5.0295 0.0000
# 3 30.5891 -0.4375 91.9590 0.0000 -8.9608 0.0000
# 4 0.0000 0.0000 0.0000 7.5584 0.0000 -0.9179
# 5 -30.5070 -5.0295 -8.9608 0.0000 51.7160 0.0000
# 6 0.0000 0.0000 0.0000 -0.9179 0.0000 47.7491
#
#
#
# Elastic Compliance Matrix: (Units=1/GPa)
#
#
# Indices 1 2 3 4 5 6 
#
# 1 0.005106 0.001401 -0.001409 0.000000 0.002904 0.000000
# 2 0.001401 0.020910 -0.000089 0.000000 0.002844 0.000000
# 3 -0.001409 -0.000089 0.011454 0.000000 0.001145 0.000000
# 4 0.000000 0.000000 0.000000 0.132612 0.000000 0.002549
# 5 0.002904 0.002844 0.001145 0.000000 0.021525 0.000000
# 6 0.000000 0.000000 0.000000 0.002549 0.000000 0.020992
#
#
# Mechanical properties :
#
#
# Convention : Reuss Voigt Hill
#
# Bulk Modulus (GPa) = 26.82722 44.94900 35.88811
# Shear Modulus (GPa) = 22.20064 44.49700 33.34882
#
# Velocity S-wave (km/s) = 2.80491 3.97101 3.43776
# Velocity P-wave (km/s) = 4.47181 6.07901 5.33627
#
# Compressibility (1/GPa) = 0.03727557
#
# Stress axis : x y z
#
# Youngs Moduli (GPa) = 195.83741 47.82468 87.30428
#
# Poissons Ratio (x) = -0.06700 0.12300
# Poissons Ratio (y) = -0.27435 0.00780
# Poissons Ratio (z) = 0.27591 0.00427
#
# Static dielectric constant tensor:
#      x y z
#    x 2.233220 0.000000 -0.282300 
#    y 0.000000 2.377010 0.000000 
#    z -0.282300 0.000000 2.561990 
# 
# From -- ./inp_files/46792.got.cif
#   From: 2010.05.17/outbox.cif.g08.bks.cpg/sg13_24_cif.got.tgz:46792.got - 2010.06.03 16:44:36.
