data_PCOD9226968
_publ_section_title
;
Structure prediction by ZEFSAII (Michael W. Deem and Ramdas Pophale) SiO2 
 PCOD9226968
Probable space group: P 2/C
;
_chemical_formula_sum "Si O2"
_cell_formula_units_Z 28
_cell_length_a 18.247530
_cell_length_b 11.874024
_cell_length_c 21.956034
_cell_angle_alpha 90.000000
_cell_angle_beta 17.267712
_cell_angle_gamma 90.000000
_cell_volume 1412.126581
_symmetry_space_group_name_H-M "P 2/C"
_symmetry_group_IT_number 13
_symmetry_cell_setting 'monoclinic'
loop_
_space_group_symop_operation_xyz
x,y,z
-x,y,1/2-z
-x,-y,-z
x,-y,1/2+z
loop_
_atom_site_type_symbol
_atom_site_label
_atom_site_fract_x
_atom_site_fract_y
_atom_site_fract_z
Si Si1 0.434829 0.636752 0.632124
Si Si2 0.113623 0.266777 0.081768
Si Si3 0.320088 0.909611 0.571840
Si Si4 0.786726 0.466838 0.311294
Si Si5 0.393555 0.763529 0.236685
Si Si6 0.305739 0.155995 0.619466
Si Si7 0.057969 0.671645 0.398889
O O1 0.609829 0.527844 0.500419
O O2 0.349960 0.614634 0.629131
O O3 0.597879 0.749046 0.503157
O O4 0.199753 0.651743 0.861845
O O5 0.909510 0.172357 0.257891
O O6 0.988708 0.388215 0.180152
O O7 0.351422 0.275795 0.935751
O O8 0.204367 0.233491 0.942161
O O9 0.528275 0.882157 0.355885
O O10 0.459645 0.873543 0.523306
O O11 0.238010 0.038342 0.642408
O O12 0.894571 0.565811 0.182764
O O13 0.269156 0.687461 0.283046
O O14 0.096405 0.216381 0.827003
#
# Coordination Sequence:
#
# PCOD9226968 Si02
#       7
#     4   4   4   4   4   4   4
#     4  10  18  32  52  81 114 144 178 236 280 320
#     4  11  21  36  52  84 114 146 185 233 281 344
#     4  10  19  35  51  76 109 138 175 229 277 330
#     4  10  20  31  54  82 117 145 185 230 280 331
#     4  10  22  34  54  81 112 147 187 224 293 339
#     4   9  19  32  53  79 104 135 183 227 276 329
#     4  10  19  34  55  85 109 147 185 236 279 332
#
# _framework density 19.828250000000001
#
# number of rings (size 3 to 8) (size 9 to 14) (size 15 to 20)
#    0.000    2.000    2.857    0.857    2.000    1.143 
#    0.000    4.286    0.000    0.000   14.857    8.000 
#    0.000    0.000    0.000    0.000    0.000    0.000 
#
# Total GULP energy -156144.993894 kJ/mol
# GULP energy per Si atom -5576.606925 kJ/mol
# Density = 1.978312 g / cm^3
# Si number density = 19.828250 Si / 1000 Ang^3
#
#
#
# Elastic Constant Matrix: (Units=GPa)
#
#
# Indices 1 2 3 4 5 6 
#
# 1 40.7867 32.7908 27.6518 0.0000 8.0681 0.0000
# 2 32.7908 148.1054 77.4467 0.0000 20.0323 0.0000
# 3 27.6518 77.4467 146.0880 0.0000 26.2862 0.0000
# 4 0.0000 0.0000 0.0000 19.2258 0.0000 4.0528
# 5 8.0681 20.0323 26.2862 0.0000 23.6034 0.0000
# 6 0.0000 0.0000 0.0000 4.0528 0.0000 9.2923
#
#
#
# Elastic Compliance Matrix: (Units=1/GPa)
#
#
# Indices 1 2 3 4 5 6 
#
# 1 0.031005 -0.005055 -0.002568 0.000000 -0.003447 0.000000
# 2 -0.005055 0.010341 -0.004073 0.000000 -0.002512 0.000000
# 3 -0.002568 -0.004073 0.010894 0.000000 -0.007797 0.000000
# 4 0.000000 0.000000 0.000000 0.057280 0.000000 -0.024982
# 5 -0.003447 -0.002512 -0.007797 0.000000 0.054361 0.000000
# 6 0.000000 0.000000 0.000000 -0.024982 0.000000 0.118512
#
#
# Mechanical properties :
#
#
# Convention : Reuss Voigt Hill
#
# Bulk Modulus (GPa) = 34.66685 67.86207 51.26446
# Shear Modulus (GPa) = 15.85282 23.56368 19.70825
#
# Velocity S-wave (km/s) = 2.83062 3.45104 3.15611
# Velocity P-wave (km/s) = 5.31082 7.08370 6.26033
#
# Compressibility (1/GPa) = 0.02884600
#
# Stress axis : x y z
#
# Youngs Moduli (GPa) = 32.25265 96.70309 91.79655
#
# Poissons Ratio (x) = 0.48886 0.23577
# Poissons Ratio (y) = 0.16304 0.37391
# Poissons Ratio (z) = 0.08284 0.39389
#
# Static dielectric constant tensor:
#      x y z
#    x 1.725640 0.000000 0.014370 
#    y 0.000000 1.704850 0.000000 
#    z 0.014370 0.000000 1.735790 
# 
# From -- ./inp_files/81039.got.cif
#   From: 2010.05.17/outbox.cif.g08.bks.cpg/sg13_41_cif.got.tgz:81039.got - 2010.06.03 16:44:36.
