data_PCOD9226303
_publ_section_title
;
Structure prediction by ZEFSAII (Michael W. Deem and Ramdas Pophale) SiO2 
 PCOD9226303
Probable space group: P 2/C
;
_chemical_formula_sum "Si O2"
_cell_formula_units_Z 30
_cell_length_a 19.301865
_cell_length_b 10.912526
_cell_length_c 14.957435
_cell_angle_alpha 90.000000
_cell_angle_beta 153.004575
_cell_angle_gamma 90.000000
_cell_volume 1430.080182
_symmetry_space_group_name_H-M "P 2/C"
_symmetry_group_IT_number 13
_symmetry_cell_setting 'monoclinic'
loop_
_space_group_symop_operation_xyz
x,y,z
-x,y,1/2-z
-x,-y,-z
x,-y,1/2+z
loop_
_atom_site_type_symbol
_atom_site_label
_atom_site_fract_x
_atom_site_fract_y
_atom_site_fract_z
Si Si1 0.217336 0.168272 0.665396
Si Si2 0.337931 0.978970 0.921508
Si Si3 0.862726 0.445017 0.528945
Si Si4 0.187541 0.765338 0.639529
Si Si5 0.500000 0.845681 0.250000
Si Si6 0.776314 0.302526 0.013726
Si Si7 0.007997 0.644048 0.582846
Si Si8 0.972401 0.027890 0.825217
O O1 0.243920 0.217466 0.596597
O O2 0.142253 0.286526 0.624508
O O3 0.345985 0.100750 0.870151
O O4 0.081288 0.069255 0.500667
O O5 0.296096 0.868208 0.805944
O O6 0.197476 0.003404 0.831226
O O7 0.481373 0.936086 0.144144
O O8 0.764747 0.330763 0.382135
O O9 0.774050 0.556855 0.475840
O O10 0.000000 0.401473 0.750000
O O11 0.954214 0.511299 0.552198
O O12 0.138517 0.678142 0.664634
O O13 0.042313 0.841300 0.434330
O O14 0.358216 0.753016 0.081818
O O15 0.927054 0.297747 0.249082
O O16 0.000000 0.013009 0.750000
#
# Coordination Sequence:
#
# PCOD9226303 Si02
#       8
#     4   4   4   4   2   4   4   4
#     4  10  17  33  54  83 108 136 182 232 282 327
#     4  11  22  34  55  81 113 149 192 224 274 334
#     4   9  20  33  54  86 108 138 174 231 295 338
#     4  11  18  33  53  87 112 135 174 231 290 341
#     4  12  22  38  54  74 110 166 202 230 258 322
#     4  10  21  35  57  79 112 149 193 225 268 334
#     4  10  16  33  57  82 114 139 174 229 288 338
#     4  11  19  31  54  83 116 143 166 227 289 343
#
# _framework density 20.977843
#
# number of rings (size 3 to 8) (size 9 to 14) (size 15 to 20)
#    0.000    1.600    4.000    4.400    0.000    0.533 
#    0.000    0.667    0.000    0.000    0.000   17.733 
#    0.000    0.000    0.000    0.000    0.000    0.000 
#
# Total GULP energy -167039.146148 kJ/mol
# GULP energy per Si atom -5567.971538 kJ/mol
# Density = 2.093010 g / cm^3
# Si number density = 20.977843 Si / 1000 Ang^3
#
#
#
# Elastic Constant Matrix: (Units=GPa)
#
#
# Indices 1 2 3 4 5 6 
#
# 1 31.9631 12.9834 5.8486 0.0000 -15.6929 0.0000
# 2 12.9834 87.7181 45.2092 0.0000 -22.4301 0.0000
# 3 5.8486 45.2092 80.4986 0.0000 -18.8492 0.0000
# 4 0.0000 0.0000 0.0000 22.3538 0.0000 -10.1239
# 5 -15.6929 -22.4301 -18.8492 0.0000 22.6275 0.0000
# 6 0.0000 0.0000 0.0000 -10.1239 0.0000 17.2469
#
#
#
# Elastic Compliance Matrix: (Units=1/GPa)
#
#
# Indices 1 2 3 4 5 6 
#
# 1 0.049330 -0.000347 0.005642 0.000000 0.038568 0.000000
# 2 -0.000347 0.018309 -0.007533 0.000000 0.011633 0.000000
# 3 0.005642 -0.007533 0.019146 0.000000 0.012394 0.000000
# 4 0.000000 0.000000 0.000000 0.060935 0.000000 0.035769
# 5 0.038568 0.011633 0.012394 0.000000 0.092798 0.000000
# 6 0.000000 0.000000 0.000000 0.035769 0.000000 0.078978
#
#
# Mechanical properties :
#
#
# Convention : Reuss Voigt Hill
#
# Bulk Modulus (GPa) = 12.14960 36.47358 24.31159
# Shear Modulus (GPa) = 14.22846 21.52153 17.87499
#
# Velocity S-wave (km/s) = 2.60717 3.20647 2.92222
# Velocity P-wave (km/s) = 3.85582 5.57970 4.79585
#
# Compressibility (1/GPa) = 0.08230722
#
# Stress axis : x y z
#
# Youngs Moduli (GPa) = 20.27150 54.61860 52.23131
#
# Poissons Ratio (x) = 0.01896 -0.29468
# Poissons Ratio (y) = 0.00704 0.39348
# Poissons Ratio (z) = -0.11437 0.41146
#
# Static dielectric constant tensor:
#      x y z
#    x 1.884680 0.000000 -0.019740 
#    y 0.000000 1.786820 0.000000 
#    z -0.019740 0.000000 1.752710 
# 
# From -- ./inp_files/57634.got.cif
#   From: 2010.05.17/outbox.cif.g08.bks.cpg/sg13_29_cif.got.tgz:57634.got - 2010.06.03 16:44:36.
