data_PCOD9226282
_publ_section_title
;
Structure prediction by ZEFSAII (Michael W. Deem and Ramdas Pophale) SiO2 
 PCOD9226282
Probable space group: P 2/C
;
_chemical_formula_sum "Si O2"
_cell_formula_units_Z 26
_cell_length_a 7.565151
_cell_length_b 14.437941
_cell_length_c 17.839062
_cell_angle_alpha 90.000000
_cell_angle_beta 37.497533
_cell_angle_gamma 90.000000
_cell_volume 1186.089976
_symmetry_space_group_name_H-M "P 2/C"
_symmetry_group_IT_number 13
_symmetry_cell_setting 'monoclinic'
loop_
_space_group_symop_operation_xyz
x,y,z
-x,y,1/2-z
-x,-y,-z
x,-y,1/2+z
loop_
_atom_site_type_symbol
_atom_site_label
_atom_site_fract_x
_atom_site_fract_y
_atom_site_fract_z
Si Si1 0.757841 0.219499 0.396094
Si Si2 0.457365 0.539219 0.637082
Si Si3 0.828304 0.871654 0.116599
Si Si4 0.250494 0.726006 0.964117
Si Si5 0.500000 0.145857 0.250000
Si Si6 0.076362 0.047221 0.080340
Si Si7 0.870076 0.588163 0.910906
O O1 0.450460 0.252296 0.468566
O O2 0.871699 0.299303 0.415056
O O3 0.000000 0.224541 0.250000
O O4 0.740349 0.113340 0.427902
O O5 0.685403 0.621030 0.577632
O O6 0.292868 0.564160 0.613605
O O7 0.664212 0.452909 0.545525
O O8 0.194376 0.545062 0.786972
O O9 0.500000 0.878853 0.250000
O O10 0.048521 0.936989 0.090467
O O11 0.933734 0.766166 0.084085
O O12 0.843463 0.917133 0.029325
O O13 0.371849 0.790378 0.857350
O O14 0.747205 0.082788 0.202548
#
# Coordination Sequence:
#
# PCOD9226282 Si02
#       7
#     4   4   4   4   2   4   4
#     4  11  18  34  58  93 115 140 196 249 279 333
#     4   9  16  31  52  83 112 150 185 234 283 351
#     4  10  22  40  56  80 116 157 195 228 289 358
#     4  10  20  34  59  85 114 151 195 238 288 340
#     4  10  16  32  58  82 104 158 196 224 272 356
#     4  10  20  34  61  81 109 151 195 235 283 345
#     4   9  16  30  54  83 117 146 185 232 291 344
#
# _framework density 21.920766
#
# number of rings (size 3 to 8) (size 9 to 14) (size 15 to 20)
#    0.000    2.154    5.385    0.000    0.000    0.615 
#    2.769    0.769    0.000    8.308    2.000    0.000 
#    0.000    0.000    0.000    0.000    0.000    0.000 
#
# Total GULP energy -144927.612641 kJ/mol
# GULP energy per Si atom -5574.138948 kJ/mol
# Density = 2.187087 g / cm^3
# Si number density = 21.920766 Si / 1000 Ang^3
#
#
#
# Elastic Constant Matrix: (Units=GPa)
#
#
# Indices 1 2 3 4 5 6 
#
# 1 21.9137 11.0708 17.4415 0.0000 -8.8419 0.0000
# 2 11.0708 76.7732 47.4952 0.0000 -2.7797 0.0000
# 3 17.4415 47.4952 90.7594 0.0000 -14.5804 0.0000
# 4 0.0000 0.0000 0.0000 -3.6788 0.0000 -9.6545
# 5 -8.8419 -2.7797 -14.5804 0.0000 13.5129 0.0000
# 6 0.0000 0.0000 0.0000 -9.6545 0.0000 27.5643
#
#
#
# Elastic Compliance Matrix: (Units=1/GPa)
#
#
# Indices 1 2 3 4 5 6 
#
# 1 0.067215 -0.006161 -0.003424 0.000000 0.039019 0.000000
# 2 -0.006161 0.020640 -0.011592 0.000000 -0.012293 0.000000
# 3 -0.003424 -0.011592 0.020564 0.000000 0.017563 0.000000
# 4 0.000000 0.000000 0.000000 -0.141636 0.000000 -0.049608
# 5 0.039019 -0.012293 0.017563 0.000000 0.115956 0.000000
# 6 0.000000 0.000000 0.000000 -0.049608 0.000000 0.018903
#
#
# Mechanical properties :
#
#
# Convention : Reuss Voigt Hill
#
# Bulk Modulus (GPa) = 15.13688 37.94017 26.53852
# Shear Modulus (GPa) = 30.11694 15.04226 22.57960
#
# Velocity S-wave (km/s) = 3.71064 2.62240 3.21293
# Velocity P-wave (km/s) = 5.02779 5.14925 5.08888
#
# Compressibility (1/GPa) = 0.06606381
#
# Stress axis : x y z
#
# Youngs Moduli (GPa) = 14.87756 48.44945 48.62874
#
# Poissons Ratio (x) = 0.29851 0.16653
# Poissons Ratio (y) = 0.09167 0.56371
# Poissons Ratio (z) = 0.05095 0.56163
#
# Static dielectric constant tensor:
#      x y z
#    x 1.885360 0.000000 0.005310 
#    y 0.000000 1.861620 0.000000 
#    z 0.005310 0.000000 1.785400 
# 
# From -- ./inp_files/76593.got.cif
#   From: 2010.05.17/outbox.cif.g08.bks.cpg/sg13_39_cif.got.tgz:76593.got - 2010.06.03 16:44:36.
