data_PCOD9226767
_publ_section_title
;
Structure prediction by ZEFSAII (Michael W. Deem and Ramdas Pophale) SiO2 
 PCOD9226767
Probable space group: P 2/C
;
_chemical_formula_sum "Si O2"
_cell_formula_units_Z 28
_cell_length_a 24.023296
_cell_length_b 6.861839
_cell_length_c 23.997114
_cell_angle_alpha 90.000000
_cell_angle_beta 18.101315
_cell_angle_gamma 90.000000
_cell_volume 1229.053905
_symmetry_space_group_name_H-M "P 2/C"
_symmetry_group_IT_number 13
_symmetry_cell_setting 'monoclinic'
loop_
_space_group_symop_operation_xyz
x,y,z
-x,y,1/2-z
-x,-y,-z
x,-y,1/2+z
loop_
_atom_site_type_symbol
_atom_site_label
_atom_site_fract_x
_atom_site_fract_y
_atom_site_fract_z
Si Si1 0.377674 0.277302 0.098924
Si Si2 0.500000 0.885132 0.750000
Si Si3 0.745598 0.126283 0.923704
Si Si4 0.482639 0.555370 0.920916
Si Si5 0.013150 0.884393 0.077863
Si Si6 0.000000 0.423120 0.750000
Si Si7 0.228725 0.104926 0.787001
Si Si8 0.250343 0.418221 0.420453
O O1 0.334458 0.412193 0.087652
O O2 0.574984 0.192996 0.896128
O O3 0.401540 0.388872 0.134780
O O4 0.251728 0.099724 0.232391
O O5 0.626252 0.986691 0.583330
O O6 0.630919 0.740674 0.659230
O O7 0.883076 0.030922 0.749738
O O8 0.866776 0.283115 0.841840
O O9 0.608876 0.250210 0.015440
O O10 0.608949 0.469746 0.752541
O O11 0.901469 0.789517 0.132601
O O12 0.127972 0.713014 0.996526
O O13 0.140159 0.047637 0.929469
O O14 0.125790 0.526233 0.584314
#
# Coordination Sequence:
#
# PCOD9226767 Si02
#       8
#     4   2   4   4   4   2   4   4
#     4  10  20  33  49  70 102 144 174 198 231 311
#     4   8  16  26  50  76  98 118 172 202 272 278
#     4   9  16  30  49  78 100 128 156 223 248 302
#     4  10  18  32  50  75 103 126 171 209 247 282
#     4  10  18  30  49  71 105 132 163 202 255 293
#     4   8  16  28  48  78 102 120 164 206 282 280
#     4  10  20  34  48  72 102 150 168 194 242 314
#     4   9  16  30  49  78 100 128 156 223 248 302
#
# _framework density 22.781752000000001
#
# number of rings (size 3 to 8) (size 9 to 14) (size 15 to 20)
#    0.000    2.571    2.857    0.000    0.000    0.000 
#    0.000    7.143    0.000    0.000    0.000  100.000 
#    0.000    0.000    0.000    0.000    0.000    0.000 
#
# Total GULP energy -156008.044291 kJ/mol
# GULP energy per Si atom -5571.715868 kJ/mol
# Density = 2.272990 g / cm^3
# Si number density = 22.781752 Si / 1000 Ang^3
#
#
#
# Elastic Constant Matrix: (Units=GPa)
#
#
# Indices 1 2 3 4 5 6 
#
# 1 87.5000 9.1422 38.2086 0.0000 29.1201 0.0000
# 2 9.1422 21.6470 10.6501 0.0000 14.2914 0.0000
# 3 38.2086 10.6501 139.4334 0.0000 59.5699 0.0000
# 4 0.0000 0.0000 0.0000 12.6990 0.0000 7.4049
# 5 29.1201 14.2914 59.5699 0.0000 59.8533 0.0000
# 6 0.0000 0.0000 0.0000 7.4049 0.0000 11.6637
#
#
#
# Elastic Compliance Matrix: (Units=1/GPa)
#
#
# Indices 1 2 3 4 5 6 
#
# 1 0.013909 -0.002001 -0.001690 0.000000 -0.004607 0.000000
# 2 -0.002001 0.055612 0.002710 0.000000 -0.015003 0.000000
# 3 -0.001690 0.002710 0.012793 0.000000 -0.012557 0.000000
# 4 0.000000 0.000000 0.000000 0.125035 0.000000 -0.079381
# 5 -0.004607 -0.015003 -0.012557 0.000000 0.035028 0.000000
# 6 0.000000 0.000000 0.000000 -0.079381 0.000000 0.136133
#
#
# Mechanical properties :
#
#
# Convention : Reuss Voigt Hill
#
# Bulk Modulus (GPa) = 12.44534 40.50912 26.47723
# Shear Modulus (GPa) = 12.27728 29.54848 20.91288
#
# Velocity S-wave (km/s) = 2.32396 3.60533 3.03308
# Velocity P-wave (km/s) = 3.56030 5.92884 4.89014
#
# Compressibility (1/GPa) = 0.08035133
#
# Stress axis : x y z
#
# Youngs Moduli (GPa) = 71.89609 17.98162 78.16923
#
# Poissons Ratio (x) = 0.03598 0.13214
# Poissons Ratio (y) = 0.14387 -0.21185
# Poissons Ratio (z) = 0.12154 -0.04873
#
# Static dielectric constant tensor:
#      x y z
#    x 1.876320 0.000000 0.024980 
#    y 0.000000 1.857590 0.000000 
#    z 0.024980 0.000000 1.940410 
# 
# From -- ./inp_files/84567.got.cif
#   From: 2010.05.17/outbox.cif.g08.bks.cpg/sg13_43_cif.got.tgz:84567.got - 2010.06.03 16:44:36.
