data_PCOD9226463
_publ_section_title
;
Structure prediction by ZEFSAII (Michael W. Deem and Ramdas Pophale) SiO2 
 PCOD9226463
Probable space group: P 2/C
;
_chemical_formula_sum "Si O2"
_cell_formula_units_Z 20
_cell_length_a 17.175625
_cell_length_b 9.182533
_cell_length_c 5.645679
_cell_angle_alpha 90.000000
_cell_angle_beta 72.462994
_cell_angle_gamma 90.000000
_cell_volume 849.028345
_symmetry_space_group_name_H-M "P 2/C"
_symmetry_group_IT_number 13
_symmetry_cell_setting 'monoclinic'
loop_
_space_group_symop_operation_xyz
x,y,z
-x,y,1/2-z
-x,-y,-z
x,-y,1/2+z
loop_
_atom_site_type_symbol
_atom_site_label
_atom_site_fract_x
_atom_site_fract_y
_atom_site_fract_z
Si Si1 0.634985 0.496417 0.759572
Si Si2 0.239998 0.155483 0.571074
Si Si3 0.000000 0.907525 0.750000
Si Si4 0.179213 0.823257 0.626474
Si Si5 0.500000 0.261440 0.750000
Si Si6 0.414567 0.828199 0.715918
O O1 0.680993 0.499835 0.467064
O O2 0.564730 0.372217 0.818455
O O3 0.590766 0.651925 0.795082
O O4 0.206803 0.232143 0.360960
O O5 0.334231 0.126240 0.423662
O O6 0.197249 0.997660 0.626617
O O7 0.225731 0.225948 0.843201
O O8 0.082583 0.813538 0.677910
O O9 0.000000 0.000000 0.500000
O O10 0.566979 0.149418 0.576746
O O11 0.500000 0.863001 0.750000
#
# Coordination Sequence:
#
# PCOD9226463 Si02
#       6
#     4   4   2   4   2   4
#     4  10  17  30  47  65  90 112 168 212 246 279
#     4  10  21  32  50  66 106 123 163 204 242 272
#     4  12  16  32  64  78  88 124 162 180 250 330
#     4  10  20  38  48  76  96 129 149 201 248 284
#     4  10  18  32  46  68  90 120 180 212 248 274
#     4  11  20  31  47  69  90 139 175 199 245 280
#
# _framework density 23.556339999999999
#
# number of rings (size 3 to 8) (size 9 to 14) (size 15 to 20)
#    0.000    1.600    7.000    1.200    2.800    0.000 
#    0.000    4.000    0.000    0.000    0.000    0.000 
#    0.000    0.000    0.000  122.400    0.000    0.000 
#
# Total GULP energy -111350.645105 kJ/mol
# GULP energy per Si atom -5567.532255 kJ/mol
# Density = 2.350272 g / cm^3
# Si number density = 23.556340 Si / 1000 Ang^3
#
#
#
# Elastic Constant Matrix: (Units=GPa)
#
#
# Indices 1 2 3 4 5 6 
#
# 1 114.5665 8.3595 43.5011 0.0000 -2.6716 0.0000
# 2 8.3595 43.8662 4.6358 0.0000 -2.4027 0.0000
# 3 43.5011 4.6358 186.9128 0.0000 32.2774 0.0000
# 4 0.0000 0.0000 0.0000 53.3694 0.0000 26.5713
# 5 -2.6716 -2.4027 32.2774 0.0000 61.9492 0.0000
# 6 0.0000 0.0000 0.0000 26.5713 0.0000 24.8776
#
#
#
# Elastic Compliance Matrix: (Units=1/GPa)
#
#
# Indices 1 2 3 4 5 6 
#
# 1 0.009845 -0.001514 -0.002546 0.000000 0.001692 0.000000
# 2 -0.001514 0.023185 -0.000403 0.000000 0.001044 0.000000
# 3 -0.002546 -0.000403 0.006565 0.000000 -0.003546 0.000000
# 4 0.000000 0.000000 0.000000 0.040017 0.000000 -0.042742
# 5 0.001692 0.001044 -0.003546 0.000000 0.018103 0.000000
# 6 0.000000 0.000000 0.000000 -0.042742 0.000000 0.085848
#
#
# Mechanical properties :
#
#
# Convention : Reuss Voigt Hill
#
# Bulk Modulus (GPa) = 32.60663 50.92648 41.76656
# Shear Modulus (GPa) = 24.66536 47.29585 35.98060
#
# Velocity S-wave (km/s) = 3.23937 4.48568 3.91247
# Velocity P-wave (km/s) = 5.27858 6.96379 6.17891
#
# Compressibility (1/GPa) = 0.03066861
#
# Stress axis : x y z
#
# Youngs Moduli (GPa) = 101.57177 43.13145 152.32360
#
# Poissons Ratio (x) = 0.06532 0.38782
# Poissons Ratio (y) = 0.15382 0.06136
# Poissons Ratio (z) = 0.25860 0.01737
#
# Static dielectric constant tensor:
#      x y z
#    x 1.887830 0.000000 0.149580 
#    y 0.000000 1.946390 0.000000 
#    z 0.149580 0.000000 2.812840 
# 
# From -- ./inp_files/3313.got.cif
#   From: 2010.05.17/outbox.cif.g08.bks.cpg/sg13_2_cif.got.tgz:3313.got - 2010.06.03 16:44:36.
