data_PCOD9226738
_publ_section_title
;
Structure prediction by ZEFSAII (Michael W. Deem and Ramdas Pophale) SiO2 
 PCOD9226738
Probable space group: P 2/C
;
_chemical_formula_sum "Si O2"
_cell_formula_units_Z 28
_cell_length_a 14.749530
_cell_length_b 13.501526
_cell_length_c 5.707297
_cell_angle_alpha 90.000000
_cell_angle_beta 67.897136
_cell_angle_gamma 90.000000
_cell_volume 1053.031931
_symmetry_space_group_name_H-M "P 2/C"
_symmetry_group_IT_number 13
_symmetry_cell_setting 'monoclinic'
loop_
_space_group_symop_operation_xyz
x,y,z
-x,y,1/2-z
-x,-y,-z
x,-y,1/2+z
loop_
_atom_site_type_symbol
_atom_site_label
_atom_site_fract_x
_atom_site_fract_y
_atom_site_fract_z
Si Si1 0.335667 0.297491 0.850319
Si Si2 0.873097 0.609157 0.995792
Si Si3 0.616515 0.054965 0.146775
Si Si4 0.875406 0.371529 0.992362
Si Si5 0.342640 0.279679 0.339607
Si Si6 0.887158 0.907580 0.366550
Si Si7 0.817530 0.874021 0.936270
O O1 0.387714 0.304837 0.549157
O O2 0.243724 0.371333 0.911270
O O3 0.390547 0.307765 0.043822
O O4 0.280530 0.190800 0.940484
O O5 0.883467 0.491195 0.989324
O O6 0.909974 0.654383 0.718092
O O7 0.914939 0.651650 0.196328
O O8 0.500000 0.076667 0.250000
O O9 0.668395 0.160887 0.124478
O O10 0.633634 0.996121 0.375578
O O11 0.763141 0.332750 0.078755
O O12 0.867444 0.853871 0.633660
O O13 0.000000 0.941046 0.250000
O O14 0.819377 0.005857 0.433241
O O15 0.869954 0.853984 0.135186
#
# Coordination Sequence:
#
# PCOD9226738 Si02
#       7
#     4   4   4   4   4   4   4
#     4  10  19  30  45  70 104 121 152 192 244 291
#     4   8  14  25  41  64  89 125 142 178 224 288
#     4  10  21  38  53  68  90 125 173 212 234 271
#     4   8  14  25  44  63  87 116 156 176 222 287
#     4  10  19  33  47  70  93 127 156 195 241 293
#     4  10  19  33  48  60  84 129 171 197 234 269
#     4  10  18  30  43  65  89 121 157 202 229 275
#
# _framework density 26.589887999999998
#
# number of rings (size 3 to 8) (size 9 to 14) (size 15 to 20)
#    0.000    2.571    0.000    3.857    0.000    0.000 
#   15.429    0.000    0.000    0.000    0.000   16.000 
#    0.000    0.000    0.000  349.714    0.000    0.000 
#
# Total GULP energy -156313.148992 kJ/mol
# GULP energy per Si atom -5582.612464 kJ/mol
# Density = 2.652937 g / cm^3
# Si number density = 26.589888 Si / 1000 Ang^3
#
#
#
# Elastic Constant Matrix: (Units=GPa)
#
#
# Indices 1 2 3 4 5 6 
#
# 1 129.0109 28.1372 89.6842 0.0000 31.5760 0.0000
# 2 28.1372 69.7694 11.4341 0.0000 10.8423 0.0000
# 3 89.6842 11.4341 279.7667 0.0000 100.8876 0.0000
# 4 0.0000 0.0000 0.0000 10.1551 0.0000 16.3725
# 5 31.5760 10.8423 100.8876 0.0000 58.5266 0.0000
# 6 0.0000 0.0000 0.0000 16.3725 0.0000 -8.3113
#
#
#
# Elastic Compliance Matrix: (Units=1/GPa)
#
#
# Indices 1 2 3 4 5 6 
#
# 1 0.010970 -0.004029 -0.003929 0.000000 0.001601 0.000000
# 2 -0.004029 0.016347 0.002462 0.000000 -0.005099 0.000000
# 3 -0.003929 0.002462 0.010924 0.000000 -0.017167 0.000000
# 4 0.000000 0.000000 0.000000 0.023581 0.000000 0.046452
# 5 0.001601 -0.005099 -0.017167 0.000000 0.046759 0.000000
# 6 0.000000 0.000000 0.000000 0.046452 0.000000 -0.028812
#
#
# Mechanical properties :
#
#
# Convention : Reuss Voigt Hill
#
# Bulk Modulus (GPa) = 36.69979 81.89533 59.29756
# Shear Modulus (GPa) = 50.07896 35.36019 42.71958
#
# Velocity S-wave (km/s) = 4.34450 3.65065 4.01260
# Velocity P-wave (km/s) = 6.24487 6.97395 6.61945
#
# Compressibility (1/GPa) = 0.02724811
#
# Stress axis : x y z
#
# Youngs Moduli (GPa) = 91.16145 61.17494 91.54160
#
# Poissons Ratio (x) = 0.24646 0.35970
# Poissons Ratio (y) = 0.36727 -0.22539
# Poissons Ratio (z) = 0.35820 -0.15062
#
# Static dielectric constant tensor:
#      x y z
#    x 2.057150 0.000000 0.008260 
#    y 0.000000 2.061500 0.000000 
#    z 0.008260 0.000000 2.186920 
# 
# From -- ./inp_files/6242.got.cif
#   From: 2010.05.17/outbox.cif.g08.bks.cpg/sg13_4_cif.got.tgz:6242.got - 2010.06.03 16:44:36.
