data_PCOD9226026
_publ_section_title
;
Structure prediction by ZEFSAII (Michael W. Deem and Ramdas Pophale) SiO2 
 PCOD9226026
Probable space group: P 2/C
;
_chemical_formula_sum "Si O2"
_cell_formula_units_Z 26
_cell_length_a 8.157440
_cell_length_b 7.041334
_cell_length_c 19.745966
_cell_angle_alpha 90.000000
_cell_angle_beta 84.072891
_cell_angle_gamma 90.000000
_cell_volume 1128.130348
_symmetry_space_group_name_H-M "P 2/C"
_symmetry_group_IT_number 13
_symmetry_cell_setting 'monoclinic'
loop_
_space_group_symop_operation_xyz
x,y,z
-x,y,1/2-z
-x,-y,-z
x,-y,1/2+z
loop_
_atom_site_type_symbol
_atom_site_label
_atom_site_fract_x
_atom_site_fract_y
_atom_site_fract_z
Si Si1 0.651144 0.579729 0.138850
Si Si2 0.184970 0.459377 0.238022
Si Si3 0.319276 0.857730 0.466196
Si Si4 0.169857 0.085317 0.709966
Si Si5 0.657499 0.581569 0.909622
Si Si6 0.713300 0.842800 0.439445
Si Si7 0.500000 0.130793 0.750000
O O1 0.733969 0.448571 0.191474
O O2 0.536312 0.461167 0.093326
O O3 0.537156 0.724199 0.187144
O O4 0.757925 0.726825 0.089404
O O5 0.177957 0.687385 0.224895
O O6 0.274344 0.376615 0.168345
O O7 0.000000 0.390074 0.250000
O O8 0.314537 0.738836 0.535843
O O9 0.514654 0.879928 0.440287
O O10 0.243718 0.058765 0.491016
O O11 0.191063 0.068937 0.628661
O O12 0.336356 0.013895 0.739777
O O13 0.000000 0.019482 0.750000
O O14 0.733428 0.383069 0.933028
#
# Coordination Sequence:
#
# PCOD9226026 Si02
#       7
#     4   4   4   4   4   4   2
#     4  10  15  30  51  78 102 139 186 227 267 330
#     4   9  17  30  53  76 104 144 184 225 277 328
#     4  10  19  29  55  82 107 146 180 220 282 332
#     4   9  16  28  52  78 103 141 186 232 271 329
#     4  10  17  32  54  80 105 140 182 224 273 330
#     4   9  17  32  49  80 110 137 180 221 270 333
#     4  10  14  28  52  76 104 140 188 224 274 326
#
# _framework density 23.046982
#
# number of rings (size 3 to 8) (size 9 to 14) (size 15 to 20)
#    0.000    2.462    6.154    1.846    0.000    0.000 
#    0.000    1.538    3.385   20.308    0.000    0.000 
#    0.000    0.000    0.000    0.000    0.000    0.000 
#
# Total GULP energy -145059.590279 kJ/mol
# GULP energy per Si atom -5579.215011 kJ/mol
# Density = 2.299453 g / cm^3
# Si number density = 23.046982 Si / 1000 Ang^3
#
#
#
# Elastic Constant Matrix: (Units=GPa)
#
#
# Indices 1 2 3 4 5 6 
#
# 1 77.5746 6.9077 27.8377 0.0000 -17.5937 0.0000
# 2 6.9077 74.5604 29.8560 0.0000 -0.3053 0.0000
# 3 27.8377 29.8560 110.8122 0.0000 -9.3139 0.0000
# 4 0.0000 0.0000 0.0000 18.9375 0.0000 9.6383
# 5 -17.5937 -0.3053 -9.3139 0.0000 23.0855 0.0000
# 6 0.0000 0.0000 0.0000 9.6383 0.0000 -5.6635
#
#
#
# Elastic Compliance Matrix: (Units=1/GPa)
#
#
# Indices 1 2 3 4 5 6 
#
# 1 0.016629 -0.000229 -0.003158 0.000000 0.011396 0.000000
# 2 -0.000229 0.015086 -0.004146 0.000000 -0.001648 0.000000
# 3 -0.003158 -0.004146 0.011104 0.000000 0.002019 0.000000
# 4 0.000000 0.000000 0.000000 0.028296 0.000000 0.048156
# 5 0.011396 -0.001648 0.002019 0.000000 0.052795 0.000000
# 6 0.000000 0.000000 0.000000 0.048156 0.000000 -0.094618
#
#
# Mechanical properties :
#
#
# Convention : Reuss Voigt Hill
#
# Bulk Modulus (GPa) = 36.03090 43.57222 39.80156
# Shear Modulus (GPa) = 93.26547 20.49497 56.88022
#
# Velocity S-wave (km/s) = 6.36831 2.98530 4.97330
# Velocity P-wave (km/s) = 8.35114 5.55243 7.09123
#
# Compressibility (1/GPa) = 0.02775396
#
# Stress axis : x y z
#
# Youngs Moduli (GPa) = 60.13585 66.28454 90.05629
#
# Poissons Ratio (x) = 0.01521 0.28438
# Poissons Ratio (y) = 0.01380 0.37334
# Poissons Ratio (z) = 0.18990 0.27479
#
# Static dielectric constant tensor:
#      x y z
#    x 1.905270 0.000000 0.009050 
#    y 0.000000 1.934010 0.000000 
#    z 0.009050 0.000000 1.917760 
# 
# From -- ./inp_files/63726.got.cif
#   From: 2010.05.17/outbox.cif.g08.bks.cpg/sg13_32_cif.got.tgz:63726.got - 2010.06.03 16:44:36.
