data_PCOD9226442
_publ_section_title
;
Structure prediction by ZEFSAII (Michael W. Deem and Ramdas Pophale) SiO2 
 PCOD9226442
Probable space group: P 2/C
;
_chemical_formula_sum "Si O2"
_cell_formula_units_Z 28
_cell_length_a 16.460569
_cell_length_b 16.603584
_cell_length_c 9.511727
_cell_angle_alpha 90.000000
_cell_angle_beta 147.255618
_cell_angle_gamma 90.000000
_cell_volume 1406.101348
_symmetry_space_group_name_H-M "P 2/C"
_symmetry_group_IT_number 13
_symmetry_cell_setting 'monoclinic'
loop_
_space_group_symop_operation_xyz
x,y,z
-x,y,1/2-z
-x,-y,-z
x,-y,1/2+z
loop_
_atom_site_type_symbol
_atom_site_label
_atom_site_fract_x
_atom_site_fract_y
_atom_site_fract_z
Si Si1 0.338909 0.802436 0.442081
Si Si2 0.171778 0.254242 0.958778
Si Si3 0.684661 0.635397 0.625202
Si Si4 0.604665 0.539171 0.031423
Si Si5 0.175615 0.080743 0.052387
Si Si6 0.673590 0.012974 0.496305
Si Si7 0.342665 0.317026 0.707341
O O1 0.214663 0.759874 0.359890
O O2 0.319076 0.898367 0.420728
O O3 0.334445 0.765239 0.280994
O O4 0.500000 0.784457 0.750000
O O5 0.233432 0.335116 0.116438
O O6 0.233699 0.172595 0.122587
O O7 0.000000 0.253300 0.750000
O O8 0.693474 0.539958 0.610339
O O9 0.739886 0.678247 0.562430
O O10 0.514157 0.662555 0.412398
O O11 0.693605 0.611415 0.234480
O O12 0.500000 0.568062 0.750000
O O13 0.500000 0.500000 0.000000
O O14 0.213363 0.045949 0.259053
O O15 0.271355 0.028564 0.081240
O O16 0.000000 0.077579 0.750000
O O17 0.500000 0.985740 0.250000
#
# Coordination Sequence:
#
# PCOD9226442 Si02
#       7
#     4   4   4   4   4   4   4
#     4  10  19  34  57  81 107 142 184 225 272 324
#     4  10  22  38  55  77 111 149 180 217 273 330
#     4  10  19  33  51  81 113 136 179 227 269 316
#     4  10  17  29  49  84 113 136 175 227 269 313
#     4  10  21  39  58  79 108 151 188 220 273 343
#     4  10  21  36  55  84 112 138 183 236 281 321
#     4  10  19  31  54  86 107 137 180 229 271 313
#
# _framework density 19.913215999999998
#
# number of rings (size 3 to 8) (size 9 to 14) (size 15 to 20)
#    0.000    2.000    4.286    1.286    2.000    1.143 
#    2.571    0.714    0.000    3.429    0.000    0.000 
#    0.000    0.000    0.000    0.000    0.000    0.000 
#
# Total GULP energy -156050.814475 kJ/mol
# GULP energy per Si atom -5573.243374 kJ/mol
# Density = 1.986789 g / cm^3
# Si number density = 19.913216 Si / 1000 Ang^3
#
#
#
# Elastic Constant Matrix: (Units=GPa)
#
#
# Indices 1 2 3 4 5 6 
#
# 1 53.9059 -0.3720 1.5296 0.0000 -3.0918 0.0000
# 2 -0.3720 29.2537 1.4484 0.0000 -12.2566 0.0000
# 3 1.5296 1.4484 22.8453 0.0000 0.5646 0.0000
# 4 0.0000 0.0000 0.0000 20.9010 0.0000 -8.5219
# 5 -3.0918 -12.2566 0.5646 0.0000 30.3433 0.0000
# 6 0.0000 0.0000 0.0000 -8.5219 0.0000 14.5642
#
#
#
# Elastic Compliance Matrix: (Units=1/GPa)
#
#
# Indices 1 2 3 4 5 6 
#
# 1 0.018742 0.001347 -0.001402 0.000000 0.002480 0.000000
# 2 0.001347 0.041454 -0.003137 0.000000 0.016940 0.000000
# 3 -0.001402 -0.003137 0.044121 0.000000 -0.002231 0.000000
# 4 0.000000 0.000000 0.000000 0.062835 0.000000 0.036766
# 5 0.002480 0.016940 -0.002231 0.000000 0.040093 0.000000
# 6 0.000000 0.000000 0.000000 0.036766 0.000000 0.090174
#
#
# Mechanical properties :
#
#
# Convention : Reuss Voigt Hill
#
# Bulk Modulus (GPa) = 10.21111 12.35745 11.28428
# Shear Modulus (GPa) = 14.86120 20.05495 17.45808
#
# Velocity S-wave (km/s) = 2.73481 3.17695 2.96414
# Velocity P-wave (km/s) = 3.88731 4.43582 4.17059
#
# Compressibility (1/GPa) = 0.09793256
#
# Stress axis : x y z
#
# Youngs Moduli (GPa) = 53.35573 24.12334 22.66516
#
# Poissons Ratio (x) = -0.03249 0.03177
# Poissons Ratio (y) = -0.07185 0.07110
# Poissons Ratio (z) = 0.07478 0.07567
#
# Static dielectric constant tensor:
#      x y z
#    x 1.716290 0.000000 0.028280 
#    y 0.000000 1.749910 0.000000 
#    z 0.028280 0.000000 1.554760 
# 
# From -- ./inp_files/20123.got.cif
#   From: 2010.05.17/outbox.cif.g08.bks.cpg/sg13_11_cif.got.tgz:20123.got - 2010.06.03 16:44:36.
