data_PCOD9226321
_publ_section_title
;
Structure prediction by ZEFSAII (Michael W. Deem and Ramdas Pophale) SiO2 
 PCOD9226321
Probable space group: P 2/C
;
_chemical_formula_sum "Si O2"
_cell_formula_units_Z 22
_cell_length_a 18.088883
_cell_length_b 12.416715
_cell_length_c 5.597937
_cell_angle_alpha 90.000000
_cell_angle_beta 111.851640
_cell_angle_gamma 90.000000
_cell_volume 1166.984223
_symmetry_space_group_name_H-M "P 2/C"
_symmetry_group_IT_number 13
_symmetry_cell_setting 'monoclinic'
loop_
_space_group_symop_operation_xyz
x,y,z
-x,y,1/2-z
-x,-y,-z
x,-y,1/2+z
loop_
_atom_site_type_symbol
_atom_site_label
_atom_site_fract_x
_atom_site_fract_y
_atom_site_fract_z
Si Si1 0.786073 0.565852 0.234365
Si Si2 0.422313 0.100683 0.269156
Si Si3 0.657466 0.259272 0.706183
Si Si4 0.730598 0.041483 0.892446
Si Si5 0.500000 0.255031 0.750000
Si Si6 0.031646 0.375561 0.538066
O O1 0.781155 0.493426 0.470785
O O2 0.715998 0.651836 0.175382
O O3 0.873247 0.619878 0.347204
O O4 0.500000 0.046036 0.250000
O O5 0.458276 0.176487 0.512708
O O6 0.355302 0.016009 0.253444
O O7 0.380545 0.185443 0.043705
O O8 0.710974 0.168306 0.909374
O O9 0.579083 0.311119 0.737977
O O10 0.768402 0.013000 0.676446
O O11 0.000000 0.327701 0.750000
O O12 0.000000 0.500000 0.500000
O O13 0.000000 0.327680 0.250000
#
# Coordination Sequence:
#
# PCOD9226321 Si02
#       6
#     4   4   4   4   2   4
#     4  12  24  38  59  81 113 147 179 220 270 317
#     4   9  19  32  53  77 103 134 180 235 286 317
#     4  10  23  34  52  78 110 143 188 227 267 322
#     4  10  19  32  51  78 104 133 173 225 282 320
#     4  10  18  36  52  74 106 142 186 232 272 318
#     4  10  16  34  59  87 103 130 161 223 279 328
#
# _framework density 18.852011000000001
#
# number of rings (size 3 to 8) (size 9 to 14) (size 15 to 20)
#    0.000    1.818    5.455    0.000    3.818    2.182 
#    0.000    0.909    0.000    0.000    0.000    0.000 
#    0.000   17.455    0.000    0.000    0.000    0.000 
#
# Total GULP energy -122476.794285 kJ/mol
# GULP energy per Si atom -5567.127013 kJ/mol
# Density = 1.880910 g / cm^3
# Si number density = 18.852011 Si / 1000 Ang^3
#
#
#
# Elastic Constant Matrix: (Units=GPa)
#
#
# Indices 1 2 3 4 5 6 
#
# 1 124.2534 41.2449 33.1291 0.0000 -8.8335 0.0000
# 2 41.2449 29.9860 14.5474 0.0000 -1.2879 0.0000
# 3 33.1291 14.5474 86.3934 0.0000 -26.5025 0.0000
# 4 0.0000 0.0000 0.0000 5.0355 0.0000 -7.4553
# 5 -8.8335 -1.2879 -26.5025 0.0000 29.4125 0.0000
# 6 0.0000 0.0000 0.0000 -7.4553 0.0000 -16.9934
#
#
#
# Elastic Compliance Matrix: (Units=1/GPa)
#
#
# Indices 1 2 3 4 5 6 
#
# 1 0.015389 -0.020168 -0.001877 0.000000 0.002047 0.000000
# 2 -0.020168 0.063383 -0.005453 0.000000 -0.008195 0.000000
# 3 -0.001877 -0.005453 0.017920 0.000000 0.015345 0.000000
# 4 0.000000 0.000000 0.000000 0.120390 0.000000 -0.052818
# 5 0.002047 -0.008195 0.015345 0.000000 0.048082 0.000000
# 6 0.000000 0.000000 0.000000 -0.052818 0.000000 -0.035674
#
#
# Mechanical properties :
#
#
# Convention : Reuss Voigt Hill
#
# Bulk Modulus (GPa) = 23.98328 46.49728 35.24028
# Shear Modulus (GPa) = 16.75690 13.60502 15.18096
#
# Velocity S-wave (km/s) = 2.98462 2.68932 2.84081
# Velocity P-wave (km/s) = 4.96253 5.86184 5.43083
#
# Compressibility (1/GPa) = 0.04169572
#
# Stress axis : x y z
#
# Youngs Moduli (GPa) = 64.98240 15.77706 55.80318
#
# Poissons Ratio (x) = 0.31820 0.10475
# Poissons Ratio (y) = 1.31058 0.30429
# Poissons Ratio (z) = 0.12197 0.08603
#
# Static dielectric constant tensor:
#      x y z
#    x 1.720630 0.000000 -0.110840 
#    y 0.000000 1.599240 0.000000 
#    z -0.110840 0.000000 1.769550 
# 
# From -- ./inp_files/6103.got.cif
#   From: 2010.05.17/outbox.cif.g08.bks.cpg/sg13_4_cif.got.tgz:6103.got - 2010.06.03 16:44:36.
