data_PCOD9226910
_publ_section_title
;
Structure prediction by ZEFSAII (Michael W. Deem and Ramdas Pophale) SiO2 
 PCOD9226910
Probable space group: P 2/C
;
_chemical_formula_sum "Si O2"
_cell_formula_units_Z 32
_cell_length_a 15.820110
_cell_length_b 11.288022
_cell_length_c 18.594119
_cell_angle_alpha 90.000000
_cell_angle_beta 149.246516
_cell_angle_gamma 90.000000
_cell_volume 1697.920131
_symmetry_space_group_name_H-M "P 2/C"
_symmetry_group_IT_number 13
_symmetry_cell_setting 'monoclinic'
loop_
_space_group_symop_operation_xyz
x,y,z
-x,y,1/2-z
-x,-y,-z
x,-y,1/2+z
loop_
_atom_site_type_symbol
_atom_site_label
_atom_site_fract_x
_atom_site_fract_y
_atom_site_fract_z
Si Si1 0.986107 0.894484 0.322378
Si Si2 0.615881 0.571814 0.981297
Si Si3 0.299109 0.686898 0.702735
Si Si4 0.825249 0.953642 0.903546
Si Si5 0.866692 0.491869 0.841112
Si Si6 0.899035 0.623914 0.084344
Si Si7 0.427647 0.346165 0.886109
Si Si8 0.370825 0.921663 0.359583
O O1 0.128764 0.951411 0.477891
O O2 0.021914 0.753601 0.349872
O O3 0.000000 0.935037 0.250000
O O4 0.802388 0.912543 0.221672
O O5 0.493312 0.659441 0.847209
O O6 0.554056 0.435112 0.938991
O O7 0.792288 0.587500 0.074212
O O8 0.598398 0.613404 0.050480
O O9 0.229398 0.819220 0.655513
O O10 0.237568 0.611065 0.726845
O O11 0.223254 0.633601 0.574159
O O12 0.685386 0.028584 0.759705
O O13 0.000000 0.000000 0.000000
O O14 0.750909 0.381030 0.776354
O O15 0.960840 0.468441 0.836594
O O16 0.000000 0.500000 0.000000
O O17 0.450918 0.206958 0.904796
O O18 0.500000 0.000000 0.500000
#
# Coordination Sequence:
#
# PCOD9226910 Si02
#       8
#     4   4   4   4   4   4   4   4
#     4  10  20  36  60  87 118 147 205 267 300 344
#     4  10  20  32  55  85 119 144 184 251 310 360
#     4   9  18  34  52  80 114 147 190 243 299 354
#     4   9  20  35  58  86 112 158 211 245 287 365
#     4   9  18  31  53  78 108 143 187 237 294 351
#     4  10  18  31  55  86 108 145 189 237 306 355
#     4  10  20  35  53  85 118 148 193 240 298 366
#     4  11  21  37  63  86 121 167 207 244 299 366
#
# _framework density 18.846588000000001
#
# number of rings (size 3 to 8) (size 9 to 14) (size 15 to 20)
#    0.000    2.250    1.250    1.875    1.750    0.000 
#    0.000    1.875    5.500    3.000    0.000    0.000 
#    0.000    0.000    0.000    0.000    0.000    0.000 
#
# Total GULP energy -178188.074274 kJ/mol
# GULP energy per Si atom -5568.377321 kJ/mol
# Density = 1.880369 g / cm^3
# Si number density = 18.846588 Si / 1000 Ang^3
#
#
#
# Elastic Constant Matrix: (Units=GPa)
#
#
# Indices 1 2 3 4 5 6 
#
# 1 96.7874 34.5688 34.8506 0.0000 -0.8599 0.0000
# 2 34.5688 107.4228 41.2144 0.0000 -0.5224 0.0000
# 3 34.8506 41.2144 102.3543 0.0000 -9.8030 0.0000
# 4 0.0000 0.0000 0.0000 32.1293 0.0000 -2.6222
# 5 -0.8599 -0.5224 -9.8030 0.0000 32.6415 0.0000
# 6 0.0000 0.0000 0.0000 -2.6222 0.0000 19.0083
#
#
#
# Elastic Compliance Matrix: (Units=1/GPa)
#
#
# Indices 1 2 3 4 5 6 
#
# 1 0.012471 -0.002794 -0.003186 0.000000 -0.000673 0.000000
# 2 -0.002794 0.011681 -0.003852 0.000000 -0.001044 0.000000
# 3 -0.003186 -0.003852 0.012759 0.000000 0.003686 0.000000
# 4 0.000000 0.000000 0.000000 0.031479 0.000000 0.004342
# 5 -0.000673 -0.001044 0.003686 0.000000 0.031708 0.000000
# 6 0.000000 0.000000 0.000000 0.004342 0.000000 0.053208
#
#
# Mechanical properties :
#
#
# Convention : Reuss Voigt Hill
#
# Bulk Modulus (GPa) = 57.98095 58.64803 58.31449
# Shear Modulus (GPa) = 27.97701 29.81788 28.89744
#
# Velocity S-wave (km/s) = 3.85705 3.98192 3.91998
# Velocity P-wave (km/s) = 7.11809 7.23375 7.17616
#
# Compressibility (1/GPa) = 0.01724705
#
# Stress axis : x y z
#
# Youngs Moduli (GPa) = 80.18619 85.60885 78.37757
#
# Poissons Ratio (x) = 0.23921 0.24967
# Poissons Ratio (y) = 0.22406 0.30191
# Poissons Ratio (z) = 0.25544 0.32977
#
# Static dielectric constant tensor:
#      x y z
#    x 1.687520 0.000000 0.025570 
#    y 0.000000 1.662690 0.000000 
#    z 0.025570 0.000000 1.771460 
# 
# From -- ./inp_files/68708.got.cif
#   From: 2010.05.17/outbox.cif.g08.bks.cpg/sg13_35_cif.got.tgz:68708.got - 2010.06.03 16:44:36.
