data_PCOD9226451
_publ_section_title
;
Structure prediction by ZEFSAII (Michael W. Deem and Ramdas Pophale) SiO2 
 PCOD9226451
Probable space group: P 2/C
;
_chemical_formula_sum "Si O2"
_cell_formula_units_Z 20
_cell_length_a 7.084321
_cell_length_b 5.663456
_cell_length_c 19.490899
_cell_angle_alpha 90.000000
_cell_angle_beta 71.259536
_cell_angle_gamma 90.000000
_cell_volume 740.549508
_symmetry_space_group_name_H-M "P 2/C"
_symmetry_group_IT_number 13
_symmetry_cell_setting 'monoclinic'
loop_
_space_group_symop_operation_xyz
x,y,z
-x,y,1/2-z
-x,-y,-z
x,-y,1/2+z
loop_
_atom_site_type_symbol
_atom_site_label
_atom_site_fract_x
_atom_site_fract_y
_atom_site_fract_z
Si Si1 0.363960 0.750000 0.198274
Si Si2 0.211008 0.750000 0.413701
Si Si3 0.651507 0.750000 0.798062
Si Si4 0.071373 0.250000 0.435342
Si Si5 0.548531 0.750000 0.528490
O O1 0.500000 0.749999 0.250000
O O2 0.550092 0.750000 0.122839
O O3 0.246284 0.505286 0.211959
O O4 0.246284 0.994713 0.211959
O O5 0.124936 0.500676 0.393966
O O6 0.140208 0.750000 0.501961
O O7 0.124936 0.999324 0.393966
O O8 0.500000 0.750000 0.750000
O O9 0.538225 0.750000 0.884114
O O10 0.215641 0.250000 0.484846
O O11 0.500000 0.500000 0.500000
O O12 0.500000 0.000000 0.500000
#
# Coordination Sequence:
#
# PCOD9226451 Si02
#       5
#     4   4   4   4   4
#     4  10  17  29  52  78 104 131 174 231 265 306
#     4  10  17  32  51  74 111 131 178 232 267 312
#     4  10  20  34  51  77 108 138 184 222 265 316
#     4  10  20  31  50  75 110 141 170 222 285 307
#     4  12  22  34  53  80 115 144 177 224 274 331
#
# _framework density 27.006974
#
# number of rings (size 3 to 8) (size 9 to 14) (size 15 to 20)
#    0.000    1.600    4.000    2.400    0.000    0.000 
#    0.000    0.000    0.000    0.000    0.000   33.600 
#    0.000    0.000    0.000    0.000    0.000    0.000 
#
# Total GULP energy -111510.415628 kJ/mol
# GULP energy per Si atom -5575.520781 kJ/mol
# Density = 2.694550 g / cm^3
# Si number density = 27.006974 Si / 1000 Ang^3
#
#
#
# Elastic Constant Matrix: (Units=GPa)
#
#
# Indices 1 2 3 4 5 6 
#
# 1 70.8510 38.7454 28.5089 0.0000 -8.5338 0.0000
# 2 38.7454 378.3629 42.5154 0.0000 0.9940 0.0000
# 3 28.5089 42.5154 129.1280 0.0000 14.8296 0.0000
# 4 0.0000 0.0000 0.0000 19.5475 0.0000 5.5594
# 5 -8.5338 0.9940 14.8296 0.0000 22.0349 0.0000
# 6 0.0000 0.0000 0.0000 5.5594 0.0000 26.5000
#
#
#
# Elastic Compliance Matrix: (Units=1/GPa)
#
#
# Indices 1 2 3 4 5 6 
#
# 1 0.017960 -0.001339 -0.004693 0.000000 0.010174 0.000000
# 2 -0.001339 0.002850 -0.000616 0.000000 -0.000232 0.000000
# 3 -0.004693 -0.000616 0.009958 0.000000 -0.008492 0.000000
# 4 0.000000 0.000000 0.000000 0.054403 0.000000 -0.011413
# 5 0.010174 -0.000232 -0.008492 0.000000 0.055048 0.000000
# 6 0.000000 0.000000 0.000000 -0.011413 0.000000 0.040130
#
#
# Mechanical properties :
#
#
# Convention : Reuss Voigt Hill
#
# Bulk Modulus (GPa) = 57.23102 88.65347 72.94224
# Shear Modulus (GPa) = 25.06647 44.85465 34.96056
#
# Velocity S-wave (km/s) = 3.04986 4.07978 3.60182
# Velocity P-wave (km/s) = 5.79995 7.42228 6.66069
#
# Compressibility (1/GPa) = 0.01747304
#
# Stress axis : x y z
#
# Youngs Moduli (GPa) = 55.67949 350.89231 100.41714
#
# Poissons Ratio (x) = 0.46969 0.47125
# Poissons Ratio (y) = 0.07453 0.06187
# Poissons Ratio (z) = 0.26130 0.21619
#
# Static dielectric constant tensor:
#      x y z
#    x 2.182950 0.000000 -0.091470 
#    y 0.000000 2.257770 0.000000 
#    z -0.091470 0.000000 2.704970 
# 
# From -- ./inp_files/64887.got.cif
#   From: 2010.05.17/outbox.cif.g08.bks.cpg/sg13_33_cif.got.tgz:64887.got - 2010.06.03 16:44:36.
