data_PCOD9226805
_publ_section_title
;
Structure prediction by ZEFSAII (Michael W. Deem and Ramdas Pophale) SiO2 
 PCOD9226805
Probable space group: P 2/C
;
_chemical_formula_sum "Si O2"
_cell_formula_units_Z 28
_cell_length_a 11.596797
_cell_length_b 6.782558
_cell_length_c 13.148734
_cell_angle_alpha 90.000000
_cell_angle_beta 102.583760
_cell_angle_gamma 90.000000
_cell_volume 1009.382533
_symmetry_space_group_name_H-M "P 2/C"
_symmetry_group_IT_number 13
_symmetry_cell_setting 'monoclinic'
loop_
_space_group_symop_operation_xyz
x,y,z
-x,y,1/2-z
-x,-y,-z
x,-y,1/2+z
loop_
_atom_site_type_symbol
_atom_site_label
_atom_site_fract_x
_atom_site_fract_y
_atom_site_fract_z
Si Si1 0.354763 0.936354 0.320294
Si Si2 0.394789 0.987125 0.097869
Si Si3 0.336001 0.395273 0.372946
Si Si4 0.850415 0.450394 0.408761
Si Si5 0.175652 0.093329 0.936512
Si Si6 0.917672 0.690649 0.607403
Si Si7 0.590047 0.460198 0.385795
O O1 0.367573 0.903950 0.203991
O O2 0.477656 0.897993 0.402195
O O3 0.340191 0.172065 0.329645
O O4 0.245322 0.828528 0.350917
O O5 0.280902 0.963014 0.007661
O O6 0.411242 0.222187 0.106229
O O7 0.193367 0.408224 0.357004
O O8 0.449847 0.499274 0.337982
O O9 0.376536 0.441206 0.498502
O O10 0.851054 0.262319 0.487753
O O11 0.893144 0.633820 0.484200
O O12 0.715474 0.485641 0.349171
O O13 0.952520 0.396412 0.349014
O O14 0.081803 0.929044 0.885854
#
# Coordination Sequence:
#
# PCOD9226805 Si02
#       7
#     4   4   4   4   4   4   4
#     4   9  17  29  48  76 107 139 177 221 269 318
#     4   9  17  29  48  76 107 139 177 221 269 318
#     4   8  14  26  46  71  99 133 173 215 259 309
#     4   9  17  29  48  74 101 132 171 212 257 310
#     4  10  18  30  52  74  97 136 177 214 257 312
#     4   9  17  29  48  74 101 132 171 212 257 310
#     4   8  14  26  46  71  99 133 173 215 259 309
#
# _framework density 27.739730999999999
#
# number of rings (size 3 to 8) (size 9 to 14) (size 15 to 20)
#    0.000    3.143    0.000    0.857    0.000    1.143 
#    0.000    0.000    0.000   48.857    0.000   96.000 
#    0.000    0.000    0.000    0.000    0.000    0.000 
#
# Total GULP energy -156302.987684 kJ/mol
# GULP energy per Si atom -5582.249560 kJ/mol
# Density = 2.767659 g / cm^3
# Si number density = 27.739731 Si / 1000 Ang^3
#
#
#
# Elastic Constant Matrix: (Units=GPa)
#
#
# Indices 1 2 3 4 5 6 
#
# 1 228.5452 15.1059 46.8338 0.0000 -23.7556 0.0000
# 2 15.1059 131.1689 -7.1904 0.0000 -4.8629 0.0000
# 3 46.8338 -7.1904 56.5795 0.0000 -3.5248 0.0000
# 4 0.0000 0.0000 0.0000 8.6662 0.0000 -0.7720
# 5 -23.7556 -4.8629 -3.5248 0.0000 58.4940 0.0000
# 6 0.0000 0.0000 0.0000 -0.7720 0.0000 29.7964
#
#
#
# Elastic Compliance Matrix: (Units=1/GPa)
#
#
# Indices 1 2 3 4 5 6 
#
# 1 0.005571 -0.000822 -0.004597 0.000000 0.001917 0.000000
# 2 -0.000822 0.007827 0.001702 0.000000 0.000419 0.000000
# 3 -0.004597 0.001702 0.021669 0.000000 -0.000420 0.000000
# 4 0.000000 0.000000 0.000000 0.115658 0.000000 0.002997
# 5 0.001917 0.000419 -0.000420 0.000000 0.017884 0.000000
# 6 0.000000 0.000000 0.000000 0.002997 0.000000 0.033639
#
#
# Mechanical properties :
#
#
# Convention : Reuss Voigt Hill
#
# Bulk Modulus (GPa) = 36.18887 58.42136 47.30511
# Shear Modulus (GPa) = 22.84208 43.49426 33.16817
#
# Velocity S-wave (km/s) = 2.87268 3.96402 3.46163
# Velocity P-wave (km/s) = 4.90686 6.48518 5.75042
#
# Compressibility (1/GPa) = 0.02763281
#
# Stress axis : x y z
#
# Youngs Moduli (GPa) = 179.49858 127.75790 46.14844
#
# Poissons Ratio (x) = 0.10508 0.21212
# Poissons Ratio (y) = 0.14763 -0.07853
# Poissons Ratio (z) = 0.82508 -0.21740
#
# Static dielectric constant tensor:
#      x y z
#    x 2.210200 0.000000 -0.101990 
#    y 0.000000 2.192500 0.000000 
#    z -0.101990 0.000000 2.251410 
# 
# From -- ./inp_files/65681.got.cif
#   From: 2010.05.17/outbox.cif.g08.bks.cpg/sg13_33_cif.got.tgz:65681.got - 2010.06.03 16:44:36.
