data_PCOD9226925
_publ_section_title
;
Structure prediction by ZEFSAII (Michael W. Deem and Ramdas Pophale) SiO2 
 PCOD9226925
Probable space group: P 2/C
;
_chemical_formula_sum "Si O2"
_cell_formula_units_Z 32
_cell_length_a 13.541074
_cell_length_b 8.459372
_cell_length_c 20.416884
_cell_angle_alpha 90.000000
_cell_angle_beta 127.142480
_cell_angle_gamma 90.000000
_cell_volume 1864.289621
_symmetry_space_group_name_H-M "P 2/C"
_symmetry_group_IT_number 13
_symmetry_cell_setting 'monoclinic'
loop_
_space_group_symop_operation_xyz
x,y,z
-x,y,1/2-z
-x,-y,-z
x,-y,1/2+z
loop_
_atom_site_type_symbol
_atom_site_label
_atom_site_fract_x
_atom_site_fract_y
_atom_site_fract_z
Si Si1 0.289408 0.791604 0.071908
Si Si2 0.135130 0.070769 0.056926
Si Si3 0.633606 0.521015 0.830572
Si Si4 0.109002 0.588967 0.912874
Si Si5 0.636320 0.004512 0.023394
Si Si6 0.254768 0.287023 0.003662
Si Si7 0.141857 0.168584 0.309401
Si Si8 0.164683 0.668702 0.679525
O O1 0.362262 0.659337 0.141728
O O2 0.236596 0.932073 0.095286
O O3 0.173072 0.694581 0.995111
O O4 0.356167 0.875271 0.036338
O O5 0.157388 0.173630 0.000894
O O6 0.148999 0.185472 0.123520
O O7 0.000000 0.000000 0.000000
O O8 0.500000 0.561607 0.750000
O O9 0.668560 0.629966 0.907021
O O10 0.730902 0.559156 0.811454
O O11 0.124843 0.688803 0.853711
O O12 0.964269 0.573293 0.869531
O O13 0.182286 0.425887 0.938487
O O14 0.748428 0.059138 0.116999
O O15 0.665688 0.828538 0.009237
O O16 0.500000 0.000000 0.000000
O O17 0.181975 0.248426 0.256960
O O18 0.000000 0.097299 0.250000
#
# Coordination Sequence:
#
# PCOD9226925 Si02
#       8
#     4   4   4   4   4   4   4   4
#     4   9  19  37  55  80 110 141 183 234 275 332
#     4  10  18  31  57  86 111 139 181 225 282 340
#     4  10  22  38  54  80 118 147 186 237 280 331
#     4   9  17  36  58  80 110 139 187 230 279 340
#     4  10  21  40  61  82 111 155 198 230 281 348
#     4   9  21  35  58  85 107 147 189 234 274 336
#     4   9  20  38  57  82 115 149 185 240 290 327
#     4  10  20  34  58  83 111 153 180 227 291 343
#
# _framework density 17.164715000000001
#
# number of rings (size 3 to 8) (size 9 to 14) (size 15 to 20)
#    0.000    2.500    1.250    0.000    5.250    1.500 
#    4.500    5.000    0.000    0.000    0.000    0.000 
#    0.000    0.000    0.000    0.000    0.000    0.000 
#
# Total GULP energy -178264.047754 kJ/mol
# GULP energy per Si atom -5570.751492 kJ/mol
# Density = 1.712565 g / cm^3
# Si number density = 17.164715 Si / 1000 Ang^3
#
#
#
# Elastic Constant Matrix: (Units=GPa)
#
#
# Indices 1 2 3 4 5 6 
#
# 1 120.6516 43.5035 54.8815 0.0000 18.0347 0.0000
# 2 43.5035 79.7321 18.5856 0.0000 13.5071 0.0000
# 3 54.8815 18.5856 58.9285 0.0000 13.1092 0.0000
# 4 0.0000 0.0000 0.0000 12.6640 0.0000 0.0939
# 5 18.0347 13.5071 13.1092 0.0000 24.6672 0.0000
# 6 0.0000 0.0000 0.0000 0.0939 0.0000 12.2624
#
#
#
# Elastic Compliance Matrix: (Units=1/GPa)
#
#
# Indices 1 2 3 4 5 6 
#
# 1 0.016682 -0.005658 -0.013300 0.000000 -0.002030 0.000000
# 2 -0.005658 0.016239 0.001367 0.000000 -0.005482 0.000000
# 3 -0.013300 0.001367 0.030539 0.000000 -0.007254 0.000000
# 4 0.000000 0.000000 0.000000 0.078968 0.000000 -0.000605
# 5 -0.002030 -0.005482 -0.007254 0.000000 0.048881 0.000000
# 6 0.000000 0.000000 0.000000 -0.000605 0.000000 0.081555
#
#
# Mechanical properties :
#
#
# Convention : Reuss Voigt Hill
#
# Bulk Modulus (GPa) = 35.36279 54.80593 45.08436
# Shear Modulus (GPa) = 15.74947 19.40816 17.57881
#
# Velocity S-wave (km/s) = 3.03239 3.36624 3.20367
# Velocity P-wave (km/s) = 5.73649 6.86349 6.32514
#
# Compressibility (1/GPa) = 0.02827831
#
# Stress axis : x y z
#
# Youngs Moduli (GPa) = 59.94624 61.58012 32.74504
#
# Poissons Ratio (x) = 0.34840 0.43551
# Poissons Ratio (y) = 0.33916 -0.04476
# Poissons Ratio (z) = 0.79728 -0.08418
#
# Static dielectric constant tensor:
#      x y z
#    x 1.592580 0.000000 -0.000550 
#    y 0.000000 1.582140 0.000000 
#    z -0.000550 0.000000 1.593920 
# 
# From -- ./inp_files/78315.got.cif
#   From: 2010.05.17/outbox.cif.g08.bks.cpg/sg13_40_cif.got.tgz:78315.got - 2010.06.03 16:44:36.
