data_PCOD9226955
_publ_section_title
;
Structure prediction by ZEFSAII (Michael W. Deem and Ramdas Pophale) SiO2 
 PCOD9226955
Probable space group: P 2/C
;
_chemical_formula_sum "Si O2"
_cell_formula_units_Z 32
_cell_length_a 27.620105
_cell_length_b 7.406351
_cell_length_c 23.597509
_cell_angle_alpha 90.000000
_cell_angle_beta 20.093865
_cell_angle_gamma 90.000000
_cell_volume 1658.430516
_symmetry_space_group_name_H-M "P 2/C"
_symmetry_group_IT_number 13
_symmetry_cell_setting 'monoclinic'
loop_
_space_group_symop_operation_xyz
x,y,z
-x,y,1/2-z
-x,-y,-z
x,-y,1/2+z
loop_
_atom_site_type_symbol
_atom_site_label
_atom_site_fract_x
_atom_site_fract_y
_atom_site_fract_z
Si Si1 0.850336 0.763827 0.684476
Si Si2 0.074609 0.130238 0.026150
Si Si3 0.243324 0.553772 0.127748
Si Si4 0.447702 0.941550 0.495469
Si Si5 0.039630 0.424926 0.271308
Si Si6 0.353028 0.636723 0.200628
Si Si7 0.488173 0.668862 0.927705
Si Si8 0.965154 0.272739 0.936648
O O1 0.808739 0.599680 0.771284
O O2 0.979319 0.859275 0.574516
O O3 0.896807 0.688232 0.572583
O O4 0.717438 0.897324 0.824181
O O5 0.994034 0.229673 0.165774
O O6 0.212945 0.248219 0.862769
O O7 0.094205 0.919813 0.016867
O O8 0.198528 0.480791 0.115079
O O9 0.136911 0.723217 0.254948
O O10 0.402407 0.592488 0.968828
O O11 0.527472 0.754169 0.398125
O O12 0.500000 0.000000 0.500000
O O13 0.495407 0.117263 0.408797
O O14 0.950294 0.568942 0.407039
O O15 0.000000 0.437267 0.250000
O O16 0.371694 0.438133 0.207359
O O17 0.392327 0.635728 0.090381
#
# Coordination Sequence:
#
# PCOD9226955 Si02
#       8
#     4   4   4   4   4   4   4   4
#     4  11  19  34  54  86 122 143 185 224 281 350
#     4  11  22  35  58  85 111 151 181 242 283 339
#     4   9  19  33  58  80 110 150 182 231 282 338
#     4  10  20  32  48  75 122 156 179 219 261 351
#     4   9  23  39  55  82 108 140 195 243 285 330
#     4  10  21  31  48  80 120 143 191 212 280 340
#     4  10  18  32  51  75 116 159 179 215 272 343
#     4  10  20  32  56  82 114 142 184 231 289 337
#
# _framework density 19.295352000000001
#
# number of rings (size 3 to 8) (size 9 to 14) (size 15 to 20)
#    0.750    1.250    1.250    3.750    1.750    1.500 
#    0.000    0.000    0.000    0.750    0.000    0.000 
#    0.000    0.000    0.000    0.000    0.000    0.000 
#
# Total GULP energy -178271.185444 kJ/mol
# GULP energy per Si atom -5570.974545 kJ/mol
# Density = 1.925143 g / cm^3
# Si number density = 19.295352 Si / 1000 Ang^3
#
#
#
# Elastic Constant Matrix: (Units=GPa)
#
#
# Indices 1 2 3 4 5 6 
#
# 1 120.1727 26.2353 14.6663 0.0000 -9.4738 0.0000
# 2 26.2353 68.2848 1.0503 0.0000 3.0675 0.0000
# 3 14.6663 1.0503 44.1148 0.0000 -25.5820 0.0000
# 4 0.0000 0.0000 0.0000 28.0584 0.0000 -12.8068
# 5 -9.4738 3.0675 -25.5820 0.0000 24.8278 0.0000
# 6 0.0000 0.0000 0.0000 -12.8068 0.0000 19.2813
#
#
#
# Elastic Compliance Matrix: (Units=1/GPa)
#
#
# Indices 1 2 3 4 5 6 
#
# 1 0.009532 -0.003739 -0.001746 0.000000 0.002300 0.000000
# 2 -0.003739 0.016413 -0.002860 0.000000 -0.006401 0.000000
# 3 -0.001746 -0.002860 0.057481 0.000000 0.058914 0.000000
# 4 0.000000 0.000000 0.000000 0.051146 0.000000 0.033971
# 5 0.002300 -0.006401 0.058914 0.000000 0.102649 0.000000
# 6 0.000000 0.000000 0.000000 0.033971 0.000000 0.074428
#
#
# Mechanical properties :
#
#
# Convention : Reuss Voigt Hill
#
# Bulk Modulus (GPa) = 14.98452 35.16402 25.07427
# Shear Modulus (GPa) = 14.26198 27.14152 20.70175
#
# Velocity S-wave (km/s) = 2.72166 3.75458 3.27905
# Velocity P-wave (km/s) = 4.20230 6.08765 5.23062
#
# Compressibility (1/GPa) = 0.06673555
#
# Stress axis : x y z
#
# Youngs Moduli (GPa) = 104.90989 60.92915 17.39717
#
# Poissons Ratio (x) = 0.22779 0.03038
# Poissons Ratio (y) = 0.39222 0.04975
# Poissons Ratio (z) = 0.18321 0.17424
#
# Static dielectric constant tensor:
#      x y z
#    x 1.663080 0.000000 -0.044880 
#    y 0.000000 1.766730 0.000000 
#    z -0.044880 0.000000 1.719140 
# 
# From -- ./inp_files/89499.got.cif
#   From: 2010.05.17/outbox.cif.g08.bks.cpg/sg13_45_cif.got.tgz:89499.got - 2010.06.03 16:44:36.
