data_PCOD9226615
_publ_section_title
;
Structure prediction by ZEFSAII (Michael W. Deem and Ramdas Pophale) SiO2 
 PCOD9226615
Probable space group: P 2/C
;
_chemical_formula_sum "Si O2"
_cell_formula_units_Z 32
_cell_length_a 12.757088
_cell_length_b 9.333810
_cell_length_c 24.009939
_cell_angle_alpha 90.000000
_cell_angle_beta 32.809778
_cell_angle_gamma 90.000000
_cell_volume 1549.108960
_symmetry_space_group_name_H-M "P 2/C"
_symmetry_group_IT_number 13
_symmetry_cell_setting 'monoclinic'
loop_
_space_group_symop_operation_xyz
x,y,z
-x,y,1/2-z
-x,-y,-z
x,-y,1/2+z
loop_
_atom_site_type_symbol
_atom_site_label
_atom_site_fract_x
_atom_site_fract_y
_atom_site_fract_z
Si Si1 0.451798 0.651412 0.551211
Si Si2 0.240322 0.852984 0.018609
Si Si3 0.564340 0.581378 0.161774
Si Si4 0.205198 0.496650 0.748325
Si Si5 0.115758 0.196601 0.752299
Si Si6 0.460409 0.893738 0.466408
Si Si7 0.015936 0.389315 0.046052
Si Si8 0.682434 0.252370 0.137520
O O1 0.500000 0.500000 0.500000
O O2 0.631583 0.736937 0.501320
O O3 0.292905 0.619984 0.669826
O O4 0.383719 0.751773 0.530851
O O5 0.263716 0.816616 0.944225
O O6 0.318410 0.012863 0.993017
O O7 0.018681 0.842611 0.136060
O O8 0.500000 0.643612 0.250000
O O9 0.387624 0.575001 0.198673
O O10 0.615570 0.414292 0.150783
O O11 0.759524 0.650289 0.051396
O O12 0.122070 0.368923 0.748594
O O13 0.059875 0.544041 0.862240
O O14 0.333423 0.139146 0.653910
O O15 0.000000 0.142229 0.750000
O O16 0.500000 0.000000 0.500000
O O17 0.864571 0.267142 0.096942
O O18 0.000000 0.500000 0.000000
O O19 0.500000 0.184576 0.250000
#
# Coordination Sequence:
#
# PCOD9226615 Si02
#       8
#     4   4   4   4   4   4   4   4
#     4  11  20  37  58  90 131 162 208 266 318 375
#     4  11  22  38  70  90 123 173 217 259 326 398
#     4  10  18  31  51  88 136 163 201 258 323 381
#     4  12  21  33  62  94 136 170 204 272 333 381
#     4  12  22  39  65  93 125 174 224 260 325 394
#     4  10  22  40  63  84 124 171 218 266 313 387
#     4  10  18  31  52  88 134 162 205 255 325 392
#     4  10  17  34  59  94 120 167 210 263 316 391
#
# _framework density 20.657036000000002
#
# number of rings (size 3 to 8) (size 9 to 14) (size 15 to 20)
#    0.000    1.250    8.750    1.500    0.000    0.000 
#    0.000    0.000   27.500    1.500    0.000    0.000 
#    0.000    0.000    0.000    0.000    0.000    0.000 
#
# Total GULP energy -178570.456613 kJ/mol
# GULP energy per Si atom -5580.326769 kJ/mol
# Density = 2.061002 g / cm^3
# Si number density = 20.657036 Si / 1000 Ang^3
#
#
#
# Elastic Constant Matrix: (Units=GPa)
#
#
# Indices 1 2 3 4 5 6 
#
# 1 41.5172 9.8457 35.7961 0.0000 -4.7809 0.0000
# 2 9.8457 76.7254 36.9033 0.0000 5.8987 0.0000
# 3 35.7961 36.9033 201.5672 0.0000 9.5890 0.0000
# 4 0.0000 0.0000 0.0000 19.7354 0.0000 5.1126
# 5 -4.7809 5.8987 9.5890 0.0000 26.4711 0.0000
# 6 0.0000 0.0000 0.0000 5.1126 0.0000 15.3675
#
#
#
# Elastic Compliance Matrix: (Units=1/GPa)
#
#
# Indices 1 2 3 4 5 6 
#
# 1 0.030053 -0.001875 -0.005364 0.000000 0.007789 0.000000
# 2 -0.001875 0.014545 -0.002198 0.000000 -0.002784 0.000000
# 3 -0.005364 -0.002198 0.006450 0.000000 -0.002816 0.000000
# 4 0.000000 0.000000 0.000000 0.055449 0.000000 -0.018448
# 5 0.007789 -0.002784 -0.002816 0.000000 0.040824 0.000000
# 6 0.000000 0.000000 0.000000 -0.018448 0.000000 0.071210
#
#
# Mechanical properties :
#
#
# Convention : Reuss Voigt Hill
#
# Bulk Modulus (GPa) = 31.08079 53.87777 42.47928
# Shear Modulus (GPa) = 20.15071 28.13244 24.14158
#
# Velocity S-wave (km/s) = 3.12667 3.69437 3.42231
# Velocity P-wave (km/s) = 5.30222 6.65857 6.01872
#
# Compressibility (1/GPa) = 0.03217421
#
# Stress axis : x y z
#
# Youngs Moduli (GPa) = 33.27443 68.75166 155.03785
#
# Poissons Ratio (x) = 0.12892 0.83167
# Poissons Ratio (y) = 0.06240 0.34070
# Poissons Ratio (z) = 0.17849 0.15108
#
# Static dielectric constant tensor:
#      x y z
#    x 1.757440 0.000000 0.011700 
#    y 0.000000 1.740800 0.000000 
#    z 0.011700 0.000000 1.766400 
# 
# From -- ./inp_files/92832.got.cif
#   From: 2010.05.17/outbox.cif.g08.bks.cpg/sg13_47_cif.got.tgz:92832.got - 2010.06.03 16:44:36.
