data_PCOD9226421
_publ_section_title
;
Structure prediction by ZEFSAII (Michael W. Deem and Ramdas Pophale) SiO2 
 PCOD9226421
Probable space group: P 2/C
;
_chemical_formula_sum "Si O2"
_cell_formula_units_Z 30
_cell_length_a 30.479675
_cell_length_b 5.400271
_cell_length_c 28.263496
_cell_angle_alpha 90.000000
_cell_angle_beta 18.206759
_cell_angle_gamma 90.000000
_cell_volume 1453.543722
_symmetry_space_group_name_H-M "P 2/C"
_symmetry_group_IT_number 13
_symmetry_cell_setting 'monoclinic'
loop_
_space_group_symop_operation_xyz
x,y,z
-x,y,1/2-z
-x,-y,-z
x,-y,1/2+z
loop_
_atom_site_type_symbol
_atom_site_label
_atom_site_fract_x
_atom_site_fract_y
_atom_site_fract_z
Si Si1 0.500000 0.002842 0.250000
Si Si2 0.094873 0.725838 0.700133
Si Si3 0.967870 0.774380 0.360748
Si Si4 0.269246 0.366767 0.467033
Si Si5 0.433254 0.678671 0.228223
Si Si6 0.627227 0.193613 0.862258
Si Si7 0.730607 0.037405 0.169963
Si Si8 0.478997 0.583477 0.944701
O O1 0.363305 0.171757 0.397413
O O2 0.481726 0.851533 0.220735
O O3 0.235554 0.605840 0.533699
O O4 0.000000 0.738855 0.750000
O O5 0.037714 0.497029 0.790600
O O6 0.073894 0.992976 0.745730
O O7 0.867653 0.755127 0.416538
O O8 0.864757 0.829609 0.510255
O O9 0.361163 0.451712 0.328537
O O10 0.549294 0.580941 0.072538
O O11 0.312835 0.817043 0.321246
O O12 0.566053 0.408159 0.891278
O O13 0.744213 0.063545 0.709861
O O14 0.646562 0.304784 0.895027
O O15 0.500000 0.000000 0.000000
O O16 0.590784 0.207682 0.314846
#
# Coordination Sequence:
#
# PCOD9226421 Si02
#       8
#     2   4   4   4   4   4   4   4
#     4  12  24  34  52  74 108 152 196 238 270 338
#     4  10  22  33  54  72 101 138 185 232 277 329
#     4  11  20  34  54  76 101 141 183 230 281 331
#     4  11  23  37  50  77 106 147 193 234 284 329
#     4  11  20  32  51  68 105 145 187 226 275 333
#     4   8  16  26  43  69 101 139 168 217 275 338
#     4  10  17  28  50  71 103 136 178 222 282 343
#     4   9  16  29  44  70 101 139 176 220 272 343
#
# _framework density 20.639216000000001
#
# number of rings (size 3 to 8) (size 9 to 14) (size 15 to 20)
#    0.000    1.867    2.667    3.200    3.733    0.000 
#    0.000    0.000    0.000    0.000    0.000    0.000 
#    0.000    2.133    0.000    2.400    0.000    0.267 
#
# Total GULP energy -167250.465370 kJ/mol
# GULP energy per Si atom -5575.015512 kJ/mol
# Density = 2.059224 g / cm^3
# Si number density = 20.639216 Si / 1000 Ang^3
#
#
#
# Elastic Constant Matrix: (Units=GPa)
#
#
# Indices 1 2 3 4 5 6 
#
# 1 38.3424 16.9217 28.1812 0.0000 20.8690 0.0000
# 2 16.9217 89.5685 15.7591 0.0000 8.8680 0.0000
# 3 28.1812 15.7591 60.4990 0.0000 26.2120 0.0000
# 4 0.0000 0.0000 0.0000 29.5925 0.0000 3.9850
# 5 20.8690 8.8680 26.2120 0.0000 28.8390 0.0000
# 6 0.0000 0.0000 0.0000 3.9850 0.0000 25.2206
#
#
#
# Elastic Compliance Matrix: (Units=1/GPa)
#
#
# Indices 1 2 3 4 5 6 
#
# 1 0.049839 -0.005012 -0.011468 0.000000 -0.024101 0.000000
# 2 -0.005012 0.012238 -0.001310 0.000000 0.001054 0.000000
# 3 -0.011468 -0.001310 0.030423 0.000000 -0.018950 0.000000
# 4 0.000000 0.000000 0.000000 0.034527 0.000000 -0.005455
# 5 -0.024101 0.001054 -0.018950 0.000000 0.069015 0.000000
# 6 0.000000 0.000000 0.000000 -0.005455 0.000000 0.040512
#
#
# Mechanical properties :
#
#
# Convention : Reuss Voigt Hill
#
# Bulk Modulus (GPa) = 17.56863 34.45932 26.01397
# Shear Modulus (GPa) = 17.17579 25.23359 21.20469
#
# Velocity S-wave (km/s) = 2.88790 3.50037 3.20878
# Velocity P-wave (km/s) = 4.43291 5.75057 5.13419
#
# Compressibility (1/GPa) = 0.05691964
#
# Stress axis : x y z
#
# Youngs Moduli (GPa) = 20.06448 81.71542 32.87008
#
# Poissons Ratio (x) = 0.40955 0.37696
# Poissons Ratio (y) = 0.10056 0.04306
# Poissons Ratio (z) = 0.23010 0.10704
#
# Static dielectric constant tensor:
#      x y z
#    x 1.764700 0.000000 0.047490 
#    y 0.000000 1.888220 0.000000 
#    z 0.047490 0.000000 1.799720 
# 
# From -- ./inp_files/94353.got.cif
#   From: 2010.05.17/outbox.cif.g08.bks.cpg/sg13_48_cif.got.tgz:94353.got - 2010.06.03 16:44:36.
