data_PCOD9226990
_publ_section_title
;
Structure prediction by ZEFSAII (Michael W. Deem and Ramdas Pophale) SiO2 
 PCOD9226990
Probable space group: P 2/C
;
_chemical_formula_sum "Si O2"
_cell_formula_units_Z 32
_cell_length_a 24.861977
_cell_length_b 14.912811
_cell_length_c 8.025926
_cell_angle_alpha 90.000000
_cell_angle_beta 142.524952
_cell_angle_gamma 90.000000
_cell_volume 1810.468026
_symmetry_space_group_name_H-M "P 2/C"
_symmetry_group_IT_number 13
_symmetry_cell_setting 'monoclinic'
loop_
_space_group_symop_operation_xyz
x,y,z
-x,y,1/2-z
-x,-y,-z
x,-y,1/2+z
loop_
_atom_site_type_symbol
_atom_site_label
_atom_site_fract_x
_atom_site_fract_y
_atom_site_fract_z
Si Si1 0.063391 0.784167 0.154288
Si Si2 0.810323 0.091781 0.388897
Si Si3 0.395425 0.887537 0.479261
Si Si4 0.881361 0.272795 0.070823
Si Si5 0.293456 0.049527 0.045766
Si Si6 0.166305 0.374871 0.090357
Si Si7 0.902611 0.460535 0.242589
Si Si8 0.732049 0.755767 0.464185
O O1 0.094069 0.877174 0.312367
O O2 0.105982 0.703071 0.364070
O O3 0.107070 0.773187 0.078788
O O4 0.959581 0.768454 0.877075
O O5 0.745241 0.099421 0.388751
O O6 0.780828 0.162683 0.177984
O O7 0.789244 0.995636 0.256750
O O8 0.349349 0.896698 0.547155
O O9 0.355249 0.969406 0.270302
O O10 0.500000 0.894779 0.750000
O O11 0.362905 0.794762 0.316308
O O12 0.899413 0.379616 0.101398
O O13 0.788601 0.261768 0.935885
O O14 0.119775 0.413391 0.139730
O O15 0.255018 0.327887 0.378805
O O16 0.165567 0.459763 0.966433
O O17 0.000000 0.500000 0.500000
#
# Coordination Sequence:
#
# PCOD9226990 Si02
#       8
#     4   4   4   4   4   4   4   4
#     4  10  19  31  47  70  96 137 169 204 244 296
#     4   9  18  32  52  69 101 132 165 201 246 294
#     4  10  18  32  54  79 103 128 161 206 261 311
#     4  10  20  31  48  69  98 134 171 202 249 291
#     4   9  18  32  52  79 101 128 160 210 257 302
#     4  10  20  30  44  68 101 131 166 202 247 293
#     4  11  19  27  45  68  98 130 163 206 246 282
#     4   9  20  33  48  71 101 135 163 205 253 301
#
# _framework density 17.674986000000001
#
# number of rings (size 3 to 8) (size 9 to 14) (size 15 to 20)
#    0.000    2.250    1.250    2.250    3.500    1.500 
#    0.000    0.000    0.000   25.500    0.000    3.500 
#    0.000    0.000    0.000    1.125    0.000    0.000 
#
# Total GULP energy -178378.444440 kJ/mol
# GULP energy per Si atom -5574.326389 kJ/mol
# Density = 1.763476 g / cm^3
# Si number density = 17.674986 Si / 1000 Ang^3
#
#
#
# Elastic Constant Matrix: (Units=GPa)
#
#
# Indices 1 2 3 4 5 6 
#
# 1 34.8543 10.2479 2.2488 0.0000 -15.6585 0.0000
# 2 10.2479 45.7118 32.6848 0.0000 9.0004 0.0000
# 3 2.2488 32.6848 79.4032 0.0000 0.6917 0.0000
# 4 0.0000 0.0000 0.0000 25.3930 0.0000 -3.7435
# 5 -15.6585 9.0004 0.6917 0.0000 18.8240 0.0000
# 6 0.0000 0.0000 0.0000 -3.7435 0.0000 22.0180
#
#
#
# Elastic Compliance Matrix: (Units=1/GPa)
#
#
# Indices 1 2 3 4 5 6 
#
# 1 0.083449 -0.049038 0.017019 0.000000 0.092238 0.000000
# 2 -0.049038 0.064251 -0.024444 0.000000 -0.070614 0.000000
# 3 0.017019 -0.024444 0.021956 0.000000 0.025037 0.000000
# 4 0.000000 0.000000 0.000000 0.040393 0.000000 0.006868
# 5 0.092238 -0.070614 0.025037 0.000000 0.162694 0.000000
# 6 0.000000 0.000000 0.000000 0.006868 0.000000 0.046585
#
#
# Mechanical properties :
#
#
# Convention : Reuss Voigt Hill
#
# Bulk Modulus (GPa) = 17.62735 27.81472 22.72103
# Shear Modulus (GPa) = 9.07170 20.89951 14.98560
#
# Velocity S-wave (km/s) = 2.26796 3.44238 2.91493
# Velocity P-wave (km/s) = 4.10523 5.61880 4.92056
#
# Compressibility (1/GPa) = 0.05673002
#
# Stress axis : x y z
#
# Youngs Moduli (GPa) = 11.98332 15.56396 45.54632
#
# Poissons Ratio (x) = 0.76322 -0.77514
# Poissons Ratio (y) = 0.58764 1.11332
# Poissons Ratio (z) = -0.20394 0.38044
#
# Static dielectric constant tensor:
#      x y z
#    x 1.613700 0.000000 -0.052190 
#    y 0.000000 1.656130 0.000000 
#    z -0.052190 0.000000 1.618740 
# 
# From -- ./inp_files/24753.got.cif
#   From: 2010.05.17/outbox.cif.g08.bks.cpg/sg13_13_cif.got.tgz:24753.got - 2010.06.03 16:44:36.
