data_PCOD9226136
_publ_section_title
;
Structure prediction by ZEFSAII (Michael W. Deem and Ramdas Pophale) SiO2 
 PCOD9226136
Probable space group: P 2/C
;
_chemical_formula_sum "Si O2"
_cell_formula_units_Z 32
_cell_length_a 8.929767
_cell_length_b 6.979025
_cell_length_c 19.375095
_cell_angle_alpha 90.000000
_cell_angle_beta 93.374362
_cell_angle_gamma 90.000000
_cell_volume 1205.383153
_symmetry_space_group_name_H-M "P 2/C"
_symmetry_group_IT_number 13
_symmetry_cell_setting 'monoclinic'
loop_
_space_group_symop_operation_xyz
x,y,z
-x,y,1/2-z
-x,-y,-z
x,-y,1/2+z
loop_
_atom_site_type_symbol
_atom_site_label
_atom_site_fract_x
_atom_site_fract_y
_atom_site_fract_z
Si Si1 0.327624 0.896869 0.229574
Si Si2 0.272475 0.563345 0.467843
Si Si3 0.090674 0.963775 0.322070
Si Si4 0.242988 0.545304 0.722448
Si Si5 0.440552 0.486806 0.108820
Si Si6 0.934936 0.506168 0.149694
Si Si7 0.285161 0.981319 0.942199
Si Si8 0.391689 0.928824 0.092212
O O1 0.500000 0.899141 0.250000
O O2 0.255296 0.986737 0.294207
O O3 0.264273 0.683810 0.225990
O O4 0.296067 0.996261 0.155437
O O5 0.404246 0.455218 0.427943
O O6 0.310945 0.549941 0.548932
O O7 0.120482 0.489111 0.429817
O O8 0.281245 0.787571 0.450000
O O9 0.053128 0.738284 0.335112
O O10 0.131230 0.062701 0.396252
O O11 0.000000 0.020449 0.250000
O O12 0.390342 0.601535 0.681112
O O13 0.190131 0.579641 0.800037
O O14 0.093569 0.583536 0.673939
O O15 0.442103 0.717320 0.117476
O O16 0.457560 0.950990 0.918748
O O17 0.295255 0.905980 0.020641
#
# Coordination Sequence:
#
# PCOD9226136 Si02
#       8
#     4   4   4   4   4   4   4   4
#     4  10  16  26  45  71  93 117 157 200 235 269
#     4   9  18  30  47  68  96 123 151 187 235 277
#     4  10  16  28  45  69  96 120 151 200 241 271
#     4   9  17  26  44  69  93 115 153 196 230 268
#     4   9  18  30  46  71  94 120 152 192 231 275
#     4   9  16  28  43  68  93 118 150 193 234 269
#     4   9  17  29  48  70  94 126 153 190 234 278
#     4   9  17  29  47  72  95 120 157 193 230 278
#
# _framework density 26.547575999999999
#
# number of rings (size 3 to 8) (size 9 to 14) (size 15 to 20)
#    0.000    2.750    3.750    0.000    5.250    0.500 
#    0.000    0.625    0.000    1.500    3.250    0.000 
#    0.000    0.000    0.000    0.000    0.000    0.000 
#
# Total GULP energy -178417.715492 kJ/mol
# GULP energy per Si atom -5575.553609 kJ/mol
# Density = 2.648715 g / cm^3
# Si number density = 26.547576 Si / 1000 Ang^3
#
#
#
# Elastic Constant Matrix: (Units=GPa)
#
#
# Indices 1 2 3 4 5 6 
#
# 1 40.7608 -11.2992 17.2471 0.0000 22.3515 0.0000
# 2 -11.2992 83.3353 -32.9435 0.0000 -6.9071 0.0000
# 3 17.2471 -32.9435 85.9666 0.0000 29.9049 0.0000
# 4 0.0000 0.0000 0.0000 -9.5308 0.0000 5.3507
# 5 22.3515 -6.9071 29.9049 0.0000 55.2237 0.0000
# 6 0.0000 0.0000 0.0000 5.3507 0.0000 7.5516
#
#
#
# Elastic Compliance Matrix: (Units=1/GPa)
#
#
# Indices 1 2 3 4 5 6 
#
# 1 0.032509 0.002939 -0.001166 0.000000 -0.012159 0.000000
# 2 0.002939 0.014501 0.005853 0.000000 -0.002545 0.000000
# 3 -0.001166 0.005853 0.016868 0.000000 -0.007930 0.000000
# 4 0.000000 0.000000 0.000000 -0.075063 0.000000 0.053187
# 5 -0.012159 -0.002545 -0.007930 0.000000 0.027005 0.000000
# 6 0.000000 0.000000 0.000000 0.053187 0.000000 0.094737
#
#
# Mechanical properties :
#
#
# Convention : Reuss Voigt Hill
#
# Bulk Modulus (GPa) = 12.63768 17.34129 14.98948
# Shear Modulus (GPa) = 41.09054 26.45278 33.77166
#
# Velocity S-wave (km/s) = 3.93849 3.16005 3.57055
# Velocity P-wave (km/s) = 5.04509 4.45656 4.75993
#
# Compressibility (1/GPa) = 0.07912843
#
# Stress axis : x y z
#
# Youngs Moduli (GPa) = 30.76088 68.96125 59.28422
#
# Poissons Ratio (x) = -0.20268 0.06914
# Poissons Ratio (y) = -0.09041 -0.34697
# Poissons Ratio (z) = 0.03588 -0.40361
#
# Static dielectric constant tensor:
#      x y z
#    x 2.134520 0.000000 -0.064050 
#    y 0.000000 2.173230 0.000000 
#    z -0.064050 0.000000 1.934960 
# 
# From -- ./inp_files/64269.got.cif
#   From: 2010.05.17/outbox.cif.g08.bks.cpg/sg13_33_cif.got.tgz:64269.got - 2010.06.03 16:44:36.
