data_PCOD9226597
_publ_section_title
;
Structure prediction by ZEFSAII (Michael W. Deem and Ramdas Pophale) SiO2 
 PCOD9226597
Probable space group: P 2/C
;
_chemical_formula_sum "Si O2"
_cell_formula_units_Z 24
_cell_length_a 15.929395
_cell_length_b 9.319133
_cell_length_c 18.213598
_cell_angle_alpha 90.000000
_cell_angle_beta 151.055348
_cell_angle_gamma 90.000000
_cell_volume 1308.531106
_symmetry_space_group_name_H-M "P 2/C"
_symmetry_group_IT_number 13
_symmetry_cell_setting 'monoclinic'
loop_
_space_group_symop_operation_xyz
x,y,z
-x,y,1/2-z
-x,-y,-z
x,-y,1/2+z
loop_
_atom_site_type_symbol
_atom_site_label
_atom_site_fract_x
_atom_site_fract_y
_atom_site_fract_z
Si Si1 0.679821 0.170067 0.851064
Si Si2 0.320815 0.493063 0.594410
Si Si3 0.023133 0.415009 0.593917
Si Si4 0.826696 0.408564 0.165399
Si Si5 0.143534 0.094737 0.652724
Si Si6 0.949895 0.908473 0.790938
O O1 0.500000 0.119888 0.750000
O O2 0.682075 0.342533 0.862778
O O3 0.696830 0.116236 0.780651
O O4 0.860983 0.124513 0.028388
O O5 0.500000 0.569200 0.750000
O O6 0.315032 0.450107 0.503780
O O7 0.156076 0.579152 0.497554
O O8 0.160911 0.496265 0.752174
O O9 0.073896 0.253466 0.615117
O O10 0.000000 0.500000 0.500000
O O11 0.846138 0.241114 0.200639
O O12 0.000000 0.435396 0.250000
O O13 0.161020 0.012375 0.742679
O O14 0.000000 0.000000 0.500000
O O15 0.000000 0.969605 0.750000
#
# Coordination Sequence:
#
# PCOD9226597 Si02
#       6
#     4   4   4   4   4   4
#     4  10  18  34  57  78 108 147 192 228 280 338
#     4  10  19  34  60  83 108 145 197 238 291 327
#     4  11  18  34  56  80 110 140 186 237 279 332
#     4   9  17  33  57  82 107 147 193 226 278 343
#     4  10  21  34  56  86 110 151 194 225 283 351
#     4  10  17  34  54  83 113 150 189 229 280 344
#
# _framework density 18.341176999999998
#
# number of rings (size 3 to 8) (size 9 to 14) (size 15 to 20)
#    0.000    2.000    6.667    1.000    0.000    2.000 
#    0.000    5.000    0.000    0.000    0.000    0.000 
#    0.000    0.000    0.000    0.000    0.000    0.000 
#
# Total GULP energy -133632.063976 kJ/mol
# GULP energy per Si atom -5568.002666 kJ/mol
# Density = 1.829943 g / cm^3
# Si number density = 18.341177 Si / 1000 Ang^3
#
#
#
# Elastic Constant Matrix: (Units=GPa)
#
#
# Indices 1 2 3 4 5 6 
#
# 1 138.3928 67.3142 33.7060 0.0000 -8.7440 0.0000
# 2 67.3142 80.7543 20.4358 0.0000 -11.5830 0.0000
# 3 33.7060 20.4358 61.6542 0.0000 -5.7792 0.0000
# 4 0.0000 0.0000 0.0000 11.9893 0.0000 -10.7770
# 5 -8.7440 -11.5830 -5.7792 0.0000 33.8026 0.0000
# 6 0.0000 0.0000 0.0000 -10.7770 0.0000 33.4771
#
#
#
# Elastic Compliance Matrix: (Units=1/GPa)
#
#
# Indices 1 2 3 4 5 6 
#
# 1 0.012942 -0.009914 -0.003856 0.000000 -0.000709 0.000000
# 2 -0.009914 0.021645 -0.001321 0.000000 0.004627 0.000000
# 3 -0.003856 -0.001321 0.018933 0.000000 0.001787 0.000000
# 4 0.000000 0.000000 0.000000 0.117372 0.000000 0.037785
# 5 -0.000709 0.004627 0.001787 0.000000 0.031291 0.000000
# 6 0.000000 0.000000 0.000000 0.037785 0.000000 0.042035
#
#
# Mechanical properties :
#
#
# Convention : Reuss Voigt Hill
#
# Bulk Modulus (GPa) = 42.84712 58.19037 50.51875
# Shear Modulus (GPa) = 17.71921 26.47682 22.09802
#
# Velocity S-wave (km/s) = 3.11157 3.80356 3.47483
# Velocity P-wave (km/s) = 6.02669 7.14737 6.61082
#
# Compressibility (1/GPa) = 0.02333879
#
# Stress axis : x y z
#
# Youngs Moduli (GPa) = 77.26522 46.19934 52.81866
#
# Poissons Ratio (x) = 0.45803 0.20366
# Poissons Ratio (y) = 0.76603 0.06976
# Poissons Ratio (z) = 0.29792 0.06102
#
# Static dielectric constant tensor:
#      x y z
#    x 1.670230 0.000000 -0.029430 
#    y 0.000000 1.615110 0.000000 
#    z -0.029430 0.000000 1.709810 
# 
# From -- ./inp_files/63292.got.cif
#   From: 2010.05.17/outbox.cif.g08.bks.cpg/sg13_32_cif.got.tgz:63292.got - 2010.06.03 16:44:36.
