data_PCOD9226995
_publ_section_title
;
Structure prediction by ZEFSAII (Michael W. Deem and Ramdas Pophale) SiO2 
 PCOD9226995
Probable space group: P 2/C
;
_chemical_formula_sum "Si O2"
_cell_formula_units_Z 22
_cell_length_a 8.731619
_cell_length_b 8.121437
_cell_length_c 14.523119
_cell_angle_alpha 90.000000
_cell_angle_beta 100.449078
_cell_angle_gamma 90.000000
_cell_volume 1012.803132
_symmetry_space_group_name_H-M "P 2/C"
_symmetry_group_IT_number 13
_symmetry_cell_setting 'monoclinic'
loop_
_space_group_symop_operation_xyz
x,y,z
-x,y,1/2-z
-x,-y,-z
x,-y,1/2+z
loop_
_atom_site_type_symbol
_atom_site_label
_atom_site_fract_x
_atom_site_fract_y
_atom_site_fract_z
Si Si1 0.173430 0.796881 0.112468
Si Si2 0.000000 0.409457 0.750000
Si Si3 0.375855 0.505207 0.602299
Si Si4 0.301437 0.598006 0.807878
Si Si5 0.151808 0.114524 0.213624
Si Si6 0.918613 0.325976 0.465410
O O1 0.308728 0.680471 0.084902
O O2 0.095192 0.698067 0.188207
O O3 0.223905 0.971874 0.158453
O O4 0.025975 0.806125 0.028297
O O5 0.137268 0.513346 0.813352
O O6 0.345373 0.542257 0.708326
O O7 0.557806 0.542617 0.611388
O O8 0.262738 0.631819 0.536288
O O9 0.270129 0.793362 0.795186
O O10 0.089126 0.258233 0.139257
O O11 0.000000 0.049707 0.250000
O O12 0.000000 0.500000 0.500000
#
# Coordination Sequence:
#
# PCOD9226995 Si02
#       6
#     4   2   4   4   4   4
#     4  10  19  34  57  82 114 143 189 236 282 329
#     4  10  18  32  54  80 108 146 190 228 272 344
#     4   8  17  34  53  78 107 147 195 223 272 337
#     4   9  17  32  54  78 109 147 192 226 271 337
#     4  11  20  33  58  90 114 143 186 241 283 325
#     4   9  19  35  57  80 111 155 192 226 271 345
#
# _framework density 21.721893000000001
#
# number of rings (size 3 to 8) (size 9 to 14) (size 15 to 20)
#    0.000    2.545    1.818    1.636    0.000    0.000 
#    0.000   15.455    0.000    1.091    0.000    0.000 
#    0.000    0.000    0.000    0.000    0.000    0.000 
#
# Total GULP energy -122491.716932 kJ/mol
# GULP energy per Si atom -5567.805315 kJ/mol
# Density = 2.167245 g / cm^3
# Si number density = 21.721893 Si / 1000 Ang^3
#
#
#
# Elastic Constant Matrix: (Units=GPa)
#
#
# Indices 1 2 3 4 5 6 
#
# 1 108.2041 46.2034 26.6369 0.0000 37.8022 0.0000
# 2 46.2034 98.0718 16.9389 0.0000 22.3987 0.0000
# 3 26.6369 16.9389 50.8646 0.0000 28.6534 0.0000
# 4 0.0000 0.0000 0.0000 23.8549 0.0000 -4.8772
# 5 37.8022 22.3987 28.6534 0.0000 44.3202 0.0000
# 6 0.0000 0.0000 0.0000 -4.8772 0.0000 17.4038
#
#
#
# Elastic Compliance Matrix: (Units=1/GPa)
#
#
# Indices 1 2 3 4 5 6 
#
# 1 0.014830 -0.004614 -0.000657 0.000000 -0.009892 0.000000
# 2 -0.004614 0.012987 -0.000674 0.000000 -0.002193 0.000000
# 3 -0.000657 -0.000674 0.031017 0.000000 -0.019152 0.000000
# 4 0.000000 0.000000 0.000000 0.044468 0.000000 0.012462
# 5 -0.009892 -0.002193 -0.019152 0.000000 0.044491 0.000000
# 6 0.000000 0.000000 0.000000 0.012462 0.000000 0.060951
#
#
# Mechanical properties :
#
#
# Convention : Reuss Voigt Hill
#
# Bulk Modulus (GPa) = 21.30122 48.52209 34.91166
# Shear Modulus (GPa) = 21.16124 28.27320 24.71722
#
# Velocity S-wave (km/s) = 3.12459 3.61168 3.37693
# Velocity P-wave (km/s) = 4.77965 6.30704 5.59570
#
# Compressibility (1/GPa) = 0.04694566
#
# Stress axis : x y z
#
# Youngs Moduli (GPa) = 67.43309 76.99767 32.24004
#
# Poissons Ratio (x) = 0.35524 0.02118
# Poissons Ratio (y) = 0.31112 0.02172
# Poissons Ratio (z) = 0.04430 0.05186
#
# Static dielectric constant tensor:
#      x y z
#    x 1.837810 0.000000 -0.006090 
#    y 0.000000 1.835560 0.000000 
#    z -0.006090 0.000000 1.938280 
# 
# From -- ./inp_files/63028.got.cif
#   From: 2010.05.17/outbox.cif.g08.bks.cpg/sg13_32_cif.got.tgz:63028.got - 2010.06.03 16:44:36.
