data_PCOD9226913
_publ_section_title
;
Structure prediction by ZEFSAII (Michael W. Deem and Ramdas Pophale) SiO2 
 PCOD9226913
Probable space group: P 2/C
;
_chemical_formula_sum "Si O2"
_cell_formula_units_Z 30
_cell_length_a 30.017562
_cell_length_b 7.704880
_cell_length_c 12.614714
_cell_angle_alpha 90.000000
_cell_angle_beta 151.801654
_cell_angle_gamma 90.000000
_cell_volume 1378.617516
_symmetry_space_group_name_H-M "P 2/C"
_symmetry_group_IT_number 13
_symmetry_cell_setting 'monoclinic'
loop_
_space_group_symop_operation_xyz
x,y,z
-x,y,1/2-z
-x,-y,-z
x,-y,1/2+z
loop_
_atom_site_type_symbol
_atom_site_label
_atom_site_fract_x
_atom_site_fract_y
_atom_site_fract_z
Si Si1 0.202677 0.379066 0.455428
Si Si2 0.495235 0.403341 0.611077
Si Si3 0.000000 0.479954 0.750000
Si Si4 0.849556 0.073507 0.744448
Si Si5 0.289155 0.248693 0.191855
Si Si6 0.295620 0.664011 0.937109
Si Si7 0.197068 0.312092 0.672319
Si Si8 0.018577 0.734970 0.495998
O O1 0.245872 0.569055 0.559718
O O2 0.244926 0.292680 0.439561
O O3 0.222652 0.277418 0.604791
O O4 0.090837 0.389640 0.207776
O O5 0.500000 0.480067 0.750000
O O6 0.500000 0.500000 0.500000
O O7 0.401192 0.285395 0.413955
O O8 0.594246 0.306641 0.818180
O O9 0.905541 0.594402 0.541309
O O10 0.007897 0.350067 0.668876
O O11 0.762511 0.097300 0.480713
O O12 0.809937 0.141200 0.772630
O O13 0.914708 0.903897 0.881731
O O14 0.927681 0.213561 0.870610
O O15 0.264297 0.242066 0.264304
O O16 0.270072 0.459063 0.866244
#
# Coordination Sequence:
#
# PCOD9226913 Si02
#       8
#     4   4   2   4   4   4   4   4
#     4  11  20  37  55  86 111 148 190 232 296 334
#     4  10  18  31  55  90 119 149 192 255 301 351
#     4  12  22  36  58  84 110 148 192 238 292 338
#     4  11  23  41  54  82 115 152 195 232 295 346
#     4  10  20  36  61  84 115 151 195 239 291 346
#     4  10  19  34  58  91 114 147 192 245 292 341
#     4  11  22  35  61  82 118 149 194 246 284 355
#     4  11  25  37  57  82 117 154 188 240 287 356
#
# _framework density 21.760929999999998
#
# number of rings (size 3 to 8) (size 9 to 14) (size 15 to 20)
#    0.000    1.333    4.000    2.400    0.000    4.267 
#    0.000    0.000    0.000    0.800    0.000    2.800 
#    0.000    0.000    0.000    0.000    0.000    0.000 
#
# Total GULP energy -167240.864157 kJ/mol
# GULP energy per Si atom -5574.695472 kJ/mol
# Density = 2.171140 g / cm^3
# Si number density = 21.760930 Si / 1000 Ang^3
#
#
#
# Elastic Constant Matrix: (Units=GPa)
#
#
# Indices 1 2 3 4 5 6 
#
# 1 161.3526 28.6838 34.8024 0.0000 -30.9319 0.0000
# 2 28.6838 50.5946 26.7190 0.0000 -5.3676 0.0000
# 3 34.8024 26.7190 108.6165 0.0000 3.9353 0.0000
# 4 0.0000 0.0000 0.0000 9.6293 0.0000 2.3906
# 5 -30.9319 -5.3676 3.9353 0.0000 54.8299 0.0000
# 6 0.0000 0.0000 0.0000 2.3906 0.0000 19.9766
#
#
#
# Elastic Compliance Matrix: (Units=1/GPa)
#
#
# Indices 1 2 3 4 5 6 
#
# 1 0.007997 -0.003029 -0.001975 0.000000 0.004357 0.000000
# 2 -0.003029 0.024248 -0.005032 0.000000 0.001026 0.000000
# 3 -0.001975 -0.005032 0.011165 0.000000 -0.002408 0.000000
# 4 0.000000 0.000000 0.000000 0.107030 0.000000 -0.012808
# 5 0.004357 0.001026 -0.002408 0.000000 0.020969 0.000000
# 6 0.000000 0.000000 0.000000 -0.012808 0.000000 0.051591
#
#
# Mechanical properties :
#
#
# Convention : Reuss Voigt Hill
#
# Bulk Modulus (GPa) = 42.84687 55.66379 49.25533
# Shear Modulus (GPa) = 19.93213 32.24439 26.08826
#
# Velocity S-wave (km/s) = 3.02977 3.85353 3.46621
# Velocity P-wave (km/s) = 5.65437 6.74054 6.22120
#
# Compressibility (1/GPa) = 0.02333893
#
# Stress axis : x y z
#
# Youngs Moduli (GPa) = 125.04239 41.24044 89.56862
#
# Poissons Ratio (x) = 0.12490 0.17693
# Poissons Ratio (y) = 0.37870 0.45068
# Poissons Ratio (z) = 0.24700 0.20751
#
# Static dielectric constant tensor:
#      x y z
#    x 1.846830 0.000000 -0.029550 
#    y 0.000000 1.886710 0.000000 
#    z -0.029550 0.000000 1.770570 
# 
# From -- ./inp_files/42701.got.cif
#   From: 2010.05.17/outbox.cif.g08.bks.cpg/sg13_22_cif.got.tgz:42701.got - 2010.06.03 16:44:36.
