data_PCOD9226541
_publ_section_title
;
Structure prediction by ZEFSAII (Michael W. Deem and Ramdas Pophale) SiO2 
 PCOD9226541
Probable space group: P 2/C
;
_chemical_formula_sum "Si O2"
_cell_formula_units_Z 26
_cell_length_a 15.019215
_cell_length_b 9.358710
_cell_length_c 8.968756
_cell_angle_alpha 90.000000
_cell_angle_beta 110.710492
_cell_angle_gamma 90.000000
_cell_volume 1179.188355
_symmetry_space_group_name_H-M "P 2/C"
_symmetry_group_IT_number 13
_symmetry_cell_setting 'monoclinic'
loop_
_space_group_symop_operation_xyz
x,y,z
-x,y,1/2-z
-x,-y,-z
x,-y,1/2+z
loop_
_atom_site_type_symbol
_atom_site_label
_atom_site_fract_x
_atom_site_fract_y
_atom_site_fract_z
Si Si1 0.329034 0.649433 0.328437
Si Si2 0.500000 0.122033 0.250000
Si Si3 0.000000 0.460773 0.250000
Si Si4 0.678708 0.060804 0.530040
Si Si5 0.363281 0.241327 0.416691
Si Si6 0.500000 0.636879 0.250000
Si Si7 0.247839 0.318390 0.089140
Si Si8 0.129529 0.432850 0.571218
O O1 0.343115 0.823000 0.352982
O O2 0.424166 0.575271 0.323658
O O3 0.309822 0.611504 0.491284
O O4 0.232450 0.629460 0.176013
O O5 0.579968 0.038027 0.384353
O O6 0.443696 0.210636 0.339685
O O7 0.937063 0.555431 0.325069
O O8 0.072103 0.370938 0.397374
O O9 0.747899 0.153047 0.462811
O O10 0.699142 0.902290 0.593337
O O11 0.420817 0.288918 0.595564
O O12 0.291228 0.339001 0.279381
O O13 0.150520 0.402882 0.034905
#
# Coordination Sequence:
#
# PCOD9226541 Si02
#       8
#     4   2   2   4   4   2   4   4
#     4  10  23  36  56  85 132 160 206 248 299 347
#     4  10  17  32  49  72 114 157 214 259 270 316
#     4  10  22  38  80  88 110 144 200 266 322 362
#     4   9  19  32  53  79 114 168 203 256 279 323
#     4  11  20  32  55  81 120 168 221 235 294 338
#     4  12  23  32  55  94 122 183 212 251 274 346
#     4   9  22  39  57  81 130 159 189 268 301 352
#     4  11  21  45  63  99 116 148 199 257 317 390
#
# _framework density 22.049064999999999
#
# number of rings (size 3 to 8) (size 9 to 14) (size 15 to 20)
#    0.923    0.923    3.077    0.923    6.462    0.000 
#    0.000    6.154    0.000    0.000    0.000   18.308 
#    0.000    0.000    0.000    0.000    0.000    0.000 
#
# Total GULP energy -144742.741754 kJ/mol
# GULP energy per Si atom -5567.028529 kJ/mol
# Density = 2.199888 g / cm^3
# Si number density = 22.049065 Si / 1000 Ang^3
#
#
#
# Elastic Constant Matrix: (Units=GPa)
#
#
# Indices 1 2 3 4 5 6 
#
# 1 105.8665 22.9049 31.9105 0.0000 -0.9051 0.0000
# 2 22.9049 59.3969 32.2537 0.0000 8.8880 0.0000
# 3 31.9105 32.2537 154.9032 0.0000 12.5619 0.0000
# 4 0.0000 0.0000 0.0000 17.8708 0.0000 -4.9657
# 5 -0.9051 8.8880 12.5619 0.0000 34.1937 0.0000
# 6 0.0000 0.0000 0.0000 -4.9657 0.0000 1.4584
#
#
#
# Elastic Compliance Matrix: (Units=1/GPa)
#
#
# Indices 1 2 3 4 5 6 
#
# 1 0.010711 -0.003519 -0.001619 0.000000 0.001793 0.000000
# 2 -0.003519 0.020576 -0.003214 0.000000 -0.004261 0.000000
# 3 -0.001619 -0.003214 0.007621 0.000000 -0.002007 0.000000
# 4 0.000000 0.000000 0.000000 1.038128 0.000000 3.534669
# 5 0.001793 -0.004261 -0.002007 0.000000 0.031138 0.000000
# 6 0.000000 0.000000 0.000000 3.534669 0.000000 12.720691
#
#
# Mechanical properties :
#
#
# Convention : Reuss Voigt Hill
#
# Bulk Modulus (GPa) = 45.03859 54.92273 49.98066
# Shear Modulus (GPa) = 0.36093 26.24441 13.30267
#
# Velocity S-wave (km/s) = 0.40503 3.45378 2.45892
# Velocity P-wave (km/s) = 4.54858 6.39282 5.54787
#
# Compressibility (1/GPa) = 0.02220318
#
# Stress axis : x y z
#
# Youngs Moduli (GPa) = 93.36500 48.60089 131.21456
#
# Poissons Ratio (x) = 0.17105 0.21244
# Poissons Ratio (y) = 0.32859 0.42168
# Poissons Ratio (z) = 0.15116 0.15619
#
# Static dielectric constant tensor:
#      x y z
#    x 1.799600 0.000000 -0.016450 
#    y 0.000000 1.832050 0.000000 
#    z -0.016450 0.000000 1.950970 
# 
# From -- ./inp_files/18641.got.cif
#   From: 2010.05.17/outbox.cif.g08.bks.cpg/sg13_10_cif.got.tgz:18641.got - 2010.06.03 16:44:36.
