data_PCOD9226956
_publ_section_title
;
Structure prediction by ZEFSAII (Michael W. Deem and Ramdas Pophale) SiO2 
 PCOD9226956
Probable space group: P 2/C
;
_chemical_formula_sum "Si O2"
_cell_formula_units_Z 30
_cell_length_a 24.863720
_cell_length_b 15.752904
_cell_length_c 9.432048
_cell_angle_alpha 90.000000
_cell_angle_beta 153.593718
_cell_angle_gamma 90.000000
_cell_volume 1642.980715
_symmetry_space_group_name_H-M "P 2/C"
_symmetry_group_IT_number 13
_symmetry_cell_setting 'monoclinic'
loop_
_space_group_symop_operation_xyz
x,y,z
-x,y,1/2-z
-x,-y,-z
x,-y,1/2+z
loop_
_atom_site_type_symbol
_atom_site_label
_atom_site_fract_x
_atom_site_fract_y
_atom_site_fract_z
Si Si1 0.149161 0.607901 0.620795
Si Si2 0.000000 0.311661 0.250000
Si Si3 0.852306 0.179580 0.704104
Si Si4 0.811771 0.958570 0.329320
Si Si5 0.911957 0.900409 0.867722
Si Si6 0.880492 0.543249 0.651491
Si Si7 0.735282 0.787425 0.638538
Si Si8 0.429084 0.064598 0.728749
O O1 0.181112 0.575761 0.852896
O O2 0.174871 0.531306 0.573266
O O3 0.234309 0.688479 0.801668
O O4 0.000000 0.626716 0.250000
O O5 0.075876 0.253294 0.539741
O O6 0.084955 0.375839 0.362573
O O7 0.790980 0.121148 0.677761
O O8 0.756901 0.200761 0.357962
O O9 0.954216 0.130938 0.851319
O O10 0.861251 0.923986 0.593660
O O11 0.895329 0.018137 0.428080
O O12 0.696669 0.015340 0.092919
O O13 0.835577 0.829119 0.769874
O O14 0.000000 0.500000 0.000000
O O15 0.613984 0.842157 0.317731
O O16 0.500000 0.073349 0.750000
O O17 0.500000 0.000000 0.000000
#
# Coordination Sequence:
#
# PCOD9226956 Si02
#       8
#     4   2   4   4   4   4   4   4
#     4  10  19  33  54  83 120 158 189 225 272 347
#     4  12  20  32  52  80 122 168 196 226 270 326
#     4  12  22  34  51  85 122 156 193 230 272 342
#     4  11  22  36  56  78 106 152 194 231 295 346
#     4  11  21  37  50  81 116 153 184 230 277 349
#     4  10  18  32  51  77 119 166 193 216 271 336
#     4  11  23  36  58  83 111 153 200 239 289 349
#     4  11  23  43  61  77 107 143 196 258 306 342
#
# _framework density 18.259495999999999
#
# number of rings (size 3 to 8) (size 9 to 14) (size 15 to 20)
#    0.000    1.067    3.333    8.000    0.000    2.133 
#    0.000    0.000    0.000    0.000    0.000    0.933 
#    0.000    0.000    0.000    0.000    0.000    0.000 
#
# Total GULP energy -167214.877804 kJ/mol
# GULP energy per Si atom -5573.829260 kJ/mol
# Density = 1.821794 g / cm^3
# Si number density = 18.259496 Si / 1000 Ang^3
#
#
#
# Elastic Constant Matrix: (Units=GPa)
#
#
# Indices 1 2 3 4 5 6 
#
# 1 120.0010 55.3028 26.8660 0.0000 -21.0004 0.0000
# 2 55.3028 135.1117 25.7353 0.0000 -13.3810 0.0000
# 3 26.8660 25.7353 31.4847 0.0000 -12.4830 0.0000
# 4 0.0000 0.0000 0.0000 26.1844 0.0000 3.3494
# 5 -21.0004 -13.3810 -12.4830 0.0000 34.1026 0.0000
# 6 0.0000 0.0000 0.0000 3.3494 0.0000 29.0445
#
#
#
# Elastic Compliance Matrix: (Units=1/GPa)
#
#
# Indices 1 2 3 4 5 6 
#
# 1 0.011866 -0.003361 -0.005853 0.000000 0.003846 0.000000
# 2 -0.003361 0.009745 -0.005149 0.000000 -0.000131 0.000000
# 3 -0.005853 -0.005149 0.045310 0.000000 0.010961 0.000000
# 4 0.000000 0.000000 0.000000 0.038763 0.000000 -0.004470
# 5 0.003846 -0.000131 0.010961 0.000000 0.035652 0.000000
# 6 0.000000 0.000000 0.000000 -0.004470 0.000000 0.034945
#
#
# Mechanical properties :
#
#
# Convention : Reuss Voigt Hill
#
# Bulk Modulus (GPa) = 26.18186 55.82282 41.00234
# Shear Modulus (GPa) = 22.96329 29.77919 26.37124
#
# Velocity S-wave (km/s) = 3.55012 4.04281 3.80445
# Velocity P-wave (km/s) = 5.58340 7.24090 6.46549
#
# Compressibility (1/GPa) = 0.03819438
#
# Stress axis : x y z
#
# Youngs Moduli (GPa) = 84.27760 102.61862 22.06996
#
# Poissons Ratio (x) = 0.34490 0.12917
# Poissons Ratio (y) = 0.28326 0.11364
# Poissons Ratio (z) = 0.49327 0.52841
#
# Static dielectric constant tensor:
#      x y z
#    x 1.651570 0.000000 -0.007430 
#    y 0.000000 1.717390 0.000000 
#    z -0.007430 0.000000 1.662720 
# 
# From -- ./inp_files/24240.got.cif
#   From: 2010.05.17/outbox.cif.g08.bks.cpg/sg13_13_cif.got.tgz:24240.got - 2010.06.03 16:44:36.
