data_PCOD9226080
_publ_section_title
;
Structure prediction by ZEFSAII (Michael W. Deem and Ramdas Pophale) SiO2 
 PCOD9226080
Probable space group: P 2/C
;
_chemical_formula_sum "Si O2"
_cell_formula_units_Z 28
_cell_length_a 19.498507
_cell_length_b 7.000703
_cell_length_c 23.711538
_cell_angle_alpha 90.000000
_cell_angle_beta 21.429243
_cell_angle_gamma 90.000000
_cell_volume 1182.535395
_symmetry_space_group_name_H-M "P 2/C"
_symmetry_group_IT_number 13
_symmetry_cell_setting 'monoclinic'
loop_
_space_group_symop_operation_xyz
x,y,z
-x,y,1/2-z
-x,-y,-z
x,-y,1/2+z
loop_
_atom_site_type_symbol
_atom_site_label
_atom_site_fract_x
_atom_site_fract_y
_atom_site_fract_z
Si Si1 0.080000 0.764645 0.070198
Si Si2 0.500000 0.092751 0.250000
Si Si3 0.321886 0.685685 0.629387
Si Si4 0.728043 0.565868 0.962861
Si Si5 0.075725 0.304343 0.084375
Si Si6 0.400986 0.776305 0.247721
Si Si7 0.297519 0.731488 0.199310
Si Si8 0.000000 0.217336 0.750000
O O1 0.061328 0.535665 0.091595
O O2 0.910961 0.799214 0.156381
O O3 0.017960 0.873233 0.175220
O O4 0.300299 0.804084 0.892759
O O5 0.517949 0.956347 0.181146
O O6 0.308137 0.627161 0.573453
O O7 0.524361 0.787011 0.477172
O O8 0.312266 0.500464 0.677757
O O9 0.119073 0.781861 0.789037
O O10 0.860827 0.703629 0.898945
O O11 0.819285 0.358636 0.888277
O O12 0.532493 0.588158 0.145726
O O13 0.235585 0.241933 0.919029
O O14 0.333423 0.795383 0.235640
#
# Coordination Sequence:
#
# PCOD9226080 Si02
#       8
#     4   2   4   4   4   4   4   2
#     4  10  23  39  62  89 124 161 210 260 314 373
#     4  12  26  42  54  88 130 180 212 238 306 388
#     4   9  16  30  58  95 119 147 195 266 324 358
#     4  10  15  31  58  89 117 146 201 261 304 349
#     4  10  18  34  59  96 115 156 208 262 310 357
#     4  11  23  36  61  90 127 165 203 256 314 373
#     4   9  19  37  58  91 126 161 198 263 323 366
#     4  10  18  36  62  92 108 156 204 270 308 348
#
# _framework density 23.67794
#
# number of rings (size 3 to 8) (size 9 to 14) (size 15 to 20)
#    0.000    2.000    5.714    0.000    4.000    2.857 
#    0.000    5.000    0.000    1.714    0.000    0.000 
#    0.000    0.000    0.000    0.000    0.000    0.000 
#
# Total GULP energy -155916.386937 kJ/mol
# GULP energy per Si atom -5568.442391 kJ/mol
# Density = 2.362405 g / cm^3
# Si number density = 23.677940 Si / 1000 Ang^3
#
#
#
# Elastic Constant Matrix: (Units=GPa)
#
#
# Indices 1 2 3 4 5 6 
#
# 1 99.1486 10.6765 43.3573 0.0000 -29.8107 0.0000
# 2 10.6765 45.0356 -0.1279 0.0000 -10.3920 0.0000
# 3 43.3573 -0.1279 161.2452 0.0000 -30.5498 0.0000
# 4 0.0000 0.0000 0.0000 -48.1560 0.0000 7.2421
# 5 -29.8107 -10.3920 -30.5498 0.0000 43.6200 0.0000
# 6 0.0000 0.0000 0.0000 7.2421 0.0000 6.4999
#
#
#
# Elastic Compliance Matrix: (Units=1/GPa)
#
#
# Indices 1 2 3 4 5 6 
#
# 1 0.013401 -0.001514 -0.002234 0.000000 0.007233 0.000000
# 2 -0.001514 0.023886 0.001508 0.000000 0.005712 0.000000
# 3 -0.002234 0.001508 0.007590 0.000000 0.004148 0.000000
# 4 0.000000 0.000000 0.000000 -0.017786 0.000000 0.019816
# 5 0.007233 0.005712 0.004148 0.000000 0.032134 0.000000
# 6 0.000000 0.000000 0.000000 0.019816 0.000000 0.131769
#
#
# Mechanical properties :
#
#
# Convention : Reuss Voigt Hill
#
# Bulk Modulus (GPa) = 24.75494 45.91570 35.33532
# Shear Modulus (GPa) = 23.93043 17.16102 20.54572
#
# Velocity S-wave (km/s) = 3.18254 2.69507 2.94890
# Velocity P-wave (km/s) = 4.89717 5.39615 5.15270
#
# Compressibility (1/GPa) = 0.04039598
#
# Stress axis : x y z
#
# Youngs Moduli (GPa) = 74.62381 41.86552 131.76019
#
# Poissons Ratio (x) = 0.06339 0.29437
# Poissons Ratio (y) = 0.11300 -0.19874
# Poissons Ratio (z) = 0.16672 -0.06315
#
# Static dielectric constant tensor:
#      x y z
#    x 1.927850 0.000000 -0.077820 
#    y 0.000000 1.976230 0.000000 
#    z -0.077820 0.000000 2.003080 
# 
# From -- ./inp_files/88491.got.cif
#   From: 2010.05.17/outbox.cif.g08.bks.cpg/sg13_45_cif.got.tgz:88491.got - 2010.06.03 16:44:36.
