data_PCOD9226869
_publ_section_title
;
Structure prediction by ZEFSAII (Michael W. Deem and Ramdas Pophale) SiO2 
 PCOD9226869
Probable space group: P 2/C
;
_chemical_formula_sum "Si O2"
_cell_formula_units_Z 32
_cell_length_a 23.170937
_cell_length_b 8.097257
_cell_length_c 28.684332
_cell_angle_alpha 90.000000
_cell_angle_beta 17.277987
_cell_angle_gamma 90.000000
_cell_volume 1598.433074
_symmetry_space_group_name_H-M "P 2/C"
_symmetry_group_IT_number 13
_symmetry_cell_setting 'monoclinic'
loop_
_space_group_symop_operation_xyz
x,y,z
-x,y,1/2-z
-x,-y,-z
x,-y,1/2+z
loop_
_atom_site_type_symbol
_atom_site_label
_atom_site_fract_x
_atom_site_fract_y
_atom_site_fract_z
Si Si1 0.808997 0.395428 0.774633
Si Si2 0.329195 0.916569 0.549054
Si Si3 0.785861 0.680867 0.938425
Si Si4 0.711229 0.092902 0.235584
Si Si5 0.993581 0.865576 0.437412
Si Si6 0.127674 0.665687 0.106036
Si Si7 0.390508 0.263999 0.096812
Si Si8 0.100274 0.008797 0.091365
O O1 0.716154 0.573208 0.839183
O O2 0.920181 0.307771 0.646420
O O3 0.968104 0.395411 0.691869
O O4 0.618301 0.286074 0.931713
O O5 0.337080 0.758128 0.508895
O O6 0.376848 0.866534 0.565369
O O7 0.488383 0.038299 0.405674
O O8 0.110411 0.984486 0.720555
O O9 0.734698 0.493745 0.992433
O O10 0.000000 0.666853 0.750000
O O11 0.799985 0.819815 0.968672
O O12 0.716880 0.224132 0.272606
O O13 0.803710 0.146562 0.115864
O O14 0.841392 0.945897 0.157117
O O15 0.945322 0.976082 0.428333
O O16 0.206337 0.841959 0.027363
O O17 0.000000 0.698218 0.250000
#
# Coordination Sequence:
#
# PCOD9226869 Si02
#       8
#     4   4   4   4   4   4   4   4
#     4  10  21  34  54  85 114 148 190 239 293 349
#     4  11  19  35  58  86 112 149 192 240 296 347
#     4   9  19  32  54  83 109 143 186 237 297 343
#     4  11  21  34  56  78 113 158 185 235 282 347
#     4  10  21  36  52  79 113 153 196 225 284 347
#     4  10  18  31  51  81 111 140 180 239 288 344
#     4  11  20  33  56  84 117 147 185 244 295 337
#     4  10  19  34  57  82 110 146 193 237 287 348
#
# _framework density 20.019607000000001
#
# number of rings (size 3 to 8) (size 9 to 14) (size 15 to 20)
#    0.000    1.750    2.500    5.250    0.000    0.500 
#    0.000    0.625    0.000    0.000    0.000   15.750 
#    0.000    0.000    0.000    0.000    0.000    0.000 
#
# Total GULP energy -178430.910900 kJ/mol
# GULP energy per Si atom -5575.965966 kJ/mol
# Density = 1.997404 g / cm^3
# Si number density = 20.019607 Si / 1000 Ang^3
#
#
#
# Elastic Constant Matrix: (Units=GPa)
#
#
# Indices 1 2 3 4 5 6 
#
# 1 56.5200 4.0448 27.7578 0.0000 2.3200 0.0000
# 2 4.0448 63.2294 19.0357 0.0000 -5.6745 0.0000
# 3 27.7578 19.0357 52.5760 0.0000 39.0590 0.0000
# 4 0.0000 0.0000 0.0000 12.5473 0.0000 -3.4972
# 5 2.3200 -5.6745 39.0590 0.0000 5.5189 0.0000
# 6 0.0000 0.0000 0.0000 -3.4972 0.0000 21.7327
#
#
#
# Elastic Compliance Matrix: (Units=1/GPa)
#
#
# Indices 1 2 3 4 5 6 
#
# 1 0.018214 -0.002351 0.000301 0.000000 -0.012203 0.000000
# 2 -0.002351 0.013993 0.003581 0.000000 -0.009969 0.000000
# 3 0.000301 0.003581 -0.003505 0.000000 0.028361 0.000000
# 4 0.000000 0.000000 0.000000 0.083441 0.000000 0.013427
# 5 -0.012203 -0.009969 0.028361 0.000000 -0.024645 0.000000
# 6 0.000000 0.000000 0.000000 0.013427 0.000000 0.048174
#
#
# Mechanical properties :
#
#
# Convention : Reuss Voigt Hill
#
# Bulk Modulus (GPa) = 31.48166 30.44466 30.96316
# Shear Modulus (GPa) = 34.91654 16.05894 25.48774
#
# Velocity S-wave (km/s) = 4.18079 2.83532 3.57198
# Velocity P-wave (km/s) = 6.25019 5.09501 5.70193
#
# Compressibility (1/GPa) = 0.03176453
#
# Stress axis : x y z
#
# Youngs Moduli (GPa) = 54.90202 71.46433 -285.31194
#
# Poissons Ratio (x) = 0.16801 0.08584
# Poissons Ratio (y) = 0.12907 1.02175
# Poissons Ratio (z) = -0.01652 -0.25593
#
# Static dielectric constant tensor:
#      x y z
#    x 1.733800 0.000000 -0.023450 
#    y 0.000000 1.802040 0.000000 
#    z -0.023450 0.000000 1.680710 
# 
# From -- ./inp_files/93575.got.cif
#   From: 2010.05.17/outbox.cif.g08.bks.cpg/sg13_47_cif.got.tgz:93575.got - 2010.06.03 16:44:36.
