data_PCOD9226986
_publ_section_title
;
Structure prediction by ZEFSAII (Michael W. Deem and Ramdas Pophale) SiO2 
 PCOD9226986
Probable space group: P 2/C
;
_chemical_formula_sum "Si O2"
_cell_formula_units_Z 18
_cell_length_a 18.310265
_cell_length_b 8.653788
_cell_length_c 19.048157
_cell_angle_alpha 90.000000
_cell_angle_beta 21.054200
_cell_angle_gamma 90.000000
_cell_volume 1084.305699
_symmetry_space_group_name_H-M "P 2/C"
_symmetry_group_IT_number 13
_symmetry_cell_setting 'monoclinic'
loop_
_space_group_symop_operation_xyz
x,y,z
-x,y,1/2-z
-x,-y,-z
x,-y,1/2+z
loop_
_atom_site_type_symbol
_atom_site_label
_atom_site_fract_x
_atom_site_fract_y
_atom_site_fract_z
Si Si1 0.611220 0.954720 0.011554
Si Si2 0.325216 0.733778 0.356406
Si Si3 0.512166 0.246075 0.467814
Si Si4 0.769390 0.459556 0.693866
Si Si5 0.000000 0.118739 0.250000
O O1 0.624689 0.836742 0.932954
O O2 0.823175 0.966611 0.863790
O O3 0.438279 0.879598 0.217052
O O4 0.542285 0.115823 0.039783
O O5 0.500000 0.667440 0.250000
O O6 0.264320 0.612909 0.352058
O O7 0.132591 0.783786 0.575300
O O8 0.313828 0.329409 0.677894
O O9 0.642899 0.384367 0.318821
O O10 0.000000 0.500000 0.500000
#
# Coordination Sequence:
#
# PCOD9226986 Si02
#       5
#     4   4   4   4   2
#     4   9  18  34  54  75  99 129 166 208 249 291
#     4   9  19  34  52  72  99 134 168 204 246 293
#     4   9  19  34  52  76 103 127 162 211 251 289
#     4  10  19  33  53  76 101 132 166 201 248 300
#     4  10  18  32  54  74  96 132 172 202 242 298
#
# _framework density 16.600486
#
# number of rings (size 3 to 8) (size 9 to 14) (size 15 to 20)
#    0.000    2.667    0.000    1.333    0.000    3.556 
#    0.000   12.222    0.000    4.000    0.000    0.000 
#    0.000    0.000    0.000    0.000    0.000    0.000 
#
# Total GULP energy -100278.274295 kJ/mol
# GULP energy per Si atom -5571.015239 kJ/mol
# Density = 1.656270 g / cm^3
# Si number density = 16.600486 Si / 1000 Ang^3
#
#
#
# Elastic Constant Matrix: (Units=GPa)
#
#
# Indices 1 2 3 4 5 6 
#
# 1 129.6230 61.0626 72.5612 0.0000 -5.1389 0.0000
# 2 61.0626 86.4057 38.1659 0.0000 -0.0534 0.0000
# 3 72.5612 38.1659 106.9749 0.0000 -1.8775 0.0000
# 4 0.0000 0.0000 0.0000 2.9523 0.0000 0.4895
# 5 -5.1389 -0.0534 -1.8775 0.0000 27.3076 0.0000
# 6 0.0000 0.0000 0.0000 0.4895 0.0000 25.4073
#
#
#
# Elastic Compliance Matrix: (Units=1/GPa)
#
#
# Indices 1 2 3 4 5 6 
#
# 1 0.015931 -0.007719 -0.008009 0.000000 0.002432 0.000000
# 2 -0.007719 0.017481 -0.001027 0.000000 -0.001489 0.000000
# 3 -0.008009 -0.001027 0.015139 0.000000 -0.000468 0.000000
# 4 0.000000 0.000000 0.000000 0.339803 0.000000 -0.006547
# 5 0.002432 -0.001489 -0.000468 0.000000 0.037042 0.000000
# 6 0.000000 0.000000 0.000000 -0.006547 0.000000 0.039485
#
#
# Mechanical properties :
#
#
# Convention : Reuss Voigt Hill
#
# Bulk Modulus (GPa) = 66.48931 74.06477 70.27704
# Shear Modulus (GPa) = 9.93235 21.21438 15.57336
#
# Velocity S-wave (km/s) = 2.44870 3.57870 3.06621
# Velocity P-wave (km/s) = 6.93790 7.86060 7.41362
#
# Compressibility (1/GPa) = 0.01504001
#
# Stress axis : x y z
#
# Youngs Moduli (GPa) = 62.77127 57.20475 66.05496
#
# Poissons Ratio (x) = 0.44156 0.52905
# Poissons Ratio (y) = 0.48453 0.06785
# Poissons Ratio (z) = 0.50275 0.05876
#
# Static dielectric constant tensor:
#      x y z
#    x 1.557060 0.000000 0.008460 
#    y 0.000000 1.528540 0.000000 
#    z 0.008460 0.000000 1.549150 
# 
# From -- ./inp_files/60339.got.cif
#   From: 2010.05.17/outbox.cif.g08.bks.cpg/sg13_31_cif.got.tgz:60339.got - 2010.06.03 16:44:36.
