data_PCOD9226588
_publ_section_title
;
Structure prediction by ZEFSAII (Michael W. Deem and Ramdas Pophale) SiO2 
 PCOD9226588
Probable space group: P 2/C
;
_chemical_formula_sum "Si O2"
_cell_formula_units_Z 30
_cell_length_a 11.324010
_cell_length_b 10.190888
_cell_length_c 14.717618
_cell_angle_alpha 90.000000
_cell_angle_beta 48.149317
_cell_angle_gamma 90.000000
_cell_volume 1265.143159
_symmetry_space_group_name_H-M "P 2/C"
_symmetry_group_IT_number 13
_symmetry_cell_setting 'monoclinic'
loop_
_space_group_symop_operation_xyz
x,y,z
-x,y,1/2-z
-x,-y,-z
x,-y,1/2+z
loop_
_atom_site_type_symbol
_atom_site_label
_atom_site_fract_x
_atom_site_fract_y
_atom_site_fract_z
Si Si1 0.018923 0.314951 0.462696
Si Si2 0.000000 0.855469 0.250000
Si Si3 0.674201 0.679299 0.408112
Si Si4 0.350370 0.303125 0.382632
Si Si5 0.115243 0.940334 0.826978
Si Si6 0.335096 0.992256 0.380157
Si Si7 0.080413 0.447764 0.808878
Si Si8 0.385919 0.875576 0.540668
O O1 0.201750 0.326018 0.396486
O O2 0.008614 0.176545 0.419704
O O3 0.998520 0.429372 0.399870
O O4 0.938100 0.337497 0.601951
O O5 0.170451 0.779387 0.167361
O O6 0.010652 0.950551 0.331047
O O7 0.664353 0.625807 0.514802
O O8 0.733478 0.565374 0.310479
O O9 0.509135 0.753758 0.474934
O O10 0.500000 0.343889 0.250000
O O11 0.358794 0.145713 0.397185
O O12 0.209013 0.001568 0.863747
O O13 0.248069 0.881343 0.688329
O O14 0.500000 0.949302 0.250000
O O15 0.312348 0.903483 0.479907
O O16 0.000000 0.437868 0.750000
O O17 0.500000 0.000000 0.500000
#
# Coordination Sequence:
#
# PCOD9226588 Si02
#       8
#     4   2   4   4   4   4   4   4
#     4  10  23  43  67  95 122 172 224 272 347 389
#     4  12  22  38  64  98 142 172 230 270 328 408
#     4  12  21  39  67  99 129 177 225 272 325 407
#     4  10  18  35  63  93 122 163 220 262 324 399
#     4  11  24  41  65 100 135 174 223 279 333 405
#     4  10  17  33  59  89 128 176 208 250 317 391
#     4  11  23  44  72  89 127 175 224 284 333 398
#     4  12  20  38  65  95 139 176 219 260 335 401
#
# _framework density 23.712731000000002
#
# number of rings (size 3 to 8) (size 9 to 14) (size 15 to 20)
#    0.000    1.067    6.000    1.600    0.933    1.067 
#    0.000   18.667    0.000    0.000    0.000    0.000 
#    0.000    0.000    0.000    0.000    0.000    0.000 
#
# Total GULP energy -167591.340617 kJ/mol
# GULP energy per Si atom -5586.378021 kJ/mol
# Density = 2.365876 g / cm^3
# Si number density = 23.712731 Si / 1000 Ang^3
#
#
#
# Elastic Constant Matrix: (Units=GPa)
#
#
# Indices 1 2 3 4 5 6 
#
# 1 101.1842 28.5893 47.5456 0.0000 22.7079 0.0000
# 2 28.5893 47.0577 36.5701 0.0000 15.7145 0.0000
# 3 47.5456 36.5701 185.2209 0.0000 20.6790 0.0000
# 4 0.0000 0.0000 0.0000 1304.1103 0.0000 419.2238
# 5 22.7079 15.7145 20.6790 0.0000 44.0038 0.0000
# 6 0.0000 0.0000 0.0000 419.2238 0.0000 147.8595
#
#
#
# Elastic Compliance Matrix: (Units=1/GPa)
#
#
# Indices 1 2 3 4 5 6 
#
# 1 0.013142 -0.005153 -0.001904 0.000000 -0.004047 0.000000
# 2 -0.005153 0.029349 -0.003798 0.000000 -0.006037 0.000000
# 3 -0.001904 -0.003798 0.006730 0.000000 -0.000823 0.000000
# 4 0.000000 0.000000 0.000000 0.008659 0.000000 -0.024550
# 5 -0.004047 -0.006037 -0.000823 0.000000 0.027356 0.000000
# 6 0.000000 0.000000 0.000000 -0.024550 0.000000 0.076369
#
#
# Mechanical properties :
#
#
# Convention : Reuss Voigt Hill
#
# Bulk Modulus (GPa) = 36.35065 62.09699 49.22382
# Shear Modulus (GPa) = 25.97620 313.91191 169.94406
#
# Velocity S-wave (km/s) = 3.31335 11.51818 8.47487
# Velocity P-wave (km/s) = 5.47728 14.25256 10.79667
#
# Compressibility (1/GPa) = 0.02750983
#
# Stress axis : x y z
#
# Youngs Moduli (GPa) = 76.09254 34.07323 148.59792
#
# Poissons Ratio (x) = 0.17558 0.28297
# Poissons Ratio (y) = 0.39210 0.56435
# Poissons Ratio (z) = 0.14490 0.12941
#
# Static dielectric constant tensor:
#      x y z
#    x 1.942840 0.000000 0.041290 
#    y 0.000000 2.080910 0.000000 
#    z 0.041290 0.000000 2.005250 
# 
# From -- ./inp_files/51160.got.cif
#   From: 2010.05.17/outbox.cif.g08.bks.cpg/sg13_26_cif.got.tgz:51160.got - 2010.06.03 16:44:36.
