data_PCOD9226811
_publ_section_title
;
Structure prediction by ZEFSAII (Michael W. Deem and Ramdas Pophale) SiO2 
 PCOD9226811
Probable space group: P 2/C
;
_chemical_formula_sum "Si O2"
_cell_formula_units_Z 30
_cell_length_a 11.825845
_cell_length_b 6.711386
_cell_length_c 22.837915
_cell_angle_alpha 90.000000
_cell_angle_beta 143.149875
_cell_angle_gamma 90.000000
_cell_volume 1087.056704
_symmetry_space_group_name_H-M "P 2/C"
_symmetry_group_IT_number 13
_symmetry_cell_setting 'monoclinic'
loop_
_space_group_symop_operation_xyz
x,y,z
-x,y,1/2-z
-x,-y,-z
x,-y,1/2+z
loop_
_atom_site_type_symbol
_atom_site_label
_atom_site_fract_x
_atom_site_fract_y
_atom_site_fract_z
Si Si1 0.686994 0.100149 0.506941
Si Si2 0.444551 0.133300 0.167079
Si Si3 0.000000 0.996651 0.750000
Si Si4 0.155100 0.828513 0.698222
Si Si5 0.635415 0.284324 0.045791
Si Si6 0.081341 0.286958 0.642171
Si Si7 0.039055 0.763123 0.529123
Si Si8 0.734026 0.626119 0.164362
O O1 0.743263 0.907208 0.567255
O O2 0.511893 0.204235 0.466081
O O3 0.862695 0.244211 0.568332
O O4 0.621640 0.016674 0.417095
O O5 0.500000 0.024543 0.250000
O O6 0.631344 0.244599 0.222739
O O7 0.261986 0.263178 0.108007
O O8 0.833144 0.170652 0.683743
O O9 0.089590 0.851189 0.737359
O O10 0.020997 0.736397 0.591805
O O11 0.168368 0.064745 0.685168
O O12 0.758520 0.456394 0.125286
O O13 0.492857 0.351052 0.934928
O O14 0.179434 0.409224 0.735307
O O15 0.079029 0.341280 0.572040
O O16 0.000000 0.000000 0.500000
#
# Coordination Sequence:
#
# PCOD9226811 Si02
#       8
#     4   4   2   4   4   4   4   4
#     4  10  19  34  56  88 122 155 205 274 323 370
#     4   9  17  30  53  88 122 155 201 260 321 376
#     4  10  18  30  52  80 120 178 218 254 324 398
#     4   9  16  28  49  80 120 163 204 255 315 375
#     4  10  21  35  55  84 121 162 211 262 320 395
#     4   9  17  30  54  82 117 160 204 260 325 381
#     4   8  15  28  48  82 119 155 205 262 310 370
#     4  10  20  36  54  79 118 171 213 250 326 405
#
# _framework density 27.597456000000001
#
# number of rings (size 3 to 8) (size 9 to 14) (size 15 to 20)
#    0.000    2.667    0.000    3.200    0.000    2.133 
#    0.000    4.000    0.000    0.000    0.000   69.067 
#    0.000    0.000    0.000    0.000    0.000    1.867 
#
# Total GULP energy -167471.640791 kJ/mol
# GULP energy per Si atom -5582.388026 kJ/mol
# Density = 2.753464 g / cm^3
# Si number density = 27.597456 Si / 1000 Ang^3
#
#
#
# Elastic Constant Matrix: (Units=GPa)
#
#
# Indices 1 2 3 4 5 6 
#
# 1 155.5655 39.2316 70.2306 0.0000 -28.2651 0.0000
# 2 39.2316 93.7360 45.3667 0.0000 -15.4542 0.0000
# 3 70.2306 45.3667 190.9647 0.0000 -41.1711 0.0000
# 4 0.0000 0.0000 0.0000 45.0585 0.0000 -7.4247
# 5 -28.2651 -15.4542 -41.1711 0.0000 66.7077 0.0000
# 6 0.0000 0.0000 0.0000 -7.4247 0.0000 26.3685
#
#
#
# Elastic Compliance Matrix: (Units=1/GPa)
#
#
# Indices 1 2 3 4 5 6 
#
# 1 0.008246 -0.002127 -0.002169 0.000000 0.001663 0.000000
# 2 -0.002127 0.012685 -0.002067 0.000000 0.000762 0.000000
# 3 -0.002169 -0.002067 0.007179 0.000000 0.003033 0.000000
# 4 0.000000 0.000000 0.000000 0.023273 0.000000 0.006553
# 5 0.001663 0.000762 0.003033 0.000000 0.017744 0.000000
# 6 0.000000 0.000000 0.000000 0.006553 0.000000 0.039769
#
#
# Mechanical properties :
#
#
# Convention : Reuss Voigt Hill
#
# Bulk Modulus (GPa) = 65.00462 83.32488 74.16475
# Shear Modulus (GPa) = 39.44798 46.65608 43.05203
#
# Velocity S-wave (km/s) = 3.78485 4.11614 3.95397
# Velocity P-wave (km/s) = 6.53497 7.26971 6.91211
#
# Compressibility (1/GPa) = 0.01538352
#
# Stress axis : x y z
#
# Youngs Moduli (GPa) = 121.27379 78.83615 139.29360
#
# Poissons Ratio (x) = 0.16772 0.30209
# Poissons Ratio (y) = 0.25800 0.28790
# Poissons Ratio (z) = 0.26301 0.16294
#
# Static dielectric constant tensor:
#      x y z
#    x 2.144050 0.000000 -0.128930 
#    y 0.000000 2.235740 0.000000 
#    z -0.128930 0.000000 2.647310 
# 
# From -- ./inp_files/52768.got.cif
#   From: 2010.05.17/outbox.cif.g08.bks.cpg/sg13_27_cif.got.tgz:52768.got - 2010.06.03 16:44:36.
