data_PCOD9226577
_publ_section_title
;
Structure prediction by ZEFSAII (Michael W. Deem and Ramdas Pophale) SiO2 
 PCOD9226577
Probable space group: P 2/C
;
_chemical_formula_sum "Si O2"
_cell_formula_units_Z 28
_cell_length_a 21.192440
_cell_length_b 8.834767
_cell_length_c 20.470327
_cell_angle_alpha 90.000000
_cell_angle_beta 159.307168
_cell_angle_gamma 90.000000
_cell_volume 1354.302063
_symmetry_space_group_name_H-M "P 2/C"
_symmetry_group_IT_number 13
_symmetry_cell_setting 'monoclinic'
loop_
_space_group_symop_operation_xyz
x,y,z
-x,y,1/2-z
-x,-y,-z
x,-y,1/2+z
loop_
_atom_site_type_symbol
_atom_site_label
_atom_site_fract_x
_atom_site_fract_y
_atom_site_fract_z
Si Si1 0.297850 0.050473 0.390053
Si Si2 0.016727 0.230864 0.475482
Si Si3 0.406651 0.711477 0.346565
Si Si4 0.187838 0.192594 0.412609
Si Si5 0.640875 0.576718 0.332977
Si Si6 0.037973 0.472390 0.183738
Si Si7 0.225361 0.286609 0.795448
O O1 0.115755 0.104551 0.178350
O O2 0.444674 0.161869 0.502336
O O3 0.287614 0.092576 0.456469
O O4 0.315912 0.872542 0.399129
O O5 0.220039 0.202363 0.649593
O O6 0.968080 0.387991 0.392518
O O7 0.042113 0.252408 0.577109
O O8 0.442510 0.603219 0.319655
O O9 0.351936 0.636504 0.362797
O O10 0.302501 0.257959 0.582963
O O11 0.000000 0.117471 0.250000
O O12 0.124646 0.345885 0.313829
O O13 0.500000 0.514882 0.250000
O O14 0.834143 0.497182 0.509165
O O15 0.165803 0.614402 0.298488
#
# Coordination Sequence:
#
# PCOD9226577 Si02
#       7
#     4   4   4   4   4   4   4
#     4  11  18  35  56  84 110 150 189 229 286 343
#     4   8  19  32  54  76 115 144 186 225 276 342
#     4   9  20  32  57  83 115 140 190 235 284 335
#     4   9  19  34  56  81 102 145 202 231 271 340
#     4  10  17  33  57  80 106 146 201 247 269 335
#     4   9  18  35  55  80 110 148 186 239 291 339
#     4  10  20  34  54  84 119 146 177 238 303 339
#
# _framework density 20.674856999999999
#
# number of rings (size 3 to 8) (size 9 to 14) (size 15 to 20)
#    0.857    1.714    1.429    2.143    0.000    0.000 
#    0.000    6.429    0.000    0.000    0.000    0.000 
#    0.000    0.000    0.000    0.000    0.000    0.000 
#
# Total GULP energy -155893.630706 kJ/mol
# GULP energy per Si atom -5567.629668 kJ/mol
# Density = 2.062780 g / cm^3
# Si number density = 20.674857 Si / 1000 Ang^3
#
#
#
# Elastic Constant Matrix: (Units=GPa)
#
#
# Indices 1 2 3 4 5 6 
#
# 1 99.3705 33.1575 11.0541 0.0000 18.2045 0.0000
# 2 33.1575 21.3388 2.6998 0.0000 15.2907 0.0000
# 3 11.0541 2.6998 41.4045 0.0000 16.6704 0.0000
# 4 0.0000 0.0000 0.0000 9.4514 0.0000 4.7165
# 5 18.2045 15.2907 16.6704 0.0000 34.6671 0.0000
# 6 0.0000 0.0000 0.0000 4.7165 0.0000 14.0199
#
#
#
# Elastic Compliance Matrix: (Units=1/GPa)
#
#
# Indices 1 2 3 4 5 6 
#
# 1 0.023141 -0.042227 -0.007479 0.000000 0.010070 0.000000
# 2 -0.042227 0.148760 0.023641 0.000000 -0.054807 0.000000
# 3 -0.007479 0.023641 0.033761 0.000000 -0.022734 0.000000
# 4 0.000000 0.000000 0.000000 0.127151 0.000000 -0.042775
# 5 0.010070 -0.054807 -0.022734 0.000000 0.058664 0.000000
# 6 0.000000 0.000000 0.000000 -0.042775 0.000000 0.085717
#
#
# Mechanical properties :
#
#
# Convention : Reuss Voigt Hill
#
# Bulk Modulus (GPa) = 6.51336 28.43740 17.47538
# Shear Modulus (GPa) = 8.61326 19.30783 13.96055
#
# Velocity S-wave (km/s) = 2.04331 3.05926 2.60136
# Velocity P-wave (km/s) = 2.95364 5.12476 4.18254
#
# Compressibility (1/GPa) = 0.15353060
#
# Stress axis : x y z
#
# Youngs Moduli (GPa) = 43.21413 6.72226 29.62033
#
# Poissons Ratio (x) = 0.28386 0.22153
# Poissons Ratio (y) = 1.82479 -0.70024
# Poissons Ratio (z) = 0.32320 -0.15892
#
# Static dielectric constant tensor:
#      x y z
#    x 1.823260 0.000000 -0.004740 
#    y 0.000000 1.745550 0.000000 
#    z -0.004740 0.000000 1.798280 
# 
# From -- ./inp_files/88893.got.cif
#   From: 2010.05.17/outbox.cif.g08.bks.cpg/sg13_45_cif.got.tgz:88893.got - 2010.06.03 16:44:36.
