data_PCOD9226524
_publ_section_title
;
Structure prediction by ZEFSAII (Michael W. Deem and Ramdas Pophale) SiO2 
 PCOD9226524
Probable space group: P 2/C
;
_chemical_formula_sum "Si O2"
_cell_formula_units_Z 22
_cell_length_a 10.443654
_cell_length_b 8.801104
_cell_length_c 12.327562
_cell_angle_alpha 90.000000
_cell_angle_beta 107.160479
_cell_angle_gamma 90.000000
_cell_volume 1082.653244
_symmetry_space_group_name_H-M "P 2/C"
_symmetry_group_IT_number 13
_symmetry_cell_setting 'monoclinic'
loop_
_space_group_symop_operation_xyz
x,y,z
-x,y,1/2-z
-x,-y,-z
x,-y,1/2+z
loop_
_atom_site_type_symbol
_atom_site_label
_atom_site_fract_x
_atom_site_fract_y
_atom_site_fract_z
Si Si1 0.591917 0.728744 0.614556
Si Si2 0.318051 0.756887 0.110328
Si Si3 0.125409 0.767393 0.716320
Si Si4 0.995761 0.820492 0.471085
Si Si5 0.500000 0.012965 0.250000
Si Si6 0.000000 0.072148 0.750000
Si Si7 0.500000 0.486454 0.750000
O O1 0.612998 0.740637 0.491294
O O2 0.737300 0.707863 0.705388
O O3 0.534734 0.880809 0.656253
O O4 0.508223 0.591048 0.645002
O O5 0.157628 0.765300 0.057052
O O6 0.371878 0.621322 0.199437
O O7 0.376767 0.907657 0.181970
O O8 0.000000 0.699510 0.750000
O O9 0.094165 0.745803 0.582424
O O10 0.113639 0.949232 0.743171
O O11 0.040969 0.821581 0.358788
O O12 0.000000 0.000000 0.500000
#
# Coordination Sequence:
#
# PCOD9226524 Si02
#       7
#     4   4   4   4   2   2   2
#     4  11  20  40  60  84 119 157 201 247 291 358
#     4  11  21  39  59  85 122 155 197 249 296 354
#     4   9  17  30  55  83 106 147 186 232 299 343
#     4  10  17  31  55  86 117 146 181 238 304 353
#     4  10  22  32  60  94 112 150 204 244 302 350
#     4   8  16  28  48  86 120 142 174 232 304 352
#     4  10  26  40  56  82 116 170 206 234 284 350
#
# _framework density 20.320447999999999
#
# number of rings (size 3 to 8) (size 9 to 14) (size 15 to 20)
#    0.545    1.455    1.818    3.273    0.000    0.000 
#    0.000   10.000    2.000    0.000    0.000    0.000 
#    0.000    0.000    0.000    0.000    0.000    0.000 
#
# Total GULP energy -122616.182464 kJ/mol
# GULP energy per Si atom -5573.462839 kJ/mol
# Density = 2.027420 g / cm^3
# Si number density = 20.320448 Si / 1000 Ang^3
#
#
#
# Elastic Constant Matrix: (Units=GPa)
#
#
# Indices 1 2 3 4 5 6 
#
# 1 39.0752 16.0472 -8.5334 0.0000 6.9023 0.0000
# 2 16.0472 64.6505 13.3443 0.0000 0.3059 0.0000
# 3 -8.5334 13.3443 103.1993 0.0000 -19.6204 0.0000
# 4 0.0000 0.0000 0.0000 18.8808 0.0000 22.5425
# 5 6.9023 0.3059 -19.6204 0.0000 33.6407 0.0000
# 6 0.0000 0.0000 0.0000 22.5425 0.0000 62.3780
#
#
#
# Elastic Compliance Matrix: (Units=1/GPa)
#
#
# Indices 1 2 3 4 5 6 
#
# 1 0.030291 -0.008049 0.002674 0.000000 -0.004582 0.000000
# 2 -0.008049 0.018099 -0.003063 0.000000 -0.000299 0.000000
# 3 0.002674 -0.003063 0.011481 0.000000 0.006175 0.000000
# 4 0.000000 0.000000 0.000000 0.093160 0.000000 -0.033667
# 5 -0.004582 -0.000299 0.006175 0.000000 0.034270 0.000000
# 6 0.000000 0.000000 0.000000 -0.033667 0.000000 0.028198
#
#
# Mechanical properties :
#
#
# Convention : Reuss Voigt Hill
#
# Bulk Modulus (GPa) = 23.25787 27.62681 25.44234
# Shear Modulus (GPa) = 20.26705 35.38435 27.82570
#
# Velocity S-wave (km/s) = 3.16155 4.17744 3.70448
# Velocity P-wave (km/s) = 4.97972 6.07397 5.55386
#
# Compressibility (1/GPa) = 0.04299619
#
# Stress axis : x y z
#
# Youngs Moduli (GPa) = 33.01363 55.25092 87.09867
#
# Poissons Ratio (x) = 0.44471 -0.23293
# Poissons Ratio (y) = 0.26572 0.26677
# Poissons Ratio (z) = -0.08829 0.16922
#
# Static dielectric constant tensor:
#      x y z
#    x 1.773590 0.000000 -0.002830 
#    y 0.000000 1.769480 0.000000 
#    z -0.002830 0.000000 1.845440 
# 
# From -- ./inp_files/32248.got.cif
#   From: 2010.05.17/outbox.cif.g08.bks.cpg/sg13_17_cif.got.tgz:32248.got - 2010.06.03 16:44:36.
