data_PCOD9226039
_publ_section_title
;
Structure prediction by ZEFSAII (Michael W. Deem and Ramdas Pophale) SiO2 
 PCOD9226039
Probable space group: P 2/C
;
_chemical_formula_sum "Si O2"
_cell_formula_units_Z 26
_cell_length_a 15.360858
_cell_length_b 20.083448
_cell_length_c 5.452913
_cell_angle_alpha 90.000000
_cell_angle_beta 79.558174
_cell_angle_gamma 90.000000
_cell_volume 1654.359676
_symmetry_space_group_name_H-M "P 2/C"
_symmetry_group_IT_number 13
_symmetry_cell_setting 'monoclinic'
loop_
_space_group_symop_operation_xyz
x,y,z
-x,y,1/2-z
-x,-y,-z
x,-y,1/2+z
loop_
_atom_site_type_symbol
_atom_site_label
_atom_site_fract_x
_atom_site_fract_y
_atom_site_fract_z
Si Si1 0.597648 0.761588 0.480445
Si Si2 0.380526 0.458276 0.037292
Si Si3 0.398322 0.973011 0.528464
Si Si4 0.396793 0.184433 0.023648
Si Si5 0.895185 0.423813 0.765149
Si Si6 0.500000 0.358816 0.250000
Si Si7 0.177296 0.576397 0.697867
O O1 0.639181 0.775257 0.193574
O O2 0.500321 0.795476 0.499852
O O3 0.572380 0.687100 0.575090
O O4 0.643301 0.795151 0.692695
O O5 0.389431 0.510189 0.262167
O O6 0.451475 0.402713 0.071162
O O7 0.281788 0.429123 0.108260
O O8 0.395067 0.894351 0.486494
O O9 0.500000 0.000000 0.500000
O O10 0.358142 0.009147 0.312632
O O11 0.860347 0.500341 0.767666
O O12 0.867660 0.392824 0.519556
O O13 0.000000 0.424822 0.750000
O O14 0.848680 0.392997 0.027761
#
# Coordination Sequence:
#
# PCOD9226039 Si02
#       7
#     4   4   4   4   4   2   4
#     4   9  17  29  39  50  62  80 125 152 177 210
#     4  12  22  36  46  58  78  92 115 152 199 244
#     4  10  15  19  30  51  72  88 106 120 162 228
#     4   9  15  25  38  48  68  90 102 148 178 198
#     4  10  16  26  44  62  80  98 116 123 147 210
#     4  10  24  34  48  58  64  96 130 162 192 232
#     4  10  16  28  40  60  80  96 110 133 170 204
#
# _framework density 15.716051
#
# number of rings (size 3 to 8) (size 9 to 14) (size 15 to 20)
#    0.000    2.154    3.077    7.385    0.000    4.923 
#    0.000    0.000    0.000    0.000    0.000    0.000 
#    0.000    0.000    0.000    0.000    0.000    0.000 
#
# Total GULP energy -144798.611148 kJ/mol
# GULP energy per Si atom -5569.177352 kJ/mol
# Density = 1.568028 g / cm^3
# Si number density = 15.716051 Si / 1000 Ang^3
#
#
#
# Elastic Constant Matrix: (Units=GPa)
#
#
# Indices 1 2 3 4 5 6 
#
# 1 27.2627 7.5039 -8.6198 0.0000 4.5922 0.0000
# 2 7.5039 27.9187 8.3237 0.0000 0.0753 0.0000
# 3 -8.6198 8.3237 131.3544 0.0000 14.8266 0.0000
# 4 0.0000 0.0000 0.0000 3.9104 0.0000 2.4560
# 5 4.5922 0.0753 14.8266 0.0000 14.8357 0.0000
# 6 0.0000 0.0000 0.0000 2.4560 0.0000 -1.3361
#
#
#
# Elastic Compliance Matrix: (Units=1/GPa)
#
#
# Indices 1 2 3 4 5 6 
#
# 1 0.045970 -0.014153 0.006212 0.000000 -0.020366 0.000000
# 2 -0.014153 0.040941 -0.004502 0.000000 0.008673 0.000000
# 3 0.006212 -0.004502 0.009604 0.000000 -0.011498 0.000000
# 4 0.000000 0.000000 0.000000 0.118693 0.000000 0.218183
# 5 -0.020366 0.008673 -0.011498 0.000000 0.085157 0.000000
# 6 0.000000 0.000000 0.000000 0.218183 0.000000 -0.347380
#
#
# Mechanical properties :
#
#
# Convention : Reuss Voigt Hill
#
# Bulk Modulus (GPa) = 13.96062 22.32793 18.14428
# Shear Modulus (GPa) = 2862.68299 15.43719 1439.06009
#
# Velocity S-wave (km/s) = 42.72537 3.13750 30.29275
# Velocity P-wave (km/s) = 49.42515 5.23098 35.14405
#
# Compressibility (1/GPa) = 0.07163004
#
# Stress axis : x y z
#
# Youngs Moduli (GPa) = 21.75313 24.42535 104.12539
#
# Poissons Ratio (x) = 0.34569 -0.64687
# Poissons Ratio (y) = 0.30787 0.46878
# Poissons Ratio (z) = -0.13514 0.10996
#
# Static dielectric constant tensor:
#      x y z
#    x 1.464630 0.000000 0.031590 
#    y 0.000000 1.534320 0.000000 
#    z 0.031590 0.000000 1.634900 
# 
# From -- ./inp_files/5149.got.cif
#   From: 2010.05.17/outbox.cif.g08.bks.cpg/sg13_3_cif.got.tgz:5149.got - 2010.06.03 16:44:36.
