data_PCOD9226599
_publ_section_title
;
Structure prediction by ZEFSAII (Michael W. Deem and Ramdas Pophale) SiO2 
 PCOD9226599
Probable space group: P 2/C
;
_chemical_formula_sum "Si O2"
_cell_formula_units_Z 18
_cell_length_a 6.236221
_cell_length_b 18.306772
_cell_length_c 8.872429
_cell_angle_alpha 90.000000
_cell_angle_beta 126.902930
_cell_angle_gamma 90.000000
_cell_volume 809.986706
_symmetry_space_group_name_H-M "P 2/C"
_symmetry_group_IT_number 13
_symmetry_cell_setting 'monoclinic'
loop_
_space_group_symop_operation_xyz
x,y,z
-x,y,1/2-z
-x,-y,-z
x,-y,1/2+z
loop_
_atom_site_type_symbol
_atom_site_label
_atom_site_fract_x
_atom_site_fract_y
_atom_site_fract_z
Si Si1 0.289235 0.901659 0.946087
Si Si2 0.701447 0.262107 0.052489
Si Si3 0.000000 0.488308 0.750000
Si Si4 0.108689 0.601897 0.029781
Si Si5 0.500000 0.012093 0.250000
Si Si6 0.500000 0.344473 0.250000
O O1 0.382507 0.819747 0.023948
O O2 0.000000 0.897406 0.750000
O O3 0.451654 0.937627 0.875479
O O4 0.286839 0.953904 0.091199
O O5 0.749360 0.321958 0.943495
O O6 0.519230 0.295142 0.107957
O O7 0.000000 0.257290 0.250000
O O8 0.169538 0.542603 0.926605
O O9 0.167553 0.435475 0.712695
O O10 0.783054 0.612907 0.880692
#
# Coordination Sequence:
#
# PCOD9226599 Si02
#       6
#     4   4   2   4   2   2
#     4  10  20  37  61  81 123 151 184 239 285 330
#     4   9  18  35  56  79 110 147 182 225 281 333
#     4  10  20  38  54  76 116 138 180 242 274 326
#     4  10  20  37  54  78 109 144 185 228 280 331
#     4  10  21  36  58  95 110 148 200 226 277 358
#     4  10  17  34  56  79 102 146 192 216 277 342
#
# _framework density 22.222587999999998
#
# number of rings (size 3 to 8) (size 9 to 14) (size 15 to 20)
#    0.000    2.222    3.333    1.333    0.000    0.889 
#    4.000    0.000    0.000    0.000    0.000    0.000 
#    0.000    0.000    0.000    0.000    0.000    0.000 
#
# Total GULP energy -100386.578449 kJ/mol
# GULP energy per Si atom -5577.032136 kJ/mol
# Density = 2.217201 g / cm^3
# Si number density = 22.222588 Si / 1000 Ang^3
#
#
#
# Elastic Constant Matrix: (Units=GPa)
#
#
# Indices 1 2 3 4 5 6 
#
# 1 70.2500 56.7490 28.3286 0.0000 -12.8403 0.0000
# 2 56.7490 198.5779 46.9702 0.0000 -20.1814 0.0000
# 3 28.3286 46.9702 77.4753 0.0000 -9.4531 0.0000
# 4 0.0000 0.0000 0.0000 6.5147 0.0000 -7.7706
# 5 -12.8403 -20.1814 -9.4531 0.0000 32.4546 0.0000
# 6 0.0000 0.0000 0.0000 -7.7706 0.0000 26.0708
#
#
#
# Elastic Compliance Matrix: (Units=1/GPa)
#
#
# Indices 1 2 3 4 5 6 
#
# 1 0.020211 -0.004358 -0.004254 0.000000 0.004047 0.000000
# 2 -0.004358 0.007059 -0.002448 0.000000 0.001952 0.000000
# 3 -0.004254 -0.002448 0.016129 0.000000 0.001493 0.000000
# 4 0.000000 0.000000 0.000000 0.238174 0.000000 0.070989
# 5 0.004047 0.001952 0.001493 0.000000 0.034062 0.000000
# 6 0.000000 0.000000 0.000000 0.070989 0.000000 0.059516
#
#
# Mechanical properties :
#
#
# Convention : Reuss Voigt Hill
#
# Bulk Modulus (GPa) = 46.99578 67.82210 57.40894
# Shear Modulus (GPa) = 12.36514 27.29172 19.82843
#
# Velocity S-wave (km/s) = 2.36142 3.50824 2.99032
# Velocity P-wave (km/s) = 5.35058 6.85536 6.14918
#
# Compressibility (1/GPa) = 0.02127851
#
# Stress axis : x y z
#
# Youngs Moduli (GPa) = 49.47879 141.67058 62.00089
#
# Poissons Ratio (x) = 0.61744 0.26375
# Poissons Ratio (y) = 0.21564 0.15175
# Poissons Ratio (z) = 0.21048 0.34675
#
# Static dielectric constant tensor:
#      x y z
#    x 1.852200 0.000000 -0.006420 
#    y 0.000000 1.832330 0.000000 
#    z -0.006420 0.000000 1.923980 
# 
# From -- ./inp_files/9380.got.cif
#   From: 2010.05.17/outbox.cif.g08.bks.cpg/sg13_5_cif.got.tgz:9380.got - 2010.06.03 16:44:36.
