data_PCOD9226251
_publ_section_title
;
Structure prediction by ZEFSAII (Michael W. Deem and Ramdas Pophale) SiO2 
 PCOD9226251
Probable space group: P 2/C
;
_chemical_formula_sum "Si O2"
_cell_formula_units_Z 28
_cell_length_a 20.416522
_cell_length_b 8.106494
_cell_length_c 27.397470
_cell_angle_alpha 90.000000
_cell_angle_beta 16.124550
_cell_angle_gamma 90.000000
_cell_volume 1259.337966
_symmetry_space_group_name_H-M "P 2/C"
_symmetry_group_IT_number 13
_symmetry_cell_setting 'monoclinic'
loop_
_space_group_symop_operation_xyz
x,y,z
-x,y,1/2-z
-x,-y,-z
x,-y,1/2+z
loop_
_atom_site_type_symbol
_atom_site_label
_atom_site_fract_x
_atom_site_fract_y
_atom_site_fract_z
Si Si1 0.343084 0.406449 0.901731
Si Si2 0.594878 0.181467 0.894344
Si Si3 0.254125 0.141229 0.511317
Si Si4 0.500000 0.287305 0.250000
Si Si5 0.479354 0.480808 0.618255
Si Si6 0.000000 0.418848 0.750000
Si Si7 0.035505 0.173465 0.282730
Si Si8 0.526644 0.161746 0.412532
O O1 0.500000 0.306493 0.750000
O O2 0.295635 0.575350 0.905020
O O3 0.499248 0.445955 0.838769
O O4 0.111440 0.316770 0.085658
O O5 0.625991 0.204070 0.929881
O O6 0.309241 0.171879 0.097574
O O7 0.645512 0.334888 0.822508
O O8 0.681011 0.000658 0.814990
O O9 0.463462 0.178992 0.323718
O O10 0.102594 0.301703 0.634124
O O11 0.366563 0.097179 0.482827
O O12 0.091913 0.994710 0.609724
O O13 0.761504 0.490932 0.403227
O O14 0.379973 0.661561 0.674394
O O15 0.000000 0.183300 0.250000
#
# Coordination Sequence:
#
# PCOD9226251 Si02
#       8
#     4   4   4   2   4   2   4   4
#     4  10  20  34  52  84 115 144 183 234 284 333
#     4  11  22  33  55  88 116 142 188 240 292 336
#     4  11  20  36  58  84 111 147 194 229 286 340
#     4  10  22  34  54  84 112 154 184 234 278 344
#     4  11  18  33  57  81 114 152 184 231 292 335
#     4  10  16  30  58  82 112 130 186 252 266 316
#     4  12  20  35  59  90 111 140 192 251 287 321
#     4  10  20  36  52  82 121 149 181 235 287 351
#
# _framework density 22.233905
#
# number of rings (size 3 to 8) (size 9 to 14) (size 15 to 20)
#    0.429    0.857    6.429    2.143    1.000    0.000 
#    0.000    0.000    0.000    4.286    0.000    0.000 
#    0.000    0.000    0.000    0.000    0.000    0.000 
#
# Total GULP energy -155895.089967 kJ/mol
# GULP energy per Si atom -5567.681785 kJ/mol
# Density = 2.218330 g / cm^3
# Si number density = 22.233905 Si / 1000 Ang^3
#
#
#
# Elastic Constant Matrix: (Units=GPa)
#
#
# Indices 1 2 3 4 5 6 
#
# 1 107.4853 25.5467 35.0136 0.0000 26.5630 0.0000
# 2 25.5467 125.2405 11.0842 0.0000 13.6288 0.0000
# 3 35.0136 11.0842 63.3647 0.0000 35.6354 0.0000
# 4 0.0000 0.0000 0.0000 20.9014 0.0000 7.3454
# 5 26.5630 13.6288 35.6354 0.0000 34.0942 0.0000
# 6 0.0000 0.0000 0.0000 7.3454 0.0000 25.7278
#
#
#
# Elastic Compliance Matrix: (Units=1/GPa)
#
#
# Indices 1 2 3 4 5 6 
#
# 1 0.012094 -0.001601 -0.003551 0.000000 -0.005071 0.000000
# 2 -0.001601 0.008586 0.001483 0.000000 -0.003736 0.000000
# 3 -0.003551 0.001483 0.039452 0.000000 -0.039062 0.000000
# 4 0.000000 0.000000 0.000000 0.053179 0.000000 -0.015183
# 5 -0.005071 -0.003736 -0.039062 0.000000 0.075603 0.000000
# 6 0.000000 0.000000 0.000000 -0.015183 0.000000 0.043203
#
#
# Mechanical properties :
#
#
# Convention : Reuss Voigt Hill
#
# Bulk Modulus (GPa) = 18.94067 48.81993 33.88030
# Shear Modulus (GPa) = 19.45121 31.10773 25.27947
#
# Velocity S-wave (km/s) = 2.96099 3.74453 3.37557
# Velocity P-wave (km/s) = 4.49747 6.37969 5.51940
#
# Compressibility (1/GPa) = 0.05279644
#
# Stress axis : x y z
#
# Youngs Moduli (GPa) = 82.68532 116.46324 25.34710
#
# Poissons Ratio (x) = 0.18644 0.09000
# Poissons Ratio (y) = 0.13237 -0.03760
# Poissons Ratio (z) = 0.29359 -0.17276
#
# Static dielectric constant tensor:
#      x y z
#    x 1.873400 0.000000 0.031610 
#    y 0.000000 1.979990 0.000000 
#    z 0.031610 0.000000 1.841000 
# 
# From -- ./inp_files/93494.got.cif
#   From: 2010.05.17/outbox.cif.g08.bks.cpg/sg13_47_cif.got.tgz:93494.got - 2010.06.03 16:44:36.
