data_PCOD9226411
_publ_section_title
;
Structure prediction by ZEFSAII (Michael W. Deem and Ramdas Pophale) SiO2 
 PCOD9226411
Probable space group: P 2/C
;
_chemical_formula_sum "Si O2"
_cell_formula_units_Z 28
_cell_length_a 28.776462
_cell_length_b 9.304817
_cell_length_c 8.582009
_cell_angle_alpha 90.000000
_cell_angle_beta 138.208572
_cell_angle_gamma 90.000000
_cell_volume 1531.379500
_symmetry_space_group_name_H-M "P 2/C"
_symmetry_group_IT_number 13
_symmetry_cell_setting 'monoclinic'
loop_
_space_group_symop_operation_xyz
x,y,z
-x,y,1/2-z
-x,-y,-z
x,-y,1/2+z
loop_
_atom_site_type_symbol
_atom_site_label
_atom_site_fract_x
_atom_site_fract_y
_atom_site_fract_z
Si Si1 0.347751 0.663167 0.181464
Si Si2 0.071932 0.835817 0.865761
Si Si3 0.928067 0.835817 0.006101
Si Si4 0.500000 0.662759 0.937358
Si Si5 0.347752 0.663169 0.557292
Si Si6 0.217064 0.162170 0.856915
Si Si7 0.782935 0.837829 0.771595
O O1 0.424586 0.724652 0.327563
O O2 0.342675 0.663355 0.356688
O O3 0.344584 0.499999 0.111459
O O4 0.284254 0.750749 0.951238
O O5 0.070598 0.838918 0.676495
O O6 0.000000 0.769635 0.750000
O O7 0.072704 0.000000 0.931758
O O8 0.144896 0.773074 0.108650
O O9 0.000000 0.769634 0.250000
O O10 0.855104 0.773074 0.884174
O O11 0.500000 0.657719 0.750000
O O12 0.424586 0.724654 0.795367
O O13 0.500000 0.500000 0.000000
O O14 0.284254 0.750752 0.470030
O O15 0.223336 0.999999 0.808339
O O16 0.212218 0.157943 0.030545
#
# Coordination Sequence:
#
# PCOD9226411 Si02
#       7
#     4   4   4   4   4   4   4
#     4  10  19  34  54  78 103 133 169 209 252 301
#     4  10  17  28  46  70  98 130 166 207 248 295
#     4  10  17  28  46  70  98 130 166 207 248 295
#     4   8  16  30  51  74  99 128 166 208 248 294
#     4  10  19  34  54  78 103 133 169 209 252 301
#     4  11  21  34  51  75 104 136 170 211 256 302
#     4  11  21  34  51  75 104 136 170 211 256 302
#
# _framework density 18.284168000000001
#
# number of rings (size 3 to 8) (size 9 to 14) (size 15 to 20)
#    0.000    2.000    0.000    8.571    0.000    1.143 
#    0.000    0.714    0.000    0.857    0.000    6.000 
#    0.000    0.000    0.000    0.000    0.000    0.000 
#
# Total GULP energy -156099.386323 kJ/mol
# GULP energy per Si atom -5574.978083 kJ/mol
# Density = 1.824255 g / cm^3
# Si number density = 18.284168 Si / 1000 Ang^3
#
#
#
# Elastic Constant Matrix: (Units=GPa)
#
#
# Indices 1 2 3 4 5 6 
#
# 1 160.0873 30.6657 111.5026 0.0000 16.3057 0.0000
# 2 30.6657 24.4541 34.7241 0.0000 13.4184 0.0000
# 3 111.5026 34.7241 172.7780 0.0000 25.6518 0.0000
# 4 0.0000 0.0000 0.0000 30.6687 0.0000 8.6275
# 5 16.3057 13.4184 25.6518 0.0000 57.6578 0.0000
# 6 0.0000 0.0000 0.0000 8.6275 0.0000 28.0584
#
#
#
# Elastic Compliance Matrix: (Units=1/GPa)
#
#
# Indices 1 2 3 4 5 6 
#
# 1 0.011921 -0.006101 -0.006614 0.000000 0.000991 0.000000
# 2 -0.006101 0.064822 -0.007609 0.000000 -0.009975 0.000000
# 3 -0.006614 -0.007609 0.011826 0.000000 -0.001620 0.000000
# 4 0.000000 0.000000 0.000000 0.035694 0.000000 -0.010975
# 5 0.000991 -0.009975 -0.001620 0.000000 0.020106 0.000000
# 6 0.000000 0.000000 0.000000 -0.010975 0.000000 0.039015
#
#
# Mechanical properties :
#
#
# Convention : Reuss Voigt Hill
#
# Bulk Modulus (GPa) = 20.86809 79.01158 49.93983
# Shear Modulus (GPa) = 20.83267 35.30544 28.06906
#
# Velocity S-wave (km/s) = 3.37914 4.39900 3.92236
# Velocity P-wave (km/s) = 5.16360 8.31315 6.91994
#
# Compressibility (1/GPa) = 0.04792006
#
# Stress axis : x y z
#
# Youngs Moduli (GPa) = 83.88271 15.42678 84.55760
#
# Poissons Ratio (x) = 0.09412 0.55931
# Poissons Ratio (y) = 0.51178 0.64343
# Poissons Ratio (z) = 0.55484 0.11739
#
# Static dielectric constant tensor:
#      x y z
#    x 1.648990 0.000000 0.054160 
#    y 0.000000 1.601850 0.000000 
#    z 0.054160 0.000000 1.665370 
# 
# From -- ./inp_files/24893.got.cif
#   From: 2010.05.17/outbox.cif.g08.bks.cpg/sg13_13_cif.got.tgz:24893.got - 2010.06.03 16:44:36.
