data_PCOD9226049
_publ_section_title
;
Structure prediction by ZEFSAII (Michael W. Deem and Ramdas Pophale) SiO2 
 PCOD9226049
Probable space group: P 2/C
;
_chemical_formula_sum "Si O2"
_cell_formula_units_Z 28
_cell_length_a 27.754925
_cell_length_b 5.464877
_cell_length_c 23.744482
_cell_angle_alpha 90.000000
_cell_angle_beta 163.314213
_cell_angle_gamma 90.000000
_cell_volume 1034.072518
_symmetry_space_group_name_H-M "P 2/C"
_symmetry_group_IT_number 13
_symmetry_cell_setting 'monoclinic'
loop_
_space_group_symop_operation_xyz
x,y,z
-x,y,1/2-z
-x,-y,-z
x,-y,1/2+z
loop_
_atom_site_type_symbol
_atom_site_label
_atom_site_fract_x
_atom_site_fract_y
_atom_site_fract_z
Si Si1 0.446187 0.286590 0.821756
Si Si2 0.957212 0.609876 0.314858
Si Si3 0.221380 0.236961 0.771285
Si Si4 0.625839 0.215137 0.244848
Si Si5 0.002161 0.897227 0.686586
Si Si6 0.296517 0.737270 0.799107
Si Si7 0.670837 0.297975 0.973938
O O1 0.346201 0.527826 0.693954
O O2 0.618317 0.285403 0.979859
O O3 0.339181 0.047660 0.689193
O O4 0.514229 0.272110 0.961805
O O5 0.903383 0.706252 0.316332
O O6 0.042469 0.337800 0.403575
O O7 0.053737 0.827602 0.391573
O O8 0.781023 0.538440 0.087794
O O9 0.215832 0.477263 0.725380
O O10 0.201751 0.975555 0.718112
O O11 0.417817 0.220655 0.010677
O O12 0.682068 0.233395 0.243189
O O13 0.000000 0.836072 0.750000
O O14 0.202238 0.916730 0.897037
O O15 0.500000 0.289038 0.750000
#
# Coordination Sequence:
#
# PCOD9226049 Si02
#       7
#     4   4   4   4   4   4   4
#     4  10  17  28  40  61  92 126 163 190 233 289
#     4  10  19  33  49  69  97 131 167 200 249 293
#     4  10  15  25  38  60  89 120 156 186 231 293
#     4  10  16  25  39  60  89 128 159 186 237 295
#     4  10  20  35  53  72  94 129 174 217 254 287
#     4  10  16  23  40  61  89 127 158 186 238 295
#     4  10  22  35  52  73 101 139 174 202 244 299
#
# _framework density 27.077406
#
# number of rings (size 3 to 8) (size 9 to 14) (size 15 to 20)
#    0.857    1.143    2.857    7.286    0.000    0.571 
#    0.000    0.000    0.000    0.000    0.000    0.000 
#    0.000    0.000    0.000   95.143    0.000    0.000 
#
# Total GULP energy -156549.383308 kJ/mol
# GULP energy per Si atom -5591.049404 kJ/mol
# Density = 2.701578 g / cm^3
# Si number density = 27.077406 Si / 1000 Ang^3
#
#
#
# Elastic Constant Matrix: (Units=GPa)
#
#
# Indices 1 2 3 4 5 6 
#
# 1 100.0567 50.0485 -13.1974 0.0000 13.9655 0.0000
# 2 50.0485 268.3747 0.5701 0.0000 19.0251 0.0000
# 3 -13.1974 0.5701 21.7636 0.0000 -12.4533 0.0000
# 4 0.0000 0.0000 0.0000 31.0379 0.0000 13.2659
# 5 13.9655 19.0251 -12.4533 0.0000 44.7725 0.0000
# 6 0.0000 0.0000 0.0000 13.2659 0.0000 28.8975
#
#
#
# Elastic Compliance Matrix: (Units=1/GPa)
#
#
# Indices 1 2 3 4 5 6 
#
# 1 0.012139 -0.002212 0.006887 0.000000 -0.000931 0.000000
# 2 -0.002212 0.004273 -0.002495 0.000000 -0.001819 0.000000
# 3 0.006887 -0.002495 0.058949 0.000000 0.015309 0.000000
# 4 0.000000 0.000000 0.000000 0.040083 0.000000 -0.018401
# 5 -0.000931 -0.001819 0.015309 0.000000 0.027657 0.000000
# 6 0.000000 0.000000 0.000000 -0.018401 0.000000 0.043052
#
#
# Mechanical properties :
#
#
# Convention : Reuss Voigt Hill
#
# Bulk Modulus (GPa) = 12.54385 51.67081 32.10733
# Shear Modulus (GPa) = 23.99592 44.45984 34.22788
#
# Velocity S-wave (km/s) = 2.98014 4.05650 3.55924
# Velocity P-wave (km/s) = 4.06008 6.40814 5.36417
#
# Compressibility (1/GPa) = 0.07972033
#
# Stress axis : x y z
#
# Youngs Moduli (GPa) = 82.37738 234.02703 16.96372
#
# Poissons Ratio (x) = 0.51777 -0.11682
# Poissons Ratio (y) = 0.18226 0.04232
# Poissons Ratio (z) = -0.56729 0.58382
#
# Static dielectric constant tensor:
#      x y z
#    x 2.084490 0.000000 0.010230 
#    y 0.000000 2.210860 0.000000 
#    z 0.010230 0.000000 2.285030 
# 
# From -- ./inp_files/93652.got.cif
#   From: 2010.05.17/outbox.cif.g08.bks.cpg/sg13_47_cif.got.tgz:93652.got - 2010.06.03 16:44:36.
