data_PCOD9226221
_publ_section_title
;
Structure prediction by ZEFSAII (Michael W. Deem and Ramdas Pophale) SiO2 
 PCOD9226221
Probable space group: P 2/C
;
_chemical_formula_sum "Si O2"
_cell_formula_units_Z 22
_cell_length_a 17.241497
_cell_length_b 15.748022
_cell_length_c 5.311104
_cell_angle_alpha 90.000000
_cell_angle_beta 83.295796
_cell_angle_gamma 90.000000
_cell_volume 1432.207427
_symmetry_space_group_name_H-M "P 2/C"
_symmetry_group_IT_number 13
_symmetry_cell_setting 'monoclinic'
loop_
_space_group_symop_operation_xyz
x,y,z
-x,y,1/2-z
-x,-y,-z
x,-y,1/2+z
loop_
_atom_site_type_symbol
_atom_site_label
_atom_site_fract_x
_atom_site_fract_y
_atom_site_fract_z
Si Si1 0.216987 0.943218 0.921766
Si Si2 0.965525 0.096386 0.013056
Si Si3 0.411353 0.532922 0.476773
Si Si4 0.355719 0.185583 0.312102
Si Si5 0.500000 0.943340 0.750000
Si Si6 0.408935 0.726364 0.291202
O O1 0.127233 0.912387 0.952077
O O2 0.275514 0.864322 0.884896
O O3 0.229619 0.003145 0.672874
O O4 0.000000 0.137722 0.250000
O O5 0.000000 0.137744 0.750000
O O6 0.000000 0.000000 0.000000
O O7 0.500000 0.500000 0.500000
O O8 0.375377 0.524830 0.768885
O O9 0.410464 0.627419 0.367122
O O10 0.424146 0.115621 0.292868
O O11 0.373331 0.251209 0.532783
O O12 0.363520 0.227358 0.034294
O O13 0.500000 0.000000 0.500000
O O14 0.500000 0.754839 0.250000
#
# Coordination Sequence:
#
# PCOD9226221 Si02
#       6
#     4   4   4   4   2   4
#     4  12  21  35  52  69  96 122 173 218 244 294
#     4  10  16  30  51  76  89 112 148 213 258 291
#     4  10  19  30  53  78  88 109 155 210 241 278
#     4  12  25  35  48  66  92 136 162 204 261 282
#     4  12  22  36  46  56  80 118 182 216 234 258
#     4  12  21  37  51  67  97 124 162 209 239 303
#
# _framework density 15.360903
#
# number of rings (size 3 to 8) (size 9 to 14) (size 15 to 20)
#    0.000    0.727    7.273    4.364    2.545    0.000 
#    0.000    0.000    0.000    0.000    0.000    0.000 
#    0.000    0.000    0.000    0.000    0.000   63.636 
#
# Total GULP energy -122713.041737 kJ/mol
# GULP energy per Si atom -5577.865534 kJ/mol
# Density = 1.532594 g / cm^3
# Si number density = 15.360903 Si / 1000 Ang^3
#
#
#
# Elastic Constant Matrix: (Units=GPa)
#
#
# Indices 1 2 3 4 5 6 
#
# 1 85.9661 24.6268 13.4145 0.0000 -10.7566 0.0000
# 2 24.6268 59.6391 26.8225 0.0000 -4.9276 0.0000
# 3 13.4145 26.8225 147.6709 0.0000 -1.2710 0.0000
# 4 0.0000 0.0000 0.0000 25.2601 0.0000 8.5313
# 5 -10.7566 -4.9276 -1.2710 0.0000 16.8543 0.0000
# 6 0.0000 0.0000 0.0000 8.5313 0.0000 -6.6316
#
#
#
# Elastic Compliance Matrix: (Units=1/GPa)
#
#
# Indices 1 2 3 4 5 6 
#
# 1 0.014062 -0.005057 -0.000295 0.000000 0.007474 0.000000
# 2 -0.005057 0.020525 -0.003247 0.000000 0.002529 0.000000
# 3 -0.000295 -0.003247 0.007383 0.000000 -0.000581 0.000000
# 4 0.000000 0.000000 0.000000 0.027597 0.000000 0.035503
# 5 0.007474 0.002529 -0.000581 0.000000 0.064798 0.000000
# 6 0.000000 0.000000 0.000000 0.035503 0.000000 -0.105120
#
#
# Mechanical properties :
#
#
# Convention : Reuss Voigt Hill
#
# Bulk Modulus (GPa) = 40.36502 47.00040 43.68271
# Shear Modulus (GPa) = 91.40799 22.32406 56.86602
#
# Velocity S-wave (km/s) = 7.72244 3.81636 6.09100
# Velocity P-wave (km/s) = 10.28832 7.07696 8.82986
#
# Compressibility (1/GPa) = 0.02477393
#
# Stress axis : x y z
#
# Youngs Moduli (GPa) = 71.11231 48.72149 135.43995
#
# Poissons Ratio (x) = 0.24637 0.03990
# Poissons Ratio (y) = 0.35959 0.43977
# Poissons Ratio (z) = 0.02095 0.15820
#
# Static dielectric constant tensor:
#      x y z
#    x 1.497610 0.000000 -0.026470 
#    y 0.000000 1.468170 0.000000 
#    z -0.026470 0.000000 1.541020 
# 
# From -- ./inp_files/4882.got.cif
#   From: 2010.05.17/outbox.cif.g08.bks.cpg/sg13_3_cif.got.tgz:4882.got - 2010.06.03 16:44:36.
