data_PCOD9226663
_publ_section_title
;
Structure prediction by ZEFSAII (Michael W. Deem and Ramdas Pophale) SiO2 
 PCOD9226663
Probable space group: P 2/C
;
_chemical_formula_sum "Si O2"
_cell_formula_units_Z 22
_cell_length_a 12.996130
_cell_length_b 8.494481
_cell_length_c 13.830673
_cell_angle_alpha 90.000000
_cell_angle_beta 142.684860
_cell_angle_gamma 90.000000
_cell_volume 925.569686
_symmetry_space_group_name_H-M "P 2/C"
_symmetry_group_IT_number 13
_symmetry_cell_setting 'monoclinic'
loop_
_space_group_symop_operation_xyz
x,y,z
-x,y,1/2-z
-x,-y,-z
x,-y,1/2+z
loop_
_atom_site_type_symbol
_atom_site_label
_atom_site_fract_x
_atom_site_fract_y
_atom_site_fract_z
Si Si1 0.169290 0.951508 0.831589
Si Si2 0.001687 0.776810 0.078923
Si Si3 0.335055 0.648564 0.983524
Si Si4 0.000000 0.454020 0.750000
Si Si5 0.673464 0.073485 0.352034
Si Si6 0.679321 0.280971 0.798975
O O1 0.000000 0.871359 0.750000
O O2 0.105733 0.079964 0.708032
O O3 0.295025 0.812076 0.898800
O O4 0.248092 0.037001 0.983764
O O5 0.951758 0.654472 0.123708
O O6 0.131216 0.705900 0.099342
O O7 0.823784 0.841943 0.907266
O O8 0.321299 0.671360 0.089743
O O9 0.539442 0.625851 0.130455
O O10 0.173791 0.538157 0.844152
O O11 0.500000 0.160502 0.250000
O O12 0.634524 0.906636 0.271055
#
# Coordination Sequence:
#
# PCOD9226663 Si02
#       6
#     4   4   4   2   4   4
#     4   9  16  35  60  83 113 155 197 242 293 347
#     4  11  23  38  62  93 123 150 202 258 299 347
#     4  10  21  40  64  82 122 168 201 235 300 367
#     4  12  24  40  60  84 126 168 192 248 302 356
#     4  10  17  37  62  90 116 152 195 251 303 348
#     4  10  21  40  64  88 116 159 209 246 292 357
#
# _framework density 23.769145000000002
#
# number of rings (size 3 to 8) (size 9 to 14) (size 15 to 20)
#    0.000    1.818    7.273    0.545    0.000    2.182 
#    3.273    0.000    0.000    0.000    0.000    0.000 
#    0.000    0.000    0.000    0.000    0.000    0.000 
#
# Total GULP energy -122708.314642 kJ/mol
# GULP energy per Si atom -5577.650666 kJ/mol
# Density = 2.371505 g / cm^3
# Si number density = 23.769145 Si / 1000 Ang^3
#
#
#
# Elastic Constant Matrix: (Units=GPa)
#
#
# Indices 1 2 3 4 5 6 
#
# 1 58.2774 -7.1377 17.9407 0.0000 23.9416 0.0000
# 2 -7.1377 43.0546 20.5772 0.0000 3.5479 0.0000
# 3 17.9407 20.5772 130.9876 0.0000 24.0194 0.0000
# 4 0.0000 0.0000 0.0000 15.1452 0.0000 1.1730
# 5 23.9416 3.5479 24.0194 0.0000 41.0408 0.0000
# 6 0.0000 0.0000 0.0000 1.1730 0.0000 11.6809
#
#
#
# Elastic Compliance Matrix: (Units=1/GPa)
#
#
# Indices 1 2 3 4 5 6 
#
# 1 0.023951 0.005912 -0.001740 0.000000 -0.013464 0.000000
# 2 0.005912 0.026572 -0.004403 0.000000 -0.003169 0.000000
# 3 -0.001740 -0.004403 0.009307 0.000000 -0.004051 0.000000
# 4 0.000000 0.000000 0.000000 0.066545 0.000000 -0.006682
# 5 -0.013464 -0.003169 -0.004051 0.000000 0.034866 0.000000
# 6 0.000000 0.000000 0.000000 -0.006682 0.000000 0.086281
#
#
# Mechanical properties :
#
#
# Convention : Reuss Voigt Hill
#
# Bulk Modulus (GPa) = 16.84427 32.78663 24.81545
# Shear Modulus (GPa) = 18.67257 26.96934 22.82096
#
# Velocity S-wave (km/s) = 2.80586 3.37209 3.10192
# Velocity P-wave (km/s) = 4.19513 5.38378 4.82619
#
# Compressibility (1/GPa) = 0.05936735
#
# Stress axis : x y z
#
# Youngs Moduli (GPa) = 41.75265 37.63387 107.44359
#
# Poissons Ratio (x) = -0.22248 0.18696
# Poissons Ratio (y) = -0.24683 0.47306
# Poissons Ratio (z) = 0.07265 0.16570
#
# Static dielectric constant tensor:
#      x y z
#    x 1.965600 0.000000 0.091770 
#    y 0.000000 1.940610 0.000000 
#    z 0.091770 0.000000 1.976730 
# 
# From -- ./inp_files/68006.got.cif
#   From: 2010.05.17/outbox.cif.g08.bks.cpg/sg13_35_cif.got.tgz:68006.got - 2010.06.03 16:44:36.
