data_PCOD9226213
_publ_section_title
;
Structure prediction by ZEFSAII (Michael W. Deem and Ramdas Pophale) SiO2 
 PCOD9226213
Probable space group: P 2/C
;
_chemical_formula_sum "Si O2"
_cell_formula_units_Z 24
_cell_length_a 31.758234
_cell_length_b 6.746706
_cell_length_c 5.191031
_cell_angle_alpha 90.000000
_cell_angle_beta 108.859399
_cell_angle_gamma 90.000000
_cell_volume 1052.536871
_symmetry_space_group_name_H-M "P 2/C"
_symmetry_group_IT_number 13
_symmetry_cell_setting 'monoclinic'
loop_
_space_group_symop_operation_xyz
x,y,z
-x,y,1/2-z
-x,-y,-z
x,-y,1/2+z
loop_
_atom_site_type_symbol
_atom_site_label
_atom_site_fract_x
_atom_site_fract_y
_atom_site_fract_z
Si Si1 0.450870 0.863386 0.186508
Si Si2 0.953103 0.870112 0.715800
Si Si3 0.230846 0.364979 0.757193
Si Si4 0.360830 0.295153 0.347863
Si Si5 0.324762 0.742786 0.274836
Si Si6 0.863597 0.629069 0.540566
O O1 0.500000 0.771894 0.250000
O O2 0.447900 0.967821 0.458370
O O3 0.410356 0.713433 0.057174
O O4 0.908407 0.748957 0.584009
O O5 0.000000 0.761165 0.750000
O O6 0.953195 0.047638 0.506493
O O7 0.232149 0.542547 0.545615
O O8 0.275176 0.243729 0.784860
O O9 0.183277 0.262701 0.611622
O O10 0.339430 0.511033 0.261515
O O11 0.329826 0.185168 0.494396
O O12 0.359040 0.196543 0.064285
O O13 0.863323 0.450563 0.331855
#
# Coordination Sequence:
#
# PCOD9226213 Si02
#       6
#     4   4   4   4   4   4
#     4  10  21  37  53  69  95 135 174 206 248 303
#     4  10  21  38  58  79 112 155 189 228 290 345
#     4  10  16  30  49  78 104 134 169 206 261 312
#     4  10  18  30  52  75  98 126 164 205 249 297
#     4  10  17  30  50  80  99 127 156 207 255 309
#     4  10  21  33  56  87 110 145 192 238 277 326
#
# _framework density 22.802053000000001
#
# number of rings (size 3 to 8) (size 9 to 14) (size 15 to 20)
#    0.000    2.000    3.333    2.000    0.000    0.667 
#    0.000    3.333    0.000    6.000    0.000    0.000 
#    0.000    0.000    0.000    0.000    0.000    0.000 
#
# Total GULP energy -133896.694715 kJ/mol
# GULP energy per Si atom -5579.028946 kJ/mol
# Density = 2.275015 g / cm^3
# Si number density = 22.802053 Si / 1000 Ang^3
#
#
#
# Elastic Constant Matrix: (Units=GPa)
#
#
# Indices 1 2 3 4 5 6 
#
# 1 165.5658 1.6512 13.7096 0.0000 33.4533 0.0000
# 2 1.6512 30.7428 -16.5618 0.0000 7.1298 0.0000
# 3 13.7096 -16.5618 107.8880 0.0000 -16.5435 0.0000
# 4 0.0000 0.0000 0.0000 2.2194 0.0000 13.6127
# 5 33.4533 7.1298 -16.5435 0.0000 60.3529 0.0000
# 6 0.0000 0.0000 0.0000 13.6127 0.0000 14.0920
#
#
#
# Elastic Compliance Matrix: (Units=1/GPa)
#
#
# Indices 1 2 3 4 5 6 
#
# 1 0.007046 -0.000236 -0.001593 0.000000 -0.004314 0.000000
# 2 -0.000236 0.035933 0.005131 0.000000 -0.002708 0.000000
# 3 -0.001593 0.005131 0.010753 0.000000 0.003225 0.000000
# 4 0.000000 0.000000 0.000000 -0.091489 0.000000 0.088377
# 5 -0.004314 -0.002708 0.003225 0.000000 0.020164 0.000000
# 6 0.000000 0.000000 0.000000 0.088377 0.000000 -0.014409
#
#
# Mechanical properties :
#
#
# Convention : Reuss Voigt Hill
#
# Bulk Modulus (GPa) = 16.57414 33.53273 25.05343
# Shear Modulus (GPa) = -270.36821 35.69270 -117.33776
#
# Velocity S-wave (km/s) = -10.90088 3.96072 -7.18130
# Velocity P-wave (km/s) = 12.29449 5.97112 7.59935
#
# Compressibility (1/GPa) = 0.06033497
#
# Stress axis : x y z
#
# Youngs Moduli (GPa) = 141.92666 27.82988 92.99385
#
# Poissons Ratio (x) = 0.00657 0.14815
# Poissons Ratio (y) = 0.03351 -0.47713
# Poissons Ratio (z) = 0.22611 -0.14279
#
# Static dielectric constant tensor:
#      x y z
#    x 1.893500 0.000000 -0.013330 
#    y 0.000000 2.406310 0.000000 
#    z -0.013330 0.000000 1.890680 
# 
# From -- ./inp_files/8022.got.cif
#   From: 2010.05.17/outbox.cif.g08.bks.cpg/sg13_5_cif.got.tgz:8022.got - 2010.06.03 16:44:36.
