data_PCOD9226817
_publ_section_title
;
Structure prediction by ZEFSAII (Michael W. Deem and Ramdas Pophale) SiO2 
 PCOD9226817
Probable space group: P 2/C
;
_chemical_formula_sum "Si O2"
_cell_formula_units_Z 26
_cell_length_a 14.984936
_cell_length_b 6.725452
_cell_length_c 10.256692
_cell_angle_alpha 90.000000
_cell_angle_beta 67.120715
_cell_angle_gamma 90.000000
_cell_volume 952.350965
_symmetry_space_group_name_H-M "P 2/C"
_symmetry_group_IT_number 13
_symmetry_cell_setting 'monoclinic'
loop_
_space_group_symop_operation_xyz
x,y,z
-x,y,1/2-z
-x,-y,-z
x,-y,1/2+z
loop_
_atom_site_type_symbol
_atom_site_label
_atom_site_fract_x
_atom_site_fract_y
_atom_site_fract_z
Si Si1 0.113555 0.230690 0.428980
Si Si2 0.389235 0.408329 0.915192
Si Si3 0.238137 0.839832 0.086444
Si Si4 0.901948 0.755826 0.107467
Si Si5 0.500000 0.780969 0.750000
Si Si6 0.187775 0.307757 0.114676
Si Si7 0.576465 0.160340 0.851894
O O1 0.209423 0.245152 0.462244
O O2 0.125817 0.332058 0.281513
O O3 0.015216 0.291044 0.558263
O O4 0.102220 0.994671 0.411221
O O5 0.420230 0.621304 0.841918
O O6 0.484517 0.305797 0.924309
O O7 0.370943 0.259045 0.803817
O O8 0.294072 0.408339 0.056922
O O9 0.168016 0.732305 0.229854
O O10 0.346165 0.845021 0.079112
O O11 0.209134 0.071416 0.100426
O O12 0.863689 0.656721 0.995187
O O13 0.458214 0.940272 0.669272
#
# Coordination Sequence:
#
# PCOD9226817 Si02
#       7
#     4   4   4   4   2   4   4
#     4   9  18  28  47  85 135 167 202 274 337 391
#     4   9  18  35  60  91 127 166 223 281 323 397
#     4  10  18  30  52  86 128 166 216 268 326 397
#     4   9  16  30  49  79 133 163 214 274 313 391
#     4   8  18  36  62  90 126 174 224 280 342 378
#     4  10  18  30  52  86 128 166 216 268 326 397
#     4   9  18  35  60  91 127 166 223 281 323 397
#
# _framework density 27.30086
#
# number of rings (size 3 to 8) (size 9 to 14) (size 15 to 20)
#    0.000    3.077    1.538    0.923    0.000    4.308 
#    0.000    1.538    0.000    1.846    0.000    8.615 
#   36.923   42.154    0.000    0.000    0.000    0.000 
#
# Total GULP energy -145766.749087 kJ/mol
# GULP energy per Si atom -5606.413426 kJ/mol
# Density = 2.723872 g / cm^3
# Si number density = 27.300860 Si / 1000 Ang^3
#
#
#
# Elastic Constant Matrix: (Units=GPa)
#
#
# Indices 1 2 3 4 5 6 
#
# 1 148.6295 25.2012 37.9766 0.0000 -4.5469 0.0000
# 2 25.2012 187.0161 14.2222 0.0000 -8.2897 0.0000
# 3 37.9766 14.2222 129.6458 0.0000 -19.8189 0.0000
# 4 0.0000 0.0000 0.0000 31.9582 0.0000 -8.9204
# 5 -4.5469 -8.2897 -19.8189 0.0000 51.4960 0.0000
# 6 0.0000 0.0000 0.0000 -8.9204 0.0000 29.6463
#
#
#
# Elastic Compliance Matrix: (Units=1/GPa)
#
#
# Indices 1 2 3 4 5 6 
#
# 1 0.007405 -0.000850 -0.002122 0.000000 -0.000300 0.000000
# 2 -0.000850 0.005512 -0.000246 0.000000 0.000718 0.000000
# 3 -0.002122 -0.000246 0.008848 0.000000 0.003178 0.000000
# 4 0.000000 0.000000 0.000000 0.034160 0.000000 0.010278
# 5 -0.000300 0.000718 0.003178 0.000000 0.020731 0.000000
# 6 0.000000 0.000000 0.000000 0.010278 0.000000 0.036824
#
#
# Mechanical properties :
#
#
# Convention : Reuss Voigt Hill
#
# Bulk Modulus (GPa) = 65.23225 68.89905 67.06565
# Shear Modulus (GPa) = 39.99200 48.47953 44.23576
#
# Velocity S-wave (km/s) = 3.83150 4.21854 4.02967
# Velocity P-wave (km/s) = 6.59694 7.00142 6.80218
#
# Compressibility (1/GPa) = 0.01532984
#
# Stress axis : x y z
#
# Youngs Moduli (GPa) = 135.04035 181.41681 113.02397
#
# Poissons Ratio (x) = 0.15417 0.23981
# Poissons Ratio (y) = 0.11476 0.02781
# Poissons Ratio (z) = 0.28652 0.04464
#
# Static dielectric constant tensor:
#      x y z
#    x 2.042600 0.000000 -0.020550 
#    y 0.000000 2.202820 0.000000 
#    z -0.020550 0.000000 2.162390 
# 
# From -- ./inp_files/18694.got.cif
#   From: 2010.05.17/outbox.cif.g08.bks.cpg/sg13_10_cif.got.tgz:18694.got - 2010.06.03 16:44:36.
