data_PCOD9226914
_publ_section_title
;
Structure prediction by ZEFSAII (Michael W. Deem and Ramdas Pophale) SiO2 
 PCOD9226914
Probable space group: P 2/C
;
_chemical_formula_sum "Si O2"
_cell_formula_units_Z 16
_cell_length_a 7.780847
_cell_length_b 20.440379
_cell_length_c 5.189678
_cell_angle_alpha 90.000000
_cell_angle_beta 115.351578
_cell_angle_gamma 90.000000
_cell_volume 745.897755
_symmetry_space_group_name_H-M "P 2/C"
_symmetry_group_IT_number 13
_symmetry_cell_setting 'monoclinic'
loop_
_space_group_symop_operation_xyz
x,y,z
-x,y,1/2-z
-x,-y,-z
x,-y,1/2+z
loop_
_atom_site_type_symbol
_atom_site_label
_atom_site_fract_x
_atom_site_fract_y
_atom_site_fract_z
Si Si1 0.275172 0.756308 0.631797
Si Si2 0.211516 0.529576 0.170805
Si Si3 0.000000 0.046803 0.250000
Si Si4 0.000000 0.649663 0.250000
Si Si5 0.722213 0.158791 0.874950
O O1 0.500000 0.739099 0.750000
O O2 0.236733 0.811708 0.383792
O O3 0.132434 0.696584 0.503137
O O4 0.243824 0.784661 0.894630
O O5 0.303105 0.487172 0.457711
O O6 0.155556 0.603484 0.205520
O O7 0.000000 0.500000 0.000000
O O8 0.165686 0.096977 0.442039
O O9 0.000000 0.000000 0.500000
O O10 0.500000 0.142578 0.750000
#
# Coordination Sequence:
#
# PCOD9226914 Si02
#       5
#     4   4   2   2   4
#     4  10  21  35  55  80 104 137 175 210 258 312
#     4   8  16  28  44  68  98 134 169 206 261 310
#     4  12  24  37  60  87 104 134 182 210 240 308
#     4  10  18  31  56  75 102 136 174 222 256 300
#     4  10  22  40  55  76 113 140 163 212 264 300
#
# _framework density 21.450659000000002
#
# number of rings (size 3 to 8) (size 9 to 14) (size 15 to 20)
#    0.000    2.500    0.000    3.000    0.000    9.000 
#    0.000    0.000    0.000   13.500    0.000    0.000 
#    0.000    0.000    0.000    0.000    0.000    0.000 
#
# Total GULP energy -89154.865929 kJ/mol
# GULP energy per Si atom -5572.179121 kJ/mol
# Density = 2.140184 g / cm^3
# Si number density = 21.450659 Si / 1000 Ang^3
#
#
#
# Elastic Constant Matrix: (Units=GPa)
#
#
# Indices 1 2 3 4 5 6 
#
# 1 52.0055 23.5073 31.8612 0.0000 15.5138 0.0000
# 2 23.5073 104.9999 49.0862 0.0000 34.1598 0.0000
# 3 31.8612 49.0862 154.1796 0.0000 0.2439 0.0000
# 4 0.0000 0.0000 0.0000 6.3601 0.0000 -20.7885
# 5 15.5138 34.1598 0.2439 0.0000 33.1412 0.0000
# 6 0.0000 0.0000 0.0000 -20.7885 0.0000 -0.9424
#
#
#
# Elastic Compliance Matrix: (Units=1/GPa)
#
#
# Indices 1 2 3 4 5 6 
#
# 1 0.026255 0.001227 -0.005795 0.000000 -0.013513 0.000000
# 2 0.001227 0.018466 -0.006102 0.000000 -0.019563 0.000000
# 3 -0.005795 -0.006102 0.009612 0.000000 0.008931 0.000000
# 4 0.000000 0.000000 0.000000 0.002151 0.000000 -0.047446
# 5 -0.013513 -0.019563 0.008931 0.000000 0.056598 0.000000
# 6 0.000000 0.000000 0.000000 -0.047446 0.000000 -0.014516
#
#
# Mechanical properties :
#
#
# Convention : Reuss Voigt Hill
#
# Bulk Modulus (GPa) = 30.30827 57.78827 44.04827
# Shear Modulus (GPa) = 38.19606 21.49380 29.84493
#
# Velocity S-wave (km/s) = 4.22435 3.16889 3.73410
# Velocity P-wave (km/s) = 6.16064 6.35513 6.25864
#
# Compressibility (1/GPa) = 0.03299429
#
# Stress axis : x y z
#
# Youngs Moduli (GPa) = 38.08754 54.15344 104.03729
#
# Poissons Ratio (x) = -0.06645 0.60289
# Poissons Ratio (y) = -0.04674 0.63480
# Poissons Ratio (z) = 0.22072 0.33043
#
# Static dielectric constant tensor:
#      x y z
#    x 1.797360 0.000000 -0.043960 
#    y 0.000000 1.816610 0.000000 
#    z -0.043960 0.000000 1.888550 
# 
# From -- ./inp_files/1416.got.cif
#   From: 2010.05.17/outbox.cif.g08.bks.cpg/sg13_1_cif.got.tgz:1416.got - 2010.06.03 16:44:36.
