data_PCOD9226604
_publ_section_title
;
Structure prediction by ZEFSAII (Michael W. Deem and Ramdas Pophale) SiO2 
 PCOD9226604
Probable space group: P 2/C
;
_chemical_formula_sum "Si O2"
_cell_formula_units_Z 24
_cell_length_a 18.482104
_cell_length_b 7.826687
_cell_length_c 18.978343
_cell_angle_alpha 90.000000
_cell_angle_beta 23.775015
_cell_angle_gamma 90.000000
_cell_volume 1106.751997
_symmetry_space_group_name_H-M "P 2/C"
_symmetry_group_IT_number 13
_symmetry_cell_setting 'monoclinic'
loop_
_space_group_symop_operation_xyz
x,y,z
-x,y,1/2-z
-x,-y,-z
x,-y,1/2+z
loop_
_atom_site_type_symbol
_atom_site_label
_atom_site_fract_x
_atom_site_fract_y
_atom_site_fract_z
Si Si1 0.661142 0.724367 0.326792
Si Si2 0.138709 0.953449 0.791336
Si Si3 0.647224 0.762542 0.666657
Si Si4 0.292103 0.653249 0.738603
Si Si5 0.442563 0.105889 0.901255
Si Si6 0.847007 0.948778 0.941132
O O1 0.490925 0.708247 0.532522
O O2 0.746567 0.537477 0.251877
O O3 0.572835 0.768590 0.328933
O O4 0.797623 0.872114 0.228349
O O5 0.165080 0.796903 0.820383
O O6 0.286377 0.933954 0.597389
O O7 0.942519 0.937472 0.931656
O O8 0.500000 0.671988 0.750000
O O9 0.714920 0.656197 0.671133
O O10 0.793676 0.850510 0.486104
O O11 0.551700 0.932555 0.785827
O O12 0.327437 0.150955 0.933156
O O13 0.000000 0.904143 0.750000
#
# Coordination Sequence:
#
# PCOD9226604 Si02
#       6
#     4   4   4   4   4   4
#     4  10  18  32  60  83 108 143 184 223 269 324
#     4  10  17  34  57  80 112 142 174 226 280 319
#     4  10  18  33  55  79 107 142 187 225 265 327
#     4  10  19  32  56  86 108 140 185 225 265 326
#     4   9  16  34  56  80 105 145 187 217 265 328
#     4   9  20  32  56  81 109 150 182 223 285 326
#
# _framework density 21.685075999999999
#
# number of rings (size 3 to 8) (size 9 to 14) (size 15 to 20)
#    0.000    2.333    3.333    1.000    0.000    0.667 
#    0.000    3.333    7.333    3.000    0.000    0.000 
#    0.000    0.000    0.000    0.000    0.000    0.000 
#
# Total GULP energy -133762.369166 kJ/mol
# GULP energy per Si atom -5573.432049 kJ/mol
# Density = 2.163572 g / cm^3
# Si number density = 21.685076 Si / 1000 Ang^3
#
#
#
# Elastic Constant Matrix: (Units=GPa)
#
#
# Indices 1 2 3 4 5 6 
#
# 1 125.9776 51.5591 12.5926 0.0000 -28.8363 0.0000
# 2 51.5591 97.4965 14.0067 0.0000 -20.7760 0.0000
# 3 12.5926 14.0067 69.2063 0.0000 -12.3278 0.0000
# 4 0.0000 0.0000 0.0000 1.6597 0.0000 8.5522
# 5 -28.8363 -20.7760 -12.3278 0.0000 24.5095 0.0000
# 6 0.0000 0.0000 0.0000 8.5522 0.0000 2.7931
#
#
#
# Elastic Compliance Matrix: (Units=1/GPa)
#
#
# Indices 1 2 3 4 5 6 
#
# 1 0.012093 -0.004131 0.000600 0.000000 0.011028 0.000000
# 2 -0.004131 0.013961 -0.000913 0.000000 0.006514 0.000000
# 3 0.000600 -0.000913 0.015941 0.000000 0.007950 0.000000
# 4 0.000000 0.000000 0.000000 -0.040773 0.000000 0.124842
# 5 0.011028 0.006514 0.007950 0.000000 0.063295 0.000000
# 6 0.000000 0.000000 0.000000 0.124842 0.000000 -0.024228
#
#
# Mechanical properties :
#
#
# Convention : Reuss Voigt Hill
#
# Bulk Modulus (GPa) = 30.20625 49.88859 40.04742
# Shear Modulus (GPa) = 83.03698 20.09394 51.56546
#
# Velocity S-wave (km/s) = 6.19478 3.04735 4.88169
# Velocity P-wave (km/s) = 8.07012 5.95296 7.09100
#
# Compressibility (1/GPa) = 0.03310573
#
# Stress axis : x y z
#
# Youngs Moduli (GPa) = 82.69226 71.62837 62.72994
#
# Poissons Ratio (x) = 0.29593 -0.03764
# Poissons Ratio (y) = 0.34164 0.05730
# Poissons Ratio (z) = -0.04962 0.06543
#
# Static dielectric constant tensor:
#      x y z
#    x 1.847760 0.000000 0.012190 
#    y 0.000000 1.738440 0.000000 
#    z 0.012190 0.000000 1.892910 
# 
# From -- ./inp_files/80736.got.cif
#   From: 2010.05.17/outbox.cif.g08.bks.cpg/sg13_41_cif.got.tgz:80736.got - 2010.06.03 16:44:36.
