data_PCOD9226657
_publ_section_title
;
Structure prediction by ZEFSAII (Michael W. Deem and Ramdas Pophale) SiO2 
 PCOD9226657
Probable space group: P 2/C
;
_chemical_formula_sum "Si O2"
_cell_formula_units_Z 28
_cell_length_a 9.021947
_cell_length_b 13.216191
_cell_length_c 18.496657
_cell_angle_alpha 90.000000
_cell_angle_beta 148.494197
_cell_angle_gamma 90.000000
_cell_volume 1152.541821
_symmetry_space_group_name_H-M "P 2/C"
_symmetry_group_IT_number 13
_symmetry_cell_setting 'monoclinic'
loop_
_space_group_symop_operation_xyz
x,y,z
-x,y,1/2-z
-x,-y,-z
x,-y,1/2+z
loop_
_atom_site_type_symbol
_atom_site_label
_atom_site_fract_x
_atom_site_fract_y
_atom_site_fract_z
Si Si1 0.292008 0.014822 0.818207
Si Si2 0.855588 0.488594 0.269436
Si Si3 0.741745 0.799743 0.910993
Si Si4 0.424675 0.167302 0.993379
Si Si5 0.904993 0.918713 0.539564
Si Si6 0.856269 0.715846 0.612078
Si Si7 0.809728 0.570743 0.973031
O O1 0.922020 0.990995 0.834708
O O2 0.267847 0.104764 0.866247
O O3 0.328541 0.914413 0.882702
O O4 0.590313 0.039624 0.904648
O O5 0.017883 0.387157 0.365259
O O6 0.987376 0.577531 0.372258
O O7 0.000000 0.499202 0.250000
O O8 0.513960 0.468711 0.139273
O O9 0.500000 0.822359 0.750000
O O10 0.973299 0.883774 0.986257
O O11 0.789291 0.679538 0.926430
O O12 0.685833 0.810800 0.973086
O O13 0.529506 0.270692 0.999112
O O14 0.912315 0.809279 0.583416
O O15 0.000000 0.726637 0.750000
O O16 0.000000 0.500000 0.000000
#
# Coordination Sequence:
#
# PCOD9226657 Si02
#       7
#     4   4   4   4   4   4   4
#     4  10  22  40  65  97 134 182 230 289 355 406
#     4  11  24  43  75 110 142 190 245 299 353 433
#     4  12  22  42  70 100 132 188 241 284 341 443
#     4  10  21  36  65  98 134 175 234 291 342 396
#     4  11  22  39  66  96 136 179 233 285 344 421
#     4  10  17  36  66  96 127 176 234 276 326 416
#     4  12  25  44  74 110 149 191 237 296 371 431
#
# _framework density 24.294129000000002
#
# number of rings (size 3 to 8) (size 9 to 14) (size 15 to 20)
#    0.000    1.143    2.857    5.143    0.000    0.571 
#    0.000    0.000   18.857    0.000    0.000    0.000 
#    0.000    0.000    0.000    0.000    0.000    0.000 
#
# Total GULP energy -156199.108247 kJ/mol
# GULP energy per Si atom -5578.539580 kJ/mol
# Density = 2.423883 g / cm^3
# Si number density = 24.294129 Si / 1000 Ang^3
#
#
#
# Elastic Constant Matrix: (Units=GPa)
#
#
# Indices 1 2 3 4 5 6 
#
# 1 196.2200 40.4320 73.2641 0.0000 3.2101 0.0000
# 2 40.4320 65.1174 22.3942 0.0000 9.3248 0.0000
# 3 73.2641 22.3942 80.0410 0.0000 16.8515 0.0000
# 4 0.0000 0.0000 0.0000 11.7214 0.0000 14.7320
# 5 3.2101 9.3248 16.8515 0.0000 38.7788 0.0000
# 6 0.0000 0.0000 0.0000 14.7320 0.0000 2.6274
#
#
#
# Elastic Compliance Matrix: (Units=1/GPa)
#
#
# Indices 1 2 3 4 5 6 
#
# 1 0.008550 -0.003160 -0.007653 0.000000 0.003378 0.000000
# 2 -0.003160 0.018336 -0.001501 0.000000 -0.003495 0.000000
# 3 -0.007653 -0.001501 0.021694 0.000000 -0.008433 0.000000
# 4 0.000000 0.000000 0.000000 -0.014108 0.000000 0.079104
# 5 0.003378 -0.003495 -0.008433 0.000000 0.030013 0.000000
# 6 0.000000 0.000000 0.000000 0.079104 0.000000 -0.062939
#
#
# Mechanical properties :
#
#
# Convention : Reuss Voigt Hill
#
# Bulk Modulus (GPa) = 41.75298 68.17320 54.96309
# Shear Modulus (GPa) = 146.38079 24.31141 85.34610
#
# Velocity S-wave (km/s) = 7.77074 3.16683 5.93352
# Velocity P-wave (km/s) = 9.88616 6.44161 8.34358
#
# Compressibility (1/GPa) = 0.02395038
#
# Stress axis : x y z
#
# Youngs Moduli (GPa) = 116.96468 54.53735 46.09631
#
# Poissons Ratio (x) = 0.17236 0.35276
# Poissons Ratio (y) = 0.36966 0.06921
# Poissons Ratio (z) = 0.89508 0.08188
#
# Static dielectric constant tensor:
#      x y z
#    x 2.111830 0.000000 -0.055760 
#    y 0.000000 1.980570 0.000000 
#    z -0.055760 0.000000 1.666390 
# 
# From -- ./inp_files/64656.got.cif
#   From: 2010.05.17/outbox.cif.g08.bks.cpg/sg13_33_cif.got.tgz:64656.got - 2010.06.03 16:44:36.
