data_PCOD9226861
_publ_section_title
;
Structure prediction by ZEFSAII (Michael W. Deem and Ramdas Pophale) SiO2 
 PCOD9226861
Probable space group: P 2/C
;
_chemical_formula_sum "Si O2"
_cell_formula_units_Z 28
_cell_length_a 7.236083
_cell_length_b 7.944673
_cell_length_c 22.195340
_cell_angle_alpha 90.000000
_cell_angle_beta 61.677209
_cell_angle_gamma 90.000000
_cell_volume 1123.224315
_symmetry_space_group_name_H-M "P 2/C"
_symmetry_group_IT_number 13
_symmetry_cell_setting 'monoclinic'
loop_
_space_group_symop_operation_xyz
x,y,z
-x,y,1/2-z
-x,-y,-z
x,-y,1/2+z
loop_
_atom_site_type_symbol
_atom_site_label
_atom_site_fract_x
_atom_site_fract_y
_atom_site_fract_z
Si Si1 0.633059 0.042442 0.676426
Si Si2 0.629893 0.575594 0.175035
Si Si3 0.804063 0.722106 0.920060
Si Si4 0.250717 0.523943 0.971771
Si Si5 0.160437 0.857876 0.951267
Si Si6 0.915165 0.964310 0.331368
Si Si7 0.925329 0.589325 0.329432
O O1 0.500000 0.959012 0.750000
O O2 0.552137 0.231944 0.680398
O O3 0.869324 0.050839 0.664319
O O4 0.648156 0.946576 0.611843
O O5 0.500000 0.495340 0.250000
O O6 0.630699 0.493724 0.109806
O O7 0.868620 0.587859 0.160350
O O8 0.026004 0.761840 0.920020
O O9 0.805704 0.572936 0.871308
O O10 0.681709 0.625300 0.993435
O O11 0.777232 0.894652 0.886638
O O12 0.246646 0.724009 0.986675
O O13 0.000000 0.500000 0.000000
O O14 0.000000 0.000000 0.000000
O O15 0.825141 0.774844 0.346600
O O16 0.000000 0.004373 0.250000
O O17 0.000000 0.563604 0.250000
#
# Coordination Sequence:
#
# PCOD9226861 Si02
#       7
#     4   4   4   4   4   4   4
#     4   9  18  31  50  77 104 131 171 215 266 314
#     4  10  19  34  52  79 108 138 170 221 272 312
#     4  10  19  31  52  76 106 136 180 219 265 307
#     4  10  18  31  50  78 105 135 178 218 265 314
#     4  10  19  29  49  76 106 137 170 220 266 312
#     4   9  19  33  51  78 106 141 179 218 264 316
#     4  10  19  34  54  80 107 142 179 217 262 325
#
# _framework density 24.928235000000001
#
# number of rings (size 3 to 8) (size 9 to 14) (size 15 to 20)
#    0.000    2.286    2.857    2.143    4.000    0.571 
#    0.000    0.000    0.000    0.857    0.000    8.000 
#    0.000    0.000    0.000    0.000    0.000    0.000 
#
# Total GULP energy -156150.486011 kJ/mol
# GULP energy per Si atom -5576.803072 kJ/mol
# Density = 2.487150 g / cm^3
# Si number density = 24.928235 Si / 1000 Ang^3
#
#
#
# Elastic Constant Matrix: (Units=GPa)
#
#
# Indices 1 2 3 4 5 6 
#
# 1 90.8087 19.7539 4.5680 0.0000 12.6955 0.0000
# 2 19.7539 141.9127 83.9488 0.0000 8.5512 0.0000
# 3 4.5680 83.9488 163.3848 0.0000 1.1148 0.0000
# 4 0.0000 0.0000 0.0000 38.8272 0.0000 1.6923
# 5 12.6955 8.5512 1.1148 0.0000 24.1702 0.0000
# 6 0.0000 0.0000 0.0000 1.6923 0.0000 -33.2249
#
#
#
# Elastic Compliance Matrix: (Units=1/GPa)
#
#
# Indices 1 2 3 4 5 6 
#
# 1 0.012162 -0.001673 0.000559 0.000000 -0.005822 0.000000
# 2 -0.001673 0.010631 -0.005398 0.000000 -0.002634 0.000000
# 3 0.000559 -0.005398 0.008870 0.000000 0.001207 0.000000
# 4 0.000000 0.000000 0.000000 0.025698 0.000000 0.001309
# 5 -0.005822 -0.002634 0.001207 0.000000 0.045307 0.000000
# 6 0.000000 0.000000 0.000000 0.001309 0.000000 -0.030031
#
#
# Mechanical properties :
#
#
# Convention : Reuss Voigt Hill
#
# Bulk Modulus (GPa) = 53.64684 68.07193 60.85938
# Shear Modulus (GPa) = 54.42282 25.14354 39.78318
#
# Velocity S-wave (km/s) = 4.67752 3.17935 3.99922
# Velocity P-wave (km/s) = 7.12317 6.39094 6.76696
#
# Compressibility (1/GPa) = 0.01864043
#
# Stress axis : x y z
#
# Youngs Moduli (GPa) = 82.22408 94.06336 112.73936
#
# Poissons Ratio (x) = 0.15736 -0.06305
# Poissons Ratio (y) = 0.13755 0.60853
# Poissons Ratio (z) = -0.04598 0.50772
#
# Static dielectric constant tensor:
#      x y z
#    x 1.986680 0.000000 -0.006000 
#    y 0.000000 2.076070 0.000000 
#    z -0.006000 0.000000 2.012230 
# 
# From -- ./inp_files/78001.got.cif
#   From: 2010.05.17/outbox.cif.g08.bks.cpg/sg13_40_cif.got.tgz:78001.got - 2010.06.03 16:44:36.
