data_PCOD9226098
_publ_section_title
;
Structure prediction by ZEFSAII (Michael W. Deem and Ramdas Pophale) SiO2 
 PCOD9226098
Probable space group: P 2/C
;
_chemical_formula_sum "Si O2"
_cell_formula_units_Z 24
_cell_length_a 8.965796
_cell_length_b 25.219242
_cell_length_c 5.442951
_cell_angle_alpha 90.000000
_cell_angle_beta 53.514451
_cell_angle_gamma 90.000000
_cell_volume 989.498319
_symmetry_space_group_name_H-M "P 2/C"
_symmetry_group_IT_number 13
_symmetry_cell_setting 'monoclinic'
loop_
_space_group_symop_operation_xyz
x,y,z
-x,y,1/2-z
-x,-y,-z
x,-y,1/2+z
loop_
_atom_site_type_symbol
_atom_site_label
_atom_site_fract_x
_atom_site_fract_y
_atom_site_fract_z
Si Si1 0.709062 0.646226 0.768101
Si Si2 0.282307 0.808773 0.424342
Si Si3 0.715205 0.688284 0.259399
Si Si4 0.289233 0.521499 0.736286
Si Si5 0.223662 0.026861 0.509000
Si Si6 0.286001 0.851456 0.924444
O O1 0.793333 0.676494 0.452379
O O2 0.704939 0.583959 0.720577
O O3 0.793266 0.655317 0.954281
O O4 0.500035 0.669763 0.000898
O O5 0.500000 0.822618 0.250000
O O6 0.271959 0.748702 0.340046
O O7 0.204766 0.819419 0.772575
O O8 0.202853 0.842933 0.277223
O O9 0.500000 0.500000 0.500000
O O10 0.205751 0.507789 0.553309
O O11 0.279736 0.086223 0.380554
O O12 0.000000 0.025060 0.750000
O O13 0.286658 0.989482 0.221561
O O14 0.500000 0.833398 0.750000
#
# Coordination Sequence:
#
# PCOD9226098 Si02
#       6
#     4   4   4   4   4   4
#     4  10  17  22  34  48  65  99 142 181 228 278
#     4  10  18  29  43  63  94 119 143 181 232 281
#     4  10  16  24  35  50  71 102 137 173 218 280
#     4  10  16  23  29  40  61  88 128 186 243 265
#     4  10  21  38  58  76  97 126 158 188 221 267
#     4  10  21  32  49  75  99 123 150 185 234 278
#
# _framework density 24.254715000000001
#
# number of rings (size 3 to 8) (size 9 to 14) (size 15 to 20)
#    0.000    2.000    1.667    7.000    4.667    0.667 
#    0.000    0.000    0.000    0.000    0.000    0.000 
#    0.000    0.000    0.000    0.000    0.000    0.000 
#
# Total GULP energy -134042.894752 kJ/mol
# GULP energy per Si atom -5585.120615 kJ/mol
# Density = 2.419951 g / cm^3
# Si number density = 24.254715 Si / 1000 Ang^3
#
#
#
# Elastic Constant Matrix: (Units=GPa)
#
#
# Indices 1 2 3 4 5 6 
#
# 1 35.1760 -1.8345 91.7305 0.0000 -16.8752 0.0000
# 2 -1.8345 121.6881 43.7291 0.0000 31.2336 0.0000
# 3 91.7305 43.7291 156.1894 0.0000 79.8417 0.0000
# 4 0.0000 0.0000 0.0000 21.0590 0.0000 54.9260
# 5 -16.8752 31.2336 79.8417 0.0000 56.9499 0.0000
# 6 0.0000 0.0000 0.0000 54.9260 0.0000 -41.9395
#
#
#
# Elastic Compliance Matrix: (Units=1/GPa)
#
#
# Indices 1 2 3 4 5 6 
#
# 1 -0.003687 0.000267 0.009613 0.000000 -0.014716 0.000000
# 2 0.000267 0.009545 -0.000684 0.000000 -0.004197 0.000000
# 3 0.009613 -0.000684 -0.002470 0.000000 0.006686 0.000000
# 4 0.000000 0.000000 0.000000 0.010754 0.000000 0.014083
# 5 -0.014716 -0.004197 0.006686 0.000000 0.006126 0.000000
# 6 0.000000 0.000000 0.000000 0.014083 0.000000 -0.005400
#
#
# Mechanical properties :
#
#
# Convention : Reuss Voigt Hill
#
# Bulk Modulus (GPa) = 45.91078 64.47819 55.19448
# Shear Modulus (GPa) = 1338.68716 19.17578 678.93147
#
# Velocity S-wave (km/s) = 23.51865 2.81481 16.74888
# Velocity P-wave (km/s) = 27.50404 6.09965 19.92082
#
# Compressibility (1/GPa) = 0.02178138
#
# Stress axis : x y z
#
# Youngs Moduli (GPa) = -271.23943 104.77026 -404.85219
#
# Poissons Ratio (x) = -0.02798 3.89197
# Poissons Ratio (y) = 0.07245 -0.27678
# Poissons Ratio (z) = 2.60751 0.07163
#
# Static dielectric constant tensor:
#      x y z
#    x 1.996200 0.000000 0.075440 
#    y 0.000000 1.860850 0.000000 
#    z 0.075440 0.000000 1.998020 
# 
# From -- ./inp_files/3850.got.cif
#   From: 2010.05.17/outbox.cif.g08.bks.cpg/sg13_2_cif.got.tgz:3850.got - 2010.06.03 16:44:36.
