data_PCOD9226156
_publ_section_title
;
Structure prediction by ZEFSAII (Michael W. Deem and Ramdas Pophale) SiO2 
 PCOD9226156
Probable space group: P 2/C
;
_chemical_formula_sum "Si O2"
_cell_formula_units_Z 24
_cell_length_a 20.039210
_cell_length_b 5.953175
_cell_length_c 12.889271
_cell_angle_alpha 90.000000
_cell_angle_beta 143.736921
_cell_angle_gamma 90.000000
_cell_volume 909.510547
_symmetry_space_group_name_H-M "P 2/C"
_symmetry_group_IT_number 13
_symmetry_cell_setting 'monoclinic'
loop_
_space_group_symop_operation_xyz
x,y,z
-x,y,1/2-z
-x,-y,-z
x,-y,1/2+z
loop_
_atom_site_type_symbol
_atom_site_label
_atom_site_fract_x
_atom_site_fract_y
_atom_site_fract_z
Si Si1 0.845677 0.649058 0.984646
Si Si2 0.905320 0.858375 0.529085
Si Si3 0.247284 0.723579 0.350157
Si Si4 0.383548 0.383552 0.375555
Si Si5 0.138168 0.676348 0.747421
Si Si6 0.620841 0.887416 0.445367
O O1 0.710350 0.645354 0.828837
O O2 0.873118 0.658207 0.892857
O O3 0.881743 0.388138 0.052979
O O4 0.885857 0.903534 0.062589
O O5 0.821895 0.861026 0.324062
O O6 0.033537 0.821943 0.652968
O O7 0.322734 0.549499 0.380483
O O8 0.151770 0.588583 0.294307
O O9 0.341484 0.860963 0.528426
O O10 0.500000 0.500000 0.500000
O O11 0.395262 0.150904 0.451599
O O12 0.260160 0.771110 0.934608
O O13 0.500000 0.817831 0.250000
#
# Coordination Sequence:
#
# PCOD9226156 Si02
#       6
#     4   4   4   4   4   4
#     4   9  17  27  45  74 105 128 170 222 275 313
#     4  10  16  28  46  75 106 133 167 222 283 323
#     4   9  17  30  45  75 101 134 171 226 272 324
#     4   9  19  34  51  73 105 143 183 226 274 325
#     4   9  18  26  47  67 104 139 165 211 274 329
#     4  10  20  33  48  73 110 144 180 225 273 341
#
# _framework density 26.387816999999998
#
# number of rings (size 3 to 8) (size 9 to 14) (size 15 to 20)
#    0.000    3.333    3.333    2.500    2.333    3.333 
#    0.000    0.000    0.000    0.000    0.000    4.667 
#    0.000    0.000    0.000    0.000    0.000    0.000 
#
# Total GULP energy -133691.327095 kJ/mol
# GULP energy per Si atom -5570.471962 kJ/mol
# Density = 2.632776 g / cm^3
# Si number density = 26.387817 Si / 1000 Ang^3
#
#
#
# Elastic Constant Matrix: (Units=GPa)
#
#
# Indices 1 2 3 4 5 6 
#
# 1 58.0233 45.7584 32.5636 0.0000 27.6477 0.0000
# 2 45.7584 158.2974 26.4360 0.0000 25.1236 0.0000
# 3 32.5636 26.4360 168.3546 0.0000 41.5811 0.0000
# 4 0.0000 0.0000 0.0000 32.1373 0.0000 8.3956
# 5 27.6477 25.1236 41.5811 0.0000 41.9729 0.0000
# 6 0.0000 0.0000 0.0000 8.3956 0.0000 33.6232
#
#
#
# Elastic Compliance Matrix: (Units=1/GPa)
#
#
# Indices 1 2 3 4 5 6 
#
# 1 0.029700 -0.006043 -0.001135 0.000000 -0.014822 0.000000
# 2 -0.006043 0.008211 0.000146 0.000000 -0.001079 0.000000
# 3 -0.001135 0.000146 0.007908 0.000000 -0.007174 0.000000
# 4 0.000000 0.000000 0.000000 0.033288 0.000000 -0.008312
# 5 -0.014822 -0.001079 -0.007174 0.000000 0.041341 0.000000
# 6 0.000000 0.000000 0.000000 -0.008312 0.000000 0.031817
#
#
# Mechanical properties :
#
#
# Convention : Reuss Voigt Hill
#
# Bulk Modulus (GPa) = 31.49143 66.02127 48.75635
# Shear Modulus (GPa) = 28.26231 40.20784 34.23507
#
# Velocity S-wave (km/s) = 3.27622 3.90773 3.60583
# Velocity P-wave (km/s) = 5.12557 6.74050 5.98773
#
# Compressibility (1/GPa) = 0.03175467
#
# Stress axis : x y z
#
# Youngs Moduli (GPa) = 33.67044 121.78862 126.44772
#
# Poissons Ratio (x) = 0.73600 0.14351
# Poissons Ratio (y) = 0.20348 -0.01846
# Poissons Ratio (z) = 0.03821 -0.01778
#
# Static dielectric constant tensor:
#      x y z
#    x 2.215230 0.000000 -0.064460 
#    y 0.000000 2.334210 0.000000 
#    z -0.064460 0.000000 2.058190 
# 
# From -- ./inp_files/82673.got.cif
#   From: 2010.05.17/outbox.cif.g08.bks.cpg/sg13_42_cif.got.tgz:82673.got - 2010.06.03 16:44:36.
