data_PCOD9226967
_publ_section_title
;
Structure prediction by ZEFSAII (Michael W. Deem and Ramdas Pophale) SiO2 
 PCOD9226967
Probable space group: P 2/C
;
_chemical_formula_sum "Si O2"
_cell_formula_units_Z 28
_cell_length_a 21.702322
_cell_length_b 7.522068
_cell_length_c 20.278689
_cell_angle_alpha 90.000000
_cell_angle_beta 159.133492
_cell_angle_gamma 90.000000
_cell_volume 1179.145275
_symmetry_space_group_name_H-M "P 2/C"
_symmetry_group_IT_number 13
_symmetry_cell_setting 'monoclinic'
loop_
_space_group_symop_operation_xyz
x,y,z
-x,y,1/2-z
-x,-y,-z
x,-y,1/2+z
loop_
_atom_site_type_symbol
_atom_site_label
_atom_site_fract_x
_atom_site_fract_y
_atom_site_fract_z
Si Si1 0.500000 0.542287 0.750000
Si Si2 0.004179 0.631988 0.898077
Si Si3 0.249996 0.249965 0.534119
Si Si4 0.369549 0.533796 0.482644
Si Si5 0.130435 0.966158 0.243529
Si Si6 0.250008 0.749995 0.249355
Si Si7 0.504181 0.868056 0.110276
Si Si8 0.000000 0.042355 0.750000
O O1 0.342339 0.403692 0.587545
O O2 0.468113 0.623266 0.645090
O O3 0.838382 0.506986 0.723460
O O4 0.946826 0.838904 0.845811
O O5 0.116756 0.639710 0.944913
O O6 0.141317 0.613279 0.094896
O O7 0.157662 0.096240 0.402863
O O8 0.383229 0.139651 0.711395
O O9 0.383755 0.652100 0.431684
O O10 0.446818 0.338860 0.547834
O O11 0.338373 0.006948 0.453293
O O12 0.031883 0.876678 0.208858
O O13 0.116243 0.847865 0.164170
O O14 0.358706 0.886732 0.312298
#
# Coordination Sequence:
#
# PCOD9226967 Si02
#       8
#     2   4   4   4   4   4   4   2
#     4  10  18  32  52  78 106 138 176 216 264 310
#     4   9  19  34  55  78 101 137 181 220 257 301
#     4   9  16  30  54  76  96 133 186 228 246 293
#     4  10  20  34  53  77 107 139 173 217 260 316
#     4  10  20  34  53  77 107 139 173 217 260 316
#     4  11  20  34  54  80 110 137 170 216 272 317
#     4   9  19  34  55  78 101 137 181 220 257 301
#     4  10  18  32  52  78 106 138 176 216 264 310
#
# _framework density 23.746015
#
# number of rings (size 3 to 8) (size 9 to 14) (size 15 to 20)
#    0.000    2.286    0.000    5.143    0.000    0.000 
#    0.000    2.857    0.000    0.000    0.000    0.000 
#    0.000    0.000    0.000    0.000    0.000    0.000 
#
# Total GULP energy -155934.936694 kJ/mol
# GULP energy per Si atom -5569.104882 kJ/mol
# Density = 2.369197 g / cm^3
# Si number density = 23.746015 Si / 1000 Ang^3
#
#
#
# Elastic Constant Matrix: (Units=GPa)
#
#
# Indices 1 2 3 4 5 6 
#
# 1 119.9120 -0.2781 13.5414 0.0000 -9.3506 0.0000
# 2 -0.2781 27.3523 -6.1390 0.0000 -3.6163 0.0000
# 3 13.5414 -6.1390 82.2210 0.0000 -13.8499 0.0000
# 4 0.0000 0.0000 0.0000 14.9187 0.0000 1.5028
# 5 -9.3506 -3.6163 -13.8499 0.0000 42.8065 0.0000
# 6 0.0000 0.0000 0.0000 1.5028 0.0000 12.4700
#
#
#
# Elastic Compliance Matrix: (Units=1/GPa)
#
#
# Indices 1 2 3 4 5 6 
#
# 1 0.008588 0.000026 -0.001159 0.000000 0.001503 0.000000
# 2 0.000026 0.037937 0.003563 0.000000 0.004363 0.000000
# 3 -0.001159 0.003563 0.013355 0.000000 0.004369 0.000000
# 4 0.000000 0.000000 0.000000 0.067853 0.000000 -0.008177
# 5 0.001503 0.004363 0.004369 0.000000 0.025471 0.000000
# 6 0.000000 0.000000 0.000000 -0.008177 0.000000 0.081178
#
#
# Mechanical properties :
#
#
# Convention : Reuss Voigt Hill
#
# Bulk Modulus (GPa) = 15.44648 27.08153 21.26400
# Shear Modulus (GPa) = 19.91218 28.86311 24.38765
#
# Velocity S-wave (km/s) = 2.89891 3.49017 3.20819
# Velocity P-wave (km/s) = 4.20998 5.26034 4.76419
#
# Compressibility (1/GPa) = 0.06473969
#
# Stress axis : x y z
#
# Youngs Moduli (GPa) = 116.44671 26.35950 74.87701
#
# Poissons Ratio (x) = -0.00068 0.08680
# Poissons Ratio (y) = -0.00301 -0.26681
# Poissons Ratio (z) = 0.13499 -0.09393
#
# Static dielectric constant tensor:
#      x y z
#    x 1.997440 0.000000 0.008430 
#    y 0.000000 1.902870 0.000000 
#    z 0.008430 0.000000 2.011050 
# 
# From -- ./inp_files/75311.got.cif
#   From: 2010.05.17/outbox.cif.g08.bks.cpg/sg13_38_cif.got.tgz:75311.got - 2010.06.03 16:44:36.
