data_PCOD9226989
_publ_section_title
;
Structure prediction by ZEFSAII (Michael W. Deem and Ramdas Pophale) SiO2 
 PCOD9226989
Probable space group: P 2/C
;
_chemical_formula_sum "Si O2"
_cell_formula_units_Z 24
_cell_length_a 11.632895
_cell_length_b 11.371229
_cell_length_c 8.347517
_cell_angle_alpha 90.000000
_cell_angle_beta 100.213334
_cell_angle_gamma 90.000000
_cell_volume 1086.715224
_symmetry_space_group_name_H-M "P 2/C"
_symmetry_group_IT_number 13
_symmetry_cell_setting 'monoclinic'
loop_
_space_group_symop_operation_xyz
x,y,z
-x,y,1/2-z
-x,-y,-z
x,-y,1/2+z
loop_
_atom_site_type_symbol
_atom_site_label
_atom_site_fract_x
_atom_site_fract_y
_atom_site_fract_z
Si Si1 0.000000 0.826104 0.750000
Si Si2 0.622643 0.832666 0.742552
Si Si3 0.647521 0.384244 0.485513
Si Si4 0.500000 0.571367 0.250000
Si Si5 0.786325 0.210535 0.019494
Si Si6 0.839779 0.940282 0.964207
Si Si7 0.861697 0.284840 0.696047
O O1 0.108863 0.748077 0.837000
O O2 0.052701 0.908459 0.624427
O O3 0.500000 0.892888 0.750000
O O4 0.661585 0.788085 0.576655
O O5 0.726763 0.912898 0.829114
O O6 0.623748 0.721373 0.858985
O O7 0.594899 0.494851 0.376211
O O8 0.573562 0.366000 0.629654
O O9 0.783809 0.374823 0.570762
O O10 0.802903 0.273593 0.855724
O O11 0.819979 0.073482 0.007790
O O12 0.848865 0.844061 0.108420
O O13 0.000000 0.309974 0.750000
#
# Coordination Sequence:
#
# PCOD9226989 Si02
#       7
#     2   4   4   2   4   4   4
#     4  10  18  32  54  78 116 172 224 254 272 330
#     4  10  22  39  57  85 125 159 209 259 302 353
#     4  10  23  41  69  96 116 149 201 253 319 376
#     4  10  22  46  76  92 112 152 200 256 314 404
#     4  11  22  33  58  85 128 177 214 248 289 343
#     4  10  21  35  54  88 125 178 221 245 288 345
#     4  11  22  37  59  96 131 162 205 257 306 355
#
# _framework density 22.084904000000002
#
# number of rings (size 3 to 8) (size 9 to 14) (size 15 to 20)
#    0.000    1.667    2.500    2.500    4.667    0.667 
#    0.000    0.833    0.000    0.000    0.000    0.000 
#    0.000    0.000    0.000    0.000    0.000    0.000 
#
# Total GULP energy -133937.260902 kJ/mol
# GULP energy per Si atom -5580.719204 kJ/mol
# Density = 2.203464 g / cm^3
# Si number density = 22.084904 Si / 1000 Ang^3
#
#
#
# Elastic Constant Matrix: (Units=GPa)
#
#
# Indices 1 2 3 4 5 6 
#
# 1 157.4254 23.0658 51.2940 0.0000 -1.6687 0.0000
# 2 23.0658 17.5444 8.5600 0.0000 0.4032 0.0000
# 3 51.2940 8.5600 122.7776 0.0000 -24.7758 0.0000
# 4 0.0000 0.0000 0.0000 11.3617 0.0000 -4.0386
# 5 -1.6687 0.4032 -24.7758 0.0000 49.4113 0.0000
# 6 0.0000 0.0000 0.0000 -4.0386 0.0000 17.1878
#
#
#
# Elastic Compliance Matrix: (Units=1/GPa)
#
#
# Indices 1 2 3 4 5 6 
#
# 1 0.008873 -0.010046 -0.003259 0.000000 -0.001253 0.000000
# 2 -0.010046 0.070738 -0.001023 0.000000 -0.001430 0.000000
# 3 -0.003259 -0.001023 0.010633 0.000000 0.005230 0.000000
# 4 0.000000 0.000000 0.000000 0.096036 0.000000 0.022566
# 5 -0.001253 -0.001430 0.005230 0.000000 0.022830 0.000000
# 6 0.000000 0.000000 0.000000 0.022566 0.000000 0.063483
#
#
# Mechanical properties :
#
#
# Convention : Reuss Voigt Hill
#
# Bulk Modulus (GPa) = 16.23722 51.50966 33.87344
# Shear Modulus (GPa) = 15.53858 29.91400 22.72629
#
# Velocity S-wave (km/s) = 2.65539 3.68435 3.21135
# Velocity P-wave (km/s) = 4.09507 6.43998 5.39643
#
# Compressibility (1/GPa) = 0.06158691
#
# Stress axis : x y z
#
# Youngs Moduli (GPa) = 112.70311 14.13661 94.04532
#
# Poissons Ratio (x) = 0.14202 0.30652
# Poissons Ratio (y) = 1.13225 0.09623
# Poissons Ratio (z) = 0.36733 0.01446
#
# Static dielectric constant tensor:
#      x y z
#    x 1.981560 0.000000 0.058970 
#    y 0.000000 1.795170 0.000000 
#    z 0.058970 0.000000 1.888720 
# 
# From -- ./inp_files/15898.got.cif
#   From: 2010.05.17/outbox.cif.g08.bks.cpg/sg13_8_cif.got.tgz:15898.got - 2010.06.03 16:44:36.
