data_PCOD9226212
_publ_section_title
;
Structure prediction by ZEFSAII (Michael W. Deem and Ramdas Pophale) SiO2 
 PCOD9226212
Probable space group: P 2/C
;
_chemical_formula_sum "Si O2"
_cell_formula_units_Z 20
_cell_length_a 7.113608
_cell_length_b 22.651994
_cell_length_c 5.439827
_cell_angle_alpha 90.000000
_cell_angle_beta 78.163005
_cell_angle_gamma 90.000000
_cell_volume 857.919697
_symmetry_space_group_name_H-M "P 2/C"
_symmetry_group_IT_number 13
_symmetry_cell_setting 'monoclinic'
loop_
_space_group_symop_operation_xyz
x,y,z
-x,y,1/2-z
-x,-y,-z
x,-y,1/2+z
loop_
_atom_site_type_symbol
_atom_site_label
_atom_site_fract_x
_atom_site_fract_y
_atom_site_fract_z
Si Si1 0.266990 0.343529 0.315558
Si Si2 0.271459 0.717192 0.315951
Si Si3 0.218062 0.479304 0.244462
Si Si4 0.118755 0.845180 0.467690
Si Si5 0.223461 0.024110 0.954084
O O1 0.500000 0.340141 0.250000
O O2 0.200173 0.306961 0.572227
O O3 0.216288 0.412263 0.338010
O O4 0.198048 0.317848 0.073868
O O5 0.500000 0.708509 0.250000
O O6 0.231533 0.785978 0.370623
O O7 0.305312 0.516384 0.446819
O O8 0.000000 0.500085 0.250000
O O9 0.229456 0.905844 0.490981
O O10 0.000000 0.858517 0.250000
O O11 0.000000 0.833490 0.750000
O O12 0.306502 0.008026 0.668407
O O13 0.000000 0.000000 0.000000
#
# Coordination Sequence:
#
# PCOD9226212 Si02
#       5
#     4   4   4   4   4
#     4  10  21  39  59  78 108 152 191 225 269 331
#     4  10  23  40  55  78 116 153 183 230 289 327
#     4  10  21  36  56  84 114 143 175 226 286 325
#     4  12  21  33  57  87 107 140 193 232 271 332
#     4  10  16  30  49  77 108 139 169 228 277 322
#
# _framework density 23.312206
#
# number of rings (size 3 to 8) (size 9 to 14) (size 15 to 20)
#    0.000    1.600    4.000    2.400    0.000    3.200 
#    0.000    0.000    0.000    1.200    0.000    0.000 
#    0.000    0.000    0.000    0.000    0.000    0.000 
#
# Total GULP energy -111803.814929 kJ/mol
# GULP energy per Si atom -5590.190746 kJ/mol
# Density = 2.325915 g / cm^3
# Si number density = 23.312206 Si / 1000 Ang^3
#
#
#
# Elastic Constant Matrix: (Units=GPa)
#
#
# Indices 1 2 3 4 5 6 
#
# 1 57.8961 -10.4720 40.5901 0.0000 3.9932 0.0000
# 2 -10.4720 148.2098 62.4920 0.0000 -0.5297 0.0000
# 3 40.5901 62.4920 228.7091 0.0000 12.0836 0.0000
# 4 0.0000 0.0000 0.0000 53.0054 0.0000 1.7935
# 5 3.9932 -0.5297 12.0836 0.0000 34.2777 0.0000
# 6 0.0000 0.0000 0.0000 1.7935 0.0000 17.9388
#
#
#
# Elastic Compliance Matrix: (Units=1/GPa)
#
#
# Indices 1 2 3 4 5 6 
#
# 1 0.021230 0.003468 -0.004675 0.000000 -0.000772 0.000000
# 2 0.003468 0.008218 -0.002900 0.000000 0.000745 0.000000
# 3 -0.004675 -0.002900 0.006081 0.000000 -0.001644 0.000000
# 4 0.000000 0.000000 0.000000 0.018930 0.000000 -0.001893
# 5 -0.000772 0.000745 -0.001644 0.000000 0.029854 0.000000
# 6 0.000000 0.000000 0.000000 -0.001893 0.000000 0.055934
#
#
# Mechanical properties :
#
#
# Convention : Reuss Voigt Hill
#
# Bulk Modulus (GPa) = 36.60854 68.89281 52.75068
# Shear Modulus (GPa) = 31.73252 43.85805 37.79529
#
# Velocity S-wave (km/s) = 3.69344 4.34214 4.03086
# Velocity P-wave (km/s) = 5.82464 7.39968 6.65889
#
# Compressibility (1/GPa) = 0.02731603
#
# Stress axis : x y z
#
# Youngs Moduli (GPa) = 47.10254 121.68637 164.43667
#
# Poissons Ratio (x) = -0.42206 0.76870
# Poissons Ratio (y) = -0.16337 0.47693
# Poissons Ratio (z) = 0.22019 0.35293
#
# Static dielectric constant tensor:
#      x y z
#    x 2.008770 0.000000 -0.023260 
#    y 0.000000 1.834790 0.000000 
#    z -0.023260 0.000000 1.807780 
# 
# From -- ./inp_files/1550.got.cif
#   From: 2010.05.17/outbox.cif.g08.bks.cpg/sg13_1_cif.got.tgz:1550.got - 2010.06.03 16:44:36.
