data_PCOD9226612
_publ_section_title
;
Structure prediction by ZEFSAII (Michael W. Deem and Ramdas Pophale) SiO2 
 PCOD9226612
Probable space group: P 2/C
;
_chemical_formula_sum "Si O2"
_cell_formula_units_Z 28
_cell_length_a 13.936471
_cell_length_b 8.418366
_cell_length_c 20.737286
_cell_angle_alpha 90.000000
_cell_angle_beta 146.434889
_cell_angle_gamma 90.000000
_cell_volume 1345.137749
_symmetry_space_group_name_H-M "P 2/C"
_symmetry_group_IT_number 13
_symmetry_cell_setting 'monoclinic'
loop_
_space_group_symop_operation_xyz
x,y,z
-x,y,1/2-z
-x,-y,-z
x,-y,1/2+z
loop_
_atom_site_type_symbol
_atom_site_label
_atom_site_fract_x
_atom_site_fract_y
_atom_site_fract_z
Si Si1 0.263366 0.799756 0.715342
Si Si2 0.847678 0.325359 0.710182
Si Si3 0.953149 0.394920 0.105325
Si Si4 0.787198 0.324050 0.442890
Si Si5 0.912231 0.893962 0.360040
Si Si6 0.139093 0.089284 0.385176
Si Si7 0.616349 0.802944 0.979345
O O1 0.101679 0.703391 0.652737
O O2 0.317227 0.708777 0.680476
O O3 0.413026 0.805484 0.852701
O O4 0.208367 0.982151 0.670657
O O5 0.940535 0.483732 0.788668
O O6 0.813916 0.215075 0.752908
O O7 0.682477 0.318837 0.571215
O O8 0.000000 0.251704 0.750000
O O9 0.833055 0.270416 0.076527
O O10 0.843257 0.499273 0.993508
O O11 0.699111 0.254495 0.457833
O O12 0.966586 0.225058 0.532544
O O13 0.042667 0.000518 0.390172
O O14 0.302575 0.977192 0.460110
O O15 0.000000 0.099306 0.250000
#
# Coordination Sequence:
#
# PCOD9226612 Si02
#       7
#     4   4   4   4   4   4   4
#     4  11  23  36  54  92 119 150 196 245 296 333
#     4  11  17  38  61  84 112 153 197 235 295 358
#     4  10  22  35  61  86 111 156 201 240 288 352
#     4  10  20  40  61  77 116 168 200 227 279 363
#     4   9  18  34  59  82 106 153 195 234 282 342
#     4  10  17  34  58  87 109 146 196 237 285 360
#     4  11  21  36  61  85 120 150 190 252 295 342
#
# _framework density 20.815712000000001
#
# number of rings (size 3 to 8) (size 9 to 14) (size 15 to 20)
#    0.000    1.714    5.714    1.714    0.000    1.143 
#    0.000    2.857    0.000    5.143    0.000    0.000 
#    0.000    0.000    0.000    0.000    0.000    0.000 
#
# Total GULP energy -156146.727296 kJ/mol
# GULP energy per Si atom -5576.668832 kJ/mol
# Density = 2.076833 g / cm^3
# Si number density = 20.815712 Si / 1000 Ang^3
#
#
#
# Elastic Constant Matrix: (Units=GPa)
#
#
# Indices 1 2 3 4 5 6 
#
# 1 28.2790 10.9092 0.1242 0.0000 -9.9868 0.0000
# 2 10.9092 96.8475 14.5047 0.0000 -9.4303 0.0000
# 3 0.1242 14.5047 68.7942 0.0000 -21.3452 0.0000
# 4 0.0000 0.0000 0.0000 12.4761 0.0000 -9.6786
# 5 -9.9868 -9.4303 -21.3452 0.0000 25.2517 0.0000
# 6 0.0000 0.0000 0.0000 -9.6786 0.0000 21.5691
#
#
#
# Elastic Compliance Matrix: (Units=1/GPa)
#
#
# Indices 1 2 3 4 5 6 
#
# 1 0.044984 -0.004013 0.007889 0.000000 0.022961 0.000000
# 2 -0.004013 0.011171 -0.002096 0.000000 0.000813 0.000000
# 3 0.007889 -0.002096 0.021267 0.000000 0.020314 0.000000
# 4 0.000000 0.000000 0.000000 0.122955 0.000000 0.055173
# 5 0.022961 0.000813 0.020314 0.000000 0.066157 0.000000
# 6 0.000000 0.000000 0.000000 0.055173 0.000000 0.071120
#
#
# Mechanical properties :
#
#
# Convention : Reuss Voigt Hill
#
# Bulk Modulus (GPa) = 12.34840 27.22188 19.78514
# Shear Modulus (GPa) = 13.84711 23.08489 18.46600
#
# Velocity S-wave (km/s) = 2.58199 3.33380 2.98168
# Velocity P-wave (km/s) = 3.85150 5.28440 4.62379
#
# Compressibility (1/GPa) = 0.08098212
#
# Stress axis : x y z
#
# Youngs Moduli (GPa) = 22.23015 89.52080 47.02178
#
# Poissons Ratio (x) = 0.35924 -0.37096
# Poissons Ratio (y) = 0.08921 0.09854
# Poissons Ratio (z) = -0.17538 0.18761
#
# Static dielectric constant tensor:
#      x y z
#    x 1.771410 0.000000 -0.017730 
#    y 0.000000 1.795720 0.000000 
#    z -0.017730 0.000000 1.786140 
# 
# From -- ./inp_files/80026.got.cif
#   From: 2010.05.17/outbox.cif.g08.bks.cpg/sg13_41_cif.got.tgz:80026.got - 2010.06.03 16:44:36.
