data_PCOD9226399
_publ_section_title
;
Structure prediction by ZEFSAII (Michael W. Deem and Ramdas Pophale) SiO2 
 PCOD9226399
Probable space group: P 2/C
;
_chemical_formula_sum "Si O2"
_cell_formula_units_Z 26
_cell_length_a 17.669712
_cell_length_b 5.012623
_cell_length_c 27.088016
_cell_angle_alpha 90.000000
_cell_angle_beta 156.111848
_cell_angle_gamma 90.000000
_cell_volume 971.573855
_symmetry_space_group_name_H-M "P 2/C"
_symmetry_group_IT_number 13
_symmetry_cell_setting 'monoclinic'
loop_
_space_group_symop_operation_xyz
x,y,z
-x,y,1/2-z
-x,-y,-z
x,-y,1/2+z
loop_
_atom_site_type_symbol
_atom_site_label
_atom_site_fract_x
_atom_site_fract_y
_atom_site_fract_z
Si Si1 0.194736 0.895213 0.513217
Si Si2 0.661696 0.791013 0.096516
Si Si3 0.151248 0.384868 0.431124
Si Si4 0.471450 0.475386 0.897097
Si Si5 0.364755 0.170699 0.249430
Si Si6 0.293382 0.308746 0.652567
Si Si7 0.000000 0.280204 0.750000
O O1 0.107323 0.082183 0.418388
O O2 0.178753 0.104152 0.549066
O O3 0.129748 0.591975 0.464655
O O4 0.419399 0.854500 0.640076
O O5 0.679610 0.695274 0.163279
O O6 0.838058 0.905763 0.173748
O O7 0.599608 0.567878 0.019666
O O8 0.500000 0.000000 0.000000
O O9 0.372680 0.368141 0.547922
O O10 0.048043 0.527567 0.324637
O O11 0.373357 0.713500 0.809287
O O12 0.261795 0.389171 0.152589
O O13 0.291133 0.872305 0.200625
O O14 0.500000 0.321787 0.750000
#
# Coordination Sequence:
#
# PCOD9226399 Si02
#       7
#     4   4   4   4   4   4   2
#     4  10  19  33  52  84 127 168 204 263 327 371
#     4  10  22  40  63  87 131 166 215 270 327 387
#     4  10  21  36  60  85 125 168 210 263 318 385
#     4   9  20  35  54  89 114 166 199 264 323 377
#     4  10  18  28  52  82 122 158 204 254 313 386
#     4  10  17  27  47  82 121 161 201 255 312 378
#     4  10  24  44  62  98 124 172 228 264 324 394
#
# _framework density 26.760701000000001
#
# number of rings (size 3 to 8) (size 9 to 14) (size 15 to 20)
#    0.000    2.154    0.000    6.000    8.615    0.615 
#    5.538    0.000    0.000    0.000    0.000    6.462 
#    0.000    0.000    0.000    0.000    0.000    0.000 
#
# Total GULP energy -145071.493428 kJ/mol
# GULP energy per Si atom -5579.672824 kJ/mol
# Density = 2.669979 g / cm^3
# Si number density = 26.760701 Si / 1000 Ang^3
#
#
#
# Elastic Constant Matrix: (Units=GPa)
#
#
# Indices 1 2 3 4 5 6 
#
# 1 76.2929 24.7466 23.0555 0.0000 -3.9065 0.0000
# 2 24.7466 166.8571 10.4041 0.0000 -7.9406 0.0000
# 3 23.0555 10.4041 46.8266 0.0000 -12.1157 0.0000
# 4 0.0000 0.0000 0.0000 29.3379 0.0000 -11.3232
# 5 -3.9065 -7.9406 -12.1157 0.0000 43.7314 0.0000
# 6 0.0000 0.0000 0.0000 -11.3232 0.0000 37.4116
#
#
#
# Elastic Compliance Matrix: (Units=1/GPa)
#
#
# Indices 1 2 3 4 5 6 
#
# 1 0.016020 -0.001944 -0.007731 0.000000 -0.001064 0.000000
# 2 -0.001944 0.006339 -0.000213 0.000000 0.000918 0.000000
# 3 -0.007731 -0.000213 0.026952 0.000000 0.006738 0.000000
# 4 0.000000 0.000000 0.000000 0.038594 0.000000 0.011681
# 5 -0.001064 0.000918 0.006738 0.000000 0.024805 0.000000
# 6 0.000000 0.000000 0.000000 0.011681 0.000000 0.030265
#
#
# Mechanical properties :
#
#
# Convention : Reuss Voigt Hill
#
# Bulk Modulus (GPa) = 33.85979 45.15435 39.50707
# Shear Modulus (GPa) = 28.96923 37.54753 33.25838
#
# Velocity S-wave (km/s) = 3.29375 3.74984 3.52917
# Velocity P-wave (km/s) = 5.21012 5.97147 5.60374
#
# Compressibility (1/GPa) = 0.02953356
#
# Stress axis : x y z
#
# Youngs Moduli (GPa) = 62.42263 157.76516 37.10245
#
# Poissons Ratio (x) = 0.30677 0.28683
# Poissons Ratio (y) = 0.12138 0.00792
# Poissons Ratio (z) = 0.48257 0.03367
#
# Static dielectric constant tensor:
#      x y z
#    x 2.100850 0.000000 0.017350 
#    y 0.000000 2.054210 0.000000 
#    z 0.017350 0.000000 2.313030 
# 
# From -- ./inp_files/93178.got.cif
#   From: 2010.05.17/outbox.cif.g08.bks.cpg/sg13_47_cif.got.tgz:93178.got - 2010.06.03 16:44:36.
