data_PCOD9226252
_publ_section_title
;
Structure prediction by ZEFSAII (Michael W. Deem and Ramdas Pophale) SiO2 
 PCOD9226252
Probable space group: P 2/C
;
_chemical_formula_sum "Si O2"
_cell_formula_units_Z 26
_cell_length_a 5.753976
_cell_length_b 13.806202
_cell_length_c 17.464789
_cell_angle_alpha 90.000000
_cell_angle_beta 62.140510
_cell_angle_gamma 90.000000
_cell_volume 1226.606217
_symmetry_space_group_name_H-M "P 2/C"
_symmetry_group_IT_number 13
_symmetry_cell_setting 'monoclinic'
loop_
_space_group_symop_operation_xyz
x,y,z
-x,y,1/2-z
-x,-y,-z
x,-y,1/2+z
loop_
_atom_site_type_symbol
_atom_site_label
_atom_site_fract_x
_atom_site_fract_y
_atom_site_fract_z
Si Si1 0.036165 0.744934 0.118515
Si Si2 0.318339 0.910698 0.699724
Si Si3 0.451261 0.899547 0.100158
Si Si4 0.456674 0.387833 0.493296
Si Si5 0.129873 0.772692 0.531311
Si Si6 0.500000 0.213249 0.750000
Si Si7 0.411882 0.283577 0.344894
O O1 0.182866 0.844007 0.119417
O O2 0.772884 0.728839 0.207417
O O3 0.240776 0.656879 0.084593
O O4 0.963718 0.758147 0.041231
O O5 0.500000 0.924653 0.750000
O O6 0.381171 0.800617 0.665359
O O7 0.000000 0.925643 0.750000
O O8 0.424578 0.988095 0.621633
O O9 0.514770 0.852770 0.173013
O O10 0.673321 0.863598 0.006508
O O11 0.500000 0.500000 0.500000
O O12 0.710687 0.322572 0.470555
O O13 0.386358 0.361601 0.416085
O O14 0.864432 0.774206 0.620761
O O15 0.500000 0.325009 0.250000
#
# Coordination Sequence:
#
# PCOD9226252 Si02
#       7
#     4   4   4   4   4   2   4
#     4   9  19  34  58  94 124 171 208 277 334 405
#     4  11  24  39  64 101 143 190 235 285 342 406
#     4  10  19  35  61  93 133 179 228 267 336 397
#     4  10  22  43  71  89 124 169 222 287 355 418
#     4   9  21  40  65  91 126 172 218 281 341 402
#     4  10  16  30  58  82 134 164 212 264 332 398
#     4  10  24  42  68  93 131 176 224 286 347 412
#
# _framework density 21.196698000000001
#
# number of rings (size 3 to 8) (size 9 to 14) (size 15 to 20)
#    0.000    2.154    0.769    1.385    6.462    3.077 
#    0.000    6.923   40.615    0.000    0.000    0.000 
#    0.000    0.000    0.000    0.000    0.000    0.000 
#
# Total GULP energy -145034.619515 kJ/mol
# GULP energy per Si atom -5578.254597 kJ/mol
# Density = 2.114845 g / cm^3
# Si number density = 21.196698 Si / 1000 Ang^3
#
#
#
# Elastic Constant Matrix: (Units=GPa)
#
#
# Indices 1 2 3 4 5 6 
#
# 1 98.3325 24.8064 33.3140 0.0000 -7.2988 0.0000
# 2 24.8064 117.6854 36.9807 0.0000 9.3303 0.0000
# 3 33.3140 36.9807 102.0314 0.0000 -8.1896 0.0000
# 4 0.0000 0.0000 0.0000 15.2649 0.0000 15.7431
# 5 -7.2988 9.3303 -8.1896 0.0000 39.9180 0.0000
# 6 0.0000 0.0000 0.0000 15.7431 0.0000 8.0150
#
#
#
# Elastic Compliance Matrix: (Units=1/GPa)
#
#
# Indices 1 2 3 4 5 6 
#
# 1 0.011777 -0.001663 -0.003090 0.000000 0.001908 0.000000
# 2 -0.001663 0.010192 -0.003423 0.000000 -0.003389 0.000000
# 3 -0.003090 -0.003423 0.012271 0.000000 0.002753 0.000000
# 4 0.000000 0.000000 0.000000 -0.063867 0.000000 0.125447
# 5 0.001908 -0.003389 0.002753 0.000000 0.026757 0.000000
# 6 0.000000 0.000000 0.000000 0.125447 0.000000 -0.121636
#
#
# Mechanical properties :
#
#
# Convention : Reuss Voigt Hill
#
# Bulk Modulus (GPa) = 55.89821 56.47238 56.18529
# Shear Modulus (GPa) = -48.92828 27.50280 -10.71274
#
# Velocity S-wave (km/s) = -4.80969 3.60600 -2.25054
# Velocity P-wave (km/s) = 2.10135 6.63608 4.45095
#
# Compressibility (1/GPa) = 0.01788966
#
# Stress axis : x y z
#
# Youngs Moduli (GPa) = 84.90807 98.11561 81.49112
#
# Poissons Ratio (x) = 0.16316 0.25177
# Poissons Ratio (y) = 0.14120 0.27895
# Poissons Ratio (z) = 0.26232 0.33586
#
# Static dielectric constant tensor:
#      x y z
#    x 1.887860 0.000000 -0.005570 
#    y 0.000000 1.721220 0.000000 
#    z -0.005570 0.000000 1.808940 
# 
# From -- ./inp_files/61327.got.cif
#   From: 2010.05.17/outbox.cif.g08.bks.cpg/sg13_31_cif.got.tgz:61327.got - 2010.06.03 16:44:36.
