data_PCOD9226133
_publ_section_title
;
Structure prediction by ZEFSAII (Michael W. Deem and Ramdas Pophale) SiO2 
 PCOD9226133
Probable space group: P 2/C
;
_chemical_formula_sum "Si O2"
_cell_formula_units_Z 20
_cell_length_a 18.598093
_cell_length_b 10.812793
_cell_length_c 5.431843
_cell_angle_alpha 90.000000
_cell_angle_beta 98.397098
_cell_angle_gamma 90.000000
_cell_volume 1080.619061
_symmetry_space_group_name_H-M "P 2/C"
_symmetry_group_IT_number 13
_symmetry_cell_setting 'monoclinic'
loop_
_space_group_symop_operation_xyz
x,y,z
-x,y,1/2-z
-x,-y,-z
x,-y,1/2+z
loop_
_atom_site_type_symbol
_atom_site_label
_atom_site_fract_x
_atom_site_fract_y
_atom_site_fract_z
Si Si1 0.795467 0.876431 0.397731
Si Si2 0.045517 0.839962 0.022759
Si Si3 0.581257 0.082006 0.290624
Si Si4 0.736902 0.153705 0.368448
Si Si5 0.916995 0.551542 0.458497
O O1 0.879619 0.914898 0.439810
O O2 0.774995 0.804944 0.636208
O O3 0.749857 0.003972 0.374924
O O4 0.774996 0.804945 0.138781
O O5 0.073615 0.698260 0.036809
O O6 0.000000 0.859051 0.250000
O O7 0.000000 0.859050 0.750000
O O8 0.500000 0.137430 0.250000
O O9 0.586715 0.999997 0.543350
O O10 0.650631 0.171623 0.325315
O O11 0.882656 0.500000 0.691327
O O12 0.000000 0.500000 0.500000
#
# Coordination Sequence:
#
# PCOD9226133 Si02
#       5
#     4   4   4   4   4
#     4  10  20  30  46  57  79 118 142 175 215 245
#     4  12  21  32  45  65  80  99 149 189 207 258
#     4  10  16  25  46  67  80 104 146 178 196 235
#     4  10  17  35  42  57  89 118 144 164 207 253
#     4  10  16  30  48  62  79  98 117 173 231 264
#
# _framework density 18.507909000000001
#
# number of rings (size 3 to 8) (size 9 to 14) (size 15 to 20)
#    0.000    1.600    8.000    1.200    0.000    0.000 
#    0.000   12.000    0.000    0.000    0.000    0.000 
#    0.000    0.000    0.000    0.000    0.000   34.000 
#
# Total GULP energy -111507.843710 kJ/mol
# GULP energy per Si atom -5575.392185 kJ/mol
# Density = 1.846578 g / cm^3
# Si number density = 18.507909 Si / 1000 Ang^3
#
#
#
# Elastic Constant Matrix: (Units=GPa)
#
#
# Indices 1 2 3 4 5 6 
#
# 1 133.5806 -8.2908 60.7144 0.0000 4.8341 0.0000
# 2 -8.2908 40.6488 -1.0075 0.0000 -1.2986 0.0000
# 3 60.7144 -1.0075 217.7358 0.0000 -19.8324 0.0000
# 4 0.0000 0.0000 0.0000 -7.4076 0.0000 1.9771
# 5 4.8341 -1.2986 -19.8324 0.0000 27.2741 0.0000
# 6 0.0000 0.0000 0.0000 1.9771 0.0000 3.6789
#
#
#
# Elastic Compliance Matrix: (Units=1/GPa)
#
#
# Indices 1 2 3 4 5 6 
#
# 1 0.009004 0.001652 -0.002828 0.000000 -0.003574 0.000000
# 2 0.001652 0.024953 -0.000282 0.000000 0.000690 0.000000
# 3 -0.002828 -0.000282 0.005809 0.000000 0.004712 0.000000
# 4 0.000000 0.000000 0.000000 -0.118062 0.000000 0.063448
# 5 -0.003574 0.000690 0.004712 0.000000 0.040758 0.000000
# 6 0.000000 0.000000 0.000000 0.063448 0.000000 0.237726
#
#
# Mechanical properties :
#
#
# Convention : Reuss Voigt Hill
#
# Bulk Modulus (GPa) = 27.13821 54.97748 41.05784
# Shear Modulus (GPa) = 23.21392 27.41234 25.31313
#
# Velocity S-wave (km/s) = 3.54541 3.85270 3.70224
# Velocity P-wave (km/s) = 5.60846 7.03992 6.36456
#
# Compressibility (1/GPa) = 0.03684842
#
# Stress axis : x y z
#
# Youngs Moduli (GPa) = 111.06700 40.07534 172.13711
#
# Poissons Ratio (x) = -0.06621 0.48689
# Poissons Ratio (y) = -0.18350 0.04861
# Poissons Ratio (z) = 0.31415 0.01132
#
# Static dielectric constant tensor:
#      x y z
#    x 1.583320 0.000000 -0.040030 
#    y 0.000000 1.647150 0.000000 
#    z -0.040030 0.000000 1.807890 
# 
# From -- ./inp_files/6067.got.cif
#   From: 2010.05.17/outbox.cif.g08.bks.cpg/sg13_4_cif.got.tgz:6067.got - 2010.06.03 16:44:36.
