data_PCOD9226509
_publ_section_title
;
Structure prediction by ZEFSAII (Michael W. Deem and Ramdas Pophale) SiO2 
 PCOD9226509
Probable space group: P 2/C
;
_chemical_formula_sum "Si O2"
_cell_formula_units_Z 22
_cell_length_a 10.411420
_cell_length_b 12.667393
_cell_length_c 20.684067
_cell_angle_alpha 90.000000
_cell_angle_beta 26.146483
_cell_angle_gamma 90.000000
_cell_volume 1202.110098
_symmetry_space_group_name_H-M "P 2/C"
_symmetry_group_IT_number 13
_symmetry_cell_setting 'monoclinic'
loop_
_space_group_symop_operation_xyz
x,y,z
-x,y,1/2-z
-x,-y,-z
x,-y,1/2+z
loop_
_atom_site_type_symbol
_atom_site_label
_atom_site_fract_x
_atom_site_fract_y
_atom_site_fract_z
Si Si1 0.602337 0.603567 0.529996
Si Si2 0.000000 0.478033 0.250000
Si Si3 0.008501 0.763138 0.938973
Si Si4 0.290188 0.032224 0.905640
Si Si5 0.367164 0.800846 0.906647
Si Si6 0.721132 0.550447 0.092475
O O1 0.682424 0.724021 0.510825
O O2 0.598561 0.534279 0.597516
O O3 0.848921 0.551462 0.372980
O O4 0.276632 0.590480 0.648804
O O5 0.126258 0.772138 0.960316
O O6 0.310457 0.770533 0.764208
O O7 0.793987 0.860506 0.020729
O O8 0.834204 0.656014 0.007263
O O9 0.500000 0.051631 0.750000
O O10 0.372705 0.928325 0.909334
O O11 0.000000 0.000000 0.000000
O O12 0.500000 0.576592 0.250000
O O13 0.000000 0.500000 0.000000
#
# Coordination Sequence:
#
# PCOD9226509 Si02
#       6
#     4   2   4   4   4   4
#     4  11  22  39  59  80 110 151 193 236 288 327
#     4  10  24  42  56  76 108 154 210 240 262 338
#     4  10  19  31  49  85 125 148 174 212 282 366
#     4  10  17  31  48  76 121 154 175 206 269 360
#     4  10  18  32  54  78 111 151 180 225 280 333
#     4  12  22  33  55  89 122 146 177 232 296 356
#
# _framework density 18.301151999999998
#
# number of rings (size 3 to 8) (size 9 to 14) (size 15 to 20)
#    0.000    1.455    5.455    3.818    0.000    0.000 
#    0.000    0.000    0.000    0.000    0.000   21.636 
#    0.000    0.000    0.000    0.000    0.000    0.000 
#
# Total GULP energy -122633.907157 kJ/mol
# GULP energy per Si atom -5574.268507 kJ/mol
# Density = 1.825950 g / cm^3
# Si number density = 18.301152 Si / 1000 Ang^3
#
#
#
# Elastic Constant Matrix: (Units=GPa)
#
#
# Indices 1 2 3 4 5 6 
#
# 1 35.7415 12.4768 6.0899 0.0000 -0.3490 0.0000
# 2 12.4768 123.7203 11.1579 0.0000 -0.3356 0.0000
# 3 6.0899 11.1579 81.3240 0.0000 -6.8417 0.0000
# 4 0.0000 0.0000 0.0000 30.6350 0.0000 -6.5865
# 5 -0.3490 -0.3356 -6.8417 0.0000 18.1150 0.0000
# 6 0.0000 0.0000 0.0000 -6.5865 0.0000 26.6341
#
#
#
# Elastic Compliance Matrix: (Units=1/GPa)
#
#
# Indices 1 2 3 4 5 6 
#
# 1 0.029261 -0.002787 -0.001824 0.000000 -0.000177 0.000000
# 2 -0.002787 0.008451 -0.000973 0.000000 -0.000265 0.000000
# 3 -0.001824 -0.000973 0.012974 0.000000 0.004847 0.000000
# 4 0.000000 0.000000 0.000000 0.034475 0.000000 0.008526
# 5 -0.000177 -0.000265 0.004847 0.000000 0.057025 0.000000
# 6 0.000000 0.000000 0.000000 0.008526 0.000000 0.039654
#
#
# Mechanical properties :
#
#
# Convention : Reuss Voigt Hill
#
# Bulk Modulus (GPa) = 25.30455 33.35944 29.33199
# Shear Modulus (GPa) = 24.25060 29.14755 26.69907
#
# Velocity S-wave (km/s) = 3.64412 3.99515 3.82366
# Velocity P-wave (km/s) = 5.61809 6.28882 5.96289
#
# Compressibility (1/GPa) = 0.03951859
#
# Stress axis : x y z
#
# Youngs Moduli (GPa) = 34.17569 118.33152 77.07525
#
# Poissons Ratio (x) = 0.32977 0.14056
# Poissons Ratio (y) = 0.09524 0.07500
# Poissons Ratio (z) = 0.06233 0.11514
#
# Static dielectric constant tensor:
#      x y z
#    x 1.107360 0.000000 -0.590520 
#    y 0.000000 1.772880 0.000000 
#    z -0.590520 0.000000 0.916960 
# 
# From -- ./inp_files/86570.got.cif
#   From: 2010.05.17/outbox.cif.g08.bks.cpg/sg13_44_cif.got.tgz:86570.got - 2010.06.03 16:44:36.
