data_PCOD9226590
_publ_section_title
;
Structure prediction by ZEFSAII (Michael W. Deem and Ramdas Pophale) SiO2 
 PCOD9226590
Probable space group: P 2/C
;
_chemical_formula_sum "Si O2"
_cell_formula_units_Z 30
_cell_length_a 9.980887
_cell_length_b 8.818696
_cell_length_c 22.245371
_cell_angle_alpha 90.000000
_cell_angle_beta 137.434008
_cell_angle_gamma 90.000000
_cell_volume 1324.468894
_symmetry_space_group_name_H-M "P 2/C"
_symmetry_group_IT_number 13
_symmetry_cell_setting 'monoclinic'
loop_
_space_group_symop_operation_xyz
x,y,z
-x,y,1/2-z
-x,-y,-z
x,-y,1/2+z
loop_
_atom_site_type_symbol
_atom_site_label
_atom_site_fract_x
_atom_site_fract_y
_atom_site_fract_z
Si Si1 0.678887 0.944753 0.639472
Si Si2 0.565784 0.630276 0.374752
Si Si3 0.589927 0.699950 0.695100
Si Si4 0.029616 0.652824 0.068876
Si Si5 0.500000 0.944001 0.750000
Si Si6 0.208904 0.155131 0.719700
Si Si7 0.709627 0.869864 0.511133
Si Si8 0.925736 0.307784 0.406814
O O1 0.693929 0.779415 0.673704
O O2 0.727396 0.919790 0.586042
O O3 0.805927 0.058452 0.723802
O O4 0.452547 0.010693 0.567550
O O5 0.513971 0.454053 0.357225
O O6 0.748998 0.655327 0.388850
O O7 0.371240 0.715226 0.286348
O O8 0.612469 0.711492 0.453978
O O9 0.461589 0.835962 0.681112
O O10 0.746660 0.676516 0.800916
O O11 0.029560 0.761788 0.126539
O O12 0.980451 0.478582 0.067818
O O13 0.897942 0.703462 0.969322
O O14 0.314176 0.044370 0.706668
O O15 0.933052 0.833479 0.563580
#
# Coordination Sequence:
#
# PCOD9226590 Si02
#       8
#     4   4   4   4   2   4   4   4
#     4   9  21  38  61  85 113 161 221 247 294 372
#     4  10  18  32  62  84 122 161 203 245 301 381
#     4  11  21  33  55  95 117 155 204 254 302 373
#     4  10  18  33  57  92 125 159 192 246 317 378
#     4  10  20  30  52  84 122 152 204 236 300 376
#     4  10  17  33  60  84 112 167 204 244 294 371
#     4   9  20  41  61  83 115 167 209 255 308 354
#     4  10  21  32  57  91 127 155 194 260 317 353
#
# _framework density 22.650587000000002
#
# number of rings (size 3 to 8) (size 9 to 14) (size 15 to 20)
#    0.000    2.133    2.667    0.800    1.867    1.067 
#    0.000    2.667   17.600    0.000   10.400    0.000 
#    0.000    0.000    0.000    0.000    0.000    0.000 
#
# Total GULP energy -167198.518694 kJ/mol
# GULP energy per Si atom -5573.283956 kJ/mol
# Density = 2.259903 g / cm^3
# Si number density = 22.650587 Si / 1000 Ang^3
#
#
#
# Elastic Constant Matrix: (Units=GPa)
#
#
# Indices 1 2 3 4 5 6 
#
# 1 48.6369 38.4387 38.2024 0.0000 -13.3408 0.0000
# 2 38.4387 114.0662 52.4404 0.0000 -14.9338 0.0000
# 3 38.2024 52.4404 145.3335 0.0000 -28.2661 0.0000
# 4 0.0000 0.0000 0.0000 38.9914 0.0000 5.3606
# 5 -13.3408 -14.9338 -28.2661 0.0000 35.3307 0.0000
# 6 0.0000 0.0000 0.0000 5.3606 0.0000 12.2542
#
#
#
# Elastic Compliance Matrix: (Units=1/GPa)
#
#
# Indices 1 2 3 4 5 6 
#
# 1 0.031781 -0.007985 -0.004495 0.000000 0.005029 0.000000
# 2 -0.007985 0.012600 -0.002366 0.000000 0.000418 0.000000
# 3 -0.004495 -0.002366 0.009938 0.000000 0.005253 0.000000
# 4 0.000000 0.000000 0.000000 0.027288 0.000000 -0.011937
# 5 0.005029 0.000418 0.005253 0.000000 0.034582 0.000000
# 6 0.000000 0.000000 0.000000 -0.011937 0.000000 0.086826
#
#
# Mechanical properties :
#
#
# Convention : Reuss Voigt Hill
#
# Bulk Modulus (GPa) = 40.60548 62.91107 51.75827
# Shear Modulus (GPa) = 20.75406 29.24562 24.99984
#
# Velocity S-wave (km/s) = 3.03028 3.59718 3.32583
# Velocity P-wave (km/s) = 5.49630 6.71474 6.13584
#
# Compressibility (1/GPa) = 0.02462722
#
# Stress axis : x y z
#
# Youngs Moduli (GPa) = 31.46525 79.36356 100.62662
#
# Poissons Ratio (x) = 0.63372 0.45227
# Poissons Ratio (y) = 0.25125 0.23812
# Poissons Ratio (z) = 0.14142 0.18780
#
# Static dielectric constant tensor:
#      x y z
#    x 1.944920 0.000000 0.068520 
#    y 0.000000 1.851530 0.000000 
#    z 0.068520 0.000000 1.891910 
# 
# From -- ./inp_files/86386.got.cif
#   From: 2010.05.17/outbox.cif.g08.bks.cpg/sg13_44_cif.got.tgz:86386.got - 2010.06.03 16:44:36.
