data_PCOD9226132
_publ_section_title
;
Structure prediction by ZEFSAII (Michael W. Deem and Ramdas Pophale) SiO2 
 PCOD9226132
Probable space group: P 2/C
;
_chemical_formula_sum "Si O2"
_cell_formula_units_Z 32
_cell_length_a 16.536124
_cell_length_b 14.909372
_cell_length_c 13.792300
_cell_angle_alpha 90.000000
_cell_angle_beta 154.495780
_cell_angle_gamma 90.000000
_cell_volume 1464.135168
_symmetry_space_group_name_H-M "P 2/C"
_symmetry_group_IT_number 13
_symmetry_cell_setting 'monoclinic'
loop_
_space_group_symop_operation_xyz
x,y,z
-x,y,1/2-z
-x,-y,-z
x,-y,1/2+z
loop_
_atom_site_type_symbol
_atom_site_label
_atom_site_fract_x
_atom_site_fract_y
_atom_site_fract_z
Si Si1 0.225687 0.426600 0.279873
Si Si2 0.659090 0.094459 0.776114
Si Si3 0.501832 0.723308 0.079863
Si Si4 0.089003 0.642499 0.437424
Si Si5 0.823127 0.624148 0.308584
Si Si6 0.020958 0.023967 0.908817
Si Si7 0.382836 0.932683 0.502091
Si Si8 0.701362 0.189834 0.320310
O O1 0.375773 0.357717 0.486465
O O2 0.257094 0.532079 0.324322
O O3 0.217089 0.411681 0.152507
O O4 0.009009 0.403497 0.072500
O O5 0.599505 0.194410 0.742156
O O6 0.651158 0.085685 0.649662
O O7 0.503968 0.023262 0.642616
O O8 0.868284 0.057921 0.022043
O O9 0.668102 0.676766 0.198933
O O10 0.359348 0.771981 0.850818
O O11 0.203473 0.727307 0.523639
O O12 0.000000 0.592307 0.250000
O O13 0.921469 0.676793 0.326772
O O14 0.811638 0.053175 0.653220
O O15 0.155740 0.108977 0.042548
O O16 0.000000 0.000000 0.000000
O O17 0.518093 0.850419 0.671121
#
# Coordination Sequence:
#
# PCOD9226132 Si02
#       8
#     4   4   4   4   4   4   4   4
#     4   8  18  32  44  64  88 118 155 186 233 295
#     4   8  15  21  32  62  82 112 150 173 211 260
#     4  10  16  25  44  63  88 118 149 187 232 281
#     4   9  18  32  47  63  90 121 154 195 223 281
#     4   9  18  30  47  62  86 124 149 186 245 284
#     4   9  15  23  38  54  88 125 145 172 212 255
#     4   8  14  24  35  50  88 123 141 175 213 250
#     4   9  18  25  37  63  87 118 152 182 217 266
#
# _framework density 21.855906000000001
#
# number of rings (size 3 to 8) (size 9 to 14) (size 15 to 20)
#    0.750    2.500    0.000    2.625    5.250    1.000 
#    0.000    2.500    0.000    0.000    0.000    0.000 
#    0.000    4.000   17.000    0.000    0.000    0.125 
#
# Total GULP energy -178168.694185 kJ/mol
# GULP energy per Si atom -5567.771693 kJ/mol
# Density = 2.180616 g / cm^3
# Si number density = 21.855906 Si / 1000 Ang^3
#
#
#
# Elastic Constant Matrix: (Units=GPa)
#
#
# Indices 1 2 3 4 5 6 
#
# 1 27.4562 3.7848 26.4764 0.0000 1.3035 0.0000
# 2 3.7848 104.2783 44.7485 0.0000 22.8797 0.0000
# 3 26.4764 44.7485 89.9853 0.0000 34.7946 0.0000
# 4 0.0000 0.0000 0.0000 31.8630 0.0000 14.0998
# 5 1.3035 22.8797 34.7946 0.0000 34.0886 0.0000
# 6 0.0000 0.0000 0.0000 14.0998 0.0000 -2.8278
#
#
#
# Elastic Compliance Matrix: (Units=1/GPa)
#
#
# Indices 1 2 3 4 5 6 
#
# 1 0.065811 0.005694 -0.032618 0.000000 0.026955 0.000000
# 2 0.005694 0.012912 -0.007700 0.000000 -0.001024 0.000000
# 3 -0.032618 -0.007700 0.036441 0.000000 -0.030780 0.000000
# 4 0.000000 0.000000 0.000000 0.009788 0.000000 0.048804
# 5 0.026955 -0.001024 -0.030780 0.000000 0.060409 0.000000
# 6 0.000000 0.000000 0.000000 0.048804 0.000000 -0.110288
#
#
# Mechanical properties :
#
#
# Convention : Reuss Voigt Hill
#
# Bulk Modulus (GPa) = 21.77883 41.30436 31.54160
# Shear Modulus (GPa) = 31.32321 22.40545 26.86433
#
# Velocity S-wave (km/s) = 3.78983 3.20526 3.50974
# Velocity P-wave (km/s) = 5.39785 5.71295 5.55763
#
# Compressibility (1/GPa) = 0.04591615
#
# Stress axis : x y z
#
# Youngs Moduli (GPa) = 15.19513 77.44582 27.44159
#
# Poissons Ratio (x) = -0.44100 0.89508
# Poissons Ratio (y) = -0.08653 0.21131
# Poissons Ratio (z) = 0.49563 0.59637
#
# Static dielectric constant tensor:
#      x y z
#    x 1.784270 0.000000 -0.017620 
#    y 0.000000 1.758690 0.000000 
#    z -0.017620 0.000000 1.869780 
# 
# From -- ./inp_files/70777.got.cif
#   From: 2010.05.17/outbox.cif.g08.bks.cpg/sg13_36_cif.got.tgz:70777.got - 2010.06.03 16:44:36.
