data_PCOD9226304
_publ_section_title
;
Structure prediction by ZEFSAII (Michael W. Deem and Ramdas Pophale) SiO2 
 PCOD9226304
Probable space group: P 2/C
;
_chemical_formula_sum "Si O2"
_cell_formula_units_Z 24
_cell_length_a 11.057552
_cell_length_b 9.452876
_cell_length_c 16.725836
_cell_angle_alpha 90.000000
_cell_angle_beta 133.646489
_cell_angle_gamma 90.000000
_cell_volume 1265.075925
_symmetry_space_group_name_H-M "P 2/C"
_symmetry_group_IT_number 13
_symmetry_cell_setting 'monoclinic'
loop_
_space_group_symop_operation_xyz
x,y,z
-x,y,1/2-z
-x,-y,-z
x,-y,1/2+z
loop_
_atom_site_type_symbol
_atom_site_label
_atom_site_fract_x
_atom_site_fract_y
_atom_site_fract_z
Si Si1 0.420770 0.038841 0.551152
Si Si2 0.803493 0.824076 0.975074
Si Si3 0.102372 0.160781 0.716221
Si Si4 0.552265 0.674829 0.104870
Si Si5 0.275751 0.891011 0.740119
Si Si6 0.500777 0.639046 0.892333
O O1 0.411948 0.206095 0.556868
O O2 0.500000 0.000000 0.500000
O O3 0.255865 0.950522 0.492545
O O4 0.550685 0.978317 0.675658
O O5 0.795157 0.873939 0.880503
O O6 0.661969 0.703286 0.920839
O O7 0.987253 0.789971 0.089941
O O8 0.273012 0.249722 0.796150
O O9 0.000000 0.187584 0.750000
O O10 0.152008 0.994536 0.731805
O O11 0.530421 0.525537 0.138083
O O12 0.544604 0.651301 0.006055
O O13 0.339501 0.738859 0.801729
#
# Coordination Sequence:
#
# PCOD9226304 Si02
#       6
#     4   4   4   4   4   4
#     4  10  16  33  57  84 105 143 197 237 269 330
#     4  11  20  36  58  83 116 149 184 238 295 332
#     4  11  21  37  58  85 113 148 193 240 282 332
#     4  10  20  34  57  82 110 146 191 238 272 332
#     4  10  21  35  56  83 114 148 184 233 288 340
#     4  10  19  36  55  81 111 148 191 230 280 338
#
# _framework density 18.971191999999999
#
# number of rings (size 3 to 8) (size 9 to 14) (size 15 to 20)
#    0.000    1.667    5.000    3.500    0.000    0.000 
#    0.000   10.000    0.000    0.000    0.000    0.000 
#    0.000    0.000    0.000    0.000    0.000    0.000 
#
# Total GULP energy -133782.882381 kJ/mol
# GULP energy per Si atom -5574.286766 kJ/mol
# Density = 1.892801 g / cm^3
# Si number density = 18.971192 Si / 1000 Ang^3
#
#
#
# Elastic Constant Matrix: (Units=GPa)
#
#
# Indices 1 2 3 4 5 6 
#
# 1 29.5840 26.8416 15.2454 0.0000 6.0920 0.0000
# 2 26.8416 159.4940 16.7619 0.0000 5.5533 0.0000
# 3 15.2454 16.7619 115.1062 0.0000 -3.0124 0.0000
# 4 0.0000 0.0000 0.0000 16.5191 0.0000 3.9314
# 5 6.0920 5.5533 -3.0124 0.0000 20.5898 0.0000
# 6 0.0000 0.0000 0.0000 3.9314 0.0000 16.1450
#
#
#
# Elastic Compliance Matrix: (Units=1/GPa)
#
#
# Indices 1 2 3 4 5 6 
#
# 1 0.045075 -0.006596 -0.005332 0.000000 -0.012338 0.000000
# 2 -0.006596 0.007404 -0.000207 0.000000 -0.000076 0.000000
# 3 -0.005332 -0.000207 0.009503 0.000000 0.003024 0.000000
# 4 0.000000 0.000000 0.000000 0.064260 0.000000 -0.015648
# 5 -0.012338 -0.000076 0.003024 0.000000 0.052681 0.000000
# 6 0.000000 0.000000 0.000000 -0.015648 0.000000 0.065749
#
#
# Mechanical properties :
#
#
# Convention : Reuss Voigt Hill
#
# Bulk Modulus (GPa) = 26.51632 46.87579 36.69606
# Shear Modulus (GPa) = 17.76120 27.00647 22.38383
#
# Velocity S-wave (km/s) = 3.06309 3.77709 3.43867
# Velocity P-wave (km/s) = 5.14952 6.61698 5.92883
#
# Compressibility (1/GPa) = 0.03771262
#
# Stress axis : x y z
#
# Youngs Moduli (GPa) = 22.18529 135.05862 105.22865
#
# Poissons Ratio (x) = 0.89081 0.56112
# Poissons Ratio (y) = 0.14633 0.02174
# Poissons Ratio (z) = 0.11830 0.02790
#
# Static dielectric constant tensor:
#      x y z
#    x 1.665000 0.000000 0.004700 
#    y 0.000000 1.699500 0.000000 
#    z 0.004700 0.000000 1.702370 
# 
# From -- ./inp_files/66108.got.cif
#   From: 2010.05.17/outbox.cif.g08.bks.cpg/sg13_34_cif.got.tgz:66108.got - 2010.06.03 16:44:36.
