data_PCOD9226627
_publ_section_title
;
Structure prediction by ZEFSAII (Michael W. Deem and Ramdas Pophale) SiO2 
 PCOD9226627
Probable space group: P 2/C
;
_chemical_formula_sum "Si O2"
_cell_formula_units_Z 30
_cell_length_a 15.643352
_cell_length_b 8.372048
_cell_length_c 24.508129
_cell_angle_alpha 90.000000
_cell_angle_beta 25.942410
_cell_angle_gamma 90.000000
_cell_volume 1404.162903
_symmetry_space_group_name_H-M "P 2/C"
_symmetry_group_IT_number 13
_symmetry_cell_setting 'monoclinic'
loop_
_space_group_symop_operation_xyz
x,y,z
-x,y,1/2-z
-x,-y,-z
x,-y,1/2+z
loop_
_atom_site_type_symbol
_atom_site_label
_atom_site_fract_x
_atom_site_fract_y
_atom_site_fract_z
Si Si1 0.490934 0.828241 0.974183
Si Si2 0.269684 0.722364 0.196302
Si Si3 0.500000 0.249044 0.750000
Si Si4 0.301946 0.942781 0.741977
Si Si5 0.292149 0.979248 0.926534
Si Si6 0.907350 0.894317 0.355847
Si Si7 0.737506 0.436872 0.693318
Si Si8 0.884095 0.239688 0.062990
O O1 0.442865 0.712960 0.052378
O O2 0.296142 0.824165 0.048856
O O3 0.664715 0.830892 0.830445
O O4 0.500000 0.000000 0.000000
O O5 0.265374 0.576680 0.240094
O O6 0.065470 0.762035 0.283302
O O7 0.294257 0.879280 0.221171
O O8 0.551866 0.357595 0.771461
O O9 0.328381 0.132413 0.868363
O O10 0.495188 0.940017 0.669391
O O11 0.126165 0.892511 0.882758
O O12 0.213601 0.836847 0.934220
O O13 0.146739 0.000012 0.061010
O O14 0.000000 0.981020 0.250000
O O15 0.759926 0.614946 0.659260
O O16 0.916727 0.326276 0.569053
#
# Coordination Sequence:
#
# PCOD9226627 Si02
#       8
#     4   4   2   4   4   4   4   4
#     4   8  17  31  53  84 114 138 185 239 286 327
#     4  10  17  35  55  81 114 145 193 237 277 337
#     4  12  24  36  58  88 112 140 194 240 294 330
#     4  10  19  33  55  84 108 146 186 235 282 334
#     4  11  19  34  58  84 110 143 191 235 283 338
#     4   9  18  30  54  85 111 148 183 234 287 333
#     4  11  25  38  54  82 116 156 187 237 284 342
#     4  11  23  39  55  79 116 156 191 228 288 345
#
# _framework density 21.365043
#
# number of rings (size 3 to 8) (size 9 to 14) (size 15 to 20)
#    0.000    1.867    4.000    0.000    3.733    1.067 
#    0.000    0.667    0.000    0.000    0.000    9.333 
#    0.000    0.000    0.000    0.000    0.000    0.000 
#
# Total GULP energy -167341.427616 kJ/mol
# GULP energy per Si atom -5578.047587 kJ/mol
# Density = 2.131642 g / cm^3
# Si number density = 21.365043 Si / 1000 Ang^3
#
#
#
# Elastic Constant Matrix: (Units=GPa)
#
#
# Indices 1 2 3 4 5 6 
#
# 1 107.2138 32.0653 19.4345 0.0000 14.5842 0.0000
# 2 32.0653 48.8616 -0.2589 0.0000 2.4449 0.0000
# 3 19.4345 -0.2589 75.1698 0.0000 34.1836 0.0000
# 4 0.0000 0.0000 0.0000 16.5601 0.0000 1.6305
# 5 14.5842 2.4449 34.1836 0.0000 50.2127 0.0000
# 6 0.0000 0.0000 0.0000 1.6305 0.0000 11.1805
#
#
#
# Elastic Compliance Matrix: (Units=1/GPa)
#
#
# Indices 1 2 3 4 5 6 
#
# 1 0.012410 -0.008085 -0.002573 0.000000 -0.001459 0.000000
# 2 -0.008085 0.025813 0.002437 0.000000 -0.000568 0.000000
# 3 -0.002573 0.002437 0.019830 0.000000 -0.012871 0.000000
# 4 0.000000 0.000000 0.000000 0.061266 0.000000 -0.008934
# 5 -0.001459 -0.000568 -0.012871 0.000000 0.029129 0.000000
# 6 0.000000 0.000000 0.000000 -0.008934 0.000000 0.090744
#
#
# Mechanical properties :
#
#
# Convention : Reuss Voigt Hill
#
# Bulk Modulus (GPa) = 24.03095 37.08078 30.55586
# Shear Modulus (GPa) = 18.55270 27.59096 23.07183
#
# Velocity S-wave (km/s) = 2.95000 3.59751 3.28973
# Velocity P-wave (km/s) = 4.78284 5.88639 5.36308
#
# Compressibility (1/GPa) = 0.04161301
#
# Stress axis : x y z
#
# Youngs Moduli (GPa) = 80.58054 38.74044 50.42879
#
# Poissons Ratio (x) = 0.31320 0.12974
# Poissons Ratio (y) = 0.65146 -0.12292
# Poissons Ratio (z) = 0.20731 -0.09443
#
# Static dielectric constant tensor:
#      x y z
#    x 1.802290 0.000000 0.005640 
#    y 0.000000 1.781230 0.000000 
#    z 0.005640 0.000000 1.848440 
# 
# From -- ./inp_files/87291.got.cif
#   From: 2010.05.17/outbox.cif.g08.bks.cpg/sg13_44_cif.got.tgz:87291.got - 2010.06.03 16:44:36.
