data_PCOD9226578
_publ_section_title
;
Structure prediction by ZEFSAII (Michael W. Deem and Ramdas Pophale) SiO2 
 PCOD9226578
Probable space group: P 2/C
;
_chemical_formula_sum "Si O2"
_cell_formula_units_Z 24
_cell_length_a 16.660397
_cell_length_b 17.608428
_cell_length_c 5.859238
_cell_angle_alpha 90.000000
_cell_angle_beta 42.314480
_cell_angle_gamma 90.000000
_cell_volume 1157.153040
_symmetry_space_group_name_H-M "P 2/C"
_symmetry_group_IT_number 13
_symmetry_cell_setting 'monoclinic'
loop_
_space_group_symop_operation_xyz
x,y,z
-x,y,1/2-z
-x,-y,-z
x,-y,1/2+z
loop_
_atom_site_type_symbol
_atom_site_label
_atom_site_fract_x
_atom_site_fract_y
_atom_site_fract_z
Si Si1 0.119684 0.675909 0.128360
Si Si2 0.000000 0.569019 0.750000
Si Si3 0.266638 0.818108 0.993266
Si Si4 0.384644 0.928841 0.376592
Si Si5 0.500000 0.174155 0.250000
Si Si6 0.235789 0.524489 0.806141
Si Si7 0.156041 0.027632 0.811006
O O1 0.065165 0.625376 0.442818
O O2 0.207599 0.614012 0.824879
O O3 0.000000 0.700576 0.250000
O O4 0.190952 0.748171 0.063739
O O5 0.106733 0.516215 0.613198
O O6 0.321766 0.867791 0.673031
O O7 0.383037 0.787388 0.884937
O O8 0.180220 0.881948 0.291919
O O9 0.500000 0.965285 0.250000
O O10 0.286788 0.989287 0.514457
O O11 0.437524 0.878985 0.065180
O O12 0.289653 0.508946 0.951500
O O13 0.107092 0.006269 0.656946
#
# Coordination Sequence:
#
# PCOD9226578 Si02
#       7
#     4   2   4   4   2   4   4
#     4  11  20  35  53  82 119 144 178 224 283 335
#     4  10  18  34  58  84 110 142 176 234 276 326
#     4  10  22  32  52  81 111 148 179 234 283 332
#     4   9  19  32  54  76 104 140 189 240 282 321
#     4  10  18  36  50  80 108 138 192 224 288 332
#     4  10  17  33  57  85 112 138 175 231 277 328
#     4  10  19  34  51  77 105 141 189 237 279 324
#
# _framework density 20.740556999999999
#
# number of rings (size 3 to 8) (size 9 to 14) (size 15 to 20)
#    0.000    2.000    4.167    1.000    1.167    3.333 
#    0.000    0.000    0.000    4.000    0.000    4.667 
#    0.000    0.000    0.000    0.000    0.000    0.000 
#
# Total GULP energy -133634.380626 kJ/mol
# GULP energy per Si atom -5568.099193 kJ/mol
# Density = 2.069335 g / cm^3
# Si number density = 20.740557 Si / 1000 Ang^3
#
#
#
# Elastic Constant Matrix: (Units=GPa)
#
#
# Indices 1 2 3 4 5 6 
#
# 1 126.0304 79.9159 30.5442 0.0000 13.0113 0.0000
# 2 79.9159 120.6997 4.3583 0.0000 -10.7470 0.0000
# 3 30.5442 4.3583 70.9582 0.0000 13.1404 0.0000
# 4 0.0000 0.0000 0.0000 4.2497 0.0000 0.4840
# 5 13.0113 -10.7470 13.1404 0.0000 19.9311 0.0000
# 6 0.0000 0.0000 0.0000 0.4840 0.0000 42.1918
#
#
#
# Elastic Compliance Matrix: (Units=1/GPa)
#
#
# Indices 1 2 3 4 5 6 
#
# 1 0.020462 -0.015037 -0.004453 0.000000 -0.018530 0.000000
# 2 -0.015037 0.019915 0.001644 0.000000 0.019471 0.000000
# 3 -0.004453 0.001644 0.017321 0.000000 -0.007626 0.000000
# 4 0.000000 0.000000 0.000000 0.235619 0.000000 -0.002703
# 5 -0.018530 0.019471 -0.007626 0.000000 0.077797 0.000000
# 6 0.000000 0.000000 0.000000 -0.002703 0.000000 0.023732
#
#
# Mechanical properties :
#
#
# Convention : Reuss Voigt Hill
#
# Bulk Modulus (GPa) = 45.44209 60.81389 53.12799
# Shear Modulus (GPa) = 11.41883 26.79917 19.10900
#
# Velocity S-wave (km/s) = 2.34894 3.59850 3.03864
# Velocity P-wave (km/s) = 5.41424 6.83012 6.16297
#
# Compressibility (1/GPa) = 0.02200603
#
# Stress axis : x y z
#
# Youngs Moduli (GPa) = 48.87175 50.21233 57.73391
#
# Poissons Ratio (x) = 0.75504 0.25707
# Poissons Ratio (y) = 0.73488 -0.09490
# Poissons Ratio (z) = 0.21761 -0.08253
#
# Static dielectric constant tensor:
#      x y z
#    x 1.893580 0.000000 0.115950 
#    y 0.000000 1.702250 0.000000 
#    z 0.115950 0.000000 1.855410 
# 
# From -- ./inp_files/4922.got.cif
#   From: 2010.05.17/outbox.cif.g08.bks.cpg/sg13_3_cif.got.tgz:4922.got - 2010.06.03 16:44:36.
