data_PCOD9226029
_publ_section_title
;
Structure prediction by ZEFSAII (Michael W. Deem and Ramdas Pophale) SiO2 
 PCOD9226029
Probable space group: P 2/C
;
_chemical_formula_sum "Si O2"
_cell_formula_units_Z 22
_cell_length_a 10.161216
_cell_length_b 8.102148
_cell_length_c 17.686158
_cell_angle_alpha 90.000000
_cell_angle_beta 39.179477
_cell_angle_gamma 90.000000
_cell_volume 919.868533
_symmetry_space_group_name_H-M "P 2/C"
_symmetry_group_IT_number 13
_symmetry_cell_setting 'monoclinic'
loop_
_space_group_symop_operation_xyz
x,y,z
-x,y,1/2-z
-x,-y,-z
x,-y,1/2+z
loop_
_atom_site_type_symbol
_atom_site_label
_atom_site_fract_x
_atom_site_fract_y
_atom_site_fract_z
Si Si1 0.855657 0.720116 0.937115
Si Si2 0.794556 0.112017 0.604976
Si Si3 0.716035 0.914149 0.779838
Si Si4 0.000000 0.143268 0.750000
Si Si5 0.358121 0.389646 0.116599
Si Si6 0.951686 0.609714 0.143775
O O1 0.780286 0.701038 0.885533
O O2 0.078040 0.808548 0.833410
O O3 0.890075 0.533543 0.950377
O O4 0.720781 0.828523 0.054950
O O5 0.863227 0.281245 0.615882
O O6 0.667175 0.015615 0.726122
O O7 0.000000 0.000000 0.500000
O O8 0.557720 0.769547 0.874797
O O9 0.804717 0.037451 0.805182
O O10 0.943488 0.262569 0.844540
O O11 0.228966 0.513655 0.228236
O O12 0.500000 0.500000 0.000000
#
# Coordination Sequence:
#
# PCOD9226029 Si02
#       6
#     4   4   4   2   4   4
#     4  10  17  34  54  85 108 146 190 241 278 333
#     4   9  19  31  57  86 110 138 186 246 294 323
#     4   9  17  32  56  83 114 143 188 246 284 323
#     4  10  14  28  54  80 104 140 180 238 286 312
#     4  11  21  35  55  81 116 157 191 224 279 356
#     4  10  18  32  56  82 111 141 190 239 285 329
#
# _framework density 23.916459
#
# number of rings (size 3 to 8) (size 9 to 14) (size 15 to 20)
#    0.000    2.182    3.636    1.636    0.000    0.000 
#    0.000    4.545    0.000    2.182    0.000    0.000 
#    0.000    0.000    0.000    0.000    0.000    0.000 
#
# Total GULP energy -122711.948145 kJ/mol
# GULP energy per Si atom -5577.815825 kJ/mol
# Density = 2.386202 g / cm^3
# Si number density = 23.916459 Si / 1000 Ang^3
#
#
#
# Elastic Constant Matrix: (Units=GPa)
#
#
# Indices 1 2 3 4 5 6 
#
# 1 39.2923 14.6785 16.5280 0.0000 21.2584 0.0000
# 2 14.6785 149.9996 65.1807 0.0000 18.2987 0.0000
# 3 16.5280 65.1807 114.0575 0.0000 15.8917 0.0000
# 4 0.0000 0.0000 0.0000 14.7522 0.0000 -24.2958
# 5 21.2584 18.2987 15.8917 0.0000 30.0792 0.0000
# 6 0.0000 0.0000 0.0000 -24.2958 0.0000 -21.3727
#
#
#
# Elastic Compliance Matrix: (Units=1/GPa)
#
#
# Indices 1 2 3 4 5 6 
#
# 1 0.041679 0.000394 -0.002296 0.000000 -0.028483 0.000000
# 2 0.000394 0.009119 -0.004811 0.000000 -0.003284 0.000000
# 3 -0.002296 -0.004811 0.012107 0.000000 -0.001847 0.000000
# 4 0.000000 0.000000 0.000000 0.023601 0.000000 -0.026829
# 5 -0.028483 -0.003284 -0.001847 0.000000 0.056350 0.000000
# 6 0.000000 0.000000 0.000000 -0.026829 0.000000 -0.016290
#
#
# Mechanical properties :
#
#
# Convention : Reuss Voigt Hill
#
# Bulk Modulus (GPa) = 20.21055 55.12486 37.66770
# Shear Modulus (GPa) = 31.95177 18.48920 25.22049
#
# Velocity S-wave (km/s) = 3.65906 2.78344 3.25087
# Velocity P-wave (km/s) = 5.13035 5.78178 5.46578
#
# Compressibility (1/GPa) = 0.04947912
#
# Stress axis : x y z
#
# Youngs Moduli (GPa) = 23.99266 109.65714 82.59773
#
# Poissons Ratio (x) = -0.04319 0.18966
# Poissons Ratio (y) = -0.00945 0.39737
# Poissons Ratio (z) = 0.05509 0.52755
#
# Static dielectric constant tensor:
#      x y z
#    x 1.996550 0.000000 0.005500 
#    y 0.000000 1.958620 0.000000 
#    z 0.005500 0.000000 1.977180 
# 
# From -- ./inp_files/65873.got.cif
#   From: 2010.05.17/outbox.cif.g08.bks.cpg/sg13_33_cif.got.tgz:65873.got - 2010.06.03 16:44:36.
