data_PCOD9226358
_publ_section_title
;
Structure prediction by ZEFSAII (Michael W. Deem and Ramdas Pophale) SiO2 
 PCOD9226358
Probable space group: P 2/C
;
_chemical_formula_sum "Si O2"
_cell_formula_units_Z 20
_cell_length_a 6.879857
_cell_length_b 12.124245
_cell_length_c 10.959190
_cell_angle_alpha 90.000000
_cell_angle_beta 66.031447
_cell_angle_gamma 90.000000
_cell_volume 835.312119
_symmetry_space_group_name_H-M "P 2/C"
_symmetry_group_IT_number 13
_symmetry_cell_setting 'monoclinic'
loop_
_space_group_symop_operation_xyz
x,y,z
-x,y,1/2-z
-x,-y,-z
x,-y,1/2+z
loop_
_atom_site_type_symbol
_atom_site_label
_atom_site_fract_x
_atom_site_fract_y
_atom_site_fract_z
Si Si1 0.827894 0.343777 0.079839
Si Si2 0.000000 0.198951 0.250000
Si Si3 0.728460 0.086256 0.510822
Si Si4 0.170057 0.567644 0.317364
Si Si5 0.500000 0.242787 0.750000
Si Si6 0.127906 0.856891 0.086381
O O1 0.723358 0.455104 0.159579
O O2 0.881128 0.272656 0.182806
O O3 0.764639 0.256413 0.990731
O O4 0.045872 0.387999 0.966733
O O5 0.184228 0.129706 0.139553
O O6 0.554456 0.160291 0.624560
O O7 0.929510 0.111995 0.548790
O O8 0.709360 0.956135 0.489353
O O9 0.322762 0.669940 0.250151
O O10 0.000000 0.547203 0.250000
O O11 0.000000 0.852797 0.250000
#
# Coordination Sequence:
#
# PCOD9226358 Si02
#       6
#     4   2   4   4   2   4
#     4  10  21  38  68  97 130 196 232 278 357 429
#     4  10  16  40  62 100 138 184 230 280 354 438
#     4  10  22  37  68 101 140 179 235 288 360 419
#     4  11  23  43  69  99 144 188 237 293 356 417
#     4  12  24  44  70 116 136 184 242 298 346 430
#     4  10  19  39  71  96 131 192 232 277 360 432
#
# _framework density 23.943148000000001
#
# number of rings (size 3 to 8) (size 9 to 14) (size 15 to 20)
#    0.000    1.600    6.000    0.600    0.000    0.000 
#    0.000   11.000    0.000    0.000    0.000    0.000 
#    0.000    0.000    0.000    0.000    0.000    0.000 
#
# Total GULP energy -111411.388815 kJ/mol
# GULP energy per Si atom -5570.569441 kJ/mol
# Density = 2.388865 g / cm^3
# Si number density = 23.943148 Si / 1000 Ang^3
#
#
#
# Elastic Constant Matrix: (Units=GPa)
#
#
# Indices 1 2 3 4 5 6 
#
# 1 45.4787 40.3121 40.5145 0.0000 1.4517 0.0000
# 2 40.3121 245.8158 93.6756 0.0000 -10.3524 0.0000
# 3 40.5145 93.6756 156.8844 0.0000 8.8265 0.0000
# 4 0.0000 0.0000 0.0000 29.2754 0.0000 -5.4467
# 5 1.4517 -10.3524 8.8265 0.0000 37.8703 0.0000
# 6 0.0000 0.0000 0.0000 -5.4467 0.0000 29.2877
#
#
#
# Elastic Compliance Matrix: (Units=1/GPa)
#
#
# Indices 1 2 3 4 5 6 
#
# 1 0.029726 -0.002558 -0.006126 0.000000 -0.000411 0.000000
# 2 -0.002558 0.005674 -0.002858 0.000000 0.002315 0.000000
# 3 -0.006126 -0.002858 0.009822 0.000000 -0.002836 0.000000
# 4 0.000000 0.000000 0.000000 0.035383 0.000000 0.006580
# 5 -0.000411 0.002315 -0.002836 0.000000 0.027715 0.000000
# 6 0.000000 0.000000 0.000000 0.006580 0.000000 0.035368
#
#
# Mechanical properties :
#
#
# Convention : Reuss Voigt Hill
#
# Bulk Modulus (GPa) = 45.16932 88.57589 66.87261
# Shear Modulus (GPa) = 28.71071 37.53179 33.12125
#
# Velocity S-wave (km/s) = 3.46659 3.96351 3.72335
# Velocity P-wave (km/s) = 5.91009 7.61712 6.81724
#
# Compressibility (1/GPa) = 0.02213892
#
# Stress axis : x y z
#
# Youngs Moduli (GPa) = 33.64051 176.24129 101.81104
#
# Poissons Ratio (x) = 0.45074 0.62373
# Poissons Ratio (y) = 0.08604 0.29095
# Poissons Ratio (z) = 0.20609 0.50365
#
# Static dielectric constant tensor:
#      x y z
#    x 2.055850 0.000000 -0.033670 
#    y 0.000000 2.099420 0.000000 
#    z -0.033670 0.000000 1.922410 
# 
# From -- ./inp_files/28980.got.cif
#   From: 2010.05.17/outbox.cif.g08.bks.cpg/sg13_15_cif.got.tgz:28980.got - 2010.06.03 16:44:36.
