data_PCOD9226519
_publ_section_title
;
Structure prediction by ZEFSAII (Michael W. Deem and Ramdas Pophale) SiO2 
 PCOD9226519
Probable space group: P 2/C
;
_chemical_formula_sum "Si O2"
_cell_formula_units_Z 32
_cell_length_a 21.012866
_cell_length_b 11.392823
_cell_length_c 9.282030
_cell_angle_alpha 90.000000
_cell_angle_beta 130.226738
_cell_angle_gamma 90.000000
_cell_volume 1696.546056
_symmetry_space_group_name_H-M "P 2/C"
_symmetry_group_IT_number 13
_symmetry_cell_setting 'monoclinic'
loop_
_space_group_symop_operation_xyz
x,y,z
-x,y,1/2-z
-x,-y,-z
x,-y,1/2+z
loop_
_atom_site_type_symbol
_atom_site_label
_atom_site_fract_x
_atom_site_fract_y
_atom_site_fract_z
Si Si1 0.683304 0.464531 0.698647
Si Si2 0.139949 0.913756 0.574123
Si Si3 0.259824 0.235409 0.553341
Si Si4 0.623109 0.840259 0.781809
Si Si5 0.757065 0.290973 0.297906
Si Si6 0.675754 0.030816 0.651945
Si Si7 0.422020 0.406476 0.225912
Si Si8 0.082094 0.882210 0.792100
O O1 0.718010 0.354486 0.834653
O O2 0.749954 0.569917 0.789720
O O3 0.653087 0.421416 0.498738
O O4 0.606065 0.521199 0.675378
O O5 0.156956 0.778286 0.562338
O O6 0.078938 0.910906 0.619662
O O7 0.232220 0.972171 0.744068
O O8 0.104600 0.995045 0.399937
O O9 0.278889 0.253756 0.412164
O O10 0.308273 0.130397 0.703848
O O11 0.162376 0.202084 0.424610
O O12 0.703535 0.765469 0.847986
O O13 0.560550 0.730774 0.709435
O O14 0.616252 0.934496 0.642023
O O15 0.640100 0.910030 0.954936
O O16 0.500000 0.453333 0.250000
O O17 0.000000 0.835613 0.750000
#
# Coordination Sequence:
#
# PCOD9226519 Si02
#       8
#     4   4   4   4   4   4   4   4
#     4  11  20  37  59  79 108 142 185 229 269 322
#     4   9  17  30  50  76 105 135 177 217 266 314
#     4  10  19  33  55  79 105 143 188 222 268 323
#     4  10  19  32  54  77 109 135 180 222 271 321
#     4   9  18  32  52  80 101 135 182 233 260 308
#     4  10  17  31  53  79 102 139 178 228 262 316
#     4  11  23  38  57  82 111 141 178 229 282 327
#     4  10  19  31  50  77 111 142 173 221 274 322
#
# _framework density 18.861851999999999
#
# number of rings (size 3 to 8) (size 9 to 14) (size 15 to 20)
#    0.000    2.000    2.500    4.500    0.000    0.000 
#    0.000    0.625    0.000    3.750    0.000    0.000 
#    0.000    0.000    0.000    0.000    0.000    0.000 
#
# Total GULP energy -178239.367573 kJ/mol
# GULP energy per Si atom -5569.980237 kJ/mol
# Density = 1.881892 g / cm^3
# Si number density = 18.861852 Si / 1000 Ang^3
#
#
#
# Elastic Constant Matrix: (Units=GPa)
#
#
# Indices 1 2 3 4 5 6 
#
# 1 75.6034 20.6151 7.5383 0.0000 -22.2277 0.0000
# 2 20.6151 120.1902 19.8454 0.0000 -10.3926 0.0000
# 3 7.5383 19.8454 31.4903 0.0000 -15.7263 0.0000
# 4 0.0000 0.0000 0.0000 18.6668 0.0000 -16.4753
# 5 -22.2277 -10.3926 -15.7263 0.0000 21.9587 0.0000
# 6 0.0000 0.0000 0.0000 -16.4753 0.0000 19.2448
#
#
#
# Elastic Compliance Matrix: (Units=1/GPa)
#
#
# Indices 1 2 3 4 5 6 
#
# 1 0.021063 -0.002980 0.010554 0.000000 0.027470 0.000000
# 2 -0.002980 0.009710 -0.007188 0.000000 -0.003570 0.000000
# 3 0.010554 -0.007188 0.058218 0.000000 0.048976 0.000000
# 4 0.000000 0.000000 0.000000 0.219179 0.000000 0.187637
# 5 0.027470 -0.003570 0.048976 0.000000 0.106733 0.000000
# 6 0.000000 0.000000 0.000000 0.187637 0.000000 0.212597
#
#
# Mechanical properties :
#
#
# Convention : Reuss Voigt Hill
#
# Bulk Modulus (GPa) = 11.14042 35.92016 23.53029
# Shear Modulus (GPa) = 7.61442 23.92641 15.77041
#
# Velocity S-wave (km/s) = 2.01139 3.56548 2.89468
# Velocity P-wave (km/s) = 3.36354 6.00294 4.86563
#
# Compressibility (1/GPa) = 0.08976325
#
# Stress axis : x y z
#
# Youngs Moduli (GPa) = 47.47561 102.99115 17.17673
#
# Poissons Ratio (x) = 0.30694 -0.18129
# Poissons Ratio (y) = 0.14149 0.12347
# Poissons Ratio (z) = -0.50108 0.74033
#
# Static dielectric constant tensor:
#      x y z
#    x 1.703290 0.000000 -0.003450 
#    y 0.000000 1.682370 0.000000 
#    z -0.003450 0.000000 1.664990 
# 
# From -- ./inp_files/21584.got.cif
#   From: 2010.05.17/outbox.cif.g08.bks.cpg/sg13_11_cif.got.tgz:21584.got - 2010.06.03 16:44:36.
