data_PCOD9226724
_publ_section_title
;
Structure prediction by ZEFSAII (Michael W. Deem and Ramdas Pophale) SiO2 
 PCOD9226724
Probable space group: P 2/C
;
_chemical_formula_sum "Si O2"
_cell_formula_units_Z 32
_cell_length_a 15.378013
_cell_length_b 5.606745
_cell_length_c 23.985965
_cell_angle_alpha 90.000000
_cell_angle_beta 36.509899
_cell_angle_gamma 90.000000
_cell_volume 1230.430829
_symmetry_space_group_name_H-M "P 2/C"
_symmetry_group_IT_number 13
_symmetry_cell_setting 'monoclinic'
loop_
_space_group_symop_operation_xyz
x,y,z
-x,y,1/2-z
-x,-y,-z
x,-y,1/2+z
loop_
_atom_site_type_symbol
_atom_site_label
_atom_site_fract_x
_atom_site_fract_y
_atom_site_fract_z
Si Si1 0.650697 0.680706 0.706296
Si Si2 0.715470 0.148539 0.499713
Si Si3 0.030401 0.376634 0.877446
Si Si4 0.692326 0.652104 0.346948
Si Si5 0.645884 0.841187 0.834172
Si Si6 0.971731 0.122484 0.126075
Si Si7 0.325209 0.823609 0.348079
Si Si8 0.255075 0.350724 0.554424
O O1 0.500000 0.660791 0.750000
O O2 0.610876 0.751411 0.789770
O O3 0.720878 0.418692 0.660392
O O4 0.731720 0.917802 0.642334
O O5 0.891435 0.125042 0.402429
O O6 0.696498 0.195381 0.574993
O O7 0.670970 0.391667 0.492797
O O8 0.661218 0.884290 0.511488
O O9 0.021846 0.631699 0.911234
O O10 0.893559 0.371775 0.904917
O O11 0.179780 0.374323 0.765006
O O12 0.021050 0.122249 0.911516
O O13 0.616760 0.390217 0.387071
O O14 0.762404 0.691983 0.371232
O O15 0.603934 0.891023 0.374854
O O16 0.823489 0.872381 0.737950
O O17 0.500000 0.840017 0.250000
#
# Coordination Sequence:
#
# PCOD9226724 Si02
#       8
#     4   4   4   4   4   4   4   4
#     4  10  21  38  59  81  97 126 180 232 273 310
#     4  10  19  33  51  77 111 140 175 220 254 305
#     4   8  15  26  42  67 105 148 187 205 226 290
#     4  10  18  29  48  77 111 149 177 204 249 306
#     4  10  19  33  51  77 111 140 175 220 254 305
#     4   8  16  28  45  71 107 144 169 205 263 300
#     4  10  21  38  59  81  97 126 180 232 273 310
#     4  10  18  29  48  77 111 149 177 204 249 306
#
# _framework density 26.007149999999999
#
# number of rings (size 3 to 8) (size 9 to 14) (size 15 to 20)
#    0.000    2.500    0.000    2.625    0.000    0.000 
#    0.000    8.750    0.000    0.000    0.000   70.000 
#    0.000    0.000    0.000    0.000    0.000    0.000 
#
# Total GULP energy -178699.116928 kJ/mol
# GULP energy per Si atom -5584.347404 kJ/mol
# Density = 2.594796 g / cm^3
# Si number density = 26.007150 Si / 1000 Ang^3
#
#
#
# Elastic Constant Matrix: (Units=GPa)
#
#
# Indices 1 2 3 4 5 6 
#
# 1 62.5121 32.2166 36.3608 0.0000 6.4391 0.0000
# 2 32.2166 333.6319 26.6187 0.0000 -2.1603 0.0000
# 3 36.3608 26.6187 51.3096 0.0000 11.4237 0.0000
# 4 0.0000 0.0000 0.0000 31.9640 0.0000 5.6510
# 5 6.4391 -2.1603 11.4237 0.0000 31.6407 0.0000
# 6 0.0000 0.0000 0.0000 5.6510 0.0000 28.2776
#
#
#
# Elastic Compliance Matrix: (Units=1/GPa)
#
#
# Indices 1 2 3 4 5 6 
#
# 1 0.027680 -0.001124 -0.019314 0.000000 0.001263 0.000000
# 2 -0.001124 0.003194 -0.001044 0.000000 0.000824 0.000000
# 3 -0.019314 -0.001044 0.035731 0.000000 -0.009041 0.000000
# 4 0.000000 0.000000 0.000000 0.032431 0.000000 -0.006481
# 5 0.001263 0.000824 -0.009041 0.000000 0.034668 0.000000
# 6 0.000000 0.000000 0.000000 -0.006481 0.000000 0.036659
#
#
# Mechanical properties :
#
#
# Convention : Reuss Voigt Hill
#
# Bulk Modulus (GPa) = 42.29805 70.87176 56.58491
# Shear Modulus (GPa) = 22.60313 41.86030 32.23171
#
# Velocity S-wave (km/s) = 2.95127 4.01630 3.52425
# Velocity P-wave (km/s) = 5.28324 6.98696 6.19396
#
# Compressibility (1/GPa) = 0.02364175
#
# Stress axis : x y z
#
# Youngs Moduli (GPa) = 36.12714 313.03965 27.98677
#
# Poissons Ratio (x) = 0.35177 0.54053
# Poissons Ratio (y) = 0.04060 0.02923
# Poissons Ratio (z) = 0.69776 0.32692
#
# Static dielectric constant tensor:
#      x y z
#    x 2.266610 0.000000 -0.014640 
#    y 0.000000 2.165010 0.000000 
#    z -0.014640 0.000000 2.007220 
# 
# From -- ./inp_files/80674.got.cif
#   From: 2010.05.17/outbox.cif.g08.bks.cpg/sg13_41_cif.got.tgz:80674.got - 2010.06.03 16:44:36.
