data_PCOD9226120
_publ_section_title
;
Structure prediction by ZEFSAII (Michael W. Deem and Ramdas Pophale) SiO2 
 PCOD9226120
Probable space group: P 2/C
;
_chemical_formula_sum "Si O2"
_cell_formula_units_Z 22
_cell_length_a 27.836137
_cell_length_b 7.037555
_cell_length_c 5.350623
_cell_angle_alpha 90.000000
_cell_angle_beta 73.318355
_cell_angle_gamma 90.000000
_cell_volume 1004.065091
_symmetry_space_group_name_H-M "P 2/C"
_symmetry_group_IT_number 13
_symmetry_cell_setting 'monoclinic'
loop_
_space_group_symop_operation_xyz
x,y,z
-x,y,1/2-z
-x,-y,-z
x,-y,1/2+z
loop_
_atom_site_type_symbol
_atom_site_label
_atom_site_fract_x
_atom_site_fract_y
_atom_site_fract_z
Si Si1 0.678796 0.213433 0.827533
Si Si2 0.521798 0.215033 0.467537
Si Si3 0.217473 0.371281 0.950093
Si Si4 0.892265 0.370433 0.389181
Si Si5 0.000000 0.368691 0.250000
Si Si6 0.638854 0.783664 0.887433
O O1 0.735757 0.231715 0.653043
O O2 0.644869 0.298682 0.655999
O O3 0.659820 0.997997 0.890973
O O4 0.671361 0.301435 0.113086
O O5 0.500000 0.300967 0.250000
O O6 0.581539 0.211116 0.388396
O O7 0.500000 0.000000 0.500000
O O8 0.500000 0.302067 0.750000
O O9 0.220687 0.517440 0.709760
O O10 0.162366 0.274110 0.020014
O O11 0.892432 0.511652 0.628892
O O12 0.945988 0.264206 0.324689
O O13 0.000000 0.500000 0.500000
#
# Coordination Sequence:
#
# PCOD9226120 Si02
#       6
#     4   4   4   4   2   4
#     4  10  18  30  44  60  89 116 140 172 208 245
#     4  10  16  25  41  63  91 104 119 160 216 272
#     4  10  19  30  43  62  87 117 148 175 203 243
#     4   8  14  23  36  54  78 105 135 169 206 246
#     4   8  12  20  34  52  74 102 130 164 210 250
#     4  10  19  30  45  67  90 110 135 171 212 255
#
# _framework density 21.910927999999998
#
# number of rings (size 3 to 8) (size 9 to 14) (size 15 to 20)
#    0.000    2.545    0.000    6.545    0.000    0.000 
#    0.000    0.000    0.000    0.000    0.000    0.000 
#    0.000  183.273    0.000    0.000    0.000   22.545 
#
# Total GULP energy -122561.657259 kJ/mol
# GULP energy per Si atom -5570.984421 kJ/mol
# Density = 2.186106 g / cm^3
# Si number density = 21.910928 Si / 1000 Ang^3
#
#
#
# Elastic Constant Matrix: (Units=GPa)
#
#
# Indices 1 2 3 4 5 6 
#
# 1 153.2712 -5.8560 13.8384 0.0000 -28.2385 0.0000
# 2 -5.8560 55.1706 -8.5107 0.0000 -0.2838 0.0000
# 3 13.8384 -8.5107 150.5626 0.0000 30.6411 0.0000
# 4 0.0000 0.0000 0.0000 3.0955 0.0000 -15.8280
# 5 -28.2385 -0.2838 30.6411 0.0000 62.5827 0.0000
# 6 0.0000 0.0000 0.0000 -15.8280 0.0000 8.5938
#
#
#
# Elastic Compliance Matrix: (Units=1/GPa)
#
#
# Indices 1 2 3 4 5 6 
#
# 1 0.007432 0.000581 -0.001481 0.000000 0.004081 0.000000
# 2 0.000581 0.018343 0.001014 0.000000 -0.000151 0.000000
# 3 -0.001481 0.001014 0.007742 0.000000 -0.004454 0.000000
# 4 0.000000 0.000000 0.000000 -0.038378 0.000000 -0.070685
# 5 0.004081 -0.000151 -0.004454 0.000000 0.020000 0.000000
# 6 0.000000 0.000000 0.000000 -0.070685 0.000000 -0.013824
#
#
# Mechanical properties :
#
#
# Convention : Reuss Voigt Hill
#
# Bulk Modulus (GPa) = 29.63283 39.77199 34.70241
# Shear Modulus (GPa) = 405.36620 38.82324 222.09472
#
# Velocity S-wave (km/s) = 13.61646 4.21392 10.07882
# Velocity P-wave (km/s) = 16.14820 6.47049 12.30105
#
# Compressibility (1/GPa) = 0.03374636
#
# Stress axis : x y z
#
# Youngs Moduli (GPa) = 134.54943 54.51676 129.17207
#
# Poissons Ratio (x) = -0.03170 0.19128
# Poissons Ratio (y) = -0.07823 -0.13100
# Poissons Ratio (z) = 0.19924 -0.05529
#
# Static dielectric constant tensor:
#      x y z
#    x 1.839790 0.000000 0.012890 
#    y 0.000000 1.256210 0.000000 
#    z 0.012890 0.000000 1.877270 
# 
# From -- ./inp_files/7319.got.cif
#   From: 2010.05.17/outbox.cif.g08.bks.cpg/sg13_4_cif.got.tgz:7319.got - 2010.06.03 16:44:36.
