data_PCOD9226554
_publ_section_title
;
Structure prediction by ZEFSAII (Michael W. Deem and Ramdas Pophale) SiO2 
 PCOD9226554
Probable space group: P 2/C
;
_chemical_formula_sum "Si O2"
_cell_formula_units_Z 20
_cell_length_a 7.920015
_cell_length_b 12.407104
_cell_length_c 9.580047
_cell_angle_alpha 90.000000
_cell_angle_beta 98.898828
_cell_angle_gamma 90.000000
_cell_volume 930.046708
_symmetry_space_group_name_H-M "P 2/C"
_symmetry_group_IT_number 13
_symmetry_cell_setting 'monoclinic'
loop_
_space_group_symop_operation_xyz
x,y,z
-x,y,1/2-z
-x,-y,-z
x,-y,1/2+z
loop_
_atom_site_type_symbol
_atom_site_label
_atom_site_fract_x
_atom_site_fract_y
_atom_site_fract_z
Si Si1 0.263438 0.795285 0.612517
Si Si2 0.086351 0.589010 0.610780
Si Si3 0.352911 0.236131 0.447422
Si Si4 0.630925 0.028321 0.895708
Si Si5 0.608257 0.556050 0.393120
O O1 0.119865 0.708368 0.552385
O O2 0.439469 0.768019 0.550718
O O3 0.287067 0.775908 0.781638
O O4 0.244870 0.924985 0.600059
O O5 0.273080 0.536053 0.655600
O O6 0.000000 0.595145 0.750000
O O7 0.000000 0.500000 0.500000
O O8 0.292767 0.140129 0.541356
O O9 0.301383 0.346060 0.515759
O O10 0.500000 0.039345 0.750000
O O11 0.500000 0.000000 0.000000
O O12 0.500000 0.601398 0.250000
O O13 0.500000 0.500000 0.500000
#
# Coordination Sequence:
#
# PCOD9226554 Si02
#       5
#     4   4   4   4   4
#     4  10  19  36  60  86 128 168 202 258 331 374
#     4  12  26  43  61  88 130 175 215 262 332 397
#     4  10  19  34  61  98 126 156 209 278 318 372
#     4  10  17  32  56  96 129 154 201 273 330 369
#     4  12  23  39  65  94 122 163 223 276 319 379
#
# _framework density 21.504296
#
# number of rings (size 3 to 8) (size 9 to 14) (size 15 to 20)
#    0.000    1.200    6.000    4.200    0.000    0.000 
#    0.000    0.000    0.000    6.000    0.000    0.000 
#    0.000    0.000    0.000    0.000    0.000    0.000 
#
# Total GULP energy -111576.635199 kJ/mol
# GULP energy per Si atom -5578.831760 kJ/mol
# Density = 2.145535 g / cm^3
# Si number density = 21.504296 Si / 1000 Ang^3
#
#
#
# Elastic Constant Matrix: (Units=GPa)
#
#
# Indices 1 2 3 4 5 6 
#
# 1 46.0014 33.0509 18.0359 0.0000 -15.7471 0.0000
# 2 33.0509 197.9409 36.2672 0.0000 -10.3284 0.0000
# 3 18.0359 36.2672 100.7253 0.0000 -9.6024 0.0000
# 4 0.0000 0.0000 0.0000 41.5697 0.0000 -5.5061
# 5 -15.7471 -10.3284 -9.6024 0.0000 27.7819 0.0000
# 6 0.0000 0.0000 0.0000 -5.5061 0.0000 37.0869
#
#
#
# Elastic Compliance Matrix: (Units=1/GPa)
#
#
# Indices 1 2 3 4 5 6 
#
# 1 0.030706 -0.003851 -0.002677 0.000000 0.015048 0.000000
# 2 -0.003851 0.005944 -0.001497 0.000000 -0.000491 0.000000
# 3 -0.002677 -0.001497 0.011115 0.000000 0.001768 0.000000
# 4 0.000000 0.000000 0.000000 0.024539 0.000000 0.003643
# 5 0.015048 -0.000491 0.001768 0.000000 0.044952 0.000000
# 6 0.000000 0.000000 0.000000 0.003643 0.000000 0.027505
#
#
# Mechanical properties :
#
#
# Convention : Reuss Voigt Hill
#
# Bulk Modulus (GPa) = 31.53220 57.70841 44.62030
# Shear Modulus (GPa) = 29.17435 38.44193 33.80814
#
# Velocity S-wave (km/s) = 3.68730 4.23264 3.96935
# Velocity P-wave (km/s) = 5.72916 7.12608 6.46546
#
# Compressibility (1/GPa) = 0.03171362
#
# Stress axis : x y z
#
# Youngs Moduli (GPa) = 32.56653 168.24160 89.96879
#
# Poissons Ratio (x) = 0.64798 0.24085
# Poissons Ratio (y) = 0.12543 0.13471
# Poissons Ratio (z) = 0.08718 0.25191
#
# Static dielectric constant tensor:
#      x y z
#    x 1.893620 0.000000 0.084640 
#    y 0.000000 1.901570 0.000000 
#    z 0.084640 0.000000 1.744210 
# 
# From -- ./inp_files/11767.got.cif
#   From: 2010.05.17/outbox.cif.g08.bks.cpg/sg13_6_cif.got.tgz:11767.got - 2010.06.03 16:44:36.
