data_PCOD9226050
_publ_section_title
;
Structure prediction by ZEFSAII (Michael W. Deem and Ramdas Pophale) SiO2 
 PCOD9226050
Probable space group: P 2/C
;
_chemical_formula_sum "Si O2"
_cell_formula_units_Z 24
_cell_length_a 13.416565
_cell_length_b 5.221035
_cell_length_c 13.057173
_cell_angle_alpha 90.000000
_cell_angle_beta 109.080151
_cell_angle_gamma 90.000000
_cell_volume 864.385556
_symmetry_space_group_name_H-M "P 2/C"
_symmetry_group_IT_number 13
_symmetry_cell_setting 'monoclinic'
loop_
_space_group_symop_operation_xyz
x,y,z
-x,y,1/2-z
-x,-y,-z
x,-y,1/2+z
loop_
_atom_site_type_symbol
_atom_site_label
_atom_site_fract_x
_atom_site_fract_y
_atom_site_fract_z
Si Si1 0.882374 0.479864 0.026908
Si Si2 0.479748 0.491100 0.120542
Si Si3 0.000000 0.788193 0.750000
Si Si4 0.284090 0.465064 0.374717
Si Si5 0.603327 0.992069 0.358700
Si Si6 0.205245 0.962859 0.233876
Si Si7 0.000000 0.000000 0.500000
O O1 0.767444 0.513107 0.032608
O O2 0.947411 0.394652 0.149775
O O3 0.900650 0.220677 0.967557
O O4 0.921171 0.750831 0.996399
O O5 0.500000 0.483867 0.250000
O O6 0.593723 0.500957 0.109200
O O7 0.419223 0.231724 0.078584
O O8 0.410992 0.740651 0.079926
O O9 0.921825 0.964128 0.794591
O O10 0.250062 0.179204 0.328399
O O11 0.225632 0.676569 0.281694
O O12 0.500000 0.983860 0.250000
O O13 0.710438 0.003722 0.330158
#
# Coordination Sequence:
#
# PCOD9226050 Si02
#       7
#     4   4   2   4   4   4   2
#     4  10  22  38  58  81 112 152 190 239 281 338
#     4  10  15  25  41  67 101 143 164 216 280 336
#     4  10  24  36  56  88 120 150 180 242 292 340
#     4  11  18  29  49  74 105 144 180 223 279 335
#     4  10  15  25  41  63  99 151 168 208 268 346
#     4  11  19  29  44  72 113 149 174 211 285 346
#     4  10  22  42  58  74 110 156 204 232 272 336
#
# _framework density 27.765388999999999
#
# number of rings (size 3 to 8) (size 9 to 14) (size 15 to 20)
#    0.000    1.667    6.667    2.000    0.000    6.000 
#    0.000    0.000    0.000    0.000    0.000    0.000 
#    0.000   26.667    0.000    0.000    0.000    0.000 
#
# Total GULP energy -133891.222607 kJ/mol
# GULP energy per Si atom -5578.800942 kJ/mol
# Density = 2.770219 g / cm^3
# Si number density = 27.765389 Si / 1000 Ang^3
#
#
#
# Elastic Constant Matrix: (Units=GPa)
#
#
# Indices 1 2 3 4 5 6 
#
# 1 270.9183 76.8004 45.3790 0.0000 -43.3597 0.0000
# 2 76.8004 223.9842 28.6734 0.0000 -24.4944 0.0000
# 3 45.3790 28.6734 57.2311 0.0000 -37.4805 0.0000
# 4 0.0000 0.0000 0.0000 38.4647 0.0000 -15.2691
# 5 -43.3597 -24.4944 -37.4805 0.0000 65.4723 0.0000
# 6 0.0000 0.0000 0.0000 -15.2691 0.0000 50.4817
#
#
#
# Elastic Compliance Matrix: (Units=1/GPa)
#
#
# Indices 1 2 3 4 5 6 
#
# 1 0.004601 -0.001149 -0.002173 0.000000 0.001373 0.000000
# 2 -0.001149 0.005076 -0.001418 0.000000 0.000326 0.000000
# 3 -0.002173 -0.001418 0.029782 0.000000 0.015079 0.000000
# 4 0.000000 0.000000 0.000000 0.029545 0.000000 0.008937
# 5 0.001373 0.000326 0.015079 0.000000 0.024937 0.000000
# 6 0.000000 0.000000 0.000000 0.008937 0.000000 0.022512
#
#
# Mechanical properties :
#
#
# Convention : Reuss Voigt Hill
#
# Bulk Modulus (GPa) = 33.35839 94.87104 64.11471
# Shear Modulus (GPa) = 36.78440 57.63578 47.21009
#
# Velocity S-wave (km/s) = 3.64377 4.56105 4.12797
# Velocity P-wave (km/s) = 5.45373 7.87278 6.77214
#
# Compressibility (1/GPa) = 0.02997746
#
# Stress axis : x y z
#
# Youngs Moduli (GPa) = 217.36156 197.01131 33.57711
#
# Poissons Ratio (x) = 0.22640 0.07296
# Poissons Ratio (y) = 0.24978 0.04763
# Poissons Ratio (z) = 0.47233 0.27945
#
# Static dielectric constant tensor:
#      x y z
#    x 1.610160 0.000000 -0.588580 
#    y 0.000000 2.468880 0.000000 
#    z -0.588580 0.000000 1.576350 
# 
# From -- ./inp_files/77024.got.cif
#   From: 2010.05.17/outbox.cif.g08.bks.cpg/sg13_39_cif.got.tgz:77024.got - 2010.06.03 16:44:36.
