data_PCOD9226513
_publ_section_title
;
Structure prediction by ZEFSAII (Michael W. Deem and Ramdas Pophale) SiO2 
 PCOD9226513
Probable space group: P 2/C
;
_chemical_formula_sum "Si O2"
_cell_formula_units_Z 32
_cell_length_a 26.831054
_cell_length_b 12.713063
_cell_length_c 13.400220
_cell_angle_alpha 90.000000
_cell_angle_beta 20.367806
_cell_angle_gamma 90.000000
_cell_volume 1590.873642
_symmetry_space_group_name_H-M "P 2/C"
_symmetry_group_IT_number 13
_symmetry_cell_setting 'monoclinic'
loop_
_space_group_symop_operation_xyz
x,y,z
-x,y,1/2-z
-x,-y,-z
x,-y,1/2+z
loop_
_atom_site_type_symbol
_atom_site_label
_atom_site_fract_x
_atom_site_fract_y
_atom_site_fract_z
Si Si1 0.536686 0.478582 0.289461
Si Si2 0.644020 0.708366 0.126883
Si Si3 0.181433 0.378237 0.648148
Si Si4 0.344007 0.189424 0.260122
Si Si5 0.870344 0.293141 0.552384
Si Si6 0.228332 0.575492 0.446477
Si Si7 0.326972 0.887411 0.578417
Si Si8 0.349516 0.885613 0.973428
O O1 0.500000 0.436020 0.250000
O O2 0.591798 0.598307 0.176801
O O3 0.391005 0.468600 0.625324
O O4 0.666788 0.411641 0.087393
O O5 0.499374 0.760340 0.442743
O O6 0.749066 0.671088 0.018175
O O7 0.711822 0.788256 0.919243
O O8 0.224526 0.278982 0.501017
O O9 0.088579 0.343088 0.917581
O O10 0.140311 0.479104 0.659721
O O11 0.294536 0.125317 0.255975
O O12 0.363647 0.128846 0.327651
O O13 0.823426 0.383820 0.562971
O O14 0.747644 0.209162 0.804342
O O15 0.000000 0.239662 0.250000
O O16 0.281439 0.000243 0.622531
O O17 0.500000 0.887074 0.250000
O O18 0.500000 0.880530 0.750000
#
# Coordination Sequence:
#
# PCOD9226513 Si02
#       8
#     4   4   4   4   4   4   4   4
#     4  11  17  28  51  88 122 146 180 223 276 338
#     4  10  18  29  50  86 121 144 181 225 289 339
#     4  10  20  32  53  82 112 152 186 220 283 342
#     4  10  17  31  51  77 120 146 174 234 286 333
#     4  11  25  40  56  80 113 152 194 240 281 335
#     4  11  20  32  56  82 117 157 183 230 276 343
#     4   9  20  32  50  84 117 147 177 241 295 341
#     4  10  22  37  59  82 107 147 197 239 290 339
#
# _framework density 20.114733999999999
#
# number of rings (size 3 to 8) (size 9 to 14) (size 15 to 20)
#    0.000    1.750    3.750    2.625    1.750    6.000 
#    0.000    0.000    0.000    6.750    0.000    0.875 
#    0.000    0.000    0.000    0.000    0.000    0.000 
#
# Total GULP energy -178585.287975 kJ/mol
# GULP energy per Si atom -5580.790249 kJ/mol
# Density = 2.006895 g / cm^3
# Si number density = 20.114734 Si / 1000 Ang^3
#
#
#
# Elastic Constant Matrix: (Units=GPa)
#
#
# Indices 1 2 3 4 5 6 
#
# 1 86.6033 41.8679 26.2319 0.0000 31.8750 0.0000
# 2 41.8679 108.1654 19.4970 0.0000 17.1310 0.0000
# 3 26.2319 19.4970 48.5865 0.0000 21.4663 0.0000
# 4 0.0000 0.0000 0.0000 9.2787 0.0000 0.8046
# 5 31.8750 17.1310 21.4663 0.0000 30.6697 0.0000
# 6 0.0000 0.0000 0.0000 0.8046 0.0000 18.4379
#
#
#
# Elastic Compliance Matrix: (Units=1/GPa)
#
#
# Indices 1 2 3 4 5 6 
#
# 1 0.021066 -0.005040 -0.001334 0.000000 -0.018145 0.000000
# 2 -0.005040 0.011524 -0.001989 0.000000 0.000193 0.000000
# 3 -0.001334 -0.001989 0.030396 0.000000 -0.018777 0.000000
# 4 0.000000 0.000000 0.000000 0.108183 0.000000 -0.004721
# 5 -0.018145 0.000193 -0.018777 0.000000 0.064498 0.000000
# 6 0.000000 0.000000 0.000000 -0.004721 0.000000 0.054442
#
#
# Mechanical properties :
#
#
# Convention : Reuss Voigt Hill
#
# Bulk Modulus (GPa) = 21.61671 46.50542 34.06106
# Shear Modulus (GPa) = 15.51569 22.06118 18.78843
#
# Velocity S-wave (km/s) = 2.78035 3.31534 3.05956
# Velocity P-wave (km/s) = 4.59099 6.15025 5.42691
#
# Compressibility (1/GPa) = 0.04626051
#
# Stress axis : x y z
#
# Youngs Moduli (GPa) = 47.47030 86.77732 32.89856
#
# Poissons Ratio (x) = 0.43734 0.04390
# Poissons Ratio (y) = 0.23924 0.06542
# Poissons Ratio (z) = 0.06335 0.17256
#
# Static dielectric constant tensor:
#      x y z
#    x 1.744990 0.000000 0.020350 
#    y 0.000000 1.728980 0.000000 
#    z 0.020350 0.000000 1.745880 
# 
# From -- ./inp_files/59976.got.cif
#   From: 2010.05.17/outbox.cif.g08.bks.cpg/sg13_30_cif.got.tgz:59976.got - 2010.06.03 16:44:36.
