data_PCOD9226963
_publ_section_title
;
Structure prediction by ZEFSAII (Michael W. Deem and Ramdas Pophale) SiO2 
 PCOD9226963
Probable space group: P 2/C
;
_chemical_formula_sum "Si O2"
_cell_formula_units_Z 30
_cell_length_a 9.023135
_cell_length_b 8.598750
_cell_length_c 24.847072
_cell_angle_alpha 90.000000
_cell_angle_beta 128.518644
_cell_angle_gamma 90.000000
_cell_volume 1508.342327
_symmetry_space_group_name_H-M "P 2/C"
_symmetry_group_IT_number 13
_symmetry_cell_setting 'monoclinic'
loop_
_space_group_symop_operation_xyz
x,y,z
-x,y,1/2-z
-x,-y,-z
x,-y,1/2+z
loop_
_atom_site_type_symbol
_atom_site_label
_atom_site_fract_x
_atom_site_fract_y
_atom_site_fract_z
Si Si1 0.992103 0.884280 0.329741
Si Si2 0.004692 0.237774 0.158933
Si Si3 0.033189 0.755113 0.969353
Si Si4 0.592925 0.402354 0.939286
Si Si5 0.263371 0.263719 0.810511
Si Si6 0.807016 0.099916 0.513145
Si Si7 0.444890 0.277738 0.447957
Si Si8 0.000000 0.539363 0.750000
O O1 0.821815 0.780080 0.266997
O O2 0.169038 0.862201 0.328906
O O3 0.072716 0.849000 0.407018
O O4 0.929834 0.063028 0.315734
O O5 0.050438 0.283456 0.108140
O O6 0.774790 0.242301 0.112716
O O7 0.078019 0.355417 0.219979
O O8 0.149391 0.918030 0.986426
O O9 0.184388 0.623670 0.018913
O O10 0.883196 0.800495 0.980339
O O11 0.480251 0.300516 0.869712
O O12 0.524755 0.579918 0.929847
O O13 0.545359 0.330947 0.987498
O O14 0.161708 0.423108 0.806613
O O15 0.586994 0.134857 0.472082
#
# Coordination Sequence:
#
# PCOD9226963 Si02
#       8
#     4   4   4   4   4   4   4   2
#     4   9  19  30  54  75 107 133 176 205 266 302
#     4  10  19  34  52  85  98 137 170 223 255 314
#     4   9  22  34  57  74 110 132 181 213 265 301
#     4  10  19  34  50  83 103 138 171 221 255 310
#     4  10  19  32  50  80 106 138 166 223 251 318
#     4  10  19  38  52  80 101 144 169 222 256 315
#     4  10  20  31  56  76 111 129 177 215 265 299
#     4  10  18  32  52  74 112 132 170 212 266 306
#
# _framework density 19.889384
#
# number of rings (size 3 to 8) (size 9 to 14) (size 15 to 20)
#    0.000    2.400    2.667    0.800    1.867    2.133 
#    0.000    0.667    0.000    0.800    0.000    0.000 
#    0.000    0.000    0.000    0.000    0.000    0.000 
#
# Total GULP energy -167297.776081 kJ/mol
# GULP energy per Si atom -5576.592536 kJ/mol
# Density = 1.984411 g / cm^3
# Si number density = 19.889384 Si / 1000 Ang^3
#
#
#
# Elastic Constant Matrix: (Units=GPa)
#
#
# Indices 1 2 3 4 5 6 
#
# 1 37.1834 0.6623 1.4165 0.0000 -9.0043 0.0000
# 2 0.6623 30.0509 13.7833 0.0000 -1.5435 0.0000
# 3 1.4165 13.7833 59.0873 0.0000 -7.5279 0.0000
# 4 0.0000 0.0000 0.0000 20.3397 0.0000 8.1530
# 5 -9.0043 -1.5435 -7.5279 0.0000 20.0257 0.0000
# 6 0.0000 0.0000 0.0000 8.1530 0.0000 15.0596
#
#
#
# Elastic Compliance Matrix: (Units=1/GPa)
#
#
# Indices 1 2 3 4 5 6 
#
# 1 0.030249 -0.000485 0.001172 0.000000 0.014004 0.000000
# 2 -0.000485 0.037275 -0.008765 0.000000 -0.000640 0.000000
# 3 0.001172 -0.008765 0.019874 0.000000 0.007322 0.000000
# 4 0.000000 0.000000 0.000000 0.062791 0.000000 -0.033994
# 5 0.014004 -0.000640 0.007322 0.000000 0.058936 0.000000
# 6 0.000000 0.000000 0.000000 -0.033994 0.000000 0.084806
#
#
# Mechanical properties :
#
#
# Convention : Reuss Voigt Hill
#
# Bulk Modulus (GPa) = 14.03672 17.56064 15.79868
# Shear Modulus (GPa) = 14.97752 18.44896 16.71324
#
# Velocity S-wave (km/s) = 2.74714 3.04892 2.90195
# Velocity P-wave (km/s) = 4.13945 4.60900 4.38052
#
# Compressibility (1/GPa) = 0.07124169
#
# Stress axis : x y z
#
# Youngs Moduli (GPa) = 33.05893 26.82769 50.31820
#
# Poissons Ratio (x) = 0.01301 -0.05898
# Poissons Ratio (y) = 0.01603 0.44104
# Poissons Ratio (z) = -0.03875 0.23515
#
# Static dielectric constant tensor:
#      x y z
#    x 1.688170 0.000000 0.007580 
#    y 0.000000 1.720270 0.000000 
#    z 0.007580 0.000000 1.730830 
# 
# From -- ./inp_files/80945.got.cif
#   From: 2010.05.17/outbox.cif.g08.bks.cpg/sg13_41_cif.got.tgz:80945.got - 2010.06.03 16:44:36.
