data_PCOD9226238
_publ_section_title
;
Structure prediction by ZEFSAII (Michael W. Deem and Ramdas Pophale) SiO2 
 PCOD9226238
Probable space group: P 2/C
;
_chemical_formula_sum "Si O2"
_cell_formula_units_Z 24
_cell_length_a 15.581431
_cell_length_b 10.272981
_cell_length_c 14.654356
_cell_angle_alpha 90.000000
_cell_angle_beta 148.325702
_cell_angle_gamma 90.000000
_cell_volume 1231.698065
_symmetry_space_group_name_H-M "P 2/C"
_symmetry_group_IT_number 13
_symmetry_cell_setting 'monoclinic'
loop_
_space_group_symop_operation_xyz
x,y,z
-x,y,1/2-z
-x,-y,-z
x,-y,1/2+z
loop_
_atom_site_type_symbol
_atom_site_label
_atom_site_fract_x
_atom_site_fract_y
_atom_site_fract_z
Si Si1 0.300923 0.619316 0.568715
Si Si2 0.852420 0.406726 0.186661
Si Si3 0.253072 0.468868 0.223824
Si Si4 0.656688 0.877195 0.957707
Si Si5 0.560303 0.719664 0.051455
Si Si6 0.616066 0.835301 0.442718
O O1 0.500000 0.618439 0.750000
O O2 0.252218 0.531876 0.439088
O O3 0.227816 0.558462 0.594436
O O4 0.239274 0.767318 0.500608
O O5 0.878377 0.424780 0.318703
O O6 0.000000 0.403282 0.250000
O O7 0.745124 0.280015 0.069223
O O8 0.306627 0.618218 0.288607
O O9 0.408067 0.373989 0.387003
O O10 0.500000 0.893593 0.750000
O O11 0.705934 0.025136 0.020365
O O12 0.612611 0.803551 0.011549
O O13 0.500254 0.818958 0.074773
O O14 0.500000 0.816263 0.250000
#
# Coordination Sequence:
#
# PCOD9226238 Si02
#       6
#     4   4   4   4   4   4
#     4  11  18  35  60  82 109 135 174 233 273 314
#     4  11  23  37  53  77 111 150 184 218 265 318
#     4  10  18  30  56  82 110 137 180 220 272 317
#     4  10  18  31  53  86 110 133 171 224 275 318
#     4  10  16  30  53  87 107 134 171 227 276 315
#     4  10  21  34  54  81 109 140 177 224 267 321
#
# _framework density 19.485296000000002
#
# number of rings (size 3 to 8) (size 9 to 14) (size 15 to 20)
#    0.000    1.667    5.000    4.000    0.000    0.667 
#    0.000    0.833    0.000    1.000    0.000    0.000 
#    0.000    0.000    0.000    0.000    0.000    0.000 
#
# Total GULP energy -133795.284728 kJ/mol
# GULP energy per Si atom -5574.803530 kJ/mol
# Density = 1.944095 g / cm^3
# Si number density = 19.485296 Si / 1000 Ang^3
#
#
#
# Elastic Constant Matrix: (Units=GPa)
#
#
# Indices 1 2 3 4 5 6 
#
# 1 113.4056 11.8088 23.9886 0.0000 -17.6563 0.0000
# 2 11.8088 130.9193 17.8478 0.0000 -7.9890 0.0000
# 3 23.9886 17.8478 16.2095 0.0000 -14.5211 0.0000
# 4 0.0000 0.0000 0.0000 -14.2439 0.0000 -15.6100
# 5 -17.6563 -7.9890 -14.5211 0.0000 33.4246 0.0000
# 6 0.0000 0.0000 0.0000 -15.6100 0.0000 11.4667
#
#
#
# Elastic Compliance Matrix: (Units=1/GPa)
#
#
# Indices 1 2 3 4 5 6 
#
# 1 0.013372 0.001992 -0.024930 0.000000 -0.003291 0.000000
# 2 0.001992 0.009545 -0.017142 0.000000 -0.004114 0.000000
# 3 -0.024930 -0.017142 0.166979 0.000000 0.055277 0.000000
# 4 0.000000 0.000000 0.000000 -0.028174 0.000000 -0.038354
# 5 -0.003291 -0.004114 0.055277 0.000000 0.051211 0.000000
# 6 0.000000 0.000000 0.000000 -0.038354 0.000000 0.034997
#
#
# Mechanical properties :
#
#
# Convention : Reuss Voigt Hill
#
# Bulk Modulus (GPa) = 9.11287 40.86944 24.99115
# Shear Modulus (GPa) = 13.71107 19.92208 16.81658
#
# Velocity S-wave (km/s) = 2.65554 3.20099 2.94094
# Velocity P-wave (km/s) = 3.75360 5.88913 4.93818
#
# Compressibility (1/GPa) = 0.10973493
#
# Stress axis : x y z
#
# Youngs Moduli (GPa) = 74.78572 104.77215 5.98876
#
# Poissons Ratio (x) = -0.20867 0.14930
# Poissons Ratio (y) = -0.14895 0.10266
# Poissons Ratio (z) = 1.86441 1.79600
#
# Static dielectric constant tensor:
#      x y z
#    x 1.726910 0.000000 0.007120 
#    y 0.000000 1.687080 0.000000 
#    z 0.007120 0.000000 1.703570 
# 
# From -- ./inp_files/53219.got.cif
#   From: 2010.05.17/outbox.cif.g08.bks.cpg/sg13_27_cif.got.tgz:53219.got - 2010.06.03 16:44:36.
