data_PCOD9226357
_publ_section_title
;
Structure prediction by ZEFSAII (Michael W. Deem and Ramdas Pophale) SiO2 
 PCOD9226357
Probable space group: P 2/C
;
_chemical_formula_sum "Si O2"
_cell_formula_units_Z 26
_cell_length_a 16.070669
_cell_length_b 9.896639
_cell_length_c 15.798631
_cell_angle_alpha 90.000000
_cell_angle_beta 31.398088
_cell_angle_gamma 90.000000
_cell_volume 1309.070840
_symmetry_space_group_name_H-M "P 2/C"
_symmetry_group_IT_number 13
_symmetry_cell_setting 'monoclinic'
loop_
_space_group_symop_operation_xyz
x,y,z
-x,y,1/2-z
-x,-y,-z
x,-y,1/2+z
loop_
_atom_site_type_symbol
_atom_site_label
_atom_site_fract_x
_atom_site_fract_y
_atom_site_fract_z
Si Si1 0.685730 0.844008 0.818292
Si Si2 0.651825 0.145949 0.792446
Si Si3 0.935449 0.692348 0.721176
Si Si4 0.372731 0.605065 0.746601
Si Si5 0.694738 0.508880 0.013087
Si Si6 0.144787 0.604860 0.392966
Si Si7 0.500000 0.760856 0.250000
O O1 0.819421 0.783871 0.765244
O O2 0.679498 0.748081 0.742058
O O3 0.709756 0.996754 0.767134
O O4 0.513771 0.831791 0.013169
O O5 0.788259 0.253777 0.701454
O O6 0.597534 0.162060 0.739881
O O7 0.000000 0.761365 0.750000
O O8 0.089256 0.653839 0.533534
O O9 0.846996 0.553005 0.826981
O O10 0.298470 0.569050 0.903050
O O11 0.561285 0.580336 0.582412
O O12 0.297630 0.490199 0.753488
O O13 0.615365 0.655243 0.101456
O O14 0.000000 0.500000 0.500000
#
# Coordination Sequence:
#
# PCOD9226357 Si02
#       7
#     4   4   4   4   4   4   2
#     4  11  25  41  66  94 131 169 219 270 327 390
#     4  11  24  43  64  96 127 176 219 264 328 402
#     4  12  22  37  64  94 123 169 210 262 332 399
#     4  10  20  40  60  95 119 163 213 266 310 375
#     4  10  20  37  66  92 123 162 218 268 316 375
#     4  12  23  37  64  93 125 164 212 268 321 375
#     4  10  16  38  68  84 120 164 222 268 294 390
#
# _framework density 19.861415999999998
#
# number of rings (size 3 to 8) (size 9 to 14) (size 15 to 20)
#    0.000    1.231    7.692    0.000    2.154    3.077 
#    0.000    0.000    0.000    0.923    0.000    0.000 
#    0.000    0.000    0.000    0.000    0.000    0.000 
#
# Total GULP energy -144776.687539 kJ/mol
# GULP energy per Si atom -5568.334136 kJ/mol
# Density = 1.981621 g / cm^3
# Si number density = 19.861416 Si / 1000 Ang^3
#
#
#
# Elastic Constant Matrix: (Units=GPa)
#
#
# Indices 1 2 3 4 5 6 
#
# 1 110.1899 61.6129 4.9784 0.0000 -18.1529 0.0000
# 2 61.6129 142.7990 30.9415 0.0000 -10.4115 0.0000
# 3 4.9784 30.9415 48.9770 0.0000 -7.6912 0.0000
# 4 0.0000 0.0000 0.0000 29.1198 0.0000 1.5700
# 5 -18.1529 -10.4115 -7.6912 0.0000 24.8156 0.0000
# 6 0.0000 0.0000 0.0000 1.5700 0.0000 23.0353
#
#
#
# Elastic Compliance Matrix: (Units=1/GPa)
#
#
# Indices 1 2 3 4 5 6 
#
# 1 0.013765 -0.006138 0.003843 0.000000 0.008685 0.000000
# 2 -0.006138 0.010938 -0.006591 0.000000 -0.001944 0.000000
# 3 0.003843 -0.006591 0.025436 0.000000 0.007929 0.000000
# 4 0.000000 0.000000 0.000000 0.034468 0.000000 -0.002349
# 5 0.008685 -0.001944 0.007929 0.000000 0.048292 0.000000
# 6 0.000000 0.000000 0.000000 -0.002349 0.000000 0.043572
#
#
# Mechanical properties :
#
#
# Convention : Reuss Voigt Hill
#
# Bulk Modulus (GPa) = 30.89794 55.22572 43.06183
# Shear Modulus (GPa) = 24.38638 29.02303 26.70470
#
# Velocity S-wave (km/s) = 3.50784 3.82681 3.67079
# Velocity P-wave (km/s) = 5.65660 6.88418 6.30036
#
# Compressibility (1/GPa) = 0.03236462
#
# Stress axis : x y z
#
# Youngs Moduli (GPa) = 72.64999 91.42600 39.31361
#
# Poissons Ratio (x) = 0.56121 -0.15107
# Poissons Ratio (y) = 0.44595 0.25913
# Poissons Ratio (z) = -0.27917 0.60262
#
# Static dielectric constant tensor:
#      x y z
#    x 1.827850 0.000000 -0.002570 
#    y 0.000000 1.699400 0.000000 
#    z -0.002570 0.000000 1.760920 
# 
# From -- ./inp_files/69640.got.cif
#   From: 2010.05.17/outbox.cif.g08.bks.cpg/sg13_35_cif.got.tgz:69640.got - 2010.06.03 16:44:36.
