data_PCOD9226288
_publ_section_title
;
Structure prediction by ZEFSAII (Michael W. Deem and Ramdas Pophale) SiO2 
 PCOD9226288
Probable space group: P 2/C
;
_chemical_formula_sum "Si O2"
_cell_formula_units_Z 26
_cell_length_a 7.259577
_cell_length_b 9.699532
_cell_length_c 22.206399
_cell_angle_alpha 90.000000
_cell_angle_beta 55.819371
_cell_angle_gamma 90.000000
_cell_volume 1293.563655
_symmetry_space_group_name_H-M "P 2/C"
_symmetry_group_IT_number 13
_symmetry_cell_setting 'monoclinic'
loop_
_space_group_symop_operation_xyz
x,y,z
-x,y,1/2-z
-x,-y,-z
x,-y,1/2+z
loop_
_atom_site_type_symbol
_atom_site_label
_atom_site_fract_x
_atom_site_fract_y
_atom_site_fract_z
Si Si1 0.995509 0.724707 0.353270
Si Si2 0.540084 0.399735 0.141201
Si Si3 0.500000 0.625231 0.250000
Si Si4 0.000000 0.476910 0.750000
Si Si5 0.961354 0.029348 0.186504
Si Si6 0.883562 0.673622 0.864352
Si Si7 0.500000 0.171924 0.250000
Si Si8 0.252755 0.476266 0.516172
O O1 0.263531 0.702802 0.298967
O O2 0.894432 0.636688 0.315486
O O3 0.963068 0.887407 0.357023
O O4 0.876142 0.653670 0.431542
O O5 0.489258 0.529408 0.192984
O O6 0.333579 0.360541 0.135833
O O7 0.571111 0.271252 0.180974
O O8 0.721914 0.450657 0.059221
O O9 0.066241 0.589558 0.790674
O O10 0.000000 0.013337 0.250000
O O11 0.705783 0.073156 0.226094
O O12 0.087417 0.164704 0.140312
O O13 0.873075 0.607657 0.932011
O O14 0.500000 0.500000 0.500000
#
# Coordination Sequence:
#
# PCOD9226288 Si02
#       8
#     4   4   2   2   4   4   2   4
#     4  11  23  39  62  94 129 166 213 272 328 385
#     4  10  20  39  64  95 123 162 221 277 320 385
#     4  11  23  38  66 100 128 160 226 282 326 382
#     4  10  16  32  60  86 110 152 216 260 296 364
#     4  12  23  39  63  93 133 172 217 271 327 399
#     4  10  18  37  62  89 119 166 212 262 325 384
#     4  11  23  38  64  94 130 172 226 266 330 400
#     4   9  22  40  65  93 128 167 219 275 333 388
#
# _framework density 20.099513000000002
#
# number of rings (size 3 to 8) (size 9 to 14) (size 15 to 20)
#    0.000    1.538    4.615    0.462    6.462    0.615 
#    0.000    3.846    3.385    0.000    0.000    0.000 
#    0.000    0.000    0.000    0.000    0.000    0.000 
#
# Total GULP energy -144819.848600 kJ/mol
# GULP energy per Si atom -5569.994177 kJ/mol
# Density = 2.005377 g / cm^3
# Si number density = 20.099513 Si / 1000 Ang^3
#
#
#
# Elastic Constant Matrix: (Units=GPa)
#
#
# Indices 1 2 3 4 5 6 
#
# 1 80.8659 12.5032 18.0912 0.0000 6.9578 0.0000
# 2 12.5032 170.6946 57.2620 0.0000 5.4752 0.0000
# 3 18.0912 57.2620 151.9493 0.0000 11.7993 0.0000
# 4 0.0000 0.0000 0.0000 13.4622 0.0000 -17.6687
# 5 6.9578 5.4752 11.7993 0.0000 17.1437 0.0000
# 6 0.0000 0.0000 0.0000 -17.6687 0.0000 -68.7389
#
#
#
# Elastic Compliance Matrix: (Units=1/GPa)
#
#
# Indices 1 2 3 4 5 6 
#
# 1 0.013051 -0.000467 -0.001033 0.000000 -0.004436 0.000000
# 2 -0.000467 0.006726 -0.002458 0.000000 -0.000267 0.000000
# 3 -0.001033 -0.002458 0.007963 0.000000 -0.004276 0.000000
# 4 0.000000 0.000000 0.000000 0.055544 0.000000 -0.014277
# 5 -0.004436 -0.000267 -0.004276 0.000000 0.063159 0.000000
# 6 0.000000 0.000000 0.000000 -0.014277 0.000000 -0.010878
#
#
# Mechanical properties :
#
#
# Convention : Reuss Voigt Hill
#
# Bulk Modulus (GPa) = 50.44831 64.35807 57.40319
# Shear Modulus (GPa) = 33.31348 13.41696 23.36522
#
# Velocity S-wave (km/s) = 4.07557 2.58646 3.41321
# Velocity P-wave (km/s) = 6.87755 6.40382 6.64491
#
# Compressibility (1/GPa) = 0.01982227
#
# Stress axis : x y z
#
# Youngs Moduli (GPa) = 76.62084 148.67986 125.58654
#
# Poissons Ratio (x) = 0.06944 0.12978
# Poissons Ratio (y) = 0.03578 0.30873
# Poissons Ratio (z) = 0.07918 0.36551
#
# Static dielectric constant tensor:
#      x y z
#    x 1.954950 0.000000 -0.135800 
#    y 0.000000 1.691070 0.000000 
#    z -0.135800 0.000000 1.848170 
# 
# From -- ./inp_files/84748.got.cif
#   From: 2010.05.17/outbox.cif.g08.bks.cpg/sg13_43_cif.got.tgz:84748.got - 2010.06.03 16:44:36.
