data_PCOD9226222
_publ_section_title
;
Structure prediction by ZEFSAII (Michael W. Deem and Ramdas Pophale) SiO2 
 PCOD9226222
Probable space group: P 2/C
;
_chemical_formula_sum "Si O2"
_cell_formula_units_Z 30
_cell_length_a 29.413312
_cell_length_b 13.248096
_cell_length_c 5.274830
_cell_angle_alpha 90.000000
_cell_angle_beta 110.617045
_cell_angle_gamma 90.000000
_cell_volume 1923.803679
_symmetry_space_group_name_H-M "P 2/C"
_symmetry_group_IT_number 13
_symmetry_cell_setting 'monoclinic'
loop_
_space_group_symop_operation_xyz
x,y,z
-x,y,1/2-z
-x,-y,-z
x,-y,1/2+z
loop_
_atom_site_type_symbol
_atom_site_label
_atom_site_fract_x
_atom_site_fract_y
_atom_site_fract_z
Si Si1 0.448468 0.067768 0.200746
Si Si2 0.911330 0.778031 0.090399
Si Si3 0.760826 0.930820 0.249808
Si Si4 0.181076 0.536619 0.153928
Si Si5 0.153553 0.229845 0.538238
Si Si6 0.346230 0.066335 0.888406
Si Si7 0.071244 0.450680 0.960419
Si Si8 0.000000 0.931798 0.250000
O O1 0.500000 0.121344 0.250000
O O2 0.448434 0.021357 0.484548
O O3 0.397072 0.121913 0.046511
O O4 0.874804 0.785393 0.780940
O O5 0.933895 0.665599 0.118683
O O6 0.882562 0.787556 0.296950
O O7 0.952763 0.861095 0.154545
O O8 0.801770 0.846520 0.354453
O O9 0.765409 0.010204 0.491783
O O10 0.706323 0.885313 0.167326
O O11 0.206889 0.513834 0.467543
O O12 0.170669 0.654001 0.093241
O O13 0.129212 0.477067 0.082514
O O14 0.346996 0.023584 0.602792
O O15 0.051947 0.479485 0.197366
O O16 0.000000 0.000000 0.500000
#
# Coordination Sequence:
#
# PCOD9226222 Si02
#       8
#     4   4   4   4   4   4   4   2
#     4   8  12  18  31  50  68  97 143 182 218 261
#     4  12  23  39  61  76  93 122 151 177 218 270
#     4  10  21  33  43  66  95 120 158 191 217 251
#     4  10  16  30  51  77 103 116 132 174 221 265
#     4  12  21  33  59  78  93 120 153 180 217 268
#     4   8  14  25  37  49  79 114 138 185 229 246
#     4  10  16  32  56  80 102 113 132 174 220 264
#     4  12  30  50  58  72 100 128 152 182 218 252
#
# _framework density 15.594106999999999
#
# number of rings (size 3 to 8) (size 9 to 14) (size 15 to 20)
#    0.000    1.867    5.333    1.600    0.000    3.200 
#    0.000    0.667    0.000    0.000    0.000    0.000 
#    0.000    0.000    0.000    0.000    0.000    1.333 
#
# Total GULP energy -167120.974097 kJ/mol
# GULP energy per Si atom -5570.699137 kJ/mol
# Density = 1.555861 g / cm^3
# Si number density = 15.594107 Si / 1000 Ang^3
#
#
#
# Elastic Constant Matrix: (Units=GPa)
#
#
# Indices 1 2 3 4 5 6 
#
# 1 46.0795 22.8829 3.6510 0.0000 8.1557 0.0000
# 2 22.8829 55.4414 -3.0383 0.0000 9.4213 0.0000
# 3 3.6510 -3.0383 61.6260 0.0000 -17.4206 0.0000
# 4 0.0000 0.0000 0.0000 8.3312 0.0000 -8.9670
# 5 8.1557 9.4213 -17.4206 0.0000 29.3287 0.0000
# 6 0.0000 0.0000 0.0000 -8.9670 0.0000 -2.1678
#
#
#
# Elastic Compliance Matrix: (Units=1/GPa)
#
#
# Indices 1 2 3 4 5 6 
#
# 1 0.028673 -0.010879 -0.004208 0.000000 -0.006978 0.000000
# 2 -0.010879 0.023253 0.000642 0.000000 -0.004063 0.000000
# 3 -0.004208 0.000642 0.020166 0.000000 0.012942 0.000000
# 4 0.000000 0.000000 0.000000 0.022015 0.000000 -0.091066
# 5 -0.006978 -0.004063 0.012942 0.000000 0.045029 0.000000
# 6 0.000000 0.000000 0.000000 -0.091066 0.000000 -0.084609
#
#
# Mechanical properties :
#
#
# Convention : Reuss Voigt Hill
#
# Bulk Modulus (GPa) = 23.14633 23.34870 23.24751
# Shear Modulus (GPa) = 51.11615 16.40852 33.76233
#
# Velocity S-wave (km/s) = 5.73152 3.24732 4.65808
# Velocity P-wave (km/s) = 7.66000 5.39123 6.62348
#
# Compressibility (1/GPa) = 0.04320340
#
# Stress axis : x y z
#
# Youngs Moduli (GPa) = 34.87662 43.00539 49.58762
#
# Poissons Ratio (x) = 0.46786 0.20864
# Poissons Ratio (y) = 0.37943 -0.03186
# Poissons Ratio (z) = 0.14674 -0.02763
#
# Static dielectric constant tensor:
#      x y z
#    x 1.585070 0.000000 -0.013640 
#    y 0.000000 1.479560 0.000000 
#    z -0.013640 0.000000 1.603860 
# 
# From -- ./inp_files/7879.got.cif
#   From: 2010.05.17/outbox.cif.g08.bks.cpg/sg13_4_cif.got.tgz:7879.got - 2010.06.03 16:44:36.
