data_PCOD9226097
_publ_section_title
;
Structure prediction by ZEFSAII (Michael W. Deem and Ramdas Pophale) SiO2 
 PCOD9226097
Probable space group: P 2/C
;
_chemical_formula_sum "Si O2"
_cell_formula_units_Z 26
_cell_length_a 23.893705
_cell_length_b 9.075473
_cell_length_c 5.526256
_cell_angle_alpha 90.000000
_cell_angle_beta 103.454571
_cell_angle_gamma 90.000000
_cell_volume 1165.461167
_symmetry_space_group_name_H-M "P 2/C"
_symmetry_group_IT_number 13
_symmetry_cell_setting 'monoclinic'
loop_
_space_group_symop_operation_xyz
x,y,z
-x,y,1/2-z
-x,-y,-z
x,-y,1/2+z
loop_
_atom_site_type_symbol
_atom_site_label
_atom_site_fract_x
_atom_site_fract_y
_atom_site_fract_z
Si Si1 0.976566 0.170454 0.476424
Si Si2 0.155133 0.905754 0.657239
Si Si3 0.676417 0.146719 0.635028
Si Si4 0.386981 0.553769 0.126152
Si Si5 0.500000 0.638264 0.750000
Si Si6 0.444941 0.154771 0.801760
Si Si7 0.277670 0.180997 0.317586
O O1 0.907777 0.165865 0.407117
O O2 0.000000 0.236773 0.250000
O O3 0.000000 0.000000 0.500000
O O4 0.000000 0.236760 0.750000
O O5 0.209974 0.797618 0.714314
O O6 0.158808 0.001012 0.412263
O O7 0.610051 0.090887 0.608129
O O8 0.687043 0.223394 0.387931
O O9 0.712495 0.995964 0.657024
O O10 0.700204 0.231340 0.896743
O O11 0.358827 0.521592 0.362651
O O12 0.445656 0.463318 0.239839
O O13 0.409652 0.722203 0.109592
O O14 0.480168 0.742488 0.517281
O O15 0.500000 0.065739 0.750000
#
# Coordination Sequence:
#
# PCOD9226097 Si02
#       7
#     4   4   4   4   2   4   4
#     4  10  16  22  32  60  87  95 118 165 212 244
#     4  12  16  26  46  55  72 110 138 161 213 249
#     4  10  21  32  50  56  80  96 141 183 203 238
#     4  10  17  30  47  65  90 102 115 140 183 271
#     4  10  18  32  46  68  90 100 118 140 200 282
#     4  11  20  31  47  69  80 103 125 158 217 263
#     4  10  20  38  42  58  73 113 147 181 206 221
#
# _framework density 22.308767
#
# number of rings (size 3 to 8) (size 9 to 14) (size 15 to 20)
#    0.000    1.538    8.462    0.923    2.154    0.000 
#    0.000    3.077    0.000    0.000    0.000    0.000 
#    0.000    0.000    0.000    0.000    0.000    0.000 
#
# Total GULP energy -144880.382038 kJ/mol
# GULP energy per Si atom -5572.322386 kJ/mol
# Density = 2.225799 g / cm^3
# Si number density = 22.308767 Si / 1000 Ang^3
#
#
#
# Elastic Constant Matrix: (Units=GPa)
#
#
# Indices 1 2 3 4 5 6 
#
# 1 161.8326 11.8902 57.3636 0.0000 6.9863 0.0000
# 2 11.8902 27.2041 14.4247 0.0000 -2.9713 0.0000
# 3 57.3636 14.4247 213.5968 0.0000 -18.1909 0.0000
# 4 0.0000 0.0000 0.0000 -1.1876 0.0000 30.3131
# 5 6.9863 -2.9713 -18.1909 0.0000 45.2063 0.0000
# 6 0.0000 0.0000 0.0000 30.3131 0.0000 -25.7148
#
#
#
# Elastic Compliance Matrix: (Units=1/GPa)
#
#
# Indices 1 2 3 4 5 6 
#
# 1 0.007120 -0.002311 -0.001929 0.000000 -0.002028 0.000000
# 2 -0.002311 0.038976 -0.001825 0.000000 0.002184 0.000000
# 3 -0.001929 -0.001825 0.005528 0.000000 0.002402 0.000000
# 4 0.000000 0.000000 0.000000 0.028947 0.000000 0.034123
# 5 -0.002028 0.002184 0.002402 0.000000 0.023545 0.000000
# 6 0.000000 0.000000 0.000000 0.034123 0.000000 0.001337
#
#
# Mechanical properties :
#
#
# Convention : Reuss Voigt Hill
#
# Bulk Modulus (GPa) = 25.32088 63.33229 44.32658
# Shear Modulus (GPa) = 38.24185 24.92446 31.58316
#
# Velocity S-wave (km/s) = 4.14479 3.34615 3.76670
# Velocity P-wave (km/s) = 5.85496 6.58632 6.23138
#
# Compressibility (1/GPa) = 0.03949309
#
# Stress axis : x y z
#
# Youngs Moduli (GPa) = 140.44336 25.65701 180.90931
#
# Poissons Ratio (x) = 0.05929 0.34896
# Poissons Ratio (y) = 0.32454 0.33025
# Poissons Ratio (z) = 0.27091 0.04684
#
# Static dielectric constant tensor:
#      x y z
#    x 1.919320 0.000000 -0.137960 
#    y 0.000000 1.883750 0.000000 
#    z -0.137960 0.000000 2.018980 
# 
# From -- ./inp_files/6144.got.cif
#   From: 2010.05.17/outbox.cif.g08.bks.cpg/sg13_4_cif.got.tgz:6144.got - 2010.06.03 16:44:36.
