data_PCOD9226176
_publ_section_title
;
Structure prediction by ZEFSAII (Michael W. Deem and Ramdas Pophale) SiO2 
 PCOD9226176
Probable space group: P 2/C
;
_chemical_formula_sum "Si O2"
_cell_formula_units_Z 32
_cell_length_a 21.800867
_cell_length_b 5.077771
_cell_length_c 19.391723
_cell_angle_alpha 90.000000
_cell_angle_beta 51.482598
_cell_angle_gamma 90.000000
_cell_volume 1679.587720
_symmetry_space_group_name_H-M "P 2/C"
_symmetry_group_IT_number 13
_symmetry_cell_setting 'monoclinic'
loop_
_space_group_symop_operation_xyz
x,y,z
-x,y,1/2-z
-x,-y,-z
x,-y,1/2+z
loop_
_atom_site_type_symbol
_atom_site_label
_atom_site_fract_x
_atom_site_fract_y
_atom_site_fract_z
Si Si1 0.498731 0.749525 0.950914
Si Si2 0.171313 0.120014 0.349688
Si Si3 0.673328 0.746507 0.426444
Si Si4 0.162028 0.755765 0.129981
Si Si5 0.894238 0.614910 0.177940
Si Si6 0.073744 0.729324 0.646404
Si Si7 0.043591 0.909268 0.039500
Si Si8 0.329310 0.753995 0.673477
O O1 0.583225 0.752238 0.855313
O O2 0.500000 0.500000 0.000000
O O3 0.412633 0.740876 0.977912
O O4 0.500000 0.000000 0.000000
O O5 0.126617 0.321950 0.329966
O O6 0.130567 0.159610 0.452153
O O7 0.261498 0.196899 0.276492
O O8 0.153294 0.823473 0.336659
O O9 0.744531 0.737557 0.429972
O O10 0.680918 0.509286 0.365384
O O11 0.678153 0.010266 0.376984
O O12 0.131764 0.671614 0.226656
O O13 0.120149 0.545175 0.109638
O O14 0.132153 0.049186 0.136763
O O15 0.985818 0.682183 0.106522
O O16 0.000000 0.701581 0.750000
O O17 0.047531 0.863796 0.593568
O O18 0.000000 0.000000 0.000000
#
# Coordination Sequence:
#
# PCOD9226176 Si02
#       8
#     4   4   4   4   4   4   4   4
#     4   8  16  26  44  73 110 141 168 214 265 319
#     4  11  20  34  55  80 109 142 186 220 273 329
#     4  10  18  31  49  77 110 142 178 217 272 324
#     4  12  22  36  59  76 110 144 187 223 278 327
#     4  11  21  36  55  79 104 147 181 224 270 327
#     4  12  26  40  56  79 107 145 186 233 276 325
#     4  10  25  41  57  78 109 145 183 229 277 325
#     4  10  16  29  50  78 110 142 177 218 271 318
#
# _framework density 19.052294
#
# number of rings (size 3 to 8) (size 9 to 14) (size 15 to 20)
#    0.000    1.500    3.750    2.250    1.750    2.000 
#    0.000    0.000    0.000    0.000    0.000    0.875 
#    0.000    2.000    0.000    0.000    0.000    0.000 
#
# Total GULP energy -178634.164343 kJ/mol
# GULP energy per Si atom -5582.317636 kJ/mol
# Density = 1.900893 g / cm^3
# Si number density = 19.052294 Si / 1000 Ang^3
#
#
#
# Elastic Constant Matrix: (Units=GPa)
#
#
# Indices 1 2 3 4 5 6 
#
# 1 121.3703 6.1269 49.5551 0.0000 -45.2826 0.0000
# 2 6.1269 77.1841 -6.5610 0.0000 -8.8769 0.0000
# 3 49.5551 -6.5610 84.9359 0.0000 -33.0306 0.0000
# 4 0.0000 0.0000 0.0000 3.7441 0.0000 -11.3534
# 5 -45.2826 -8.8769 -33.0306 0.0000 46.1966 0.0000
# 6 0.0000 0.0000 0.0000 -11.3534 0.0000 22.5178
#
#
#
# Elastic Compliance Matrix: (Units=1/GPa)
#
#
# Indices 1 2 3 4 5 6 
#
# 1 0.013859 -0.000198 -0.003924 0.000000 0.010741 0.000000
# 2 -0.000198 0.013746 0.002949 0.000000 0.004556 0.000000
# 3 -0.003924 0.002949 0.018028 0.000000 0.009610 0.000000
# 4 0.000000 0.000000 0.000000 -0.504972 0.000000 -0.254606
# 5 0.010741 0.004556 0.009610 0.000000 0.039922 0.000000
# 6 0.000000 0.000000 0.000000 -0.254606 0.000000 -0.083963
#
#
# Mechanical properties :
#
#
# Convention : Reuss Voigt Hill
#
# Bulk Modulus (GPa) = 23.10167 42.41470 32.75818
# Shear Modulus (GPa) = -10.27529 30.11631 9.92051
#
# Velocity S-wave (km/s) = -2.32485 3.98014 2.28436
# Velocity P-wave (km/s) = 2.22378 6.59034 4.91822
#
# Compressibility (1/GPa) = 0.04328692
#
# Stress axis : x y z
#
# Youngs Moduli (GPa) = 72.15633 72.74616 55.46827
#
# Poissons Ratio (x) = 0.01443 0.21767
# Poissons Ratio (y) = 0.01432 -0.16359
# Poissons Ratio (z) = 0.28316 -0.21455
#
# Static dielectric constant tensor:
#      x y z
#    x 1.728760 0.000000 -0.044130 
#    y 0.000000 1.679910 0.000000 
#    z -0.044130 0.000000 1.684170 
# 
# From -- ./inp_files/70220.got.cif
#   From: 2010.05.17/outbox.cif.g08.bks.cpg/sg13_36_cif.got.tgz:70220.got - 2010.06.03 16:44:36.
