data_PCOD9226905
_publ_section_title
;
Structure prediction by ZEFSAII (Michael W. Deem and Ramdas Pophale) SiO2 
 PCOD9226905
Probable space group: P 2/C
;
_chemical_formula_sum "Si O2"
_cell_formula_units_Z 32
_cell_length_a 20.075604
_cell_length_b 8.741659
_cell_length_c 14.470003
_cell_angle_alpha 90.000000
_cell_angle_beta 146.997625
_cell_angle_gamma 90.000000
_cell_volume 1383.144605
_symmetry_space_group_name_H-M "P 2/C"
_symmetry_group_IT_number 13
_symmetry_cell_setting 'monoclinic'
loop_
_space_group_symop_operation_xyz
x,y,z
-x,y,1/2-z
-x,-y,-z
x,-y,1/2+z
loop_
_atom_site_type_symbol
_atom_site_label
_atom_site_fract_x
_atom_site_fract_y
_atom_site_fract_z
Si Si1 0.365608 0.640080 0.558071
Si Si2 0.651026 0.082727 0.575853
Si Si3 0.110991 0.361186 0.821260
Si Si4 0.279073 0.510766 0.769505
Si Si5 0.833837 0.922884 0.991326
Si Si6 0.596691 0.187399 0.120983
Si Si7 0.146602 0.778531 0.058843
Si Si8 0.047418 0.274908 0.026825
O O1 0.500000 0.604716 0.750000
O O2 0.356004 0.824172 0.527671
O O3 0.250356 0.583499 0.484487
O O4 0.339953 0.566765 0.428668
O O5 0.539855 0.150315 0.508145
O O6 0.776483 0.131426 0.771398
O O7 0.630002 0.900605 0.563471
O O8 0.000000 0.436673 0.750000
O O9 0.060761 0.352292 0.659289
O O10 0.125031 0.191021 0.880817
O O11 0.374634 0.633861 0.842274
O O12 0.220574 0.379615 0.636784
O O13 0.164030 0.616124 0.664345
O O14 0.692158 0.888614 0.803670
O O15 0.852787 0.102799 0.024473
O O16 0.909094 0.865126 0.987688
O O17 0.011944 0.755882 0.943731
#
# Coordination Sequence:
#
# PCOD9226905 Si02
#       8
#     4   4   4   4   4   4   4   4
#     4  11  22  37  60  87 121 163 209 255 318 380
#     4   9  18  34  58  84 112 152 205 251 292 373
#     4  10  20  36  58  83 121 164 206 256 318 366
#     4  10  21  35  60  91 121 159 200 258 315 386
#     4   9  19  32  55  83 112 159 201 258 297 363
#     4   9  18  35  56  87 117 151 202 253 305 364
#     4  10  18  31  54  89 114 147 206 251 301 366
#     4  10  18  35  59  86 115 158 210 252 306 376
#
# _framework density 23.135687000000001
#
# number of rings (size 3 to 8) (size 9 to 14) (size 15 to 20)
#    0.000    2.250    2.500    1.500    0.000    2.000 
#    0.000    0.625    0.000   17.250    6.500    0.000 
#    0.000    0.000    0.000    0.000    0.000    0.000 
#
# Total GULP energy -178550.608433 kJ/mol
# GULP energy per Si atom -5579.706514 kJ/mol
# Density = 2.308303 g / cm^3
# Si number density = 23.135687 Si / 1000 Ang^3
#
#
#
# Elastic Constant Matrix: (Units=GPa)
#
#
# Indices 1 2 3 4 5 6 
#
# 1 54.0882 15.3223 14.6986 0.0000 16.8524 0.0000
# 2 15.3223 92.9208 3.5140 0.0000 3.1560 0.0000
# 3 14.6986 3.5140 116.8080 0.0000 22.1823 0.0000
# 4 0.0000 0.0000 0.0000 28.7146 0.0000 -2.8714
# 5 16.8524 3.1560 22.1823 0.0000 34.3865 0.0000
# 6 0.0000 0.0000 0.0000 -2.8714 0.0000 24.8557
#
#
#
# Elastic Compliance Matrix: (Units=1/GPa)
#
#
# Indices 1 2 3 4 5 6 
#
# 1 0.022908 -0.003394 -0.000806 0.000000 -0.010395 0.000000
# 2 -0.003394 0.011301 -0.000036 0.000000 0.000649 0.000000
# 3 -0.000806 -0.000036 0.009787 0.000000 -0.005915 0.000000
# 4 0.000000 0.000000 0.000000 0.035232 0.000000 0.004070
# 5 -0.010395 0.000649 -0.005915 0.000000 0.037932 0.000000
# 6 0.000000 0.000000 0.000000 0.004070 0.000000 0.040702
#
#
# Mechanical properties :
#
#
# Convention : Reuss Voigt Hill
#
# Bulk Modulus (GPa) = 28.15129 36.76519 32.45824
# Shear Modulus (GPa) = 28.06217 32.94349 30.50283
#
# Velocity S-wave (km/s) = 3.48651 3.77759 3.63496
# Velocity P-wave (km/s) = 5.32935 5.91206 5.62825
#
# Compressibility (1/GPa) = 0.03552235
#
# Stress axis : x y z
#
# Youngs Moduli (GPa) = 43.65347 88.48930 102.17753
#
# Poissons Ratio (x) = 0.30032 0.08240
# Poissons Ratio (y) = 0.14815 0.00370
# Poissons Ratio (z) = 0.03520 0.00321
#
# Static dielectric constant tensor:
#      x y z
#    x 1.948500 0.000000 -0.004610 
#    y 0.000000 1.996940 0.000000 
#    z -0.004610 0.000000 1.859060 
# 
# From -- ./inp_files/71151.got.cif
#   From: 2010.05.17/outbox.cif.g08.bks.cpg/sg13_36_cif.got.tgz:71151.got - 2010.06.03 16:44:36.
