data_PCOD9226169
_publ_section_title
;
Structure prediction by ZEFSAII (Michael W. Deem and Ramdas Pophale) SiO2 
 PCOD9226169
Probable space group: P 2/C
;
_chemical_formula_sum "Si O2"
_cell_formula_units_Z 30
_cell_length_a 11.660516
_cell_length_b 8.931284
_cell_length_c 24.103274
_cell_angle_alpha 90.000000
_cell_angle_beta 142.653237
_cell_angle_gamma 90.000000
_cell_volume 1522.779128
_symmetry_space_group_name_H-M "P 2/C"
_symmetry_group_IT_number 13
_symmetry_cell_setting 'monoclinic'
loop_
_space_group_symop_operation_xyz
x,y,z
-x,y,1/2-z
-x,-y,-z
x,-y,1/2+z
loop_
_atom_site_type_symbol
_atom_site_label
_atom_site_fract_x
_atom_site_fract_y
_atom_site_fract_z
Si Si1 0.607000 0.331902 0.685282
Si Si2 0.220110 0.848630 0.543635
Si Si3 0.428901 0.349132 0.283119
Si Si4 0.500000 0.853263 0.250000
Si Si5 0.000543 0.826493 0.355417
Si Si6 0.830453 0.090243 0.356480
Si Si7 0.201175 0.983668 0.854282
Si Si8 0.419290 0.097737 0.546932
O O1 0.611115 0.508735 0.694446
O O2 0.510247 0.253072 0.701249
O O3 0.819518 0.266072 0.767451
O O4 0.481608 0.263370 0.588125
O O5 0.402595 0.751901 0.628593
O O6 0.101658 0.864307 0.555424
O O7 0.100463 0.767818 0.449409
O O8 0.299988 0.002812 0.546620
O O9 0.500000 0.403062 0.250000
O O10 0.255779 0.236918 0.204939
O O11 0.672547 0.968033 0.312510
O O12 0.942688 0.994087 0.354445
O O13 0.143231 0.857227 0.360240
O O14 0.000000 0.930484 0.750000
O O15 0.378428 0.010588 0.881568
O O16 0.301533 0.899055 0.944454
#
# Coordination Sequence:
#
# PCOD9226169 Si02
#       8
#     4   4   4   2   4   4   4   4
#     4  11  19  34  53  83 113 156 184 225 282 350
#     4  10  18  35  54  84 112 149 186 234 280 343
#     4  10  20  33  54  78 122 157 183 219 286 349
#     4  10  16  28  56  76 110 140 198 218 266 334
#     4  10  21  32  57  82 112 144 190 242 282 327
#     4  10  17  33  53  82 112 148 185 230 280 339
#     4  10  20  36  58  90 110 139 196 261 286 319
#     4  10  20  35  62  84 110 151 196 240 290 334
#
# _framework density 19.700821000000001
#
# number of rings (size 3 to 8) (size 9 to 14) (size 15 to 20)
#    0.000    1.867    5.333    1.200    0.000    0.000 
#    0.000    5.333    0.000   10.400    0.000    0.000 
#    0.000    0.000    0.000    0.000    0.000    0.000 
#
# Total GULP energy -167047.093231 kJ/mol
# GULP energy per Si atom -5568.236441 kJ/mol
# Density = 1.965598 g / cm^3
# Si number density = 19.700821 Si / 1000 Ang^3
#
#
#
# Elastic Constant Matrix: (Units=GPa)
#
#
# Indices 1 2 3 4 5 6 
#
# 1 37.9217 10.3874 6.5951 0.0000 5.3954 0.0000
# 2 10.3874 78.3966 28.7962 0.0000 -1.6114 0.0000
# 3 6.5951 28.7962 126.6238 0.0000 -7.0886 0.0000
# 4 0.0000 0.0000 0.0000 14.0163 0.0000 -3.1345
# 5 5.3954 -1.6114 -7.0886 0.0000 26.8127 0.0000
# 6 0.0000 0.0000 0.0000 -3.1345 0.0000 14.8158
#
#
#
# Elastic Compliance Matrix: (Units=1/GPa)
#
#
# Indices 1 2 3 4 5 6 
#
# 1 0.028392 -0.003512 -0.001027 0.000000 -0.006196 0.000000
# 2 -0.003512 0.014353 -0.003038 0.000000 0.000766 0.000000
# 3 -0.001027 -0.003038 0.008773 0.000000 0.002343 0.000000
# 4 0.000000 0.000000 0.000000 0.074889 0.000000 0.015844
# 5 -0.006196 0.000766 0.002343 0.000000 0.039208 0.000000
# 6 0.000000 0.000000 0.000000 0.015844 0.000000 0.070848
#
#
# Mechanical properties :
#
#
# Convention : Reuss Voigt Hill
#
# Bulk Modulus (GPa) = 27.50008 37.16663 32.33335
# Shear Modulus (GPa) = 18.95819 24.27317 21.61568
#
# Velocity S-wave (km/s) = 3.10547 3.51392 3.31599
# Velocity P-wave (km/s) = 5.18148 5.94727 5.57753
#
# Compressibility (1/GPa) = 0.03636354
#
# Stress axis : x y z
#
# Youngs Moduli (GPa) = 35.22083 69.67319 113.98581
#
# Poissons Ratio (x) = 0.24470 0.11706
# Poissons Ratio (y) = 0.12370 0.34631
# Poissons Ratio (z) = 0.03617 0.21168
#
# Static dielectric constant tensor:
#      x y z
#    x 1.821340 0.000000 -0.047850 
#    y 0.000000 1.663450 0.000000 
#    z -0.047850 0.000000 1.784400 
# 
# From -- ./inp_files/92797.got.cif
#   From: 2010.05.17/outbox.cif.g08.bks.cpg/sg13_47_cif.got.tgz:92797.got - 2010.06.03 16:44:36.
