data_PCOD9226343
_publ_section_title
;
Structure prediction by ZEFSAII (Michael W. Deem and Ramdas Pophale) SiO2 
 PCOD9226343
Probable space group: P 2/C
;
_chemical_formula_sum "Si O2"
_cell_formula_units_Z 14
_cell_length_a 7.715202
_cell_length_b 16.845603
_cell_length_c 5.308862
_cell_angle_alpha 90.000000
_cell_angle_beta 60.413413
_cell_angle_gamma 90.000000
_cell_volume 600.012217
_symmetry_space_group_name_H-M "P 2/C"
_symmetry_group_IT_number 13
_symmetry_cell_setting 'monoclinic'
loop_
_space_group_symop_operation_xyz
x,y,z
-x,y,1/2-z
-x,-y,-z
x,-y,1/2+z
loop_
_atom_site_type_symbol
_atom_site_label
_atom_site_fract_x
_atom_site_fract_y
_atom_site_fract_z
Si Si1 0.131207 0.281981 0.397564
Si Si2 0.500000 0.828586 0.750000
Si Si3 0.774567 0.465503 0.180208
Si Si4 0.210698 0.052451 0.679952
O O1 0.322377 0.225650 0.276339
O O2 0.208382 0.371772 0.296832
O O3 0.000000 0.258758 0.250000
O O4 0.000000 0.282256 0.750000
O O5 0.608436 0.887339 0.477494
O O6 0.685096 0.512473 0.477275
O O7 0.000000 0.500000 0.000000
O O8 0.000000 0.093016 0.750000
O O9 0.217090 0.985993 0.452137
#
# Coordination Sequence:
#
# PCOD9226343 Si02
#       4
#     4   2   4   4
#     4  12  25  43  67  98 139 184 223 284 352 392
#     4  12  28  44  68 110 144 172 224 288 340 412
#     4  10  16  35  67  85 119 182 230 274 327 385
#     4  10  23  46  75  99 130 182 226 267 333 408
#
# _framework density 23.33286
#
# number of rings (size 3 to 8) (size 9 to 14) (size 15 to 20)
#    0.000    1.143    5.714    1.714    0.000    9.143 
#    0.000    1.429    0.000    0.000    0.000    0.000 
#    0.000    0.000    0.000    0.000    0.000    0.000 
#
# Total GULP energy -78327.480752 kJ/mol
# GULP energy per Si atom -5594.820054 kJ/mol
# Density = 2.327975 g / cm^3
# Si number density = 23.332860 Si / 1000 Ang^3
#
#
#
# Elastic Constant Matrix: (Units=GPa)
#
#
# Indices 1 2 3 4 5 6 
#
# 1 146.7243 21.0948 35.6765 0.0000 7.2102 0.0000
# 2 21.0948 66.8265 3.1560 0.0000 -17.8576 0.0000
# 3 35.6765 3.1560 93.7746 0.0000 8.4736 0.0000
# 4 0.0000 0.0000 0.0000 -257.0832 0.0000 116.0415
# 5 7.2102 -17.8576 8.4736 0.0000 48.5468 0.0000
# 6 0.0000 0.0000 0.0000 116.0415 0.0000 -56.7860
#
#
#
# Elastic Compliance Matrix: (Units=1/GPa)
#
#
# Indices 1 2 3 4 5 6 
#
# 1 0.007990 -0.002859 -0.002785 0.000000 -0.001752 0.000000
# 2 -0.002859 0.017737 -0.000139 0.000000 0.006973 0.000000
# 3 -0.002785 -0.000139 0.011883 0.000000 -0.001712 0.000000
# 4 0.000000 0.000000 0.000000 -0.050115 0.000000 -0.102410
# 5 -0.001752 0.006973 -0.001712 0.000000 0.023723 0.000000
# 6 0.000000 0.000000 0.000000 -0.102410 0.000000 -0.226884
#
#
# Mechanical properties :
#
#
# Convention : Reuss Voigt Hill
#
# Bulk Modulus (GPa) = 38.39885 47.46445 42.93165
# Shear Modulus (GPa) = -25.58590 -36.57126 -31.07858
#
# Velocity S-wave (km/s) = -3.31503 -3.96330 -3.65357
# Velocity P-wave (km/s) = 1.35653 0.74644 0.80093
#
# Compressibility (1/GPa) = 0.02604244
#
# Stress axis : x y z
#
# Youngs Moduli (GPa) = 125.15891 56.38088 84.15488
#
# Poissons Ratio (x) = 0.16118 0.23439
# Poissons Ratio (y) = 0.35780 0.01173
# Poissons Ratio (z) = 0.34859 0.00786
#
# Static dielectric constant tensor:
#      x y z
#    x 1.854550 0.000000 -0.000230 
#    y 0.000000 1.839660 0.000000 
#    z -0.000230 0.000000 1.863330 
# 
# From -- ./inp_files/1070.got.cif
#   From: 2010.05.17/outbox.cif.g08.bks.cpg/sg13_1_cif.got.tgz:1070.got - 2010.06.03 16:44:36.
