data_PCOD9226013
_publ_section_title
;
Structure prediction by ZEFSAII (Michael W. Deem and Ramdas Pophale) SiO2 
 PCOD9226013
Probable space group: P 2/C
;
_chemical_formula_sum "Si O2"
_cell_formula_units_Z 22
_cell_length_a 28.040440
_cell_length_b 6.439619
_cell_length_c 5.174274
_cell_angle_alpha 90.000000
_cell_angle_beta 79.473063
_cell_angle_gamma 90.000000
_cell_volume 918.591983
_symmetry_space_group_name_H-M "P 2/C"
_symmetry_group_IT_number 13
_symmetry_cell_setting 'monoclinic'
loop_
_space_group_symop_operation_xyz
x,y,z
-x,y,1/2-z
-x,-y,-z
x,-y,1/2+z
loop_
_atom_site_type_symbol
_atom_site_label
_atom_site_fract_x
_atom_site_fract_y
_atom_site_fract_z
Si Si1 0.846261 0.145255 0.947160
Si Si2 0.743189 0.260374 0.139008
Si Si3 0.704083 0.797008 0.174831
Si Si4 0.050985 0.856833 0.256622
Si Si5 0.500000 0.648306 0.250000
Si Si6 0.395216 0.353112 0.889537
O O1 0.898069 0.255222 0.850353
O O2 0.844835 0.969074 0.725768
O O3 0.797482 0.277905 0.981440
O O4 0.737711 0.328203 0.440805
O O5 0.729872 0.015428 0.198639
O O6 0.703507 0.304454 0.957988
O O7 0.650566 0.796462 0.108915
O O8 0.000000 0.744560 0.250000
O O9 0.051040 0.953823 0.544462
O O10 0.500000 0.500000 0.500000
O O11 0.552293 0.758189 0.189746
O O12 0.392931 0.527164 0.664706
#
# Coordination Sequence:
#
# PCOD9226013 Si02
#       6
#     4   4   4   4   2   4
#     4  10  14  23  36  51  75 103 144 169 190 235
#     4  10  17  28  41  62  83 116 145 164 196 234
#     4  10  18  28  44  61  86 107 139 172 196 240
#     4   8  14  20  29  45  67  97 133 168 198 228
#     4   8  16  30  48  64  82 102 134 168 200 246
#     4  10  19  32  48  68  85 107 134 169 212 245
#
# _framework density 23.949695999999999
#
# number of rings (size 3 to 8) (size 9 to 14) (size 15 to 20)
#    0.000    2.545    3.636    1.091    0.000    0.000 
#    0.000    0.000    0.000    4.364    0.000    0.000 
#    0.000    0.000    0.000    0.000    0.000   30.909 
#
# Total GULP energy -122569.352660 kJ/mol
# GULP energy per Si atom -5571.334212 kJ/mol
# Density = 2.389519 g / cm^3
# Si number density = 23.949696 Si / 1000 Ang^3
#
#
#
# Elastic Constant Matrix: (Units=GPa)
#
#
# Indices 1 2 3 4 5 6 
#
# 1 187.6678 -10.7572 9.4364 0.0000 -43.6957 0.0000
# 2 -10.7572 33.2797 -27.5297 0.0000 -4.1740 0.0000
# 3 9.4364 -27.5297 144.7672 0.0000 17.5269 0.0000
# 4 0.0000 0.0000 0.0000 32.7479 0.0000 20.0701
# 5 -43.6957 -4.1740 17.5269 0.0000 55.5301 0.0000
# 6 0.0000 0.0000 0.0000 20.0701 0.0000 26.6190
#
#
#
# Elastic Compliance Matrix: (Units=1/GPa)
#
#
# Indices 1 2 3 4 5 6 
#
# 1 0.006846 0.002361 -0.000698 0.000000 0.005785 0.000000
# 2 0.002361 0.036489 0.006475 0.000000 0.002557 0.000000
# 3 -0.000698 0.006475 0.008518 0.000000 -0.002750 0.000000
# 4 0.000000 0.000000 0.000000 0.056768 0.000000 -0.042802
# 5 0.005785 0.002557 -0.002750 0.000000 0.023620 0.000000
# 6 0.000000 0.000000 0.000000 -0.042802 0.000000 0.069838
#
#
# Mechanical properties :
#
#
# Convention : Reuss Voigt Hill
#
# Bulk Modulus (GPa) = 14.67763 34.22374 24.45069
# Shear Modulus (GPa) = 23.97957 49.28377 36.63167
#
# Velocity S-wave (km/s) = 3.16768 4.54122 3.91516
# Velocity P-wave (km/s) = 4.41823 6.46667 5.53799
#
# Compressibility (1/GPa) = 0.06813087
#
# Stress axis : x y z
#
# Youngs Moduli (GPa) = 146.07428 27.40552 117.40510
#
# Poissons Ratio (x) = -0.06471 0.08189
# Poissons Ratio (y) = -0.34493 -0.76025
# Poissons Ratio (z) = 0.10189 -0.17746
#
# Static dielectric constant tensor:
#      x y z
#    x 1.991300 0.000000 -0.013630 
#    y 0.000000 0.999860 0.000000 
#    z -0.013630 0.000000 1.995090 
# 
# From -- ./inp_files/7698.got.cif
#   From: 2010.05.17/outbox.cif.g08.bks.cpg/sg13_4_cif.got.tgz:7698.got - 2010.06.03 16:44:36.
