data_PCOD9226344
_publ_section_title
;
Structure prediction by ZEFSAII (Michael W. Deem and Ramdas Pophale) SiO2 
 PCOD9226344
Probable space group: P 2/C
;
_chemical_formula_sum "Si O2"
_cell_formula_units_Z 28
_cell_length_a 14.353482
_cell_length_b 11.585630
_cell_length_c 12.560133
_cell_angle_alpha 90.000000
_cell_angle_beta 43.633483
_cell_angle_gamma 90.000000
_cell_volume 1441.275751
_symmetry_space_group_name_H-M "P 2/C"
_symmetry_group_IT_number 13
_symmetry_cell_setting 'monoclinic'
loop_
_space_group_symop_operation_xyz
x,y,z
-x,y,1/2-z
-x,-y,-z
x,-y,1/2+z
loop_
_atom_site_type_symbol
_atom_site_label
_atom_site_fract_x
_atom_site_fract_y
_atom_site_fract_z
Si Si1 0.091474 0.827731 0.897447
Si Si2 0.000000 0.141287 0.250000
Si Si3 0.379748 0.275499 0.190711
Si Si4 0.729734 0.108627 0.546127
Si Si5 0.182252 0.905963 0.292969
Si Si6 0.396838 0.318575 0.928008
Si Si7 0.500000 0.540657 0.750000
Si Si8 0.568677 0.065383 0.043104
O O1 0.034085 0.790459 0.829630
O O2 0.220375 0.753659 0.825122
O O3 0.147681 0.957556 0.828839
O O4 0.960984 0.840216 0.081574
O O5 0.875428 0.061519 0.389465
O O6 0.420660 0.381083 0.231756
O O7 0.423167 0.298486 0.031177
O O8 0.462846 0.163527 0.160774
O O9 0.734132 0.117576 0.667998
O O10 0.727162 0.236010 0.496886
O O11 0.616404 0.029798 0.587969
O O12 0.288898 0.879639 0.112859
O O13 0.500000 0.273193 0.750000
O O14 0.400173 0.453591 0.896849
O O15 0.500000 0.000000 0.000000
#
# Coordination Sequence:
#
# PCOD9226344 Si02
#       8
#     4   2   4   4   4   4   2   4
#     4  10  20  35  59  84 128 161 194 241 294 379
#     4  10  16  36  54  84 112 160 194 228 296 368
#     4  12  22  42  62  94 123 159 207 256 305 374
#     4  11  21  33  60  87 120 157 197 241 302 364
#     4  10  21  35  53  91 129 160 194 232 306 374
#     4  10  21  40  63  86 115 159 206 260 302 361
#     4  10  28  40  62  88 120 166 206 264 318 344
#     4  12  21  34  57  95 129 154 192 246 307 370
#
# _framework density 19.427233000000001
#
# number of rings (size 3 to 8) (size 9 to 14) (size 15 to 20)
#    0.429    0.857    5.714    1.286    2.000    0.000 
#    0.000    0.000    0.000    5.143    0.000    0.000 
#    0.000    0.000    0.000    0.000    0.000    0.000 
#
# Total GULP energy -156012.245251 kJ/mol
# GULP energy per Si atom -5571.865902 kJ/mol
# Density = 1.938302 g / cm^3
# Si number density = 19.427233 Si / 1000 Ang^3
#
#
#
# Elastic Constant Matrix: (Units=GPa)
#
#
# Indices 1 2 3 4 5 6 
#
# 1 118.5051 58.4685 36.5938 0.0000 -9.3767 0.0000
# 2 58.4685 95.5250 14.3775 0.0000 -7.0329 0.0000
# 3 36.5938 14.3775 98.4080 0.0000 -18.2762 0.0000
# 4 0.0000 0.0000 0.0000 20.5014 0.0000 6.1444
# 5 -9.3767 -7.0329 -18.2762 0.0000 26.6624 0.0000
# 6 0.0000 0.0000 0.0000 6.1444 0.0000 24.9881
#
#
#
# Elastic Compliance Matrix: (Units=1/GPa)
#
#
# Indices 1 2 3 4 5 6 
#
# 1 0.013388 -0.007610 -0.003856 0.000000 0.000058 0.000000
# 2 -0.007610 0.015124 0.000990 0.000000 0.001992 0.000000
# 3 -0.003856 0.000990 0.012888 0.000000 0.007740 0.000000
# 4 0.000000 0.000000 0.000000 0.052658 0.000000 -0.012948
# 5 0.000058 0.001992 0.007740 0.000000 0.043357 0.000000
# 6 0.000000 0.000000 0.000000 -0.012948 0.000000 0.043203
#
#
# Mechanical properties :
#
#
# Convention : Reuss Voigt Hill
#
# Bulk Modulus (GPa) = 48.90222 59.03530 53.96876
# Shear Modulus (GPa) = 23.99382 27.96360 25.97871
#
# Velocity S-wave (km/s) = 3.51816 3.79806 3.66079
# Velocity P-wave (km/s) = 6.45987 7.04894 6.76082
#
# Compressibility (1/GPa) = 0.02044897
#
# Stress axis : x y z
#
# Youngs Moduli (GPa) = 74.69109 66.11984 77.58918
#
# Poissons Ratio (x) = 0.50318 0.29918
# Poissons Ratio (y) = 0.56841 -0.07683
# Poissons Ratio (z) = 0.28801 -0.06547
#
# Static dielectric constant tensor:
#      x y z
#    x 1.748530 0.000000 -0.007240 
#    y 0.000000 1.657510 0.000000 
#    z -0.007240 0.000000 1.802480 
# 
# From -- ./inp_files/53526.got.cif
#   From: 2010.05.17/outbox.cif.g08.bks.cpg/sg13_27_cif.got.tgz:53526.got - 2010.06.03 16:44:36.
