data_PCOD9226676
_publ_section_title
;
Structure prediction by ZEFSAII (Michael W. Deem and Ramdas Pophale) SiO2 
 PCOD9226676
Probable space group: P 2/C
;
_chemical_formula_sum "Si O2"
_cell_formula_units_Z 26
_cell_length_a 21.377841
_cell_length_b 6.358015
_cell_length_c 15.199916
_cell_angle_alpha 90.000000
_cell_angle_beta 33.712230
_cell_angle_gamma 90.000000
_cell_volume 1146.665578
_symmetry_space_group_name_H-M "P 2/C"
_symmetry_group_IT_number 13
_symmetry_cell_setting 'monoclinic'
loop_
_space_group_symop_operation_xyz
x,y,z
-x,y,1/2-z
-x,-y,-z
x,-y,1/2+z
loop_
_atom_site_type_symbol
_atom_site_label
_atom_site_fract_x
_atom_site_fract_y
_atom_site_fract_z
Si Si1 0.082441 0.279037 0.024618
Si Si2 0.836707 0.041577 0.921025
Si Si3 0.144728 0.991781 0.800128
Si Si4 0.000000 0.416176 0.750000
Si Si5 0.737553 0.610895 0.749767
Si Si6 0.621983 0.221638 0.929957
Si Si7 0.386480 0.054731 0.229721
O O1 0.992708 0.437265 0.172325
O O2 0.118002 0.116877 0.058474
O O3 0.187462 0.432463 0.883235
O O4 0.068605 0.142850 0.952017
O O5 0.891331 0.266427 0.880213
O O6 0.881775 0.990317 0.771611
O O7 0.702016 0.026420 0.088031
O O8 0.175409 0.760710 0.800121
O O9 0.266875 0.107773 0.664270
O O10 0.645532 0.470488 0.909305
O O11 0.671967 0.763248 0.760795
O O12 0.607311 0.144107 0.844709
O O13 0.510476 0.134677 0.107089
#
# Coordination Sequence:
#
# PCOD9226676 Si02
#       7
#     4   4   4   2   4   4   4
#     4  11  22  44  66  93 127 167 218 268 330 393
#     4  12  24  44  68  94 129 173 218 277 331 387
#     4  10  23  40  66  97 135 167 209 270 328 388
#     4  12  26  44  70  92 122 170 226 276 334 396
#     4  10  17  39  63  94 131 170 209 260 319 391
#     4   9  19  35  64  98 131 170 212 260 319 384
#     4  10  18  36  66  94 130 173 215 263 316 384
#
# _framework density 22.674441000000002
#
# number of rings (size 3 to 8) (size 9 to 14) (size 15 to 20)
#    0.000    1.538    6.154    0.923    0.000    3.692 
#    0.000    5.385    0.000    0.000    0.000    0.000 
#    0.000    0.000    0.000    0.000    0.000    0.000 
#
# Total GULP energy -145270.634978 kJ/mol
# GULP energy per Si atom -5587.332115 kJ/mol
# Density = 2.262283 g / cm^3
# Si number density = 22.674441 Si / 1000 Ang^3
#
#
#
# Elastic Constant Matrix: (Units=GPa)
#
#
# Indices 1 2 3 4 5 6 
#
# 1 61.2785 36.9082 11.1861 0.0000 19.2792 0.0000
# 2 36.9082 135.8843 32.9441 0.0000 10.8431 0.0000
# 3 11.1861 32.9441 125.6211 0.0000 9.8532 0.0000
# 4 0.0000 0.0000 0.0000 44.1738 0.0000 -1.6824
# 5 19.2792 10.8431 9.8532 0.0000 29.8635 0.0000
# 6 0.0000 0.0000 0.0000 -1.6824 0.0000 22.9813
#
#
#
# Elastic Compliance Matrix: (Units=1/GPa)
#
#
# Indices 1 2 3 4 5 6 
#
# 1 0.023796 -0.005477 0.000376 0.000000 -0.013497 0.000000
# 2 -0.005477 0.009267 -0.002008 0.000000 0.000834 0.000000
# 3 0.000376 -0.002008 0.008639 0.000000 -0.002364 0.000000
# 4 0.000000 0.000000 0.000000 0.022701 0.000000 0.001662
# 5 -0.013497 0.000834 -0.002364 0.000000 0.042677 0.000000
# 6 0.000000 0.000000 0.000000 0.001662 0.000000 0.043635
#
#
# Mechanical properties :
#
#
# Convention : Reuss Voigt Hill
#
# Bulk Modulus (GPa) = 36.38538 53.87340 45.12939
# Shear Modulus (GPa) = 28.71999 35.52009 32.12004
#
# Velocity S-wave (km/s) = 3.56283 3.96223 3.76782
# Velocity P-wave (km/s) = 5.74514 6.68906 6.23499
#
# Compressibility (1/GPa) = 0.02748357
#
# Stress axis : x y z
#
# Youngs Moduli (GPa) = 42.02417 107.90685 115.75453
#
# Poissons Ratio (x) = 0.59106 -0.04355
# Poissons Ratio (y) = 0.23019 0.23243
# Poissons Ratio (z) = -0.01581 0.21668
#
# Static dielectric constant tensor:
#      x y z
#    x 1.834350 0.000000 -0.025990 
#    y 0.000000 1.850890 0.000000 
#    z -0.025990 0.000000 1.950110 
# 
# From -- ./inp_files/69066.got.cif
#   From: 2010.05.17/outbox.cif.g08.bks.cpg/sg13_35_cif.got.tgz:69066.got - 2010.06.03 16:44:36.
