data_PCOD9226423
_publ_section_title
;
Structure prediction by ZEFSAII (Michael W. Deem and Ramdas Pophale) SiO2 
 PCOD9226423
Probable space group: P 2/C
;
_chemical_formula_sum "Si O2"
_cell_formula_units_Z 24
_cell_length_a 9.160990
_cell_length_b 8.722472
_cell_length_c 20.596203
_cell_angle_alpha 90.000000
_cell_angle_beta 49.647108
_cell_angle_gamma 90.000000
_cell_volume 1254.193514
_symmetry_space_group_name_H-M "P 2/C"
_symmetry_group_IT_number 13
_symmetry_cell_setting 'monoclinic'
loop_
_space_group_symop_operation_xyz
x,y,z
-x,y,1/2-z
-x,-y,-z
x,-y,1/2+z
loop_
_atom_site_type_symbol
_atom_site_label
_atom_site_fract_x
_atom_site_fract_y
_atom_site_fract_z
Si Si1 0.436087 0.563752 0.603446
Si Si2 0.666768 0.051196 0.253452
Si Si3 0.630491 0.917375 0.909729
Si Si4 0.809032 0.426412 0.935440
Si Si5 0.979181 0.865089 0.329901
Si Si6 0.120711 0.364928 0.283159
O O1 0.389950 0.733501 0.586392
O O2 0.336513 0.445920 0.583416
O O3 0.665520 0.547135 0.536966
O O4 0.317223 0.551343 0.704072
O O5 0.500000 0.059295 0.250000
O O6 0.579624 0.037837 0.350758
O O7 0.799529 0.203446 0.214957
O O8 0.814527 0.912965 0.203834
O O9 0.842304 0.986298 0.860599
O O10 0.500000 0.000000 0.000000
O O11 0.887195 0.255907 0.905074
O O12 0.983097 0.543614 0.871755
O O13 0.000000 0.800039 0.250000
O O14 0.000000 0.348508 0.250000
#
# Coordination Sequence:
#
# PCOD9226423 Si02
#       6
#     4   4   4   4   4   4
#     4   9  17  28  48  81 113 128 175 225 273 315
#     4  10  21  36  54  76 109 147 182 218 275 329
#     4  10  18  34  57  83 104 138 180 229 266 319
#     4  10  17  28  51  82 108 134 175 233 270 311
#     4  10  18  30  53  80 108 136 181 225 268 317
#     4   9  17  33  54  76 104 142 183 223 269 324
#
# _framework density 19.135802999999999
#
# number of rings (size 3 to 8) (size 9 to 14) (size 15 to 20)
#    0.000    2.333    1.667    5.000    0.000    0.000 
#    0.000    1.667    0.000    4.000    0.000    0.000 
#    0.000    0.000    0.000    0.000    0.000    0.000 
#
# Total GULP energy -133683.165706 kJ/mol
# GULP energy per Si atom -5570.131904 kJ/mol
# Density = 1.909225 g / cm^3
# Si number density = 19.135803 Si / 1000 Ang^3
#
#
#
# Elastic Constant Matrix: (Units=GPa)
#
#
# Indices 1 2 3 4 5 6 
#
# 1 92.4896 28.5748 41.3331 0.0000 -10.0225 0.0000
# 2 28.5748 44.5682 28.6837 0.0000 -7.9816 0.0000
# 3 41.3331 28.6837 137.9919 0.0000 -35.9626 0.0000
# 4 0.0000 0.0000 0.0000 33.6100 0.0000 -10.5339
# 5 -10.0225 -7.9816 -35.9626 0.0000 17.0038 0.0000
# 6 0.0000 0.0000 0.0000 -10.5339 0.0000 10.1836
#
#
#
# Elastic Compliance Matrix: (Units=1/GPa)
#
#
# Indices 1 2 3 4 5 6 
#
# 1 0.014361 -0.007459 -0.003248 0.000000 -0.001905 0.000000
# 2 -0.007459 0.029799 -0.003254 0.000000 0.002709 0.000000
# 3 -0.003248 -0.003254 0.017823 0.000000 0.034253 0.000000
# 4 0.000000 0.000000 0.000000 0.044026 0.000000 0.045541
# 5 -0.001905 0.002709 0.034253 0.000000 0.131404 0.000000
# 6 0.000000 0.000000 0.000000 0.045541 0.000000 0.145305
#
#
# Mechanical properties :
#
#
# Convention : Reuss Voigt Hill
#
# Bulk Modulus (GPa) = 29.35795 52.47032 40.91413
# Shear Modulus (GPa) = 11.84852 23.92335 17.88594
#
# Velocity S-wave (km/s) = 2.49103 3.53964 3.06058
# Velocity P-wave (km/s) = 4.86301 6.64717 5.82382
#
# Compressibility (1/GPa) = 0.03406232
#
# Stress axis : x y z
#
# Youngs Moduli (GPa) = 69.63113 33.55802 56.10757
#
# Poissons Ratio (x) = 0.25030 0.18223
# Poissons Ratio (y) = 0.51936 0.18257
# Poissons Ratio (z) = 0.22615 0.10920
#
# Static dielectric constant tensor:
#      x y z
#    x 1.633650 0.000000 -0.032730 
#    y 0.000000 1.702810 0.000000 
#    z -0.032730 0.000000 1.757440 
# 
# From -- ./inp_files/69414.got.cif
#   From: 2010.05.17/outbox.cif.g08.bks.cpg/sg13_35_cif.got.tgz:69414.got - 2010.06.03 16:44:36.
