data_PCOD9226779
_publ_section_title
;
Structure prediction by ZEFSAII (Michael W. Deem and Ramdas Pophale) SiO2 
 PCOD9226779
Probable space group: P 2/C
;
_chemical_formula_sum "Si O2"
_cell_formula_units_Z 26
_cell_length_a 5.664598
_cell_length_b 11.087657
_cell_length_c 20.582963
_cell_angle_alpha 90.000000
_cell_angle_beta 100.122399
_cell_angle_gamma 90.000000
_cell_volume 1272.634279
_symmetry_space_group_name_H-M "P 2/C"
_symmetry_group_IT_number 13
_symmetry_cell_setting 'monoclinic'
loop_
_space_group_symop_operation_xyz
x,y,z
-x,y,1/2-z
-x,-y,-z
x,-y,1/2+z
loop_
_atom_site_type_symbol
_atom_site_label
_atom_site_fract_x
_atom_site_fract_y
_atom_site_fract_z
Si Si1 0.460581 0.182519 0.973230
Si Si2 0.766850 0.294468 0.650781
Si Si3 0.719981 0.622088 0.949563
Si Si4 0.192378 0.465708 0.416017
Si Si5 0.500000 0.814224 0.250000
Si Si6 0.152302 0.952461 0.947183
Si Si7 0.919471 0.062123 0.820907
O O1 0.452243 0.267468 0.909889
O O2 0.361773 0.052857 0.946538
O O3 0.287942 0.247120 0.016744
O O4 0.712425 0.165447 0.021023
O O5 0.855042 0.425759 0.636868
O O6 0.678065 0.270129 0.718814
O O7 0.956528 0.186904 0.648757
O O8 0.448502 0.596070 0.911258
O O9 0.945215 0.607966 0.912619
O O10 0.762035 0.528171 0.011168
O O11 0.358376 0.903352 0.195263
O O12 0.997103 0.958627 0.874328
O O13 0.000000 0.000000 0.000000
O O14 0.000000 0.039588 0.750000
#
# Coordination Sequence:
#
# PCOD9226779 Si02
#       7
#     4   4   4   4   2   4   4
#     4   9  19  32  48  75 111 142 178 227 285 335
#     4   9  18  31  49  75 107 141 175 224 281 344
#     4   9  18  31  48  74 106 142 174 217 264 335
#     4   9  18  30  49  74 105 139 177 211 272 328
#     4  10  18  30  50  72 104 144 180 226 282 342
#     4  10  19  31  51  77 106 142 181 231 285 334
#     4   9  19  33  49  73 107 138 179 225 278 342
#
# _framework density 20.430064000000002
#
# number of rings (size 3 to 8) (size 9 to 14) (size 15 to 20)
#    0.000    2.769    0.000    0.923    4.308    1.231 
#    0.000    0.000    0.000    0.000    0.000    5.385 
#    0.000    0.000    0.000    0.000    0.000    0.000 
#
# Total GULP energy -144815.381894 kJ/mol
# GULP energy per Si atom -5569.822381 kJ/mol
# Density = 2.038356 g / cm^3
# Si number density = 20.430064 Si / 1000 Ang^3
#
#
#
# Elastic Constant Matrix: (Units=GPa)
#
#
# Indices 1 2 3 4 5 6 
#
# 1 91.0905 13.3700 19.5977 0.0000 12.0236 0.0000
# 2 13.3700 24.6674 13.8425 0.0000 9.6718 0.0000
# 3 19.5977 13.8425 81.4919 0.0000 12.0843 0.0000
# 4 0.0000 0.0000 0.0000 27.5924 0.0000 3.3902
# 5 12.0236 9.6718 12.0843 0.0000 23.7506 0.0000
# 6 0.0000 0.0000 0.0000 3.3902 0.0000 26.7958
#
#
#
# Elastic Compliance Matrix: (Units=1/GPa)
#
#
# Indices 1 2 3 4 5 6 
#
# 1 0.012471 -0.004360 -0.001715 0.000000 -0.003665 0.000000
# 2 -0.004360 0.052357 -0.005420 0.000000 -0.016356 0.000000
# 3 -0.001715 -0.005420 0.014221 0.000000 -0.004161 0.000000
# 4 0.000000 0.000000 0.000000 0.036814 0.000000 -0.004658
# 5 -0.003665 -0.016356 -0.004161 0.000000 0.052737 0.000000
# 6 0.000000 0.000000 0.000000 -0.004658 0.000000 0.037909
#
#
# Mechanical properties :
#
#
# Convention : Reuss Voigt Hill
#
# Bulk Modulus (GPa) = 17.83807 32.31893 25.07850
# Shear Modulus (GPa) = 20.14634 25.65706 22.90170
#
# Velocity S-wave (km/s) = 3.14365 3.54764 3.35174
# Velocity P-wave (km/s) = 4.68262 5.71267 5.22310
#
# Compressibility (1/GPa) = 0.05605988
#
# Stress axis : x y z
#
# Youngs Moduli (GPa) = 80.18746 19.09974 70.31783
#
# Poissons Ratio (x) = 0.08327 0.12059
# Poissons Ratio (y) = 0.34960 0.38110
# Poissons Ratio (z) = 0.13752 0.10351
#
# Static dielectric constant tensor:
#      x y z
#    x 1.796710 0.000000 0.043270 
#    y 0.000000 1.777820 0.000000 
#    z 0.043270 0.000000 1.770730 
# 
# From -- ./inp_files/73445.got.cif
#   From: 2010.05.17/outbox.cif.g08.bks.cpg/sg13_37_cif.got.tgz:73445.got - 2010.06.03 16:44:36.
