data_PCOD9226866
_publ_section_title
;
Structure prediction by ZEFSAII (Michael W. Deem and Ramdas Pophale) SiO2 
 PCOD9226866
Probable space group: P 2/C
;
_chemical_formula_sum "Si O2"
_cell_formula_units_Z 24
_cell_length_a 21.597211
_cell_length_b 9.126667
_cell_length_c 8.941329
_cell_angle_alpha 90.000000
_cell_angle_beta 134.781785
_cell_angle_gamma 90.000000
_cell_volume 1250.963710
_symmetry_space_group_name_H-M "P 2/C"
_symmetry_group_IT_number 13
_symmetry_cell_setting 'monoclinic'
loop_
_space_group_symop_operation_xyz
x,y,z
-x,y,1/2-z
-x,-y,-z
x,-y,1/2+z
loop_
_atom_site_type_symbol
_atom_site_label
_atom_site_fract_x
_atom_site_fract_y
_atom_site_fract_z
Si Si1 0.259115 0.339759 0.267568
Si Si2 0.427036 0.143998 0.518170
Si Si3 0.555068 0.814220 0.967713
Si Si4 0.089309 0.678078 0.962486
Si Si5 0.913846 0.650238 0.183102
Si Si6 0.267603 0.659842 0.137337
O O1 0.339133 0.233304 0.372844
O O2 0.276749 0.500075 0.228399
O O3 0.247454 0.352945 0.426496
O O4 0.172830 0.282741 0.036686
O O5 0.500000 0.211275 0.750000
O O6 0.477405 0.151500 0.449266
O O7 0.413174 0.973769 0.536917
O O8 0.500000 0.726186 0.750000
O O9 0.639932 0.738858 0.179932
O O10 0.089498 0.519699 0.878053
O O11 0.000000 0.751777 0.750000
O O12 0.084267 0.658942 0.133668
O O13 0.184313 0.737910 0.075559
O O14 0.000000 0.712555 0.250000
#
# Coordination Sequence:
#
# PCOD9226866 Si02
#       6
#     4   4   4   4   4   4
#     4  11  22  35  56  82 117 141 184 225 276 320
#     4  10  21  42  57  80 105 149 185 230 269 326
#     4  10  23  38  61  77 108 144 192 224 274 326
#     4  10  18  31  51  76 110 143 180 218 269 325
#     4  10  18  31  51  77 107 146 178 220 268 325
#     4  11  22  36  53  86 112 147 178 230 273 322
#
# _framework density 19.185209
#
# number of rings (size 3 to 8) (size 9 to 14) (size 15 to 20)
#    0.000    1.667    1.667    7.000    4.667    1.333 
#    0.000    0.000    0.000    1.000    0.000    4.667 
#    0.000    0.000    0.000    0.000    0.000    0.000 
#
# Total GULP energy -133686.631260 kJ/mol
# GULP energy per Si atom -5570.276302 kJ/mol
# Density = 1.914154 g / cm^3
# Si number density = 19.185209 Si / 1000 Ang^3
#
#
#
# Elastic Constant Matrix: (Units=GPa)
#
#
# Indices 1 2 3 4 5 6 
#
# 1 136.2170 27.1269 73.9258 0.0000 -2.7003 0.0000
# 2 27.1269 25.4043 24.6643 0.0000 12.7646 0.0000
# 3 73.9258 24.6643 166.7254 0.0000 -4.0773 0.0000
# 4 0.0000 0.0000 0.0000 -40.1039 0.0000 -30.9640
# 5 -2.7003 12.7646 -4.0773 0.0000 45.4990 0.0000
# 6 0.0000 0.0000 0.0000 -30.9640 0.0000 -10.5837
#
#
#
# Elastic Compliance Matrix: (Units=1/GPa)
#
#
# Indices 1 2 3 4 5 6 
#
# 1 0.011334 -0.010465 -0.003397 0.000000 0.003304 0.000000
# 2 -0.010465 0.065781 -0.005570 0.000000 -0.019575 0.000000
# 3 -0.003397 -0.005570 0.008380 0.000000 0.002112 0.000000
# 4 0.000000 0.000000 0.000000 0.019808 0.000000 -0.057950
# 5 0.003304 -0.019575 0.002112 0.000000 0.027856 0.000000
# 6 0.000000 0.000000 0.000000 -0.057950 0.000000 0.075055
#
#
# Mechanical properties :
#
#
# Convention : Reuss Voigt Hill
#
# Bulk Modulus (GPa) = 21.44454 64.42008 42.93231
# Shear Modulus (GPa) = 19.03884 12.47094 15.75489
#
# Velocity S-wave (km/s) = 3.15361 2.55233 2.86877
# Velocity P-wave (km/s) = 4.94593 6.50667 5.77923
#
# Compressibility (1/GPa) = 0.04663191
#
# Stress axis : x y z
#
# Youngs Moduli (GPa) = 88.22863 15.20185 119.33861
#
# Poissons Ratio (x) = 0.15909 0.40534
# Poissons Ratio (y) = 0.92334 0.66468
# Poissons Ratio (z) = 0.29968 0.08467
#
# Static dielectric constant tensor:
#      x y z
#    x 1.722980 0.000000 -0.011860 
#    y 0.000000 1.665150 0.000000 
#    z -0.011860 0.000000 1.753490 
# 
# From -- ./inp_files/22825.got.cif
#   From: 2010.05.17/outbox.cif.g08.bks.cpg/sg13_12_cif.got.tgz:22825.got - 2010.06.03 16:44:36.
