data_PCOD9226962
_publ_section_title
;
Structure prediction by ZEFSAII (Michael W. Deem and Ramdas Pophale) SiO2 
 PCOD9226962
Probable space group: P 2/C
;
_chemical_formula_sum "Si O2"
_cell_formula_units_Z 28
_cell_length_a 10.493724
_cell_length_b 14.592808
_cell_length_c 12.255988
_cell_angle_alpha 90.000000
_cell_angle_beta 144.796498
_cell_angle_gamma 90.000000
_cell_volume 1081.939011
_symmetry_space_group_name_H-M "P 2/C"
_symmetry_group_IT_number 13
_symmetry_cell_setting 'monoclinic'
loop_
_space_group_symop_operation_xyz
x,y,z
-x,y,1/2-z
-x,-y,-z
x,-y,1/2+z
loop_
_atom_site_type_symbol
_atom_site_label
_atom_site_fract_x
_atom_site_fract_y
_atom_site_fract_z
Si Si1 0.517170 0.713621 0.533513
Si Si2 0.705342 0.432756 0.478140
Si Si3 0.835662 0.034199 0.055719
Si Si4 0.221657 0.360382 0.462110
Si Si5 0.980857 0.879562 0.457616
Si Si6 0.524413 0.103021 0.141668
Si Si7 0.034033 0.326181 0.009279
O O1 0.349800 0.640113 0.466649
O O2 0.582847 0.697430 0.454458
O O3 0.445003 0.817271 0.507013
O O4 0.740981 0.692735 0.762230
O O5 0.500000 0.437617 0.250000
O O6 0.741149 0.534527 0.546831
O O7 0.904548 0.396307 0.542594
O O8 0.000000 0.087686 0.250000
O O9 0.617609 0.990076 0.957041
O O10 0.981167 0.945909 0.117573
O O11 0.799170 0.091817 0.919887
O O12 0.000000 0.324674 0.250000
O O13 0.157848 0.359694 0.544038
O O14 0.212410 0.901467 0.684499
O O15 0.972985 0.774054 0.422901
O O16 0.500000 0.138408 0.250000
#
# Coordination Sequence:
#
# PCOD9226962 Si02
#       7
#     4   4   4   4   4   4   4
#     4   9  17  31  53  76 100 135 180 217 248 311
#     4  10  18  32  52  72  99 136 173 208 258 319
#     4  10  20  33  53  82 108 132 175 232 276 319
#     4  10  20  32  49  78 106 130 172 224 263 300
#     4   9  19  36  55  76 104 141 183 221 265 326
#     4   9  17  34  56  76 103 144 184 217 266 325
#     4   9  18  34  55  73  98 140 179 211 254 317
#
# _framework density 25.879460999999999
#
# number of rings (size 3 to 8) (size 9 to 14) (size 15 to 20)
#    0.000    2.571    0.000    3.857    0.000    3.429 
#    0.000    4.286    0.000    2.571    0.000    0.000 
#    0.000    0.000    0.000    0.000    0.000    0.000 
#
# Total GULP energy -156587.462171 kJ/mol
# GULP energy per Si atom -5592.409363 kJ/mol
# Density = 2.582056 g / cm^3
# Si number density = 25.879461 Si / 1000 Ang^3
#
#
#
# Elastic Constant Matrix: (Units=GPa)
#
#
# Indices 1 2 3 4 5 6 
#
# 1 135.2290 15.1845 15.7983 0.0000 -12.9822 0.0000
# 2 15.1845 77.0910 -8.8288 0.0000 1.7401 0.0000
# 3 15.7983 -8.8288 76.7316 0.0000 25.0131 0.0000
# 4 0.0000 0.0000 0.0000 18.0878 0.0000 -1.9745
# 5 -12.9822 1.7401 25.0131 0.0000 19.0224 0.0000
# 6 0.0000 0.0000 0.0000 -1.9745 0.0000 35.5445
#
#
#
# Elastic Compliance Matrix: (Units=1/GPa)
#
#
# Indices 1 2 3 4 5 6 
#
# 1 0.010696 -0.003566 -0.008924 0.000000 0.019360 0.000000
# 2 -0.003566 0.014682 0.006396 0.000000 -0.012187 0.000000
# 3 -0.008924 0.006396 0.031122 0.000000 -0.047598 0.000000
# 4 0.000000 0.000000 0.000000 0.055623 0.000000 0.003090
# 5 0.019360 -0.012187 -0.047598 0.000000 0.129486 0.000000
# 6 0.000000 0.000000 0.000000 0.003090 0.000000 0.028305
#
#
# Mechanical properties :
#
#
# Convention : Reuss Voigt Hill
#
# Bulk Modulus (GPa) = 22.56641 37.03996 29.80318
# Shear Modulus (GPa) = 16.84229 32.32409 24.58319
#
# Velocity S-wave (km/s) = 2.55384 3.53799 3.08541
# Velocity P-wave (km/s) = 4.17551 5.57076 4.92282
#
# Compressibility (1/GPa) = 0.04431365
#
# Stress axis : x y z
#
# Youngs Moduli (GPa) = 93.48971 68.11214 32.13177
#
# Poissons Ratio (x) = 0.24288 0.28673
# Poissons Ratio (y) = 0.33337 -0.20552
# Poissons Ratio (z) = 0.83426 -0.43567
#
# Static dielectric constant tensor:
#      x y z
#    x 2.057840 0.000000 0.022260 
#    y 0.000000 1.968580 0.000000 
#    z 0.022260 0.000000 2.142570 
# 
# From -- ./inp_files/30467.got.cif
#   From: 2010.05.17/outbox.cif.g08.bks.cpg/sg13_16_cif.got.tgz:30467.got - 2010.06.03 16:44:36.
