data_PCOD9226697
_publ_section_title
;
Structure prediction by ZEFSAII (Michael W. Deem and Ramdas Pophale) SiO2 
 PCOD9226697
Probable space group: P 2/C
;
_chemical_formula_sum "Si O2"
_cell_formula_units_Z 28
_cell_length_a 16.368047
_cell_length_b 9.848307
_cell_length_c 18.572610
_cell_angle_alpha 90.000000
_cell_angle_beta 25.041692
_cell_angle_gamma 90.000000
_cell_volume 1267.233672
_symmetry_space_group_name_H-M "P 2/C"
_symmetry_group_IT_number 13
_symmetry_cell_setting 'monoclinic'
loop_
_space_group_symop_operation_xyz
x,y,z
-x,y,1/2-z
-x,-y,-z
x,-y,1/2+z
loop_
_atom_site_type_symbol
_atom_site_label
_atom_site_fract_x
_atom_site_fract_y
_atom_site_fract_z
Si Si1 0.500000 0.824953 0.750000
Si Si2 0.669789 0.662915 0.022167
Si Si3 0.868550 0.330130 0.989867
Si Si4 0.764112 0.389841 0.616399
Si Si5 0.583710 0.028709 0.561546
Si Si6 0.058226 0.067310 0.788184
Si Si7 0.135885 0.905579 0.438850
Si Si8 0.000000 0.487121 0.750000
O O1 0.657257 0.734948 0.664965
O O2 0.603764 0.921568 0.610352
O O3 0.455020 0.606887 0.178227
O O4 0.722844 0.641141 0.064183
O O5 0.667476 0.822364 0.009873
O O6 0.836721 0.583756 0.846249
O O7 0.015836 0.204560 0.867300
O O8 0.890262 0.391972 0.892805
O O9 0.870692 0.465636 0.036249
O O10 0.873053 0.257463 0.559287
O O11 0.714340 0.969100 0.393332
O O12 0.353869 0.052445 0.744081
O O13 0.000000 0.079652 0.750000
O O14 0.931969 0.950177 0.927042
O O15 0.000000 0.000000 0.500000
#
# Coordination Sequence:
#
# PCOD9226697 Si02
#       8
#     2   4   4   4   4   4   4   2
#     4  12  18  34  58  92 134 156 200 260 328 380
#     4   9  18  30  54  87 120 152 191 263 315 355
#     4  11  20  31  55  94 125 161 188 254 322 382
#     4   9  19  36  55  85 121 158 205 247 313 377
#     4  11  21  35  61  92 122 160 214 263 307 377
#     4  12  22  37  65  97 123 161 206 260 328 374
#     4  11  25  45  64  86 126 178 219 261 310 367
#     4  10  18  28  46  88 132 148 188 238 322 380
#
# _framework density 22.095372999999999
#
# number of rings (size 3 to 8) (size 9 to 14) (size 15 to 20)
#    0.000    1.429    3.571    4.286    5.000    0.571 
#    0.000    0.714    0.000    0.857    0.000    0.000 
#    0.000    0.000    0.000    0.000    0.000    0.000 
#
# Total GULP energy -156203.684753 kJ/mol
# GULP energy per Si atom -5578.703027 kJ/mol
# Density = 2.204508 g / cm^3
# Si number density = 22.095373 Si / 1000 Ang^3
#
#
#
# Elastic Constant Matrix: (Units=GPa)
#
#
# Indices 1 2 3 4 5 6 
#
# 1 28.7776 12.8438 3.3057 0.0000 6.1842 0.0000
# 2 12.8438 165.2686 69.0339 0.0000 2.3066 0.0000
# 3 3.3057 69.0339 134.6106 0.0000 5.9665 0.0000
# 4 0.0000 0.0000 0.0000 -0.6383 0.0000 -20.3514
# 5 6.1842 2.3066 5.9665 0.0000 8.5059 0.0000
# 6 0.0000 0.0000 0.0000 -20.3514 0.0000 -4.7780
#
#
#
# Elastic Compliance Matrix: (Units=1/GPa)
#
#
# Indices 1 2 3 4 5 6 
#
# 1 0.043069 -0.003882 0.002348 0.000000 -0.031907 0.000000
# 2 -0.003882 0.008054 -0.004194 0.000000 0.003580 0.000000
# 3 0.002348 -0.004194 0.009854 0.000000 -0.007481 0.000000
# 4 0.000000 0.000000 0.000000 0.011622 0.000000 -0.049501
# 5 -0.031907 0.003580 -0.007481 0.000000 0.145041 0.000000
# 6 0.000000 0.000000 0.000000 -0.049501 0.000000 0.001553
#
#
# Mechanical properties :
#
#
# Convention : Reuss Voigt Hill
#
# Bulk Modulus (GPa) = 20.19400 55.44708 37.82054
# Shear Modulus (GPa) = 20.23010 16.84946 18.53978
#
# Velocity S-wave (km/s) = 3.02914 2.76448 2.89983
# Velocity P-wave (km/s) = 4.62532 5.94464 5.32599
#
# Compressibility (1/GPa) = 0.04951967
#
# Stress axis : x y z
#
# Youngs Moduli (GPa) = 23.21847 124.15634 101.48538
#
# Poissons Ratio (x) = 0.48203 -0.23825
# Poissons Ratio (y) = 0.09014 0.42563
# Poissons Ratio (z) = -0.05451 0.52071
#
# Static dielectric constant tensor:
#      x y z
#    x 1.883060 0.000000 -0.003850 
#    y 0.000000 1.823510 0.000000 
#    z -0.003850 0.000000 1.851700 
# 
# From -- ./inp_files/88509.got.cif
#   From: 2010.05.17/outbox.cif.g08.bks.cpg/sg13_45_cif.got.tgz:88509.got - 2010.06.03 16:44:36.
