data_PCOD9226686
_publ_section_title
;
Structure prediction by ZEFSAII (Michael W. Deem and Ramdas Pophale) SiO2 
 PCOD9226686
Probable space group: P 2/C
;
_chemical_formula_sum "Si O2"
_cell_formula_units_Z 26
_cell_length_a 8.518902
_cell_length_b 11.026043
_cell_length_c 20.670383
_cell_angle_alpha 90.000000
_cell_angle_beta 36.734819
_cell_angle_gamma 90.000000
_cell_volume 1161.273585
_symmetry_space_group_name_H-M "P 2/C"
_symmetry_group_IT_number 13
_symmetry_cell_setting 'monoclinic'
loop_
_space_group_symop_operation_xyz
x,y,z
-x,y,1/2-z
-x,-y,-z
x,-y,1/2+z
loop_
_atom_site_type_symbol
_atom_site_label
_atom_site_fract_x
_atom_site_fract_y
_atom_site_fract_z
Si Si1 0.035980 0.783002 0.352189
Si Si2 0.672613 0.715636 0.786830
Si Si3 0.176294 0.559679 0.590818
Si Si4 0.000000 0.605381 0.250000
Si Si5 0.958580 0.042160 0.185957
Si Si6 0.130090 0.614112 0.991560
Si Si7 0.581614 0.791457 0.964667
O O1 0.115365 0.690894 0.268513
O O2 0.053340 0.718624 0.416440
O O3 0.725379 0.808456 0.440967
O O4 0.146222 0.917396 0.308854
O O5 0.880771 0.616260 0.692922
O O6 0.686881 0.743280 0.859828
O O7 0.764649 0.847327 0.732125
O O8 0.375079 0.673088 0.873547
O O9 0.201343 0.486992 0.649669
O O10 0.226948 0.452774 0.524213
O O11 0.346865 0.675724 0.516284
O O12 0.245701 0.094315 0.070834
O O13 0.000000 0.023390 0.250000
O O14 0.000000 0.500000 0.000000
#
# Coordination Sequence:
#
# PCOD9226686 Si02
#       7
#     4   4   4   2   4   4   4
#     4  10  19  30  52  81 119 152 180 242 284 351
#     4   9  18  33  56  78 113 155 182 243 294 341
#     4  10  18  32  54  79 117 145 189 236 291 362
#     4  10  18  26  46  82 114 144 178 228 290 338
#     4   9  16  31  51  84 120 146 189 228 296 365
#     4  10  23  36  51  81 116 157 204 240 284 336
#     4   9  17  29  52  84 112 152 178 230 300 352
#
# _framework density 22.389212000000001
#
# number of rings (size 3 to 8) (size 9 to 14) (size 15 to 20)
#    0.000    2.462    2.308    1.385    2.154    2.462 
#    0.000    0.000    0.000    3.692    0.000   17.231 
#    0.000    0.000    0.000    0.000    0.000    0.154 
#
# Total GULP energy -144862.514272 kJ/mol
# GULP energy per Si atom -5571.635164 kJ/mol
# Density = 2.233825 g / cm^3
# Si number density = 22.389212 Si / 1000 Ang^3
#
#
#
# Elastic Constant Matrix: (Units=GPa)
#
#
# Indices 1 2 3 4 5 6 
#
# 1 25.4217 20.5354 19.5920 0.0000 -1.4601 0.0000
# 2 20.5354 180.4616 32.8097 0.0000 -1.1442 0.0000
# 3 19.5920 32.8097 60.2236 0.0000 -1.6089 0.0000
# 4 0.0000 0.0000 0.0000 28.5506 0.0000 -0.2472
# 5 -1.4601 -1.1442 -1.6089 0.0000 5.5435 0.0000
# 6 0.0000 0.0000 0.0000 -0.2472 0.0000 35.5566
#
#
#
# Elastic Compliance Matrix: (Units=1/GPa)
#
#
# Indices 1 2 3 4 5 6 
#
# 1 0.054657 -0.003300 -0.015739 0.000000 0.009147 0.000000
# 2 -0.003300 0.006350 -0.002393 0.000000 -0.000253 0.000000
# 3 -0.015739 -0.002393 0.023084 0.000000 0.002060 0.000000
# 4 0.000000 0.000000 0.000000 0.035028 0.000000 0.000244
# 5 0.009147 -0.000253 0.002060 0.000000 0.183348 0.000000
# 6 0.000000 0.000000 0.000000 0.000244 0.000000 0.028126
#
#
# Mechanical properties :
#
#
# Convention : Reuss Voigt Hill
#
# Bulk Modulus (GPa) = 24.25561 45.77566 35.01564
# Shear Modulus (GPa) = 12.91326 26.80811 19.86068
#
# Velocity S-wave (km/s) = 2.40419 3.46405 2.98159
# Velocity P-wave (km/s) = 4.30860 6.04064 5.24659
#
# Compressibility (1/GPa) = 0.04122758
#
# Stress axis : x y z
#
# Youngs Moduli (GPa) = 18.29582 157.47257 43.32085
#
# Poissons Ratio (x) = 0.51969 0.68182
# Poissons Ratio (y) = 0.06038 0.10366
# Poissons Ratio (z) = 0.28796 0.37680
#
# Static dielectric constant tensor:
#      x y z
#    x 1.980070 0.000000 0.044540 
#    y 0.000000 1.859970 0.000000 
#    z 0.044540 0.000000 1.918210 
# 
# From -- ./inp_files/85096.got.cif
#   From: 2010.05.17/outbox.cif.g08.bks.cpg/sg13_43_cif.got.tgz:85096.got - 2010.06.03 16:44:36.
