data_PCOD9226019
_publ_section_title
;
Structure prediction by ZEFSAII (Michael W. Deem and Ramdas Pophale) SiO2 
 PCOD9226019
Probable space group: P 2/C
;
_chemical_formula_sum "Si O2"
_cell_formula_units_Z 28
_cell_length_a 22.879975
_cell_length_b 13.077675
_cell_length_c 5.439118
_cell_angle_alpha 90.000000
_cell_angle_beta 75.722512
_cell_angle_gamma 90.000000
_cell_volume 1577.207573
_symmetry_space_group_name_H-M "P 2/C"
_symmetry_group_IT_number 13
_symmetry_cell_setting 'monoclinic'
loop_
_space_group_symop_operation_xyz
x,y,z
-x,y,1/2-z
-x,-y,-z
x,-y,1/2+z
loop_
_atom_site_type_symbol
_atom_site_label
_atom_site_fract_x
_atom_site_fract_y
_atom_site_fract_z
Si Si1 0.815871 0.462305 0.378856
Si Si2 0.094495 0.293985 0.216619
Si Si3 0.696882 0.874099 0.546048
Si Si4 0.937069 0.399730 0.747003
Si Si5 0.432664 0.067620 0.319856
Si Si6 0.887882 0.942069 0.848830
Si Si7 0.254089 0.104393 0.004698
O O1 0.785343 0.504453 0.656534
O O2 0.837943 0.344857 0.369570
O O3 0.880136 0.524753 0.298799
O O4 0.073274 0.324868 0.510899
O O5 0.090317 0.173578 0.192198
O O6 0.061564 0.342177 0.013779
O O7 0.728538 0.838232 0.263339
O O8 0.625314 0.859274 0.620024
O O9 0.708049 0.997879 0.534511
O O10 0.728447 0.838377 0.763388
O O11 0.000000 0.452491 0.750000
O O12 0.500000 0.113878 0.250000
O O13 0.428304 0.000002 0.574379
O O14 0.905530 0.004862 0.586800
O O15 0.814954 0.930677 0.923985
#
# Coordination Sequence:
#
# PCOD9226019 Si02
#       7
#     4   4   4   4   4   4   4
#     4   8  16  29  47  71  94 105 120 151 200 245
#     4  10  21  32  47  72  91 108 131 166 201 239
#     4  10  14  25  36  51  70  87 131 175 205 235
#     4  10  19  34  55  75  89 102 123 156 204 256
#     4  10  16  20  29  45  67  92 112 151 214 256
#     4  12  21  33  47  61  84 113 148 175 205 234
#     4  10  16  25  39  53  65  95 133 174 202 221
#
# _framework density 17.752894000000001
#
# number of rings (size 3 to 8) (size 9 to 14) (size 15 to 20)
#    0.000    2.000    5.714    1.286    0.000    5.143 
#    0.000    0.000    0.000    8.571    0.000    0.000 
#    0.000    0.000    0.000    0.000    0.000    0.000 
#
# Total GULP energy -156018.952908 kJ/mol
# GULP energy per Si atom -5572.105461 kJ/mol
# Density = 1.771249 g / cm^3
# Si number density = 17.752894 Si / 1000 Ang^3
#
#
#
# Elastic Constant Matrix: (Units=GPa)
#
#
# Indices 1 2 3 4 5 6 
#
# 1 16.2672 -4.3418 4.1728 0.0000 3.4939 0.0000
# 2 -4.3418 67.9284 33.2210 0.0000 0.3684 0.0000
# 3 4.1728 33.2210 177.6930 0.0000 28.3621 0.0000
# 4 0.0000 0.0000 0.0000 17.2536 0.0000 3.9139
# 5 3.4939 0.3684 28.3621 0.0000 14.7470 0.0000
# 6 0.0000 0.0000 0.0000 3.9139 0.0000 1.8528
#
#
#
# Elastic Compliance Matrix: (Units=1/GPa)
#
#
# Indices 1 2 3 4 5 6 
#
# 1 0.066011 0.004179 0.000262 0.000000 -0.016248 0.000000
# 2 0.004179 0.017118 -0.004433 0.000000 0.007108 0.000000
# 3 0.000262 -0.004433 0.009296 0.000000 -0.017830 0.000000
# 4 0.000000 0.000000 0.000000 0.111284 0.000000 -0.235072
# 5 -0.016248 0.007108 -0.017830 0.000000 0.105775 0.000000
# 6 0.000000 0.000000 0.000000 -0.235072 0.000000 1.036269
#
#
# Mechanical properties :
#
#
# Convention : Reuss Voigt Hill
#
# Bulk Modulus (GPa) = 10.81759 36.44361 23.63060
# Shear Modulus (GPa) = 3.63227 22.02647 12.82937
#
# Velocity S-wave (km/s) = 1.43194 3.52621 2.69116
# Velocity P-wave (km/s) = 2.97331 6.09522 4.79543
#
# Compressibility (1/GPa) = 0.09244201
#
# Stress axis : x y z
#
# Youngs Moduli (GPa) = 15.14890 58.41823 107.56992
#
# Poissons Ratio (x) = -0.24415 -0.02816
# Poissons Ratio (y) = -0.06331 0.47686
# Poissons Ratio (z) = -0.00397 0.25897
#
# Static dielectric constant tensor:
#      x y z
#    x 1.638890 0.000000 0.011000 
#    y 0.000000 1.533360 0.000000 
#    z 0.011000 0.000000 1.724190 
# 
# From -- ./inp_files/7422.got.cif
#   From: 2010.05.17/outbox.cif.g08.bks.cpg/sg13_4_cif.got.tgz:7422.got - 2010.06.03 16:44:36.
