data_PCOD9226582
_publ_section_title
;
Structure prediction by ZEFSAII (Michael W. Deem and Ramdas Pophale) SiO2 
 PCOD9226582
Probable space group: P 2/C
;
_chemical_formula_sum "Si O2"
_cell_formula_units_Z 26
_cell_length_a 9.405192
_cell_length_b 9.636347
_cell_length_c 20.912600
_cell_angle_alpha 90.000000
_cell_angle_beta 43.351557
_cell_angle_gamma 90.000000
_cell_volume 1301.102640
_symmetry_space_group_name_H-M "P 2/C"
_symmetry_group_IT_number 13
_symmetry_cell_setting 'monoclinic'
loop_
_space_group_symop_operation_xyz
x,y,z
-x,y,1/2-z
-x,-y,-z
x,-y,1/2+z
loop_
_atom_site_type_symbol
_atom_site_label
_atom_site_fract_x
_atom_site_fract_y
_atom_site_fract_z
Si Si1 0.500000 0.471030 0.750000
Si Si2 0.824318 0.046673 0.968447
Si Si3 0.740411 0.722663 0.730792
Si Si4 0.549992 0.301843 0.057965
Si Si5 0.782203 0.439150 0.546176
Si Si6 0.281765 0.992205 0.848482
Si Si7 0.198621 0.247925 0.078077
O O1 0.666505 0.575196 0.728051
O O2 0.630691 0.394495 0.653305
O O3 0.715831 0.187602 0.983220
O O4 0.743586 0.012376 0.066801
O O5 0.072553 0.063839 0.891279
O O6 0.772838 0.916868 0.939653
O O7 0.581882 0.757666 0.839000
O O8 0.972862 0.722369 0.680742
O O9 0.732391 0.836111 0.676884
O O10 0.664665 0.438363 0.046012
O O11 0.382457 0.318722 0.056969
O O12 0.816949 0.312873 0.487332
O O13 0.000000 0.500000 0.500000
O O14 0.500000 0.047742 0.750000
#
# Coordination Sequence:
#
# PCOD9226582 Si02
#       7
#     2   4   4   4   4   4   4
#     4  10  18  36  60  88 116 150 204 254 290 338
#     4  10  22  34  62  88 120 157 197 246 299 356
#     4  10  18  34  63  89 113 152 209 247 290 351
#     4  11  22  40  62  87 123 159 197 249 300 360
#     4  11  23  39  64  88 119 154 205 251 294 353
#     4  10  17  33  57  90 116 149 200 250 290 335
#     4  11  23  39  59  91 124 159 194 244 311 363
#
# _framework density 19.983052000000001
#
# number of rings (size 3 to 8) (size 9 to 14) (size 15 to 20)
#    0.000    1.538    3.846    2.308    4.308    0.000 
#    1.385    0.000    0.000    1.846    0.000    0.000 
#    0.000    0.000    0.000    0.000    0.000    0.000 
#
# Total GULP energy -145205.642840 kJ/mol
# GULP energy per Si atom -5584.832417 kJ/mol
# Density = 1.993757 g / cm^3
# Si number density = 19.983052 Si / 1000 Ang^3
#
#
#
# Elastic Constant Matrix: (Units=GPa)
#
#
# Indices 1 2 3 4 5 6 
#
# 1 87.9920 3.7988 19.8669 0.0000 -19.1663 0.0000
# 2 3.7988 36.4206 16.4576 0.0000 -9.3710 0.0000
# 3 19.8669 16.4576 107.2803 0.0000 -22.7131 0.0000
# 4 0.0000 0.0000 0.0000 17.0586 0.0000 -4.1148
# 5 -19.1663 -9.3710 -22.7131 0.0000 34.5268 0.0000
# 6 0.0000 0.0000 0.0000 -4.1148 0.0000 22.2226
#
#
#
# Elastic Compliance Matrix: (Units=1/GPa)
#
#
# Indices 1 2 3 4 5 6 
#
# 1 0.013049 0.000882 -0.001124 0.000000 0.006744 0.000000
# 2 0.000882 0.030613 -0.003482 0.000000 0.006508 0.000000
# 3 -0.001124 -0.003482 0.011306 0.000000 0.005869 0.000000
# 4 0.000000 0.000000 0.000000 0.061362 0.000000 0.011362
# 5 0.006744 0.006508 0.005869 0.000000 0.038333 0.000000
# 6 0.000000 0.000000 0.000000 0.011362 0.000000 0.047103
#
#
# Mechanical properties :
#
#
# Convention : Reuss Voigt Hill
#
# Bulk Modulus (GPa) = 21.04350 34.65994 27.85172
# Shear Modulus (GPa) = 22.21683 27.53292 24.87488
#
# Velocity S-wave (km/s) = 3.33796 3.71592 3.53200
# Velocity P-wave (km/s) = 5.04078 5.98273 5.53184
#
# Compressibility (1/GPa) = 0.04752061
#
# Stress axis : x y z
#
# Youngs Moduli (GPa) = 76.63250 32.66609 88.44726
#
# Poissons Ratio (x) = -0.02881 0.09942
# Poissons Ratio (y) = -0.06759 0.30795
# Poissons Ratio (z) = 0.08614 0.11373
#
# Static dielectric constant tensor:
#      x y z
#    x 1.728210 0.000000 -0.006230 
#    y 0.000000 1.689530 0.000000 
#    z -0.006230 0.000000 1.757030 
# 
# From -- ./inp_files/76379.got.cif
#   From: 2010.05.17/outbox.cif.g08.bks.cpg/sg13_39_cif.got.tgz:76379.got - 2010.06.03 16:44:36.
