data_PCOD9226329
_publ_section_title
;
Structure prediction by ZEFSAII (Michael W. Deem and Ramdas Pophale) SiO2 
 PCOD9226329
Probable space group: P 2/C
;
_chemical_formula_sum "Si O2"
_cell_formula_units_Z 28
_cell_length_a 7.936263
_cell_length_b 8.674097
_cell_length_c 17.876668
_cell_angle_alpha 90.000000
_cell_angle_beta 76.871166
_cell_angle_gamma 90.000000
_cell_volume 1198.461876
_symmetry_space_group_name_H-M "P 2/C"
_symmetry_group_IT_number 13
_symmetry_cell_setting 'monoclinic'
loop_
_space_group_symop_operation_xyz
x,y,z
-x,y,1/2-z
-x,-y,-z
x,-y,1/2+z
loop_
_atom_site_type_symbol
_atom_site_label
_atom_site_fract_x
_atom_site_fract_y
_atom_site_fract_z
Si Si1 0.649839 0.750546 0.476187
Si Si2 0.832169 0.541610 0.568810
Si Si3 0.500000 0.298841 0.750000
Si Si4 0.044084 0.266792 0.160343
Si Si5 0.000000 0.751497 0.250000
Si Si6 0.666155 0.796615 0.084651
Si Si7 0.275796 0.528769 0.158551
Si Si8 0.998180 0.934796 0.395577
O O1 0.704151 0.672430 0.548547
O O2 0.466862 0.826207 0.470389
O O3 0.640703 0.601484 0.422688
O O4 0.818019 0.852057 0.436153
O O5 0.910847 0.612882 0.636250
O O6 0.735076 0.379368 0.582442
O O7 0.000000 0.500000 0.500000
O O8 0.436537 0.192778 0.825534
O O9 0.626597 0.419793 0.777203
O O10 0.000000 0.231366 0.250000
O O11 0.226485 0.355106 0.146853
O O12 0.038272 0.113505 0.112906
O O13 0.107814 0.633088 0.189421
O O14 0.065398 0.864440 0.308823
O O15 0.839213 0.899918 0.067089
#
# Coordination Sequence:
#
# PCOD9226329 Si02
#       8
#     4   4   2   4   2   4   4   4
#     4  10  23  41  68  97 125 178 223 278 326 405
#     4  12  22  45  71 100 131 178 236 282 333 397
#     4  10  20  34  64 100 126 166 226 286 322 396
#     4  12  24  38  66  99 136 175 220 285 345 403
#     4  10  16  34  62  84 124 166 218 260 320 396
#     4  11  22  41  69  99 131 175 230 274 334 403
#     4  10  18  34  60  92 120 166 221 269 323 385
#     4  11  22  40  63  97 135 175 215 270 348 404
#
# _framework density 23.363278000000001
#
# number of rings (size 3 to 8) (size 9 to 14) (size 15 to 20)
#    0.000    1.143    5.714    2.143    0.000    0.571 
#    0.000    5.000    0.000    0.857    0.000    0.000 
#    0.000    0.000    0.000    0.000    0.000    0.000 
#
# Total GULP energy -156247.446817 kJ/mol
# GULP energy per Si atom -5580.265958 kJ/mol
# Density = 2.331010 g / cm^3
# Si number density = 23.363278 Si / 1000 Ang^3
#
#
#
# Elastic Constant Matrix: (Units=GPa)
#
#
# Indices 1 2 3 4 5 6 
#
# 1 87.0156 42.8522 3.0719 0.0000 23.8543 0.0000
# 2 42.8522 114.9040 11.3977 0.0000 13.6108 0.0000
# 3 3.0719 11.3977 70.7242 0.0000 16.5687 0.0000
# 4 0.0000 0.0000 0.0000 32.2530 0.0000 12.5305
# 5 23.8543 13.6108 16.5687 0.0000 39.1607 0.0000
# 6 0.0000 0.0000 0.0000 12.5305 0.0000 26.4705
#
#
#
# Elastic Compliance Matrix: (Units=1/GPa)
#
#
# Indices 1 2 3 4 5 6 
#
# 1 0.016549 -0.005309 0.002293 0.000000 -0.009206 0.000000
# 2 -0.005309 0.010821 -0.001543 0.000000 0.000126 0.000000
# 3 0.002293 -0.001543 0.016084 0.000000 -0.007666 0.000000
# 4 0.000000 0.000000 0.000000 0.037992 0.000000 -0.017984
# 5 -0.009206 0.000126 -0.007666 0.000000 0.034343 0.000000
# 6 0.000000 0.000000 0.000000 -0.017984 0.000000 0.046291
#
#
# Mechanical properties :
#
#
# Convention : Reuss Voigt Hill
#
# Bulk Modulus (GPa) = 29.12192 43.03196 36.07694
# Shear Modulus (GPa) = 27.37567 33.93163 30.65365
#
# Velocity S-wave (km/s) = 3.42678 3.81510 3.62614
# Velocity P-wave (km/s) = 5.30556 6.15348 5.74518
#
# Compressibility (1/GPa) = 0.03433839
#
# Stress axis : x y z
#
# Youngs Moduli (GPa) = 60.42507 92.41309 62.17218
#
# Poissons Ratio (x) = 0.49062 -0.14259
# Poissons Ratio (y) = 0.32079 0.09591
# Poissons Ratio (z) = -0.13858 0.14257
#
# Static dielectric constant tensor:
#      x y z
#    x 2.325430 0.000000 0.063670 
#    y 0.000000 1.866290 0.000000 
#    z 0.063670 0.000000 1.968950 
# 
# From -- ./inp_files/63838.got.cif
#   From: 2010.05.17/outbox.cif.g08.bks.cpg/sg13_32_cif.got.tgz:63838.got - 2010.06.03 16:44:36.
