data_PCOD9226747
_publ_section_title
;
Structure prediction by ZEFSAII (Michael W. Deem and Ramdas Pophale) SiO2 
 PCOD9226747
Probable space group: P 2/C
;
_chemical_formula_sum "Si O2"
_cell_formula_units_Z 32
_cell_length_a 29.678488
_cell_length_b 5.596535
_cell_length_c 23.445230
_cell_angle_alpha 90.000000
_cell_angle_beta 17.569382
_cell_angle_gamma 90.000000
_cell_volume 1175.497601
_symmetry_space_group_name_H-M "P 2/C"
_symmetry_group_IT_number 13
_symmetry_cell_setting 'monoclinic'
loop_
_space_group_symop_operation_xyz
x,y,z
-x,y,1/2-z
-x,-y,-z
x,-y,1/2+z
loop_
_atom_site_type_symbol
_atom_site_label
_atom_site_fract_x
_atom_site_fract_y
_atom_site_fract_z
Si Si1 0.556705 0.750000 0.372522
Si Si2 0.314779 0.750000 0.970011
Si Si3 0.028938 0.750000 0.647469
Si Si4 0.207898 0.250000 0.275846
Si Si5 0.464076 0.750000 0.665388
Si Si6 0.267611 0.250000 0.070404
Si Si7 0.241963 0.250000 0.757186
Si Si8 0.029054 0.750000 0.147235
O O1 0.376616 0.750000 0.598459
O O2 0.583177 0.504230 0.305765
O O3 0.646941 0.750000 0.322608
O O4 0.583177 0.995770 0.305765
O O5 0.386484 0.750000 0.820789
O O6 0.350935 0.498584 0.956836
O O7 0.350935 0.001416 0.956836
O O8 0.134673 0.750000 0.182706
O O9 0.104916 0.499740 0.541736
O O10 0.000000 0.750000 0.750000
O O11 0.104916 0.000260 0.541736
O O12 0.872570 0.750000 0.803390
O O13 0.146181 0.507341 0.368900
O O14 0.146181 0.992659 0.368900
O O15 0.220507 0.250000 0.192650
O O16 0.643320 0.750000 0.435449
O O17 0.000000 0.750000 0.250000
#
# Coordination Sequence:
#
# PCOD9226747 Si02
#       8
#     4   4   4   4   4   4   4   4
#     4  10  19  33  48  62  81 112 150 195 232 258
#     4  10  19  30  42  62  93 122 143 177 211 252
#     4   8  14  25  41  58  79 114 143 165 202 244
#     4  10  18  30  46  64  83 114 153 183 217 262
#     4  10  18  30  46  64  83 114 153 183 217 262
#     4  10  19  30  42  62  93 122 143 177 211 252
#     4  10  19  33  48  62  81 112 150 195 232 258
#     4   8  14  25  41  58  79 114 143 165 202 244
#
# _framework density 27.222515999999999
#
# number of rings (size 3 to 8) (size 9 to 14) (size 15 to 20)
#    0.000    2.500    0.000    5.250    0.000    0.000 
#    0.000   15.000    0.000    0.000    0.000    0.000 
#    0.000    0.000    0.000  612.000    0.000    0.000 
#
# Total GULP energy -179036.293061 kJ/mol
# GULP energy per Si atom -5594.884158 kJ/mol
# Density = 2.716056 g / cm^3
# Si number density = 27.222516 Si / 1000 Ang^3
#
#
#
# Elastic Constant Matrix: (Units=GPa)
#
#
# Indices 1 2 3 4 5 6 
#
# 1 141.8859 55.5631 7.9122 0.0000 36.0386 0.0000
# 2 55.5631 367.9534 4.9577 0.0000 25.9103 0.0000
# 3 7.9122 4.9577 71.7574 0.0000 -0.6180 0.0000
# 4 0.0000 0.0000 0.0000 -37.7261 0.0000 -0.4981
# 5 36.0386 25.9103 -0.6180 0.0000 60.6931 0.0000
# 6 0.0000 0.0000 0.0000 -0.4981 0.0000 45.0046
#
#
#
# Elastic Compliance Matrix: (Units=1/GPa)
#
#
# Indices 1 2 3 4 5 6 
#
# 1 0.008685 -0.000964 -0.000932 0.000000 -0.004755 0.000000
# 2 -0.000964 0.002912 -0.000101 0.000000 -0.000672 0.000000
# 3 -0.000932 -0.000101 0.014052 0.000000 0.000739 0.000000
# 4 0.000000 0.000000 0.000000 -0.026503 0.000000 -0.000293
# 5 -0.004755 -0.000672 0.000739 0.000000 0.019594 0.000000
# 6 0.000000 0.000000 0.000000 -0.000293 0.000000 0.022217
#
#
# Mechanical properties :
#
#
# Convention : Reuss Voigt Hill
#
# Bulk Modulus (GPa) = 46.17752 79.82916 63.00334
# Shear Modulus (GPa) = 95.84228 47.80523 71.82375
#
# Velocity S-wave (km/s) = 5.93998 4.19512 5.14210
# Velocity P-wave (km/s) = 8.00277 7.27006 7.64520
#
# Compressibility (1/GPa) = 0.02165556
#
# Stress axis : x y z
#
# Youngs Moduli (GPa) = 115.13832 343.40913 71.16456
#
# Poissons Ratio (x) = 0.33109 0.06633
# Poissons Ratio (y) = 0.11101 0.00716
# Poissons Ratio (z) = 0.10731 0.03457
#
# Static dielectric constant tensor:
#      x y z
#    x 2.089470 0.000000 -0.025160 
#    y 0.000000 2.217590 0.000000 
#    z -0.025160 0.000000 1.990920 
# 
# From -- ./inp_files/89347.got.cif
#   From: 2010.05.17/outbox.cif.g08.bks.cpg/sg13_45_cif.got.tgz:89347.got - 2010.06.03 16:44:36.
