data_PCOD9226000
_publ_section_title
;
Structure prediction by ZEFSAII (Michael W. Deem and Ramdas Pophale) SiO2 
 PCOD9226000
Probable space group: P 2/C
;
_chemical_formula_sum "Si O2"
_cell_formula_units_Z 24
_cell_length_a 6.684133
_cell_length_b 27.729502
_cell_length_c 5.479725
_cell_angle_alpha 90.000000
_cell_angle_beta 100.913248
_cell_angle_gamma 90.000000
_cell_volume 997.286167
_symmetry_space_group_name_H-M "P 2/C"
_symmetry_group_IT_number 13
_symmetry_cell_setting 'monoclinic'
loop_
_space_group_symop_operation_xyz
x,y,z
-x,y,1/2-z
-x,-y,-z
x,-y,1/2+z
loop_
_atom_site_type_symbol
_atom_site_label
_atom_site_fract_x
_atom_site_fract_y
_atom_site_fract_z
Si Si1 0.259813 0.626234 0.163899
Si Si2 0.731585 0.336133 0.333454
Si Si3 0.236527 0.020163 0.056851
Si Si4 0.132263 0.127742 0.029858
Si Si5 0.867369 0.233126 0.469476
Si Si6 0.735893 0.518048 0.533416
O O1 0.500000 0.638684 0.250000
O O2 0.178782 0.633272 0.420313
O O3 0.249664 0.571873 0.065434
O O4 0.182913 0.659170 0.921779
O O5 0.500000 0.354221 0.250000
O O6 0.732783 0.280889 0.421260
O O7 0.251391 0.077816 0.050227
O O8 0.318692 0.997379 0.831268
O O9 0.000000 0.000000 0.000000
O O10 0.000000 0.126871 0.750000
O O11 0.237272 0.180343 0.050979
O O12 0.000000 0.125544 0.250000
O O13 0.000000 0.233390 0.250000
O O14 0.000000 0.236772 0.750000
O O15 0.500000 0.500000 0.500000
O O16 0.817105 0.514410 0.828431
#
# Coordination Sequence:
#
# PCOD9226000 Si02
#       6
#     4   4   4   4   4   4
#     4  10  18  29  46  70 101 138 152 195 248 305
#     4  10  21  34  51  72 101 134 168 207 249 292
#     4  10  14  20  34  55  88 114 144 179 245 301
#     4  10  16  25  39  61  86 124 150 195 241 292
#     4  10  21  35  52  70  99 132 174 212 247 289
#     4  10  17  24  41  66 104 133 147 182 252 311
#
# _framework density 24.065308999999999
#
# number of rings (size 3 to 8) (size 9 to 14) (size 15 to 20)
#    0.000    2.000    5.000    2.000    4.667    0.000 
#    0.000    0.000    0.000    0.000    0.000    0.000 
#    0.000   48.000    0.000    0.000    0.000    6.667 
#
# Total GULP energy -134029.618212 kJ/mol
# GULP energy per Si atom -5584.567425 kJ/mol
# Density = 2.401054 g / cm^3
# Si number density = 24.065309 Si / 1000 Ang^3
#
#
#
# Elastic Constant Matrix: (Units=GPa)
#
#
# Indices 1 2 3 4 5 6 
#
# 1 46.8283 -4.6268 38.0512 0.0000 -0.6839 0.0000
# 2 -4.6268 193.8076 69.9661 0.0000 10.3262 0.0000
# 3 38.0512 69.9661 267.1530 0.0000 2.6161 0.0000
# 4 0.0000 0.0000 0.0000 50.5172 0.0000 -22.8677
# 5 -0.6839 10.3262 2.6161 0.0000 47.7245 0.0000
# 6 0.0000 0.0000 0.0000 -22.8677 0.0000 -152.2218
#
#
#
# Elastic Compliance Matrix: (Units=1/GPa)
#
#
# Indices 1 2 3 4 5 6 
#
# 1 0.024879 0.002061 -0.004085 0.000000 0.000134 0.000000
# 2 0.002061 0.005933 -0.001836 0.000000 -0.001154 0.000000
# 3 -0.004085 -0.001836 0.004805 0.000000 0.000075 0.000000
# 4 0.000000 0.000000 0.000000 0.018535 0.000000 -0.002784
# 5 0.000134 -0.001154 0.000075 0.000000 0.021201 0.000000
# 6 0.000000 0.000000 0.000000 -0.002784 0.000000 -0.006151
#
#
# Mechanical properties :
#
#
# Convention : Reuss Voigt Hill
#
# Bulk Modulus (GPa) = 35.84398 79.39667 57.62033
# Shear Modulus (GPa) = 57.99019 16.16387 37.07703
#
# Velocity S-wave (km/s) = 4.91420 2.59447 3.92941
# Velocity P-wave (km/s) = 6.86483 6.48373 6.67700
#
# Compressibility (1/GPa) = 0.02789868
#
# Stress axis : x y z
#
# Youngs Moduli (GPa) = 40.19380 168.53953 208.11013
#
# Poissons Ratio (x) = -0.34743 0.85010
# Poissons Ratio (y) = -0.08286 0.38214
# Poissons Ratio (z) = 0.16419 0.30948
#
# Static dielectric constant tensor:
#      x y z
#    x 1.873270 0.000000 -0.067400 
#    y 0.000000 1.880840 0.000000 
#    z -0.067400 0.000000 1.899690 
# 
# From -- ./inp_files/2418.got.cif
#   From: 2010.05.17/outbox.cif.g08.bks.cpg/sg13_2_cif.got.tgz:2418.got - 2010.06.03 16:44:36.
