data_PCOD9226997
_publ_section_title
;
Structure prediction by ZEFSAII (Michael W. Deem and Ramdas Pophale) SiO2 
 PCOD9226997
Probable space group: P 2/C
;
_chemical_formula_sum "Si O2"
_cell_formula_units_Z 22
_cell_length_a 15.110993
_cell_length_b 8.185929
_cell_length_c 14.165981
_cell_angle_alpha 90.000000
_cell_angle_beta 145.904500
_cell_angle_gamma 90.000000
_cell_volume 982.291872
_symmetry_space_group_name_H-M "P 2/C"
_symmetry_group_IT_number 13
_symmetry_cell_setting 'monoclinic'
loop_
_space_group_symop_operation_xyz
x,y,z
-x,y,1/2-z
-x,-y,-z
x,-y,1/2+z
loop_
_atom_site_type_symbol
_atom_site_label
_atom_site_fract_x
_atom_site_fract_y
_atom_site_fract_z
Si Si1 0.301360 0.758029 0.986752
Si Si2 0.000000 0.963584 0.750000
Si Si3 0.842202 0.467419 0.567031
Si Si4 0.369236 0.149551 0.765575
Si Si5 0.061453 0.672971 0.016732
Si Si6 0.185900 0.838131 0.576264
O O1 0.450208 0.806789 0.054099
O O2 0.347197 0.803637 0.135373
O O3 0.268003 0.562913 0.956898
O O4 0.143249 0.860964 0.830052
O O5 0.916172 0.064544 0.592379
O O6 0.763915 0.331356 0.431195
O O7 0.000000 0.390769 0.750000
O O8 0.911181 0.618849 0.566738
O O9 0.232181 0.253693 0.696897
O O10 0.323972 0.959226 0.730259
O O11 0.929652 0.794142 0.939680
O O12 0.000000 0.500000 0.000000
#
# Coordination Sequence:
#
# PCOD9226997 Si02
#       6
#     4   2   4   4   4   4
#     4   9  18  33  54  79 110 145 187 221 284 327
#     4  10  18  32  54  80 110 146 180 234 272 336
#     4  10  18  34  59  83 106 148 185 228 273 336
#     4   9  18  34  53  82 111 142 186 237 269 328
#     4   9  19  34  56  80 110 151 188 222 280 336
#     4  10  19  33  57  82 110 141 191 229 276 329
#
# _framework density 22.396602000000001
#
# number of rings (size 3 to 8) (size 9 to 14) (size 15 to 20)
#    0.000    2.545    1.818    0.545    0.000    0.000 
#    0.000   22.727    0.000    2.182    0.000    0.000 
#    0.000    0.000    0.000    0.000    0.000    0.000 
#
# Total GULP energy -122513.708106 kJ/mol
# GULP energy per Si atom -5568.804914 kJ/mol
# Density = 2.234563 g / cm^3
# Si number density = 22.396602 Si / 1000 Ang^3
#
#
#
# Elastic Constant Matrix: (Units=GPa)
#
#
# Indices 1 2 3 4 5 6 
#
# 1 56.5431 39.7054 30.3512 0.0000 19.5520 0.0000
# 2 39.7054 132.8020 62.3029 0.0000 32.8715 0.0000
# 3 30.3512 62.3029 84.3972 0.0000 37.1122 0.0000
# 4 0.0000 0.0000 0.0000 12.8894 0.0000 -0.0713
# 5 19.5520 32.8715 37.1122 0.0000 41.9400 0.0000
# 6 0.0000 0.0000 0.0000 -0.0713 0.0000 30.4596
#
#
#
# Elastic Compliance Matrix: (Units=1/GPa)
#
#
# Indices 1 2 3 4 5 6 
#
# 1 0.024304 -0.004533 -0.003231 0.000000 -0.004918 0.000000
# 2 -0.004533 0.012522 -0.006920 0.000000 -0.001578 0.000000
# 3 -0.003231 -0.006920 0.024672 0.000000 -0.014902 0.000000
# 4 0.000000 0.000000 0.000000 0.077584 0.000000 0.000182
# 5 -0.004918 -0.001578 -0.014902 0.000000 0.040560 0.000000
# 6 0.000000 0.000000 0.000000 0.000182 0.000000 0.032831
#
#
# Mechanical properties :
#
#
# Convention : Reuss Voigt Hill
#
# Bulk Modulus (GPa) = 31.12405 59.82903 45.47654
# Shear Modulus (GPa) = 19.79792 26.48333 23.14062
#
# Velocity S-wave (km/s) = 2.97639 3.44244 3.21786
# Velocity P-wave (km/s) = 5.07334 6.52472 5.84426
#
# Compressibility (1/GPa) = 0.03212949
#
# Stress axis : x y z
#
# Youngs Moduli (GPa) = 41.14561 79.85682 40.53171
#
# Poissons Ratio (x) = 0.36201 0.13096
# Poissons Ratio (y) = 0.18652 0.28048
# Poissons Ratio (z) = 0.13295 0.55261
#
# Static dielectric constant tensor:
#      x y z
#    x 1.947800 0.000000 0.024210 
#    y 0.000000 1.875660 0.000000 
#    z 0.024210 0.000000 1.932470 
# 
# From -- ./inp_files/62878.got.cif
#   From: 2010.05.17/outbox.cif.g08.bks.cpg/sg13_32_cif.got.tgz:62878.got - 2010.06.03 16:44:36.
