data_PCOD9226661
_publ_section_title
;
Structure prediction by ZEFSAII (Michael W. Deem and Ramdas Pophale) SiO2 
 PCOD9226661
Probable space group: P 2/C
;
_chemical_formula_sum "Si O2"
_cell_formula_units_Z 24
_cell_length_a 23.063386
_cell_length_b 9.507959
_cell_length_c 17.675903
_cell_angle_alpha 90.000000
_cell_angle_beta 20.073750
_cell_angle_gamma 90.000000
_cell_volume 1330.382354
_symmetry_space_group_name_H-M "P 2/C"
_symmetry_group_IT_number 13
_symmetry_cell_setting 'monoclinic'
loop_
_space_group_symop_operation_xyz
x,y,z
-x,y,1/2-z
-x,-y,-z
x,-y,1/2+z
loop_
_atom_site_type_symbol
_atom_site_label
_atom_site_fract_x
_atom_site_fract_y
_atom_site_fract_z
Si Si1 0.831734 0.596345 0.659560
Si Si2 0.992253 0.335363 0.406805
Si Si3 0.498020 0.535949 0.592954
Si Si4 0.281949 0.882307 0.321839
Si Si5 0.339869 0.696944 0.391124
Si Si6 0.374341 0.191137 0.187891
O O1 0.962328 0.660289 0.559500
O O2 0.737512 0.723480 0.734868
O O3 0.906835 0.489531 0.505147
O O4 0.691464 0.502006 0.876109
O O5 0.868925 0.210688 0.530104
O O6 0.167395 0.326389 0.147635
O O7 0.500000 0.500000 0.500000
O O8 0.383393 0.432237 0.781920
O O9 0.431340 0.694554 0.680836
O O10 0.312128 0.827403 0.369320
O O11 0.273911 0.051051 0.333041
O O12 0.449606 0.848168 0.068087
O O13 0.500000 0.716049 0.250000
#
# Coordination Sequence:
#
# PCOD9226661 Si02
#       6
#     4   4   4   4   4   4
#     4  10  19  38  61  91 114 154 201 258 290 356
#     4  11  22  35  61  91 120 149 206 253 300 352
#     4  10  17  37  62  84 112 153 201 244 291 360
#     4  11  21  35  57  86 116 160 194 239 301 372
#     4  12  22  39  61  87 119 158 201 251 306 357
#     4  10  20  37  59  82 118 157 197 235 302 364
#
# _framework density 18.039928
#
# number of rings (size 3 to 8) (size 9 to 14) (size 15 to 20)
#    0.000    1.333    6.667    1.500    0.000    0.667 
#    0.000    4.167    0.000    0.000    0.000    0.000 
#    0.000    0.000    0.000    0.000    0.000    0.000 
#
# Total GULP energy -133719.573089 kJ/mol
# GULP energy per Si atom -5571.648879 kJ/mol
# Density = 1.799887 g / cm^3
# Si number density = 18.039928 Si / 1000 Ang^3
#
#
#
# Elastic Constant Matrix: (Units=GPa)
#
#
# Indices 1 2 3 4 5 6 
#
# 1 91.3410 62.8122 36.1831 0.0000 -20.1304 0.0000
# 2 62.8122 153.5136 54.5032 0.0000 -12.2402 0.0000
# 3 36.1831 54.5032 115.1732 0.0000 -10.1454 0.0000
# 4 0.0000 0.0000 0.0000 26.8082 0.0000 4.4707
# 5 -20.1304 -12.2402 -10.1454 0.0000 25.4469 0.0000
# 6 0.0000 0.0000 0.0000 4.4707 0.0000 5.1622
#
#
#
# Elastic Compliance Matrix: (Units=1/GPa)
#
#
# Indices 1 2 3 4 5 6 
#
# 1 0.018125 -0.005859 -0.001976 0.000000 0.010732 0.000000
# 2 -0.005859 0.009864 -0.002920 0.000000 -0.001054 0.000000
# 3 -0.001976 -0.002920 0.010803 0.000000 0.001339 0.000000
# 4 0.000000 0.000000 0.000000 0.043599 0.000000 -0.037759
# 5 0.010732 -0.001054 0.001339 0.000000 0.047814 0.000000
# 6 0.000000 0.000000 0.000000 -0.037759 0.000000 0.226418
#
#
# Mechanical properties :
#
#
# Convention : Reuss Voigt Hill
#
# Bulk Modulus (GPa) = 57.86416 74.11385 65.98901
# Shear Modulus (GPa) = 13.02442 25.25209 19.13825
#
# Velocity S-wave (km/s) = 2.68988 3.74543 3.26065
# Velocity P-wave (km/s) = 6.46471 7.73801 7.12984
#
# Compressibility (1/GPa) = 0.01728185
#
# Stress axis : x y z
#
# Youngs Moduli (GPa) = 55.17273 101.37913 92.56406
#
# Poissons Ratio (x) = 0.59395 0.18293
# Poissons Ratio (y) = 0.32324 0.27030
# Poissons Ratio (z) = 0.10904 0.29605
#
# Static dielectric constant tensor:
#      x y z
#    x 1.652620 0.000000 -0.041070 
#    y 0.000000 1.647430 0.000000 
#    z -0.041070 0.000000 1.657010 
# 
# From -- ./inp_files/71233.got.cif
#   From: 2010.05.17/outbox.cif.g08.bks.cpg/sg13_36_cif.got.tgz:71233.got - 2010.06.03 16:44:36.
