data_PCOD9226954
_publ_section_title
;
Structure prediction by ZEFSAII (Michael W. Deem and Ramdas Pophale) SiO2 
 PCOD9226954
Probable space group: P 2/C
;
_chemical_formula_sum "Si O2"
_cell_formula_units_Z 28
_cell_length_a 8.120543
_cell_length_b 9.609217
_cell_length_c 18.549090
_cell_angle_alpha 90.000000
_cell_angle_beta 61.926088
_cell_angle_gamma 90.000000
_cell_volume 1277.121618
_symmetry_space_group_name_H-M "P 2/C"
_symmetry_group_IT_number 13
_symmetry_cell_setting 'monoclinic'
loop_
_space_group_symop_operation_xyz
x,y,z
-x,y,1/2-z
-x,-y,-z
x,-y,1/2+z
loop_
_atom_site_type_symbol
_atom_site_label
_atom_site_fract_x
_atom_site_fract_y
_atom_site_fract_z
Si Si1 0.642352 0.212103 0.892469
Si Si2 0.000000 0.817805 0.250000
Si Si3 0.152955 0.164112 0.399030
Si Si4 0.512878 0.526372 0.150903
Si Si5 0.861890 0.339332 0.636859
Si Si6 0.775403 0.114758 0.529363
Si Si7 0.500000 0.729615 0.750000
Si Si8 0.777191 0.613059 0.498113
O O1 0.619781 0.347728 0.844814
O O2 0.440581 0.142911 0.941935
O O3 0.808115 0.118890 0.822957
O O4 0.700651 0.275198 0.957029
O O5 0.928646 0.729215 0.196530
O O6 0.315289 0.179604 0.305897
O O7 0.174606 0.305320 0.439205
O O8 0.930132 0.139182 0.434717
O O9 0.205691 0.038048 0.441403
O O10 0.667909 0.580680 0.175839
O O11 0.450651 0.376169 0.193715
O O12 0.629102 0.500238 0.052622
O O13 0.833834 0.218977 0.582658
O O14 0.030188 0.437944 0.576104
#
# Coordination Sequence:
#
# PCOD9226954 Si02
#       8
#     4   2   4   4   4   4   2   4
#     4  10  20  33  52  78 106 140 179 224 269 315
#     4  10  20  32  46  76 108 128 172 232 276 308
#     4   9  19  36  56  79 106 141 182 225 269 323
#     4  10  18  32  51  74 104 141 178 217 270 336
#     4   9  18  32  52  76 102 137 178 223 272 321
#     4   9  19  36  58  78 103 144 188 221 262 328
#     4  10  20  32  52  78 106 134 172 224 278 320
#     4   9  18  32  51  78 107 138 178 218 265 325
#
# _framework density 21.924299999999999
#
# number of rings (size 3 to 8) (size 9 to 14) (size 15 to 20)
#    0.000    2.571    0.000    1.714    0.000    4.571 
#    0.000    1.429    0.000    2.571    0.000    1.000 
#    0.000    0.000    0.000    0.000    0.000    0.000 
#
# Total GULP energy -155964.960280 kJ/mol
# GULP energy per Si atom -5570.177153 kJ/mol
# Density = 2.187440 g / cm^3
# Si number density = 21.924300 Si / 1000 Ang^3
#
#
#
# Elastic Constant Matrix: (Units=GPa)
#
#
# Indices 1 2 3 4 5 6 
#
# 1 83.1811 7.0452 45.2833 0.0000 -24.2715 0.0000
# 2 7.0452 48.9594 9.3295 0.0000 -16.3018 0.0000
# 3 45.2833 9.3295 104.1938 0.0000 -48.3040 0.0000
# 4 0.0000 0.0000 0.0000 20.1403 0.0000 -0.3817
# 5 -24.2715 -16.3018 -48.3040 0.0000 51.4892 0.0000
# 6 0.0000 0.0000 0.0000 -0.3817 0.0000 11.5335
#
#
#
# Elastic Compliance Matrix: (Units=1/GPa)
#
#
# Indices 1 2 3 4 5 6 
#
# 1 0.015856 -0.000602 -0.006124 0.000000 0.001539 0.000000
# 2 -0.000602 0.023174 0.002578 0.000000 0.009471 0.000000
# 3 -0.006124 0.002578 0.019587 0.000000 0.016305 0.000000
# 4 0.000000 0.000000 0.000000 0.049683 0.000000 0.001644
# 5 0.001539 0.009471 0.016305 0.000000 0.038442 0.000000
# 6 0.000000 0.000000 0.000000 0.001644 0.000000 0.086758
#
#
# Mechanical properties :
#
#
# Convention : Reuss Voigt Hill
#
# Bulk Modulus (GPa) = 19.87287 39.96117 29.91702
# Shear Modulus (GPa) = 19.33715 28.27770 23.80742
#
# Velocity S-wave (km/s) = 2.97306 3.59526 3.29886
# Velocity P-wave (km/s) = 4.56831 5.95827 5.30897
#
# Compressibility (1/GPa) = 0.05031986
#
# Stress axis : x y z
#
# Youngs Moduli (GPa) = 63.06894 43.15136 51.05437
#
# Poissons Ratio (x) = 0.02600 0.31265
# Poissons Ratio (y) = 0.03799 -0.13160
# Poissons Ratio (z) = 0.38622 -0.11123
#
# Static dielectric constant tensor:
#      x y z
#    x 1.819870 0.000000 -0.046390 
#    y 0.000000 1.788830 0.000000 
#    z -0.046390 0.000000 1.948700 
# 
# From -- ./inp_files/46650.got.cif
#   From: 2010.05.17/outbox.cif.g08.bks.cpg/sg13_24_cif.got.tgz:46650.got - 2010.06.03 16:44:36.
