data_PCOD9226852
_publ_section_title
;
Structure prediction by ZEFSAII (Michael W. Deem and Ramdas Pophale) SiO2 
 PCOD9226852
Probable space group: P 2/C
;
_chemical_formula_sum "Si O2"
_cell_formula_units_Z 26
_cell_length_a 14.464004
_cell_length_b 15.451536
_cell_length_c 9.004958
_cell_angle_alpha 90.000000
_cell_angle_beta 38.429410
_cell_angle_gamma 90.000000
_cell_volume 1250.886577
_symmetry_space_group_name_H-M "P 2/C"
_symmetry_group_IT_number 13
_symmetry_cell_setting 'monoclinic'
loop_
_space_group_symop_operation_xyz
x,y,z
-x,y,1/2-z
-x,-y,-z
x,-y,1/2+z
loop_
_atom_site_type_symbol
_atom_site_label
_atom_site_fract_x
_atom_site_fract_y
_atom_site_fract_z
Si Si1 0.397838 0.548996 0.012891
Si Si2 0.667492 0.269410 0.870710
Si Si3 0.000000 0.540389 0.750000
Si Si4 0.307233 0.252639 0.318891
Si Si5 0.679159 0.903616 0.194706
Si Si6 0.168752 0.588090 0.813108
Si Si7 0.683542 0.078526 0.350329
O O1 0.311974 0.629727 0.193412
O O2 0.292096 0.474737 0.085808
O O3 0.500000 0.582781 0.750000
O O4 0.500000 0.500000 0.000000
O O5 0.724333 0.189564 0.702463
O O6 0.487341 0.258987 0.086081
O O7 0.726926 0.260942 0.963863
O O8 0.938975 0.599556 0.691657
O O9 0.101848 0.471779 0.528784
O O10 0.236507 0.327454 0.305692
O O11 0.261407 0.158948 0.316121
O O12 0.497761 0.912423 0.423969
O O13 0.728253 0.985704 0.229696
O O14 0.729356 0.912498 0.962777
#
# Coordination Sequence:
#
# PCOD9226852 Si02
#       7
#     4   4   2   4   4   4   4
#     4  12  21  34  53  82 112 146 181 231 291 344
#     4  10  18  31  46  76 109 148 172 217 274 341
#     4  10  24  40  58  72 106 154 204 246 288 312
#     4  10  18  32  51  72 108 139 184 223 273 333
#     4   9  17  28  43  67 108 145 184 205 256 330
#     4  11  22  40  56  79 109 150 195 242 281 343
#     4   9  17  28  44  70  99 149 179 217 255 321
#
# _framework density 20.785257000000001
#
# number of rings (size 3 to 8) (size 9 to 14) (size 15 to 20)
#    0.000    1.846    3.077    2.769    0.000    6.154 
#    0.000    0.000    0.000    0.000    0.000    0.000 
#    0.000   41.846    0.000    0.000    0.000    0.000 
#
# Total GULP energy -145001.463568 kJ/mol
# GULP energy per Si atom -5576.979368 kJ/mol
# Density = 2.073795 g / cm^3
# Si number density = 20.785257 Si / 1000 Ang^3
#
#
#
# Elastic Constant Matrix: (Units=GPa)
#
#
# Indices 1 2 3 4 5 6 
#
# 1 124.3201 80.5195 26.8883 0.0000 43.4919 0.0000
# 2 80.5195 186.5339 25.7222 0.0000 37.2766 0.0000
# 3 26.8883 25.7222 29.3002 0.0000 19.5652 0.0000
# 4 0.0000 0.0000 0.0000 16.6015 0.0000 16.5601
# 5 43.4919 37.2766 19.5652 0.0000 27.3146 0.0000
# 6 0.0000 0.0000 0.0000 16.5601 0.0000 31.7905
#
#
#
# Elastic Compliance Matrix: (Units=1/GPa)
#
#
# Indices 1 2 3 4 5 6 
#
# 1 0.019739 -0.003041 0.005312 0.000000 -0.031084 0.000000
# 2 -0.003041 0.007843 -0.000346 0.000000 -0.005613 0.000000
# 3 0.005312 -0.000346 0.066880 0.000000 -0.055891 0.000000
# 4 0.000000 0.000000 0.000000 0.125391 0.000000 -0.065318
# 5 -0.031084 -0.005613 -0.055891 0.000000 0.133799 0.000000
# 6 0.000000 0.000000 0.000000 -0.065318 0.000000 0.065481
#
#
# Mechanical properties :
#
#
# Convention : Reuss Voigt Hill
#
# Bulk Modulus (GPa) = 10.17178 67.37933 38.77556
# Shear Modulus (GPa) = 11.15934 28.94292 20.05113
#
# Velocity S-wave (km/s) = 2.31960 3.73563 3.10930
# Velocity P-wave (km/s) = 3.47540 7.14800 5.62016
#
# Compressibility (1/GPa) = 0.09831119
#
# Stress axis : x y z
#
# Youngs Moduli (GPa) = 50.66097 127.49809 14.95222
#
# Poissons Ratio (x) = 0.38776 -0.07943
# Poissons Ratio (y) = 0.15407 0.00518
# Poissons Ratio (z) = -0.26912 0.04415
#
# Static dielectric constant tensor:
#      x y z
#    x 1.811560 0.000000 -0.063180 
#    y 0.000000 1.789140 0.000000 
#    z -0.063180 0.000000 1.787920 
# 
# From -- ./inp_files/19839.got.cif
#   From: 2010.05.17/outbox.cif.g08.bks.cpg/sg13_10_cif.got.tgz:19839.got - 2010.06.03 16:44:36.
