data_PCOD9226189
_publ_section_title
;
Structure prediction by ZEFSAII (Michael W. Deem and Ramdas Pophale) SiO2 
 PCOD9226189
Probable space group: P 2/C
;
_chemical_formula_sum "Si O2"
_cell_formula_units_Z 28
_cell_length_a 13.492869
_cell_length_b 17.229475
_cell_length_c 5.376142
_cell_angle_alpha 90.000000
_cell_angle_beta 74.227654
_cell_angle_gamma 90.000000
_cell_volume 1202.762318
_symmetry_space_group_name_H-M "P 2/C"
_symmetry_group_IT_number 13
_symmetry_cell_setting 'monoclinic'
loop_
_space_group_symop_operation_xyz
x,y,z
-x,y,1/2-z
-x,-y,-z
x,-y,1/2+z
loop_
_atom_site_type_symbol
_atom_site_label
_atom_site_fract_x
_atom_site_fract_y
_atom_site_fract_z
Si Si1 0.195793 0.620361 0.690006
Si Si2 0.383430 0.966846 0.083763
Si Si3 0.616637 0.550392 0.147652
Si Si4 0.120025 0.202642 0.236110
Si Si5 0.797995 0.778049 0.314448
Si Si6 0.114212 0.607822 0.250865
Si Si7 0.433505 0.784199 0.044238
O O1 0.308114 0.618551 0.491335
O O2 0.148059 0.705653 0.745136
O O3 0.133553 0.577266 0.514412
O O4 0.187809 0.586233 0.970482
O O5 0.400699 0.875057 0.075082
O O6 0.333603 0.001637 0.365405
O O7 0.500000 0.000000 0.000000
O O8 0.500000 0.578586 0.250000
O O9 0.631049 0.509652 0.406234
O O10 0.161469 0.174529 0.474882
O O11 0.000000 0.192233 0.250000
O O12 0.186187 0.176299 0.953717
O O13 0.869610 0.701346 0.238245
O O14 0.680476 0.747856 0.413132
O O15 0.000000 0.590468 0.250000
O O16 0.500000 0.768159 0.250000
O O17 0.500000 0.769357 0.750000
#
# Coordination Sequence:
#
# PCOD9226189 Si02
#       7
#     4   4   4   4   4   4   4
#     4  10  18  32  57  79  95 132 174 207 246 306
#     4  10  16  30  48  67  89 137 179 210 245 294
#     4  10  21  37  55  76 104 135 169 209 249 291
#     4  10  19  36  57  76 103 133 171 220 259 311
#     4  10  20  32  49  78 103 136 174 204 259 315
#     4  10  19  35  56  75 101 131 168 214 255 309
#     4  12  21  32  48  71 111 146 166 213 256 299
#
# _framework density 23.279744999999998
#
# number of rings (size 3 to 8) (size 9 to 14) (size 15 to 20)
#    0.000    1.714    2.857    6.000    0.000    0.000 
#    0.000    8.571    0.000   14.571    0.000    0.000 
#    0.000   19.429    0.000    0.000    0.000    0.000 
#
# Total GULP energy -156190.437951 kJ/mol
# GULP energy per Si atom -5578.229927 kJ/mol
# Density = 2.322676 g / cm^3
# Si number density = 23.279745 Si / 1000 Ang^3
#
#
#
# Elastic Constant Matrix: (Units=GPa)
#
#
# Indices 1 2 3 4 5 6 
#
# 1 90.3379 -10.7099 25.0357 0.0000 -8.5177 0.0000
# 2 -10.7099 36.6374 -0.4668 0.0000 3.1107 0.0000
# 3 25.0357 -0.4668 155.7470 0.0000 25.4723 0.0000
# 4 0.0000 0.0000 0.0000 -98.0759 0.0000 -16.3834
# 5 -8.5177 3.1107 25.4723 0.0000 51.3326 0.0000
# 6 0.0000 0.0000 0.0000 -16.3834 0.0000 7.7373
#
#
#
# Elastic Compliance Matrix: (Units=1/GPa)
#
#
# Indices 1 2 3 4 5 6 
#
# 1 0.012451 0.003344 -0.002499 0.000000 0.003103 0.000000
# 2 0.003344 0.028355 -0.000286 0.000000 -0.001022 0.000000
# 3 -0.002499 -0.000286 0.007495 0.000000 -0.004116 0.000000
# 4 0.000000 0.000000 0.000000 -0.007532 0.000000 -0.015949
# 5 0.003103 -0.001022 -0.004116 0.000000 0.022100 0.000000
# 6 0.000000 0.000000 0.000000 -0.015949 0.000000 0.095473
#
#
# Mechanical properties :
#
#
# Convention : Reuss Voigt Hill
#
# Bulk Modulus (GPa) = 20.23434 34.49338 27.36386
# Shear Modulus (GPa) = 28.78582 10.12304 19.45443
#
# Velocity S-wave (km/s) = 3.52023 2.08755 2.89395
# Velocity P-wave (km/s) = 5.02328 4.54528 4.79025
#
# Compressibility (1/GPa) = 0.04942093
#
# Stress axis : x y z
#
# Youngs Moduli (GPa) = 80.31333 35.26687 133.42655
#
# Poissons Ratio (x) = -0.11795 0.33344
# Poissons Ratio (y) = -0.26860 0.03810
# Poissons Ratio (z) = 0.20071 0.01007
#
# Static dielectric constant tensor:
#      x y z
#    x 1.886160 0.000000 0.065050 
#    y 0.000000 2.178450 0.000000 
#    z 0.065050 0.000000 1.953580 
# 
# From -- ./inp_files/4092.got.cif
#   From: 2010.05.17/outbox.cif.g08.bks.cpg/sg13_3_cif.got.tgz:4092.got - 2010.06.03 16:44:36.
