data_PCOD9226387
_publ_section_title
;
Structure prediction by ZEFSAII (Michael W. Deem and Ramdas Pophale) SiO2 
 PCOD9226387
Probable space group: P 2/C
;
_chemical_formula_sum "Si O2"
_cell_formula_units_Z 32
_cell_length_a 10.719169
_cell_length_b 8.703594
_cell_length_c 20.308790
_cell_angle_alpha 90.000000
_cell_angle_beta 88.574331
_cell_angle_gamma 90.000000
_cell_volume 1894.128033
_symmetry_space_group_name_H-M "P 2/C"
_symmetry_group_IT_number 13
_symmetry_cell_setting 'monoclinic'
loop_
_space_group_symop_operation_xyz
x,y,z
-x,y,1/2-z
-x,-y,-z
x,-y,1/2+z
loop_
_atom_site_type_symbol
_atom_site_label
_atom_site_fract_x
_atom_site_fract_y
_atom_site_fract_z
Si Si1 0.040157 0.045516 0.902787
Si Si2 0.176766 0.754715 0.944800
Si Si3 0.224563 0.175558 0.637508
Si Si4 0.807506 0.251592 0.500943
Si Si5 0.861599 0.224674 0.722779
Si Si6 0.891176 0.549268 0.427895
Si Si7 0.360700 0.029880 0.524914
Si Si8 0.818677 0.456469 0.619657
O O1 0.114237 0.107414 0.837727
O O2 0.895972 0.083810 0.890950
O O3 0.076365 0.870828 0.915600
O O4 0.089476 0.143060 0.964638
O O5 0.219913 0.631721 0.889896
O O6 0.122404 0.647339 0.004206
O O7 0.285173 0.859292 0.975100
O O8 0.218587 0.160496 0.715843
O O9 0.195959 0.353941 0.620262
O O10 0.341528 0.111618 0.595830
O O11 0.853120 0.376843 0.447468
O O12 0.708328 0.133963 0.473695
O O13 0.757035 0.353439 0.562994
O O14 0.803857 0.375387 0.689717
O O15 0.000000 0.258418 0.750000
O O16 0.031587 0.553042 0.398254
O O17 0.500000 0.000000 0.500000
#
# Coordination Sequence:
#
# PCOD9226387 Si02
#       8
#     4   4   4   4   4   4   4   4
#     4   9  17  28  48  74 101 130 156 200 243 306
#     4   9  19  29  48  74 100 126 166 203 250 296
#     4  10  19  30  50  69 104 138 160 199 247 304
#     4   9  17  29  49  73  98 124 159 201 252 297
#     4   9  16  32  44  70 106 134 155 189 247 316
#     4  10  17  26  46  77 103 124 155 192 257 305
#     4  10  22  35  49  72 100 133 172 216 254 286
#     4  10  17  28  49  75 105 126 155 198 247 314
#
# _framework density 16.894317999999998
#
# number of rings (size 3 to 8) (size 9 to 14) (size 15 to 20)
#    0.000    2.500    3.750    1.500    5.250    1.500 
#    0.000    8.750    0.000    6.750    0.000    3.500 
#    0.000    0.000    0.000    0.000    0.000    0.000 
#
# Total GULP energy -178283.836985 kJ/mol
# GULP energy per Si atom -5571.369906 kJ/mol
# Density = 1.685587 g / cm^3
# Si number density = 16.894318 Si / 1000 Ang^3
#
#
#
# Elastic Constant Matrix: (Units=GPa)
#
#
# Indices 1 2 3 4 5 6 
#
# 1 51.2597 24.8082 27.9649 0.0000 -18.6239 0.0000
# 2 24.8082 111.1682 27.5826 0.0000 -4.0803 0.0000
# 3 27.9649 27.5826 86.2548 0.0000 -16.4414 0.0000
# 4 0.0000 0.0000 0.0000 23.7286 0.0000 -1.0494
# 5 -18.6239 -4.0803 -16.4414 0.0000 15.9109 0.0000
# 6 0.0000 0.0000 0.0000 -1.0494 0.0000 12.4003
#
#
#
# Elastic Compliance Matrix: (Units=1/GPa)
#
#
# Indices 1 2 3 4 5 6 
#
# 1 0.039207 -0.006554 -0.002725 0.000000 0.041396 0.000000
# 2 -0.006554 0.010877 -0.002844 0.000000 -0.007821 0.000000
# 3 -0.002725 -0.002844 0.015740 0.000000 0.012346 0.000000
# 4 0.000000 0.000000 0.000000 0.042301 0.000000 0.003580
# 5 0.041396 -0.007821 0.012346 0.000000 0.122056 0.000000
# 6 0.000000 0.000000 0.000000 0.003580 0.000000 0.080946
#
#
# Mechanical properties :
#
#
# Convention : Reuss Voigt Hill
#
# Bulk Modulus (GPa) = 24.05145 45.48824 34.76985
# Shear Modulus (GPa) = 14.31710 21.62976 17.97343
#
# Velocity S-wave (km/s) = 2.91426 3.58201 3.26525
# Velocity P-wave (km/s) = 5.05877 6.64013 5.90265
#
# Compressibility (1/GPa) = 0.04157754
#
# Stress axis : x y z
#
# Youngs Moduli (GPa) = 25.50548 91.94089 63.53347
#
# Poissons Ratio (x) = 0.60258 0.17313
# Poissons Ratio (y) = 0.16716 0.18069
# Poissons Ratio (z) = 0.06950 0.26149
#
# Static dielectric constant tensor:
#      x y z
#    x 1.579780 0.000000 -0.012170 
#    y 0.000000 1.615290 0.000000 
#    z -0.012170 0.000000 1.613960 
# 
# From -- ./inp_files/77816.got.cif
#   From: 2010.05.17/outbox.cif.g08.bks.cpg/sg13_39_cif.got.tgz:77816.got - 2010.06.03 16:44:36.
