data_PCOD9226072
_publ_section_title
;
Structure prediction by ZEFSAII (Michael W. Deem and Ramdas Pophale) SiO2 
 PCOD9226072
Probable space group: P 2/C
;
_chemical_formula_sum "Si O2"
_cell_formula_units_Z 20
_cell_length_a 6.925705
_cell_length_b 15.054761
_cell_length_c 8.307739
_cell_angle_alpha 90.000000
_cell_angle_beta 97.564358
_cell_angle_gamma 90.000000
_cell_volume 858.666980
_symmetry_space_group_name_H-M "P 2/C"
_symmetry_group_IT_number 13
_symmetry_cell_setting 'monoclinic'
loop_
_space_group_symop_operation_xyz
x,y,z
-x,y,1/2-z
-x,-y,-z
x,-y,1/2+z
loop_
_atom_site_type_symbol
_atom_site_label
_atom_site_fract_x
_atom_site_fract_y
_atom_site_fract_z
Si Si1 0.706232 0.127034 0.833049
Si Si2 0.805470 0.684789 0.385769
Si Si3 0.767610 0.602042 0.698172
Si Si4 0.768104 0.403162 0.564275
Si Si5 0.147220 0.031661 0.378084
O O1 0.500000 0.160559 0.750000
O O2 0.846488 0.210932 0.869472
O O3 0.773793 0.051331 0.714873
O O4 0.689196 0.083513 0.008044
O O5 0.705564 0.668119 0.547549
O O6 0.700644 0.653977 0.210287
O O7 0.002716 0.625554 0.417521
O O8 0.742063 0.504149 0.619410
O O9 0.000000 0.615182 0.750000
O O10 0.688928 0.607665 0.873274
O O11 0.000000 0.087710 0.250000
O O12 0.000000 0.000000 0.500000
#
# Coordination Sequence:
#
# PCOD9226072 Si02
#       5
#     4   4   4   4   4
#     4  11  23  42  62  89 130 169 199 253 338 401
#     4  10  20  29  53  83 119 152 209 253 305 369
#     4  10  15  29  48  86 117 157 203 265 314 354
#     4  10  17  28  53  85 119 155 206 269 312 350
#     4   9  21  40  67  92 115 150 211 265 310 370
#
# _framework density 23.291917999999999
#
# number of rings (size 3 to 8) (size 9 to 14) (size 15 to 20)
#    0.000    2.000    4.000    1.800    8.400    2.400 
#    3.600    0.000    0.000    1.200    0.000    0.000 
#    0.000    0.000    0.000    0.000    0.000    0.000 
#
# Total GULP energy -111476.919939 kJ/mol
# GULP energy per Si atom -5573.845997 kJ/mol
# Density = 2.323890 g / cm^3
# Si number density = 23.291918 Si / 1000 Ang^3
#
#
#
# Elastic Constant Matrix: (Units=GPa)
#
#
# Indices 1 2 3 4 5 6 
#
# 1 55.4935 0.0913 25.3338 0.0000 -7.4294 0.0000
# 2 0.0913 113.6978 61.8068 0.0000 -3.8037 0.0000
# 3 25.3338 61.8068 258.7027 0.0000 -3.5760 0.0000
# 4 0.0000 0.0000 0.0000 27.7493 0.0000 -5.9063
# 5 -7.4294 -3.8037 -3.5760 0.0000 28.6568 0.0000
# 6 0.0000 0.0000 0.0000 -5.9063 0.0000 11.1309
#
#
#
# Elastic Compliance Matrix: (Units=1/GPa)
#
#
# Indices 1 2 3 4 5 6 
#
# 1 0.019682 0.001335 -0.002177 0.000000 0.005008 0.000000
# 2 0.001335 0.010230 -0.002556 0.000000 0.001385 0.000000
# 3 -0.002177 -0.002556 0.004685 0.000000 -0.000319 0.000000
# 4 0.000000 0.000000 0.000000 0.040625 0.000000 0.021557
# 5 0.005008 0.001385 -0.000319 0.000000 0.036338 0.000000
# 6 0.000000 0.000000 0.000000 0.021557 0.000000 0.101279
#
#
# Mechanical properties :
#
#
# Convention : Reuss Voigt Hill
#
# Bulk Modulus (GPa) = 35.96879 66.92863 51.44871
# Shear Modulus (GPa) = 21.84349 36.21821 29.03085
#
# Velocity S-wave (km/s) = 3.06570 3.94759 3.53426
# Velocity P-wave (km/s) = 5.29221 7.04095 6.22826
#
# Compressibility (1/GPa) = 0.02780188
#
# Stress axis : x y z
#
# Youngs Moduli (GPa) = 50.80685 97.75400 213.45628
#
# Poissons Ratio (x) = -0.13053 0.46474
# Poissons Ratio (y) = -0.06784 0.54551
# Poissons Ratio (z) = 0.11062 0.24982
#
# Static dielectric constant tensor:
#      x y z
#    x 2.031070 0.000000 -0.014720 
#    y 0.000000 1.857880 0.000000 
#    z -0.014720 0.000000 1.978080 
# 
# From -- ./inp_files/12352.got.cif
#   From: 2010.05.17/outbox.cif.g08.bks.cpg/sg13_7_cif.got.tgz:12352.got - 2010.06.03 16:44:36.
