data_PCOD9226690
_publ_section_title
;
Structure prediction by ZEFSAII (Michael W. Deem and Ramdas Pophale) SiO2 
 PCOD9226690
Probable space group: P 2/C
;
_chemical_formula_sum "Si O2"
_cell_formula_units_Z 28
_cell_length_a 22.568064
_cell_length_b 9.336932
_cell_length_c 7.748072
_cell_angle_alpha 90.000000
_cell_angle_beta 131.863929
_cell_angle_gamma 90.000000
_cell_volume 1215.883792
_symmetry_space_group_name_H-M "P 2/C"
_symmetry_group_IT_number 13
_symmetry_cell_setting 'monoclinic'
loop_
_space_group_symop_operation_xyz
x,y,z
-x,y,1/2-z
-x,-y,-z
x,-y,1/2+z
loop_
_atom_site_type_symbol
_atom_site_label
_atom_site_fract_x
_atom_site_fract_y
_atom_site_fract_z
Si Si1 0.328520 0.875659 0.035556
Si Si2 0.084488 0.766093 0.372659
Si Si3 0.605351 0.480675 0.036283
Si Si4 0.744927 0.833320 0.236657
Si Si5 0.540025 0.306524 0.610098
Si Si6 0.749713 0.331575 0.399360
Si Si7 0.083180 0.936853 0.008972
O O1 0.286944 0.821631 0.131048
O O2 0.422140 0.841130 0.253304
O O3 0.293842 0.788307 0.805055
O O4 0.305875 0.038035 0.950917
O O5 0.160084 0.665861 0.492491
O O6 0.079999 0.860337 0.187947
O O7 0.000000 0.694654 0.250000
O O8 0.095076 0.890940 0.536249
O O9 0.569092 0.639091 0.981899
O O10 0.696614 0.469094 0.262189
O O11 0.592371 0.425692 0.816858
O O12 0.548598 0.356671 0.016892
O O13 0.837233 0.880114 0.426466
O O14 0.744305 0.710867 0.089374
O O15 0.000000 0.909203 0.750000
#
# Coordination Sequence:
#
# PCOD9226690 Si02
#       7
#     4   4   4   4   4   4   4
#     4  11  20  34  55  77 110 150 174 217 273 326
#     4  10  18  27  45  71 102 141 177 217 265 312
#     4   9  19  39  58  83 107 129 185 240 271 317
#     4  11  20  33  51  77 115 147 181 211 272 331
#     4   9  20  36  62  82 104 136 182 235 279 306
#     4  10  21  34  53  77 112 146 175 227 269 326
#     4  10  18  27  44  70 101 141 181 224 254 303
#
# _framework density 23.028517000000001
#
# number of rings (size 3 to 8) (size 9 to 14) (size 15 to 20)
#    0.000    2.000    2.857    2.571    4.000    0.000 
#    0.000    0.714    3.143    0.000    0.000    5.000 
#    0.000    4.571    0.000    0.000    0.000    0.000 
#
# Total GULP energy -156110.629120 kJ/mol
# GULP energy per Si atom -5575.379611 kJ/mol
# Density = 2.297610 g / cm^3
# Si number density = 23.028517 Si / 1000 Ang^3
#
#
#
# Elastic Constant Matrix: (Units=GPa)
#
#
# Indices 1 2 3 4 5 6 
#
# 1 125.9538 23.2245 40.8613 0.0000 17.3685 0.0000
# 2 23.2245 28.1135 24.2868 0.0000 13.2413 0.0000
# 3 40.8613 24.2868 95.2567 0.0000 19.1402 0.0000
# 4 0.0000 0.0000 0.0000 22.1750 0.0000 6.7688
# 5 17.3685 13.2413 19.1402 0.0000 43.0851 0.0000
# 6 0.0000 0.0000 0.0000 6.7688 0.0000 24.0755
#
#
#
# Elastic Compliance Matrix: (Units=1/GPa)
#
#
# Indices 1 2 3 4 5 6 
#
# 1 0.009956 -0.005366 -0.002666 0.000000 -0.001180 0.000000
# 2 -0.005366 0.052546 -0.009097 0.000000 -0.009944 0.000000
# 3 -0.002666 -0.009097 0.014475 0.000000 -0.002560 0.000000
# 4 0.000000 0.000000 0.000000 0.049329 0.000000 -0.013869
# 5 -0.001180 -0.009944 -0.002560 0.000000 0.027879 0.000000
# 6 0.000000 0.000000 0.000000 -0.013869 0.000000 0.045435
#
#
# Mechanical properties :
#
#
# Convention : Reuss Voigt Hill
#
# Bulk Modulus (GPa) = 23.40856 47.34100 35.37478
# Shear Modulus (GPa) = 20.15166 28.59720 24.37443
#
# Velocity S-wave (km/s) = 2.96137 3.52777 3.25691
# Velocity P-wave (km/s) = 4.67762 6.09883 5.43488
#
# Compressibility (1/GPa) = 0.04271941
#
# Stress axis : x y z
#
# Youngs Moduli (GPa) = 100.43785 19.03107 69.08376
#
# Poissons Ratio (x) = 0.10213 0.18415
# Poissons Ratio (y) = 0.53898 0.62846
# Poissons Ratio (z) = 0.26772 0.17313
#
# Static dielectric constant tensor:
#      x y z
#    x 1.951160 0.000000 -0.046830 
#    y 0.000000 1.906100 0.000000 
#    z -0.046830 0.000000 1.937740 
# 
# From -- ./inp_files/24037.got.cif
#   From: 2010.05.17/outbox.cif.g08.bks.cpg/sg13_13_cif.got.tgz:24037.got - 2010.06.03 16:44:36.
