data_PCOD9226168
_publ_section_title
;
Structure prediction by ZEFSAII (Michael W. Deem and Ramdas Pophale) SiO2 
 PCOD9226168
Probable space group: P 2/C
;
_chemical_formula_sum "Si O2"
_cell_formula_units_Z 26
_cell_length_a 14.905080
_cell_length_b 8.615759
_cell_length_c 21.435006
_cell_angle_alpha 90.000000
_cell_angle_beta 31.395366
_cell_angle_gamma 90.000000
_cell_volume 1433.968680
_symmetry_space_group_name_H-M "P 2/C"
_symmetry_group_IT_number 13
_symmetry_cell_setting 'monoclinic'
loop_
_space_group_symop_operation_xyz
x,y,z
-x,y,1/2-z
-x,-y,-z
x,-y,1/2+z
loop_
_atom_site_type_symbol
_atom_site_label
_atom_site_fract_x
_atom_site_fract_y
_atom_site_fract_z
Si Si1 0.500000 0.071763 0.250000
Si Si2 0.377816 0.265049 0.039001
Si Si3 0.500000 0.576183 0.250000
Si Si4 0.000000 0.565346 0.250000
Si Si5 0.075992 0.699284 0.807134
Si Si6 0.637942 0.637983 0.479357
Si Si7 0.696855 0.825204 0.050875
Si Si8 0.349260 0.327519 0.253684
O O1 0.625919 0.969238 0.132181
O O2 0.377445 0.176134 0.278970
O O3 0.550841 0.263130 0.976173
O O4 0.373533 0.172894 0.977799
O O5 0.215767 0.220104 0.178409
O O6 0.363011 0.451055 0.033128
O O7 0.608408 0.679684 0.137977
O O8 0.367171 0.470932 0.290088
O O9 0.027503 0.453363 0.294420
O O10 0.162038 0.670512 0.136894
O O11 0.184547 0.666340 0.805823
O O12 0.901587 0.793120 0.924555
O O13 0.518633 0.663746 0.609410
#
# Coordination Sequence:
#
# PCOD9226168 Si02
#       8
#     2   4   2   2   4   4   4   4
#     4  10  26  38  54  68 116 162 194 218 272 310
#     4   9  16  30  56  87 104 137 165 239 282 328
#     4  10  20  32  56  78 112 150 184 218 280 316
#     4  10  16  28  56 100 110 134 162 244 290 330
#     4  10  18  31  60  83 109 134 185 229 289 314
#     4   9  16  29  56  83 115 127 176 223 293 320
#     4  11  19  36  55  83 108 146 190 232 258 341
#     4  10  20  38  53  79 110 156 180 229 270 334
#
# _framework density 18.131498000000001
#
# number of rings (size 3 to 8) (size 9 to 14) (size 15 to 20)
#    0.000    2.154    4.615    0.923    0.000    1.231 
#    0.000    3.077    6.769    0.000    0.000    0.000 
#    0.000    0.000    0.000    0.000    0.000    0.000 
#
# Total GULP energy -144821.951342 kJ/mol
# GULP energy per Si atom -5570.075052 kJ/mol
# Density = 1.809023 g / cm^3
# Si number density = 18.131498 Si / 1000 Ang^3
#
#
#
# Elastic Constant Matrix: (Units=GPa)
#
#
# Indices 1 2 3 4 5 6 
#
# 1 117.8903 35.3452 34.7596 0.0000 5.7444 0.0000
# 2 35.3452 51.0167 24.9325 0.0000 2.9519 0.0000
# 3 34.7596 24.9325 83.1432 0.0000 -11.1704 0.0000
# 4 0.0000 0.0000 0.0000 16.3697 0.0000 7.3008
# 5 5.7444 2.9519 -11.1704 0.0000 26.2173 0.0000
# 6 0.0000 0.0000 0.0000 7.3008 0.0000 6.5685
#
#
#
# Elastic Compliance Matrix: (Units=1/GPa)
#
#
# Indices 1 2 3 4 5 6 
#
# 1 0.011475 -0.006093 -0.003411 0.000000 -0.003281 0.000000
# 2 -0.006093 0.027083 -0.006157 0.000000 -0.004338 0.000000
# 3 -0.003411 -0.006157 0.016434 0.000000 0.008443 0.000000
# 4 0.000000 0.000000 0.000000 0.121139 0.000000 -0.134643
# 5 -0.003281 -0.004338 0.008443 0.000000 0.042947 0.000000
# 6 0.000000 0.000000 0.000000 -0.134643 0.000000 0.301895
#
#
# Mechanical properties :
#
#
# Convention : Reuss Voigt Hill
#
# Bulk Modulus (GPa) = 42.24799 49.12497 45.68648
# Shear Modulus (GPa) = 8.92563 20.29862 14.61213
#
# Velocity S-wave (km/s) = 2.22113 3.34956 2.84191
# Velocity P-wave (km/s) = 5.47077 6.48937 6.00172
#
# Compressibility (1/GPa) = 0.02366976
#
# Stress axis : x y z
#
# Youngs Moduli (GPa) = 87.14687 36.92389 60.84933
#
# Poissons Ratio (x) = 0.22498 0.20756
# Poissons Ratio (y) = 0.53099 0.37464
# Poissons Ratio (z) = 0.29726 0.22733
#
# Static dielectric constant tensor:
#      x y z
#    x 1.653880 0.000000 -0.013730 
#    y 0.000000 1.625540 0.000000 
#    z -0.013730 0.000000 1.621170 
# 
# From -- ./inp_files/78231.got.cif
#   From: 2010.05.17/outbox.cif.g08.bks.cpg/sg13_40_cif.got.tgz:78231.got - 2010.06.03 16:44:36.
