data_PCOD9226516
_publ_section_title
;
Structure prediction by ZEFSAII (Michael W. Deem and Ramdas Pophale) SiO2 
 PCOD9226516
Probable space group: P 2/C
;
_chemical_formula_sum "Si O2"
_cell_formula_units_Z 28
_cell_length_a 20.836586
_cell_length_b 12.538524
_cell_length_c 11.639764
_cell_angle_alpha 90.000000
_cell_angle_beta 23.154458
_cell_angle_gamma 90.000000
_cell_volume 1195.757288
_symmetry_space_group_name_H-M "P 2/C"
_symmetry_group_IT_number 13
_symmetry_cell_setting 'monoclinic'
loop_
_space_group_symop_operation_xyz
x,y,z
-x,y,1/2-z
-x,-y,-z
x,-y,1/2+z
loop_
_atom_site_type_symbol
_atom_site_label
_atom_site_fract_x
_atom_site_fract_y
_atom_site_fract_z
Si Si1 0.239625 0.816492 0.854679
Si Si2 0.500000 0.739613 0.750000
Si Si3 0.344033 1.000000 0.837340
Si Si4 0.319835 0.379541 0.355730
Si Si5 0.680165 0.620459 0.144270
Si Si6 0.500000 0.739613 0.250000
Si Si7 0.239625 0.183508 0.854679
Si Si8 0.134710 1.000000 0.375485
O O1 0.261104 0.891922 0.929246
O O2 0.212260 0.699862 0.954007
O O3 0.405617 0.803183 0.505326
O O4 0.127671 0.889878 0.957685
O O5 0.637436 0.669681 0.589675
O O6 0.594383 0.803183 0.494674
O O7 0.500000 0.000000 0.500000
O O8 0.261104 0.108078 0.929246
O O9 0.314030 0.000000 0.021116
O O10 0.257285 0.500000 0.466004
O O11 0.500000 0.383380 1.000000
O O12 0.637436 0.669681 0.089675
O O13 0.787740 0.699862 0.045993
O O14 0.127670 0.110122 0.957685
O O15 0.000000 0.000000 0.500000
#
# Coordination Sequence:
#
# PCOD9226516 Si02
#       8
#     4   2   4   4   4   2   4   4
#     4  10  20  32  52  78 109 144 183 228 274 325
#     4  10  17  31  52  82 114 143 177 222 278 334
#     4  11  20  35  56  82 111 139 178 230 283 331
#     4   9  17  29  48  78 113 146 180 222 275 332
#     4   9  17  29  48  78 113 146 180 222 275 332
#     4  10  17  31  52  82 114 143 177 222 278 334
#     4  10  20  32  52  78 109 144 183 228 274 325
#     4  11  24  39  56  79 109 150 193 230 273 326
#
# _framework density 23.416122000000001
#
# number of rings (size 3 to 8) (size 9 to 14) (size 15 to 20)
#    0.000    2.000    0.000    6.429    0.000    5.714 
#    0.000    0.000    0.000    0.857    0.000    8.000 
#    0.000    0.000    0.000    0.000    0.000    0.000 
#
# Total GULP energy -156115.033221 kJ/mol
# GULP energy per Si atom -5575.536901 kJ/mol
# Density = 2.336283 g / cm^3
# Si number density = 23.416122 Si / 1000 Ang^3
#
#
#
# Elastic Constant Matrix: (Units=GPa)
#
#
# Indices 1 2 3 4 5 6 
#
# 1 120.5125 93.3040 13.5849 0.0000 -1.8981 0.0000
# 2 93.3040 214.2533 16.9289 0.0000 -6.2017 0.0000
# 3 13.5849 16.9289 74.9608 0.0000 17.2192 0.0000
# 4 0.0000 0.0000 0.0000 -8.0600 0.0000 28.4161
# 5 -1.8981 -6.2017 17.2192 0.0000 39.3403 0.0000
# 6 0.0000 0.0000 0.0000 28.4161 0.0000 5.7037
#
#
#
# Elastic Compliance Matrix: (Units=1/GPa)
#
#
# Indices 1 2 3 4 5 6 
#
# 1 0.012604 -0.005393 -0.001124 0.000000 0.000250 0.000000
# 2 -0.005393 0.007125 -0.000923 0.000000 0.001267 0.000000
# 3 -0.001124 -0.000923 0.015341 0.000000 -0.006914 0.000000
# 4 0.000000 0.000000 0.000000 -0.006683 0.000000 0.033296
# 5 0.000250 0.001267 -0.006914 0.000000 0.028657 0.000000
# 6 0.000000 0.000000 0.000000 0.033296 0.000000 0.009444
#
#
# Mechanical properties :
#
#
# Convention : Reuss Voigt Hill
#
# Bulk Modulus (GPa) = 49.52654 73.04024 61.28339
# Shear Modulus (GPa) = 56.75574 26.45740 41.60657
#
# Velocity S-wave (km/s) = 4.92854 3.36501 4.21982
# Velocity P-wave (km/s) = 7.32010 6.80865 7.06900
#
# Compressibility (1/GPa) = 0.02019119
#
# Stress axis : x y z
#
# Youngs Moduli (GPa) = 79.34205 140.34293 65.18636
#
# Poissons Ratio (x) = 0.75683 0.07325
# Poissons Ratio (y) = 0.42787 0.06016
# Poissons Ratio (z) = 0.08915 0.12953
#
# Static dielectric constant tensor:
#      x y z
#    x 1.938220 0.000000 -0.079290 
#    y 0.000000 1.893200 0.000000 
#    z -0.079290 0.000000 1.985230 
# 
# From -- ./inp_files/40792.got.cif
#   From: 2010.05.17/outbox.cif.g08.bks.cpg/sg13_21_cif.got.tgz:40792.got - 2010.06.03 16:44:36.
