data_PCOD9226947
_publ_section_title
;
Structure prediction by ZEFSAII (Michael W. Deem and Ramdas Pophale) SiO2 
 PCOD9226947
Probable space group: P 2/C
;
_chemical_formula_sum "Si O2"
_cell_formula_units_Z 32
_cell_length_a 9.481499
_cell_length_b 6.578589
_cell_length_c 23.872481
_cell_angle_alpha 90.000000
_cell_angle_beta 102.286660
_cell_angle_gamma 90.000000
_cell_volume 1454.936941
_symmetry_space_group_name_H-M "P 2/C"
_symmetry_group_IT_number 13
_symmetry_cell_setting 'monoclinic'
loop_
_space_group_symop_operation_xyz
x,y,z
-x,y,1/2-z
-x,-y,-z
x,-y,1/2+z
loop_
_atom_site_type_symbol
_atom_site_label
_atom_site_fract_x
_atom_site_fract_y
_atom_site_fract_z
Si Si1 0.934449 0.210051 0.148804
Si Si2 0.275753 0.951786 0.449908
Si Si3 0.112153 0.187501 0.515999
Si Si4 0.287324 0.294607 0.287546
Si Si5 0.076308 0.569448 0.428367
Si Si6 0.649123 0.273039 0.732591
Si Si7 0.478272 0.028656 0.371889
Si Si8 0.745102 0.945315 0.821784
O O1 0.096235 0.135630 0.154692
O O2 0.860409 0.194230 0.203036
O O3 0.925587 0.446369 0.129459
O O4 0.835342 0.069266 0.100966
O O5 0.211545 0.723112 0.448286
O O6 0.256990 0.078354 0.506016
O O7 0.425897 0.974678 0.429607
O O8 0.085899 0.378506 0.472121
O O9 0.066812 0.294839 0.570612
O O10 0.000000 0.000000 0.500000
O O11 0.269793 0.532202 0.281671
O O12 0.406429 0.239392 0.344427
O O13 0.326068 0.207484 0.229937
O O14 0.500000 0.336301 0.750000
O O15 0.599937 0.130352 0.677114
O O16 0.739902 0.153144 0.786557
O O17 0.644587 0.036285 0.367613
#
# Coordination Sequence:
#
# PCOD9226947 Si02
#       8
#     4   4   4   4   4   4   4   4
#     4  10  20  30  44  69  98 124 156 196 244 293
#     4   9  17  30  48  71  94 121 156 194 233 284
#     4   8  15  28  49  76  98 118 150 194 240 285
#     4  10  18  32  49  66  90 126 169 208 241 280
#     4   9  16  29  49  73  98 122 152 195 242 285
#     4   9  17  30  48  65  85 122 167 204 239 282
#     4   9  18  31  48  67  92 123 162 204 239 280
#     4  10  20  32  44  66  96 127 159 198 245 288
#
# _framework density 21.994081999999999
#
# number of rings (size 3 to 8) (size 9 to 14) (size 15 to 20)
#    0.000    2.750    0.000    3.000    0.000    1.000 
#    0.000    3.750    0.000    0.750    0.000   29.750 
#    0.000    0.000    0.000    0.000    0.000    0.000 
#
# Total GULP energy -178325.773405 kJ/mol
# GULP energy per Si atom -5572.680419 kJ/mol
# Density = 2.194402 g / cm^3
# Si number density = 21.994082 Si / 1000 Ang^3
#
#
#
# Elastic Constant Matrix: (Units=GPa)
#
#
# Indices 1 2 3 4 5 6 
#
# 1 113.4496 47.6560 41.6600 0.0000 -32.3772 0.0000
# 2 47.6560 117.8569 21.8352 0.0000 -12.4091 0.0000
# 3 41.6600 21.8352 69.0955 0.0000 -30.0115 0.0000
# 4 0.0000 0.0000 0.0000 16.3031 0.0000 -15.5108
# 5 -32.3772 -12.4091 -30.0115 0.0000 39.4876 0.0000
# 6 0.0000 0.0000 0.0000 -15.5108 0.0000 13.6184
#
#
#
# Elastic Compliance Matrix: (Units=1/GPa)
#
#
# Indices 1 2 3 4 5 6 
#
# 1 0.014118 -0.004200 -0.004076 0.000000 0.007158 0.000000
# 2 -0.004200 0.010288 -0.001210 0.000000 -0.001130 0.000000
# 3 -0.004076 -0.001210 0.023431 0.000000 0.014086 0.000000
# 4 0.000000 0.000000 0.000000 -0.733673 0.000000 -0.835621
# 5 0.007158 -0.001130 0.014086 0.000000 0.041544 0.000000
# 6 0.000000 0.000000 0.000000 -0.835621 0.000000 -0.878305
#
#
# Mechanical properties :
#
#
# Convention : Reuss Voigt Hill
#
# Bulk Modulus (GPa) = 34.64295 58.07829 46.36062
# Shear Modulus (GPa) = -3.34671 26.49855 11.57592
#
# Velocity S-wave (km/s) = -1.23489 3.47479 2.29665
# Velocity P-wave (km/s) = 3.70836 6.52400 5.30634
#
# Compressibility (1/GPa) = 0.02886590
#
# Stress axis : x y z
#
# Youngs Moduli (GPa) = 70.82940 97.19769 42.67928
#
# Poissons Ratio (x) = 0.40823 0.17396
# Poissons Ratio (y) = 0.29748 0.05163
# Poissons Ratio (z) = 0.28870 0.11759
#
# Static dielectric constant tensor:
#      x y z
#    x 1.890290 0.000000 -0.047310 
#    y 0.000000 1.799920 0.000000 
#    z -0.047310 0.000000 1.867070 
# 
# From -- ./inp_files/95661.got.cif
#   From: 2010.05.17/outbox.cif.g08.bks.cpg/sg13_48_cif.got.tgz:95661.got - 2010.06.03 16:44:36.
