data_PCOD9226119
_publ_section_title
;
Structure prediction by ZEFSAII (Michael W. Deem and Ramdas Pophale) SiO2 
 PCOD9226119
Probable space group: P 2/C
;
_chemical_formula_sum "Si O2"
_cell_formula_units_Z 24
_cell_length_a 30.403445
_cell_length_b 7.009159
_cell_length_c 5.307845
_cell_angle_alpha 90.000000
_cell_angle_beta 74.961360
_cell_angle_gamma 90.000000
_cell_volume 1092.375959
_symmetry_space_group_name_H-M "P 2/C"
_symmetry_group_IT_number 13
_symmetry_cell_setting 'monoclinic'
loop_
_space_group_symop_operation_xyz
x,y,z
-x,y,1/2-z
-x,-y,-z
x,-y,1/2+z
loop_
_atom_site_type_symbol
_atom_site_label
_atom_site_fract_x
_atom_site_fract_y
_atom_site_fract_z
Si Si1 0.626136 0.217557 0.912820
Si Si2 0.856176 0.372835 0.907621
Si Si3 0.243545 0.369516 0.405807
Si Si4 0.662664 0.787270 0.858156
Si Si5 0.479890 0.215465 0.529787
Si Si6 0.951787 0.628090 0.372442
O O1 0.656554 0.302205 0.643456
O O2 0.644970 0.002414 0.922804
O O3 0.631280 0.300299 0.184839
O O4 0.574329 0.212025 0.900649
O O5 0.856894 0.461882 0.624799
O O6 0.806975 0.722863 0.519102
O O7 0.903889 0.266992 0.890689
O O8 0.246705 0.487962 0.661256
O O9 0.285783 0.227723 0.312820
O O10 0.500000 0.303393 0.250000
O O11 0.500000 0.000000 0.500000
O O12 0.500000 0.302202 0.750000
O O13 0.951727 0.538816 0.654571
O O14 0.000000 0.730366 0.250000
#
# Coordination Sequence:
#
# PCOD9226119 Si02
#       6
#     4   4   4   4   4   4
#     4  10  19  30  45  67  90 108 128 162 209 247
#     4   8  14  23  34  49  71  98 130 165 195 228
#     4  10  19  30  43  60  82 112 147 174 197 230
#     4  10  18  30  44  60  87 113 135 167 203 241
#     4  10  16  25  41  63  91 104 117 151 198 260
#     4   8  12  18  29  45  65  91 122 155 194 236
#
# _framework density 21.970455999999999
#
# number of rings (size 3 to 8) (size 9 to 14) (size 15 to 20)
#    0.000    2.667    0.000    6.000    0.000    0.000 
#    0.000    0.000    0.000    0.000    0.000    0.000 
#    0.000  162.667    0.000    6.000    0.000    8.667 
#
# Total GULP energy -133684.845566 kJ/mol
# GULP energy per Si atom -5570.201899 kJ/mol
# Density = 2.192045 g / cm^3
# Si number density = 21.970456 Si / 1000 Ang^3
#
#
#
# Elastic Constant Matrix: (Units=GPa)
#
#
# Indices 1 2 3 4 5 6 
#
# 1 170.1422 -4.2248 -5.8506 0.0000 -16.8097 0.0000
# 2 -4.2248 50.3920 -6.1586 0.0000 -0.3187 0.0000
# 3 -5.8506 -6.1586 166.9015 0.0000 13.1969 0.0000
# 4 0.0000 0.0000 0.0000 -3.1520 0.0000 -11.1032
# 5 -16.8097 -0.3187 13.1969 0.0000 40.2515 0.0000
# 6 0.0000 0.0000 0.0000 -11.1032 0.0000 9.6416
#
#
#
# Elastic Compliance Matrix: (Units=1/GPa)
#
#
# Indices 1 2 3 4 5 6 
#
# 1 0.006145 0.000535 0.000033 0.000000 0.002560 0.000000
# 2 0.000535 0.019981 0.000745 0.000000 0.000137 0.000000
# 3 0.000033 0.000745 0.006179 0.000000 -0.002006 0.000000
# 4 0.000000 0.000000 0.000000 -0.062742 0.000000 -0.072253
# 5 0.002560 0.000137 -0.002006 0.000000 0.026572 0.000000
# 6 0.000000 0.000000 0.000000 -0.072253 0.000000 0.020511
#
#
# Mechanical properties :
#
#
# Convention : Reuss Voigt Hill
#
# Bulk Modulus (GPa) = 28.62747 39.44084 34.03416
# Shear Modulus (GPa) = 194.83444 36.25955 115.54700
#
# Velocity S-wave (km/s) = 9.42723 4.06689 7.25990
# Velocity P-wave (km/s) = 11.46975 6.32800 9.26280
#
# Compressibility (1/GPa) = 0.03493148
#
# Stress axis : x y z
#
# Youngs Moduli (GPa) = 162.74068 50.04693 161.84276
#
# Poissons Ratio (x) = -0.02679 -0.00530
# Poissons Ratio (y) = -0.08712 -0.12061
# Poissons Ratio (z) = -0.00533 -0.03730
#
# Static dielectric constant tensor:
#      x y z
#    x 1.860460 0.000000 0.004040 
#    y 0.000000 1.152260 0.000000 
#    z 0.004040 0.000000 1.885970 
# 
# From -- ./inp_files/7749.got.cif
#   From: 2010.05.17/outbox.cif.g08.bks.cpg/sg13_4_cif.got.tgz:7749.got - 2010.06.03 16:44:36.
