data_PCOD9226284
_publ_section_title
;
Structure prediction by ZEFSAII (Michael W. Deem and Ramdas Pophale) SiO2 
 PCOD9226284
Probable space group: P 2/C
;
_chemical_formula_sum "Si O2"
_cell_formula_units_Z 26
_cell_length_a 12.453219
_cell_length_b 6.833569
_cell_length_c 14.817255
_cell_angle_alpha 90.000000
_cell_angle_beta 117.973589
_cell_angle_gamma 90.000000
_cell_volume 1113.623216
_symmetry_space_group_name_H-M "P 2/C"
_symmetry_group_IT_number 13
_symmetry_cell_setting 'monoclinic'
loop_
_space_group_symop_operation_xyz
x,y,z
-x,y,1/2-z
-x,-y,-z
x,-y,1/2+z
loop_
_atom_site_type_symbol
_atom_site_label
_atom_site_fract_x
_atom_site_fract_y
_atom_site_fract_z
Si Si1 0.918023 0.771175 0.347182
Si Si2 0.760338 0.992640 0.418700
Si Si3 0.187629 0.841810 0.382856
Si Si4 0.575457 0.358966 0.152292
Si Si5 0.669669 0.461211 0.011804
Si Si6 0.500000 0.015051 0.250000
Si Si7 0.771531 0.547664 0.870134
O O1 0.842515 0.867106 0.234148
O O2 0.879603 0.548370 0.355302
O O3 0.057498 0.781896 0.374977
O O4 0.873450 0.888826 0.416365
O O5 0.764907 0.994869 0.529022
O O6 0.629479 0.920365 0.327969
O O7 0.774151 0.222941 0.395956
O O8 0.281021 0.663342 0.425997
O O9 0.652142 0.325418 0.091564
O O10 0.528373 0.157961 0.176639
O O11 0.655257 0.464916 0.259325
O O12 0.462151 0.493608 0.081638
O O13 0.754034 0.432665 0.957650
#
# Coordination Sequence:
#
# PCOD9226284 Si02
#       7
#     4   4   4   4   4   2   4
#     4  11  23  41  62  91 122 161 213 251 306 371
#     4  10  22  42  59  88 123 164 198 261 312 360
#     4  10  21  41  63  87 126 162 202 266 303 361
#     4  10  16  32  58  86 120 156 190 248 304 362
#     4  10  18  31  60  89 115 159 200 239 317 355
#     4  10  18  38  58  82 130 156 200 258 308 356
#     4  10  20  38  62  88 120 159 201 254 306 368
#
# _framework density 23.347213
#
# number of rings (size 3 to 8) (size 9 to 14) (size 15 to 20)
#    0.000    1.846    6.154    0.462    0.000    2.462 
#    8.308    3.846    0.000    0.000    0.000    0.000 
#    0.000    0.000    0.000    0.000    0.000    0.000 
#
# Total GULP energy -145159.899194 kJ/mol
# GULP energy per Si atom -5583.073046 kJ/mol
# Density = 2.329407 g / cm^3
# Si number density = 23.347213 Si / 1000 Ang^3
#
#
#
# Elastic Constant Matrix: (Units=GPa)
#
#
# Indices 1 2 3 4 5 6 
#
# 1 71.4485 21.9727 4.0905 0.0000 -20.2224 0.0000
# 2 21.9727 51.0609 7.4953 0.0000 -8.5044 0.0000
# 3 4.0905 7.4953 100.6790 0.0000 -12.1886 0.0000
# 4 0.0000 0.0000 0.0000 6.1820 0.0000 -8.8125
# 5 -20.2224 -8.5044 -12.1886 0.0000 35.9716 0.0000
# 6 0.0000 0.0000 0.0000 -8.8125 0.0000 25.3847
#
#
#
# Elastic Compliance Matrix: (Units=1/GPa)
#
#
# Indices 1 2 3 4 5 6 
#
# 1 0.018568 -0.006588 0.000846 0.000000 0.009168 0.000000
# 2 -0.006588 0.022816 -0.001279 0.000000 0.001258 0.000000
# 3 0.000846 -0.001279 0.010443 0.000000 0.003712 0.000000
# 4 0.000000 0.000000 0.000000 0.320241 0.000000 0.111174
# 5 0.009168 0.001258 0.003712 0.000000 0.034509 0.000000
# 6 0.000000 0.000000 0.000000 0.111174 0.000000 0.077989
#
#
# Mechanical properties :
#
#
# Convention : Reuss Voigt Hill
#
# Bulk Modulus (GPa) = 26.46437 32.25617 29.36027
# Shear Modulus (GPa) = 9.78087 26.14965 17.96526
#
# Velocity S-wave (km/s) = 2.04900 3.35032 2.77696
# Velocity P-wave (km/s) = 4.11796 5.36768 4.78381
#
# Compressibility (1/GPa) = 0.03778666
#
# Stress axis : x y z
#
# Youngs Moduli (GPa) = 53.85493 43.82810 95.76040
#
# Poissons Ratio (x) = 0.28872 -0.08100
# Poissons Ratio (y) = 0.35478 0.12245
# Poissons Ratio (z) = -0.04556 0.05604
#
# Static dielectric constant tensor:
#      x y z
#    x 1.868830 0.000000 -0.011370 
#    y 0.000000 1.912200 0.000000 
#    z -0.011370 0.000000 1.899770 
# 
# From -- ./inp_files/50188.got.cif
#   From: 2010.05.17/outbox.cif.g08.bks.cpg/sg13_26_cif.got.tgz:50188.got - 2010.06.03 16:44:36.
