data_PCOD9226614
_publ_section_title
;
Structure prediction by ZEFSAII (Michael W. Deem and Ramdas Pophale) SiO2 
 PCOD9226614
Probable space group: P 2/C
;
_chemical_formula_sum "Si O2"
_cell_formula_units_Z 24
_cell_length_a 9.168915
_cell_length_b 12.690398
_cell_length_c 24.120307
_cell_angle_alpha 90.000000
_cell_angle_beta 155.472833
_cell_angle_gamma 90.000000
_cell_volume 1165.076791
_symmetry_space_group_name_H-M "P 2/C"
_symmetry_group_IT_number 13
_symmetry_cell_setting 'monoclinic'
loop_
_space_group_symop_operation_xyz
x,y,z
-x,y,1/2-z
-x,-y,-z
x,-y,1/2+z
loop_
_atom_site_type_symbol
_atom_site_label
_atom_site_fract_x
_atom_site_fract_y
_atom_site_fract_z
Si Si1 0.588453 0.516186 0.109821
Si Si2 0.765841 0.174554 0.894532
Si Si3 0.516736 0.614596 0.319095
Si Si4 0.275734 0.674140 0.433249
Si Si5 0.681172 0.897224 0.997763
Si Si6 0.786686 0.062679 0.722234
O O1 0.451472 0.525969 0.124427
O O2 0.577885 0.630043 0.074708
O O3 0.000000 0.487988 0.250000
O O4 0.382316 0.424577 0.008312
O O5 0.500000 0.177125 0.750000
O O6 0.812126 0.296182 0.926150
O O7 0.110489 0.125808 0.987284
O O8 0.562405 0.114286 0.872478
O O9 0.500000 0.578492 0.250000
O O10 0.148630 0.673219 0.208857
O O11 0.404312 0.785703 0.501679
O O12 0.358513 0.967500 0.866050
O O13 0.948093 0.953582 0.133981
O O14 0.000000 0.131110 0.750000
#
# Coordination Sequence:
#
# PCOD9226614 Si02
#       6
#     4   4   4   4   4   4
#     4   9  21  34  57  89 116 152 194 246 306 373
#     4   9  18  36  59  84 112 157 199 245 301 356
#     4  10  17  34  59  85 110 151 202 237 302 368
#     4  10  19  37  59  82 116 158 196 243 310 361
#     4  11  22  40  61  85 124 162 205 252 302 367
#     4  11  23  37  59  91 116 159 207 252 299 355
#
# _framework density 20.599499999999999
#
# number of rings (size 3 to 8) (size 9 to 14) (size 15 to 20)
#    0.000    2.000    5.000    1.000    2.333    1.333 
#    0.000    0.000    0.000    3.000    0.000    0.000 
#    0.000    0.000    0.000    0.000    0.000    0.000 
#
# Total GULP energy -133733.150692 kJ/mol
# GULP energy per Si atom -5572.214612 kJ/mol
# Density = 2.055262 g / cm^3
# Si number density = 20.599500 Si / 1000 Ang^3
#
#
#
# Elastic Constant Matrix: (Units=GPa)
#
#
# Indices 1 2 3 4 5 6 
#
# 1 139.4670 28.7413 25.4710 0.0000 -14.6105 0.0000
# 2 28.7413 79.0009 35.8078 0.0000 -12.9655 0.0000
# 3 25.4710 35.8078 58.3286 0.0000 -7.6002 0.0000
# 4 0.0000 0.0000 0.0000 22.1987 0.0000 -5.3851
# 5 -14.6105 -12.9655 -7.6002 0.0000 26.1497 0.0000
# 6 0.0000 0.0000 0.0000 -5.3851 0.0000 21.0163
#
#
#
# Elastic Compliance Matrix: (Units=1/GPa)
#
#
# Indices 1 2 3 4 5 6 
#
# 1 0.008220 -0.001420 -0.002298 0.000000 0.003221 0.000000
# 2 -0.001420 0.018668 -0.010121 0.000000 0.005521 0.000000
# 3 -0.002298 -0.010121 0.024466 0.000000 0.000809 0.000000
# 4 0.000000 0.000000 0.000000 0.048033 0.000000 0.012308
# 5 0.003221 0.005521 0.000809 0.000000 0.043013 0.000000
# 6 0.000000 0.000000 0.000000 0.012308 0.000000 0.050736
#
#
# Mechanical properties :
#
#
# Convention : Reuss Voigt Hill
#
# Bulk Modulus (GPa) = 42.23632 50.75964 46.49798
# Shear Modulus (GPa) = 21.86203 26.32470 24.09336
#
# Velocity S-wave (km/s) = 3.26128 3.57869 3.42367
# Velocity P-wave (km/s) = 5.89316 6.46303 6.18466
#
# Compressibility (1/GPa) = 0.02367630
#
# Stress axis : x y z
#
# Youngs Moduli (GPa) = 121.65574 53.56695 40.87270
#
# Poissons Ratio (x) = 0.07609 0.09392
# Poissons Ratio (y) = 0.17280 0.41366
# Poissons Ratio (z) = 0.27955 0.54214
#
# Static dielectric constant tensor:
#      x y z
#    x 1.853150 0.000000 0.040270 
#    y 0.000000 1.787450 0.000000 
#    z 0.040270 0.000000 1.792280 
# 
# From -- ./inp_files/85252.got.cif
#   From: 2010.05.17/outbox.cif.g08.bks.cpg/sg13_43_cif.got.tgz:85252.got - 2010.06.03 16:44:36.
