data_PCOD9226431
_publ_section_title
;
Structure prediction by ZEFSAII (Michael W. Deem and Ramdas Pophale) SiO2 
 PCOD9226431
Probable space group: P 2/C
;
_chemical_formula_sum "Si O2"
_cell_formula_units_Z 24
_cell_length_a 17.480062
_cell_length_b 5.418519
_cell_length_c 16.868908
_cell_angle_alpha 90.000000
_cell_angle_beta 142.168181
_cell_angle_gamma 90.000000
_cell_volume 979.977067
_symmetry_space_group_name_H-M "P 2/C"
_symmetry_group_IT_number 13
_symmetry_cell_setting 'monoclinic'
loop_
_space_group_symop_operation_xyz
x,y,z
-x,y,1/2-z
-x,-y,-z
x,-y,1/2+z
loop_
_atom_site_type_symbol
_atom_site_label
_atom_site_fract_x
_atom_site_fract_y
_atom_site_fract_z
Si Si1 0.396415 0.804107 0.443899
Si Si2 0.239569 0.500378 0.523379
Si Si3 0.804629 0.935384 0.789222
Si Si4 0.139393 0.001102 0.400096
Si Si5 0.394519 0.586145 0.797696
Si Si6 0.939979 0.744891 0.516161
O O1 0.462554 0.671095 0.571988
O O2 0.377174 0.613041 0.354713
O O3 0.500000 0.000000 0.500000
O O4 0.270072 0.959835 0.346924
O O5 0.214621 0.748479 0.455374
O O6 0.357290 0.495508 0.679626
O O7 0.124975 0.479787 0.493442
O O8 0.218632 0.254676 0.453720
O O9 0.699440 0.812224 0.758755
O O10 0.912288 0.737772 0.862191
O O11 0.879445 0.169674 0.885234
O O12 0.000000 0.004585 0.250000
O O13 0.105938 0.031764 0.465796
#
# Coordination Sequence:
#
# PCOD9226431 Si02
#       6
#     4   4   4   4   4   4
#     4   9  18  28  45  65 103 138 170 204 240 295
#     4  10  19  33  50  75 100 135 168 206 254 305
#     4  10  17  32  45  75 108 139 162 199 251 316
#     4  10  20  35  51  74 103 131 169 211 252 301
#     4  10  17  29  46  71 103 135 169 204 245 302
#     4   9  20  29  50  74 107 139 161 201 256 310
#
# _framework density 24.490368
#
# number of rings (size 3 to 8) (size 9 to 14) (size 15 to 20)
#    1.000    1.333    3.333    0.500    2.333    2.000 
#    0.000    0.000    0.000    0.000    0.000    1.167 
#    0.000    0.000    0.000    0.000    0.000    0.000 
#
# Total GULP energy -133761.350800 kJ/mol
# GULP energy per Si atom -5573.389617 kJ/mol
# Density = 2.443463 g / cm^3
# Si number density = 24.490368 Si / 1000 Ang^3
#
#
#
# Elastic Constant Matrix: (Units=GPa)
#
#
# Indices 1 2 3 4 5 6 
#
# 1 37.7656 17.8827 22.7967 0.0000 0.1802 0.0000
# 2 17.8827 151.6514 72.4120 0.0000 -16.1769 0.0000
# 3 22.7967 72.4120 218.1446 0.0000 -4.3721 0.0000
# 4 0.0000 0.0000 0.0000 37.5787 0.0000 -3.4025
# 5 0.1802 -16.1769 -4.3721 0.0000 30.5880 0.0000
# 6 0.0000 0.0000 0.0000 -3.4025 0.0000 18.7482
#
#
#
# Elastic Compliance Matrix: (Units=1/GPa)
#
#
# Indices 1 2 3 4 5 6 
#
# 1 0.029041 -0.002560 -0.002222 0.000000 -0.001843 0.000000
# 2 -0.002560 0.008524 -0.002478 0.000000 0.004169 0.000000
# 3 -0.002222 -0.002478 0.005629 0.000000 -0.000493 0.000000
# 4 0.000000 0.000000 0.000000 0.027055 0.000000 0.004910
# 5 -0.001843 0.004169 -0.000493 0.000000 0.034838 0.000000
# 6 0.000000 0.000000 0.000000 0.004910 0.000000 0.054229
#
#
# Mechanical properties :
#
#
# Convention : Reuss Voigt Hill
#
# Bulk Modulus (GPa) = 34.87534 70.41603 52.64569
# Shear Modulus (GPa) = 27.26336 37.01434 32.13885
#
# Velocity S-wave (km/s) = 3.34013 3.89187 3.62651
# Velocity P-wave (km/s) = 5.39876 7.00075 6.25128
#
# Compressibility (1/GPa) = 0.02867355
#
# Stress axis : x y z
#
# Youngs Moduli (GPa) = 34.43350 117.31456 177.64690
#
# Poissons Ratio (x) = 0.30034 0.39474
# Poissons Ratio (y) = 0.08815 0.44029
# Poissons Ratio (z) = 0.07651 0.29076
#
# Static dielectric constant tensor:
#      x y z
#    x 1.986950 0.000000 -0.041840 
#    y 0.000000 1.968330 0.000000 
#    z -0.041840 0.000000 2.031120 
# 
# From -- ./inp_files/76915.got.cif
#   From: 2010.05.17/outbox.cif.g08.bks.cpg/sg13_39_cif.got.tgz:76915.got - 2010.06.03 16:44:36.
