data_PCOD9226473
_publ_section_title
;
Structure prediction by ZEFSAII (Michael W. Deem and Ramdas Pophale) SiO2 
 PCOD9226473
Probable space group: P 2/C
;
_chemical_formula_sum "Si O2"
_cell_formula_units_Z 24
_cell_length_a 10.869100
_cell_length_b 8.729807
_cell_length_c 14.978159
_cell_angle_alpha 90.000000
_cell_angle_beta 40.129719
_cell_angle_gamma 90.000000
_cell_volume 915.995344
_symmetry_space_group_name_H-M "P 2/C"
_symmetry_group_IT_number 13
_symmetry_cell_setting 'monoclinic'
loop_
_space_group_symop_operation_xyz
x,y,z
-x,y,1/2-z
-x,-y,-z
x,-y,1/2+z
loop_
_atom_site_type_symbol
_atom_site_label
_atom_site_fract_x
_atom_site_fract_y
_atom_site_fract_z
Si Si1 0.902909 0.253062 0.717082
Si Si2 0.490348 0.151093 0.378786
Si Si3 0.547264 0.820791 0.052657
Si Si4 0.459524 0.511895 0.915766
Si Si5 0.885356 0.447077 0.149576
Si Si6 0.888177 0.154393 0.072909
O O1 0.687373 0.195514 0.816794
O O2 0.903268 0.438475 0.721617
O O3 0.000000 0.183288 0.750000
O O4 0.036677 0.226997 0.559272
O O5 0.588722 0.163881 0.423890
O O6 0.380473 0.316536 0.440657
O O7 0.661837 0.139494 0.211990
O O8 0.394122 0.982500 0.435643
O O9 0.620022 0.660308 0.056156
O O10 0.660738 0.529842 0.752672
O O11 0.500000 0.500000 0.000000
O O12 0.937414 0.269368 0.126996
O O13 0.000000 0.500000 0.000000
O O14 0.000000 0.000000 0.000000
#
# Coordination Sequence:
#
# PCOD9226473 Si02
#       6
#     4   4   4   4   4   4
#     4  10  19  32  48  70 102 131 162 207 261 306
#     4   9  16  27  47  72  94 122 167 209 240 288
#     4   9  16  28  46  69  96 127 162 204 249 289
#     4   8  14  24  41  66  91 115 152 199 237 273
#     4   8  16  28  45  65  90 124 159 196 236 288
#     4  10  17  30  50  73  98 125 168 209 244 296
#
# _framework density 26.201006
#
# number of rings (size 3 to 8) (size 9 to 14) (size 15 to 20)
#    0.000    3.000    1.667    0.000    0.000    0.000 
#    0.000    1.667    0.000    0.000    0.000    0.000 
#    0.000    0.000    0.000    0.000    0.000    0.000 
#
# Total GULP energy -133666.360425 kJ/mol
# GULP energy per Si atom -5569.431684 kJ/mol
# Density = 2.614137 g / cm^3
# Si number density = 26.201006 Si / 1000 Ang^3
#
#
#
# Elastic Constant Matrix: (Units=GPa)
#
#
# Indices 1 2 3 4 5 6 
#
# 1 60.2662 29.2713 18.3560 0.0000 -13.5858 0.0000
# 2 29.2713 260.7082 19.5974 0.0000 -5.3970 0.0000
# 3 18.3560 19.5974 141.4955 0.0000 -19.9012 0.0000
# 4 0.0000 0.0000 0.0000 46.4803 0.0000 -3.6827
# 5 -13.5858 -5.3970 -19.9012 0.0000 15.7522 0.0000
# 6 0.0000 0.0000 0.0000 -3.6827 0.0000 6.3826
#
#
#
# Elastic Compliance Matrix: (Units=1/GPa)
#
#
# Indices 1 2 3 4 5 6 
#
# 1 0.021641 -0.002058 0.000004 0.000000 0.017965 0.000000
# 2 -0.002058 0.004080 -0.000427 0.000000 -0.000917 0.000000
# 3 0.000004 -0.000427 0.008641 0.000000 0.010775 0.000000
# 4 0.000000 0.000000 0.000000 0.022545 0.000000 0.013009
# 5 0.017965 -0.000917 0.010775 0.000000 0.092277 0.000000
# 6 0.000000 0.000000 0.000000 0.013009 0.000000 0.164183
#
#
# Mechanical properties :
#
#
# Convention : Reuss Voigt Hill
#
# Bulk Modulus (GPa) = 34.01251 66.32436 50.16843
# Shear Modulus (GPa) = 15.23790 40.07270 27.65530
#
# Velocity S-wave (km/s) = 2.41421 3.91504 3.25238
# Velocity P-wave (km/s) = 4.55859 6.76796 5.77001
#
# Compressibility (1/GPa) = 0.02940095
#
# Stress axis : x y z
#
# Youngs Moduli (GPa) = 46.20794 245.10312 115.72160
#
# Poissons Ratio (x) = 0.50448 -0.00051
# Poissons Ratio (y) = 0.09511 0.04941
# Poissons Ratio (z) = -0.00020 0.10466
#
# Static dielectric constant tensor:
#      x y z
#    x 2.067950 0.000000 0.041730 
#    y 0.000000 1.880170 0.000000 
#    z 0.041730 0.000000 1.992530 
# 
# From -- ./inp_files/52877.got.cif
#   From: 2010.05.17/outbox.cif.g08.bks.cpg/sg13_27_cif.got.tgz:52877.got - 2010.06.03 16:44:36.
