data_PCOD9226984
_publ_section_title
;
Structure prediction by ZEFSAII (Michael W. Deem and Ramdas Pophale) SiO2 
 PCOD9226984
Probable space group: P 2/C
;
_chemical_formula_sum "Si O2"
_cell_formula_units_Z 32
_cell_length_a 11.807455
_cell_length_b 10.424940
_cell_length_c 14.943099
_cell_angle_alpha 90.000000
_cell_angle_beta 133.163671
_cell_angle_gamma 90.000000
_cell_volume 1341.645565
_symmetry_space_group_name_H-M "P 2/C"
_symmetry_group_IT_number 13
_symmetry_cell_setting 'monoclinic'
loop_
_space_group_symop_operation_xyz
x,y,z
-x,y,1/2-z
-x,-y,-z
x,-y,1/2+z
loop_
_atom_site_type_symbol
_atom_site_label
_atom_site_fract_x
_atom_site_fract_y
_atom_site_fract_z
Si Si1 0.908183 0.048191 0.102956
Si Si2 0.546778 0.619342 0.149351
Si Si3 0.575329 0.843225 0.632120
Si Si4 0.540901 0.899495 0.413489
Si Si5 0.859671 0.459087 0.860405
Si Si6 0.090530 0.276227 0.206934
Si Si7 0.956739 0.762590 0.123161
Si Si8 0.359437 0.619554 0.510424
O O1 0.935454 0.907406 0.076598
O O2 0.000000 0.045964 0.250000
O O3 0.977268 0.176353 0.093883
O O4 0.723341 0.066604 0.010255
O O5 0.496994 0.762056 0.147940
O O6 0.679307 0.561790 0.285101
O O7 0.401722 0.523965 0.061295
O O8 0.621923 0.619844 0.088314
O O9 0.496590 0.873820 0.493652
O O10 0.749051 0.801565 0.705436
O O11 0.485893 0.719161 0.618425
O O12 0.554888 0.977189 0.672405
O O13 0.864488 0.582435 0.798976
O O14 0.912198 0.321399 0.851863
O O15 0.000000 0.500000 0.000000
O O16 0.000000 0.297847 0.250000
O O17 0.000000 0.776585 0.250000
O O18 0.801923 0.675497 0.041430
#
# Coordination Sequence:
#
# PCOD9226984 Si02
#       8
#     4   4   4   4   4   4   4   4
#     4  10  20  33  57  99 127 151 191 255 318 362
#     4  10  22  34  59  89 120 154 203 245 306 356
#     4  10  18  32  53  90 131 152 183 252 319 360
#     4  10  19  30  55  92 128 151 191 248 316 364
#     4  12  27  44  59  86 125 169 208 250 306 366
#     4  11  22  37  63  92 123 157 203 253 308 359
#     4  11  22  37  63  94 124 154 206 253 307 363
#     4  10  19  34  58  91 119 154 196 253 301 361
#
# _framework density 23.851308
#
# number of rings (size 3 to 8) (size 9 to 14) (size 15 to 20)
#    0.000    1.500    6.250    0.375    3.500    0.000 
#    0.000    1.250    0.000    0.000    0.000    0.000 
#    0.000    0.000    0.000    0.000    0.000    0.000 
#
# Total GULP energy -178547.142500 kJ/mol
# GULP energy per Si atom -5579.598203 kJ/mol
# Density = 2.379702 g / cm^3
# Si number density = 23.851308 Si / 1000 Ang^3
#
#
#
# Elastic Constant Matrix: (Units=GPa)
#
#
# Indices 1 2 3 4 5 6 
#
# 1 39.7137 30.7111 24.2354 0.0000 10.2882 0.0000
# 2 30.7111 196.1525 36.2078 0.0000 10.4325 0.0000
# 3 24.2354 36.2078 67.3873 0.0000 22.3193 0.0000
# 4 0.0000 0.0000 0.0000 33.0410 0.0000 23.8974
# 5 10.2882 10.4325 22.3193 0.0000 32.6796 0.0000
# 6 0.0000 0.0000 0.0000 23.8974 0.0000 15.8542
#
#
#
# Elastic Compliance Matrix: (Units=1/GPa)
#
#
# Indices 1 2 3 4 5 6 
#
# 1 0.034488 -0.003482 -0.009440 0.000000 -0.003299 0.000000
# 2 -0.003482 0.006014 -0.002205 0.000000 0.000682 0.000000
# 3 -0.009440 -0.002205 0.023523 0.000000 -0.012390 0.000000
# 4 0.000000 0.000000 0.000000 -0.335570 0.000000 0.505811
# 5 -0.003299 0.000682 -0.012390 0.000000 0.039883 0.000000
# 6 0.000000 0.000000 0.000000 0.505811 0.000000 -0.699345
#
#
# Mechanical properties :
#
#
# Convention : Reuss Voigt Hill
#
# Bulk Modulus (GPa) = 29.61101 53.95134 41.78118
# Shear Modulus (GPa) = -5.62116 30.45493 12.41688
#
# Velocity S-wave (km/s) = -1.53684 3.57720 2.28413
# Velocity P-wave (km/s) = 3.04838 6.30324 4.95093
#
# Compressibility (1/GPa) = 0.03377122
#
# Stress axis : x y z
#
# Youngs Moduli (GPa) = 28.99554 166.27982 42.51136
#
# Poissons Ratio (x) = 0.57894 0.40131
# Poissons Ratio (y) = 0.10095 0.09374
# Poissons Ratio (z) = 0.27372 0.36668
#
# Static dielectric constant tensor:
#      x y z
#    x 1.940850 0.000000 -0.035220 
#    y 0.000000 1.983690 0.000000 
#    z -0.035220 0.000000 1.964670 
# 
# From -- ./inp_files/79841.got.cif
#   From: 2010.05.17/outbox.cif.g08.bks.cpg/sg13_40_cif.got.tgz:79841.got - 2010.06.03 16:44:36.
