data_PCOD9226942
_publ_section_title
;
Structure prediction by ZEFSAII (Michael W. Deem and Ramdas Pophale) SiO2 
 PCOD9226942
Probable space group: P 2/C
;
_chemical_formula_sum "Si O2"
_cell_formula_units_Z 28
_cell_length_a 8.892338
_cell_length_b 5.321025
_cell_length_c 23.533987
_cell_angle_alpha 90.000000
_cell_angle_beta 63.957096
_cell_angle_gamma 90.000000
_cell_volume 1000.479497
_symmetry_space_group_name_H-M "P 2/C"
_symmetry_group_IT_number 13
_symmetry_cell_setting 'monoclinic'
loop_
_space_group_symop_operation_xyz
x,y,z
-x,y,1/2-z
-x,-y,-z
x,-y,1/2+z
loop_
_atom_site_type_symbol
_atom_site_label
_atom_site_fract_x
_atom_site_fract_y
_atom_site_fract_z
Si Si1 0.199702 0.766199 0.137996
Si Si2 0.000000 0.522121 0.750000
Si Si3 0.006080 0.701104 0.430813
Si Si4 0.745134 0.671802 0.716199
Si Si5 0.192029 0.801463 0.501124
Si Si6 0.500000 0.727137 0.250000
Si Si7 0.389276 0.734822 0.574116
Si Si8 0.545904 0.120902 0.154828
O O1 0.146192 0.661631 0.206999
O O2 0.030026 0.742595 0.129095
O O3 0.325870 0.548409 0.094705
O O4 0.270243 0.044296 0.119572
O O5 0.924936 0.693902 0.713216
O O6 0.931964 0.421301 0.455331
O O7 0.179443 0.744546 0.435950
O O8 0.884498 0.922505 0.475738
O O9 0.678608 0.400894 0.711118
O O10 0.602978 0.726580 0.787786
O O11 0.711416 0.823579 0.664273
O O12 0.360975 0.775451 0.510965
O O13 0.513273 0.856809 0.310167
O O14 0.547539 0.795521 0.588972
#
# Coordination Sequence:
#
# PCOD9226942 Si02
#       8
#     4   2   4   4   4   2   4   4
#     4  10  21  30  47  69 101 127 162 194 240 279
#     4  12  20  34  46  72 100 136 166 194 236 296
#     4   8  14  27  40  65  92 123 145 194 237 287
#     4   9  19  31  45  64  90 127 163 199 238 280
#     4   8  14  24  45  64  92 115 154 187 247 280
#     4   8  16  32  46  60  84 124 162 204 238 270
#     4  10  18  32  48  73  92 128 156 206 236 286
#     4   9  17  31  48  64  88 124 162 205 238 280
#
# _framework density 27.986578999999999
#
# number of rings (size 3 to 8) (size 9 to 14) (size 15 to 20)
#    0.000    3.143    1.429    0.857    2.000    0.571 
#    5.143    0.000    0.000    0.000    0.000    1.000 
#    0.000    1.143    0.000    0.571    0.000    0.000 
#
# Total GULP energy -156132.502240 kJ/mol
# GULP energy per Si atom -5576.160794 kJ/mol
# Density = 2.792288 g / cm^3
# Si number density = 27.986579 Si / 1000 Ang^3
#
#
#
# Elastic Constant Matrix: (Units=GPa)
#
#
# Indices 1 2 3 4 5 6 
#
# 1 134.0056 47.2793 46.8773 0.0000 49.3675 0.0000
# 2 47.2793 111.0262 23.3763 0.0000 -4.8767 0.0000
# 3 46.8773 23.3763 89.6932 0.0000 32.4968 0.0000
# 4 0.0000 0.0000 0.0000 47.4442 0.0000 19.5010
# 5 49.3675 -4.8767 32.4968 0.0000 61.9286 0.0000
# 6 0.0000 0.0000 0.0000 19.5010 0.0000 20.8151
#
#
#
# Elastic Compliance Matrix: (Units=1/GPa)
#
#
# Indices 1 2 3 4 5 6 
#
# 1 0.014331 -0.006174 -0.001933 0.000000 -0.010896 0.000000
# 2 -0.006174 0.012524 -0.002689 0.000000 0.007319 0.000000
# 3 -0.001933 -0.002689 0.015285 0.000000 -0.006691 0.000000
# 4 0.000000 0.000000 0.000000 0.034277 0.000000 -0.032113
# 5 -0.010896 0.007319 -0.006691 0.000000 0.028921 0.000000
# 6 0.000000 0.000000 0.000000 -0.032113 0.000000 0.078127
#
#
# Mechanical properties :
#
#
# Convention : Reuss Voigt Hill
#
# Bulk Modulus (GPa) = 48.66911 63.31010 55.98960
# Shear Modulus (GPa) = 23.59532 40.51707 32.05620
#
# Velocity S-wave (km/s) = 2.90676 3.80904 3.38807
# Velocity P-wave (km/s) = 5.35664 6.48195 5.94598
#
# Compressibility (1/GPa) = 0.02054691
#
# Stress axis : x y z
#
# Youngs Moduli (GPa) = 69.77807 79.84794 65.42572
#
# Poissons Ratio (x) = 0.49301 0.12647
# Poissons Ratio (y) = 0.43084 0.17592
# Poissons Ratio (z) = 0.13488 0.21470
#
# Static dielectric constant tensor:
#      x y z
#    x 2.366290 0.000000 0.234070 
#    y 0.000000 2.295050 0.000000 
#    z 0.234070 0.000000 2.388340 
# 
# From -- ./inp_files/95374.got.cif
#   From: 2010.05.17/outbox.cif.g08.bks.cpg/sg13_48_cif.got.tgz:95374.got - 2010.06.03 16:44:36.
