data_PCOD9226546
_publ_section_title
;
Structure prediction by ZEFSAII (Michael W. Deem and Ramdas Pophale) SiO2 
 PCOD9226546
Probable space group: P 2/C
;
_chemical_formula_sum "Si O2"
_cell_formula_units_Z 30
_cell_length_a 12.305290
_cell_length_b 14.167810
_cell_length_c 11.996644
_cell_angle_alpha 90.000000
_cell_angle_beta 51.969961
_cell_angle_gamma 90.000000
_cell_volume 1647.435819
_symmetry_space_group_name_H-M "P 2/C"
_symmetry_group_IT_number 13
_symmetry_cell_setting 'monoclinic'
loop_
_space_group_symop_operation_xyz
x,y,z
-x,y,1/2-z
-x,-y,-z
x,-y,1/2+z
loop_
_atom_site_type_symbol
_atom_site_label
_atom_site_fract_x
_atom_site_fract_y
_atom_site_fract_z
Si Si1 0.338538 0.520911 0.451944
Si Si2 0.500000 0.192281 0.250000
Si Si3 0.318933 0.149270 0.972596
Si Si4 0.647514 0.810237 0.297516
Si Si5 0.420344 0.387481 0.576068
Si Si6 0.838251 0.321824 0.334679
Si Si7 0.663715 0.361184 0.238796
Si Si8 0.622428 0.050450 0.990202
O O1 0.320823 0.460318 0.577559
O O2 0.488431 0.569690 0.381059
O O3 0.231621 0.606682 0.530894
O O4 0.328731 0.446886 0.355781
O O5 0.625258 0.263211 0.201805
O O6 0.552208 0.123128 0.120085
O O7 0.291037 0.174412 0.862269
O O8 0.481025 0.173142 0.891641
O O9 0.299690 0.037714 0.004138
O O10 0.230081 0.219071 0.104099
O O11 0.657329 0.704720 0.335983
O O12 0.702906 0.885909 0.350604
O O13 0.533993 0.368518 0.407202
O O14 0.793532 0.354049 0.238678
O O15 0.000000 0.319549 0.250000
O O16 0.500000 0.000000 0.000000
#
# Coordination Sequence:
#
# PCOD9226546 Si02
#       8
#     4   2   4   4   4   4   4   4
#     4  10  20  32  54  81 109 151 193 236 288 343
#     4  12  18  32  60  90 126 146 176 242 312 362
#     4  10  20  33  53  81 108 150 191 233 295 343
#     4  10  17  32  53  84 117 141 176 234 308 357
#     4  10  18  33  52  85 120 144 176 236 299 358
#     4  11  25  42  55  75 117 164 205 242 276 341
#     4  11  19  35  58  86 114 149 193 231 299 354
#     4  10  18  30  50  84 120 147 175 230 297 364
#
# _framework density 18.210118000000001
#
# number of rings (size 3 to 8) (size 9 to 14) (size 15 to 20)
#    0.000    1.600    5.333    2.400    0.000    4.800 
#    0.000    0.000    0.000    3.200    0.000    0.933 
#    0.000    0.000    0.000    0.000    0.000    0.000 
#
# Total GULP energy -167207.500743 kJ/mol
# GULP energy per Si atom -5573.583358 kJ/mol
# Density = 1.816867 g / cm^3
# Si number density = 18.210118 Si / 1000 Ang^3
#
#
#
# Elastic Constant Matrix: (Units=GPa)
#
#
# Indices 1 2 3 4 5 6 
#
# 1 65.5860 25.9755 26.5239 0.0000 7.4557 0.0000
# 2 25.9755 143.3262 37.5704 0.0000 13.8447 0.0000
# 3 26.5239 37.5704 52.8144 0.0000 21.8634 0.0000
# 4 0.0000 0.0000 0.0000 31.3346 0.0000 18.7907
# 5 7.4557 13.8447 21.8634 0.0000 25.0950 0.0000
# 6 0.0000 0.0000 0.0000 18.7907 0.0000 19.5978
#
#
#
# Elastic Compliance Matrix: (Units=1/GPa)
#
#
# Indices 1 2 3 4 5 6 
#
# 1 0.019569 -0.001132 -0.010752 0.000000 0.004178 0.000000
# 2 -0.001132 0.008655 -0.005867 0.000000 0.000673 0.000000
# 3 -0.010752 -0.005867 0.040425 0.000000 -0.028788 0.000000
# 4 0.000000 0.000000 0.000000 0.075088 0.000000 -0.071996
# 5 0.004178 0.000673 -0.028788 0.000000 0.063317 0.000000
# 6 0.000000 0.000000 0.000000 -0.071996 0.000000 0.120057
#
#
# Mechanical properties :
#
#
# Convention : Reuss Voigt Hill
#
# Bulk Modulus (GPa) = 30.16873 49.09624 39.63249
# Shear Modulus (GPa) = 13.38110 26.64929 20.01519
#
# Velocity S-wave (km/s) = 2.71369 3.82963 3.31890
# Velocity P-wave (km/s) = 5.14021 6.82454 6.04136
#
# Compressibility (1/GPa) = 0.03314690
#
# Stress axis : x y z
#
# Youngs Moduli (GPa) = 51.10202 115.53793 24.73713
#
# Poissons Ratio (x) = 0.13074 0.26598
# Poissons Ratio (y) = 0.05783 0.14514
# Poissons Ratio (z) = 0.54946 0.67789
#
# Static dielectric constant tensor:
#      x y z
#    x 1.639650 0.000000 0.055080 
#    y 0.000000 1.703810 0.000000 
#    z 0.055080 0.000000 1.653550 
# 
# From -- ./inp_files/34383.got.cif
#   From: 2010.05.17/outbox.cif.g08.bks.cpg/sg13_18_cif.got.tgz:34383.got - 2010.06.03 16:44:36.
