data_PCOD9226898
_publ_section_title
;
Structure prediction by ZEFSAII (Michael W. Deem and Ramdas Pophale) SiO2 
 PCOD9226898
Probable space group: P 2/C
;
_chemical_formula_sum "Si O2"
_cell_formula_units_Z 28
_cell_length_a 18.882750
_cell_length_b 10.329711
_cell_length_c 21.945642
_cell_angle_alpha 90.000000
_cell_angle_beta 158.905422
_cell_angle_gamma 90.000000
_cell_volume 1540.613971
_symmetry_space_group_name_H-M "P 2/C"
_symmetry_group_IT_number 13
_symmetry_cell_setting 'monoclinic'
loop_
_space_group_symop_operation_xyz
x,y,z
-x,y,1/2-z
-x,-y,-z
x,-y,1/2+z
loop_
_atom_site_type_symbol
_atom_site_label
_atom_site_fract_x
_atom_site_fract_y
_atom_site_fract_z
Si Si1 0.866395 0.345759 0.227302
Si Si2 0.428490 0.019588 0.373482
Si Si3 0.785936 0.235013 0.836363
Si Si4 0.486478 0.473061 0.917178
Si Si5 0.716557 0.277728 0.922654
Si Si6 0.783480 0.086590 0.083851
Si Si7 0.220933 0.704651 0.700110
O O1 0.819032 0.208917 0.157416
O O2 0.823365 0.329226 0.264584
O O3 0.099823 0.365129 0.408164
O O4 0.711045 0.449146 0.077042
O O5 0.272372 0.905902 0.234214
O O6 0.613956 0.998632 0.477544
O O7 0.500000 0.000000 0.500000
O O8 0.332903 0.159474 0.288497
O O9 0.630807 0.339874 0.687231
O O10 0.762921 0.235669 0.891040
O O11 0.006962 0.279327 0.998000
O O12 0.359021 0.589219 0.786571
O O13 0.500000 0.500000 0.000000
O O14 0.500000 0.338521 0.750000
O O15 0.715225 0.153299 0.966120
O O16 0.000000 0.024790 0.250000
#
# Coordination Sequence:
#
# PCOD9226898 Si02
#       7
#     4   4   4   4   4   4   4
#     4   9  17  32  53  81 110 146 191 230 275 345
#     4  12  20  35  56  84 118 151 194 244 286 347
#     4  11  21  35  54  85 115 147 197 241 283 337
#     4  10  18  35  54  79 112 149 181 225 289 354
#     4  10  18  31  54  84 110 142 192 249 281 318
#     4  10  19  34  56  82 110 150 195 237 285 337
#     4  10  21  32  53  85 121 148 177 238 301 336
#
# _framework density 18.174572999999999
#
# number of rings (size 3 to 8) (size 9 to 14) (size 15 to 20)
#    0.000    1.714    4.286    1.714    0.000    0.000 
#    0.000    0.000    0.000    4.286   11.143    0.000 
#    0.000    0.000    0.000    0.000    0.000    0.000 
#
# Total GULP energy -156134.814139 kJ/mol
# GULP energy per Si atom -5576.243362 kJ/mol
# Density = 1.813321 g / cm^3
# Si number density = 18.174573 Si / 1000 Ang^3
#
#
#
# Elastic Constant Matrix: (Units=GPa)
#
#
# Indices 1 2 3 4 5 6 
#
# 1 52.0446 0.6362 26.8185 0.0000 14.8502 0.0000
# 2 0.6362 58.6787 33.0759 0.0000 28.8537 0.0000
# 3 26.8185 33.0759 141.4085 0.0000 43.8824 0.0000
# 4 0.0000 0.0000 0.0000 20.2530 0.0000 6.0155
# 5 14.8502 28.8537 43.8824 0.0000 32.4454 0.0000
# 6 0.0000 0.0000 0.0000 6.0155 0.0000 20.1629
#
#
#
# Elastic Compliance Matrix: (Units=1/GPa)
#
#
# Indices 1 2 3 4 5 6 
#
# 1 0.024866 0.009219 -0.001372 0.000000 -0.017724 0.000000
# 2 0.009219 0.034104 0.001716 0.000000 -0.036869 0.000000
# 3 -0.001372 0.001716 0.012424 0.000000 -0.017701 0.000000
# 4 0.000000 0.000000 0.000000 0.054176 0.000000 -0.016163
# 5 -0.017724 -0.036869 -0.017701 0.000000 0.095661 0.000000
# 6 0.000000 0.000000 0.000000 -0.016163 0.000000 0.054418
#
#
# Mechanical properties :
#
#
# Convention : Reuss Voigt Hill
#
# Bulk Modulus (GPa) = 11.04737 41.46590 26.25663
# Shear Modulus (GPa) = 17.44001 27.34567 22.39284
#
# Velocity S-wave (km/s) = 3.10107 3.88314 3.51393
# Velocity P-wave (km/s) = 4.34901 6.55514 5.56254
#
# Compressibility (1/GPa) = 0.09051930
#
# Stress axis : x y z
#
# Youngs Moduli (GPa) = 40.21575 29.32179 80.49215
#
# Poissons Ratio (x) = -0.27032 0.11045
# Poissons Ratio (y) = -0.37075 -0.13811
# Poissons Ratio (z) = 0.05518 -0.05031
#
# Static dielectric constant tensor:
#      x y z
#    x 1.644680 0.000000 0.020490 
#    y 0.000000 1.591630 0.000000 
#    z 0.020490 0.000000 1.693750 
# 
# From -- ./inp_files/82211.got.cif
#   From: 2010.05.17/outbox.cif.g08.bks.cpg/sg13_42_cif.got.tgz:82211.got - 2010.06.03 16:44:36.
