data_PCOD9226425
_publ_section_title
;
Structure prediction by ZEFSAII (Michael W. Deem and Ramdas Pophale) SiO2 
 PCOD9226425
Probable space group: P 2/C
;
_chemical_formula_sum "Si O2"
_cell_formula_units_Z 30
_cell_length_a 12.382271
_cell_length_b 26.085989
_cell_length_c 5.332660
_cell_angle_alpha 90.000000
_cell_angle_beta 94.749395
_cell_angle_gamma 90.000000
_cell_volume 1716.555054
_symmetry_space_group_name_H-M "P 2/C"
_symmetry_group_IT_number 13
_symmetry_cell_setting 'monoclinic'
loop_
_space_group_symop_operation_xyz
x,y,z
-x,y,1/2-z
-x,-y,-z
x,-y,1/2+z
loop_
_atom_site_type_symbol
_atom_site_label
_atom_site_fract_x
_atom_site_fract_y
_atom_site_fract_z
Si Si1 0.756031 0.138014 0.772567
Si Si2 0.000000 0.549486 0.250000
Si Si3 0.371595 0.755689 0.255178
Si Si4 0.746276 0.276229 0.272327
Si Si5 0.883892 0.378063 0.338939
Si Si6 0.126020 0.170119 0.205057
Si Si7 0.792425 0.517873 0.741071
Si Si8 0.629419 0.967917 0.271018
O O1 0.672779 0.185900 0.748632
O O2 0.838789 0.145953 0.555354
O O3 0.693403 0.084656 0.744471
O O4 0.813828 0.142404 0.052742
O O5 0.907638 0.510450 0.333362
O O6 0.075892 0.589416 0.414531
O O7 0.500000 0.754643 0.250000
O O8 0.335975 0.732180 0.513943
O O9 0.313187 0.727675 0.008445
O O10 0.809955 0.328633 0.336230
O O11 0.830315 0.228598 0.293785
O O12 0.818747 0.423182 0.183288
O O13 0.000000 0.362648 0.250000
O O14 0.000000 0.169202 0.250000
O O15 0.735915 0.489701 0.498891
O O16 0.500000 0.957867 0.250000
O O17 0.654349 0.994662 0.541976
#
# Coordination Sequence:
#
# PCOD9226425 Si02
#       8
#     4   2   4   4   4   4   4   4
#     4  10  20  35  60  80 103 145 182 205 258 327
#     4  10  18  30  44  70 104 152 170 198 254 306
#     4  10  21  40  57  75 104 134 175 227 260 310
#     4  10  23  33  53  82 102 134 182 212 267 318
#     4  11  19  30  47  71 112 144 164 208 252 309
#     4  10  20  37  52  77 109 145 183 217 245 300
#     4  10  17  29  43  65  97 143 169 195 244 304
#     4  10  20  34  55  86 115 133 164 226 287 321
#
# _framework density 17.476863999999999
#
# number of rings (size 3 to 8) (size 9 to 14) (size 15 to 20)
#    0.000    1.867    2.000    3.200    1.867    0.000 
#    2.400    4.000    0.000    8.000    0.000    0.000 
#    0.000   42.667    0.000    0.000    0.000    0.000 
#
# Total GULP energy -167060.816298 kJ/mol
# GULP energy per Si atom -5568.693877 kJ/mol
# Density = 1.743709 g / cm^3
# Si number density = 17.476864 Si / 1000 Ang^3
#
#
#
# Elastic Constant Matrix: (Units=GPa)
#
#
# Indices 1 2 3 4 5 6 
#
# 1 74.1735 48.9106 26.0517 0.0000 -17.1786 0.0000
# 2 48.9106 101.0865 34.3489 0.0000 -9.6700 0.0000
# 3 26.0517 34.3489 105.2525 0.0000 -17.5077 0.0000
# 4 0.0000 0.0000 0.0000 10.8111 0.0000 9.9472
# 5 -17.1786 -9.6700 -17.5077 0.0000 19.2559 0.0000
# 6 0.0000 0.0000 0.0000 9.9472 0.0000 -0.4699
#
#
#
# Elastic Compliance Matrix: (Units=1/GPa)
#
#
# Indices 1 2 3 4 5 6 
#
# 1 0.023819 -0.009991 0.000077 0.000000 0.016302 0.000000
# 2 -0.009991 0.015437 -0.003249 0.000000 -0.004116 0.000000
# 3 0.000077 -0.003249 0.012115 0.000000 0.009451 0.000000
# 4 0.000000 0.000000 0.000000 0.004517 0.000000 0.095622
# 5 0.016302 -0.004116 0.009451 0.000000 0.073002 0.000000
# 6 0.000000 0.000000 0.000000 0.095622 0.000000 -0.103926
#
#
# Mechanical properties :
#
#
# Convention : Reuss Voigt Hill
#
# Bulk Modulus (GPa) = 39.93230 55.45943 47.69586
# Shear Modulus (GPa) = 83.83804 17.33284 50.58544
#
# Velocity S-wave (km/s) = 6.93361 3.15264 5.38582
# Velocity P-wave (km/s) = 9.32729 6.71224 8.12565
#
# Compressibility (1/GPa) = 0.02504239
#
# Stress axis : x y z
#
# Youngs Moduli (GPa) = 41.98365 64.77819 82.54525
#
# Poissons Ratio (x) = 0.64722 -0.00633
# Poissons Ratio (y) = 0.41947 0.26823
# Poissons Ratio (z) = -0.00322 0.21050
#
# Static dielectric constant tensor:
#      x y z
#    x 1.565690 0.000000 -0.015830 
#    y 0.000000 1.570040 0.000000 
#    z -0.015830 0.000000 1.719170 
# 
# From -- ./inp_files/4132.got.cif
#   From: 2010.05.17/outbox.cif.g08.bks.cpg/sg13_3_cif.got.tgz:4132.got - 2010.06.03 16:44:36.
