data_PCOD9226115
_publ_section_title
;
Structure prediction by ZEFSAII (Michael W. Deem and Ramdas Pophale) SiO2 
 PCOD9226115
Probable space group: P 2/C
;
_chemical_formula_sum "Si O2"
_cell_formula_units_Z 24
_cell_length_a 14.888955
_cell_length_b 17.195152
_cell_length_c 5.503239
_cell_angle_alpha 90.000000
_cell_angle_beta 96.405595
_cell_angle_gamma 90.000000
_cell_volume 1400.131493
_symmetry_space_group_name_H-M "P 2/C"
_symmetry_group_IT_number 13
_symmetry_cell_setting 'monoclinic'
loop_
_space_group_symop_operation_xyz
x,y,z
-x,y,1/2-z
-x,-y,-z
x,-y,1/2+z
loop_
_atom_site_type_symbol
_atom_site_label
_atom_site_fract_x
_atom_site_fract_y
_atom_site_fract_z
Si Si1 0.902850 0.279741 0.961535
Si Si2 0.893135 0.217161 0.458949
Si Si3 0.324265 0.578769 0.224571
Si Si4 0.112032 0.457386 0.628537
Si Si5 0.104290 0.968227 0.538815
Si Si6 0.394922 0.404556 0.245999
O O1 0.854996 0.249811 0.701781
O O2 0.920999 0.370995 0.940737
O O3 0.856790 0.257678 0.202942
O O4 0.000428 0.238764 0.999906
O O5 0.890390 0.124436 0.444602
O O6 0.221022 0.552383 0.165317
O O7 0.381652 0.498582 0.253547
O O8 0.341809 0.619990 0.486686
O O9 0.354813 0.623060 0.991052
O O10 0.088164 0.512113 0.391410
O O11 0.144961 0.996202 0.296291
O O12 0.000000 0.000000 0.500000
O O13 0.500000 0.386309 0.250000
#
# Coordination Sequence:
#
# PCOD9226115 Si02
#       6
#     4   4   4   4   4   4
#     4  10  20  32  48  56  75 110 128 172 223 246
#     4  10  19  35  44  63  87  98 132 166 207 255
#     4  10  16  27  38  55  77  94 117 164 199 247
#     4  12  21  34  44  57  73 101 146 181 215 246
#     4  10  16  25  46  69  84 102 116 146 200 245
#     4  10  16  25  41  60  76  94 112 146 224 260
#
# _framework density 17.141245999999999
#
# number of rings (size 3 to 8) (size 9 to 14) (size 15 to 20)
#    0.000    1.667    3.333    8.500    0.000    0.000 
#    0.000   10.000    0.000    0.000    0.000    0.000 
#    0.000    0.000    0.000    0.000    0.000    0.000 
#
# Total GULP energy -133819.400439 kJ/mol
# GULP energy per Si atom -5575.808352 kJ/mol
# Density = 1.710223 g / cm^3
# Si number density = 17.141246 Si / 1000 Ang^3
#
#
#
# Elastic Constant Matrix: (Units=GPa)
#
#
# Indices 1 2 3 4 5 6 
#
# 1 21.1735 -2.7405 9.6526 0.0000 -1.0199 0.0000
# 2 -2.7405 112.7686 48.4059 0.0000 -8.3625 0.0000
# 3 9.6526 48.4059 183.0191 0.0000 -32.2434 0.0000
# 4 0.0000 0.0000 0.0000 25.2755 0.0000 3.6353
# 5 -1.0199 -8.3625 -32.2434 0.0000 24.5458 0.0000
# 6 0.0000 0.0000 0.0000 3.6353 0.0000 21.3446
#
#
#
# Elastic Compliance Matrix: (Units=1/GPa)
#
#
# Indices 1 2 3 4 5 6 
#
# 1 0.049118 0.002604 -0.003595 0.000000 -0.001795 0.000000
# 2 0.002604 0.010142 -0.002852 0.000000 -0.000183 0.000000
# 3 -0.003595 -0.002852 0.008080 0.000000 0.009493 0.000000
# 4 0.000000 0.000000 0.000000 0.040558 0.000000 -0.006907
# 5 -0.001795 -0.000183 0.009493 0.000000 0.053074 0.000000
# 6 0.000000 0.000000 0.000000 -0.006907 0.000000 0.048027
#
#
# Mechanical properties :
#
#
# Convention : Reuss Voigt Hill
#
# Bulk Modulus (GPa) = 16.76348 47.51082 32.13715
# Shear Modulus (GPa) = 21.13544 31.67606 26.40575
#
# Velocity S-wave (km/s) = 3.51524 4.30344 3.92915
# Velocity P-wave (km/s) = 5.12609 7.24363 6.27483
#
# Compressibility (1/GPa) = 0.05965348
#
# Stress axis : x y z
#
# Youngs Moduli (GPa) = 20.35897 98.60378 123.75781
#
# Poissons Ratio (x) = -0.25676 0.44497
# Poissons Ratio (y) = -0.05301 0.35294
# Poissons Ratio (z) = 0.07320 0.28120
#
# Static dielectric constant tensor:
#      x y z
#    x 1.584380 0.000000 -0.074070 
#    y 0.000000 1.551830 0.000000 
#    z -0.074070 0.000000 1.579060 
# 
# From -- ./inp_files/6147.got.cif
#   From: 2010.05.17/outbox.cif.g08.bks.cpg/sg13_4_cif.got.tgz:6147.got - 2010.06.03 16:44:36.
