data_PCOD9226674
_publ_section_title
;
Structure prediction by ZEFSAII (Michael W. Deem and Ramdas Pophale) SiO2 
 PCOD9226674
Probable space group: P 2/C
;
_chemical_formula_sum "Si O2"
_cell_formula_units_Z 28
_cell_length_a 15.226092
_cell_length_b 8.719253
_cell_length_c 18.505314
_cell_angle_alpha 90.000000
_cell_angle_beta 34.634896
_cell_angle_gamma 90.000000
_cell_volume 1396.291869
_symmetry_space_group_name_H-M "P 2/C"
_symmetry_group_IT_number 13
_symmetry_cell_setting 'monoclinic'
loop_
_space_group_symop_operation_xyz
x,y,z
-x,y,1/2-z
-x,-y,-z
x,-y,1/2+z
loop_
_atom_site_type_symbol
_atom_site_label
_atom_site_fract_x
_atom_site_fract_y
_atom_site_fract_z
Si Si1 0.500000 0.663961 0.750000
Si Si2 0.324868 0.914524 0.773809
Si Si3 0.127510 0.914527 0.773813
Si Si4 0.344036 0.999997 0.000001
Si Si5 0.682344 0.200051 0.617745
Si Si6 0.917834 0.799947 0.382256
Si Si7 0.000000 0.336036 0.250000
Si Si8 0.790999 0.500002 0.000000
O O1 0.389720 0.774426 0.777304
O O2 0.385210 0.561698 0.876897
O O3 0.189451 0.874070 0.810550
O O4 0.475336 0.970099 0.627047
O O5 0.281125 0.057945 0.854633
O O6 0.270562 0.970106 0.627053
O O7 0.055669 0.774430 0.777307
O O8 0.009603 0.057947 0.854640
O O9 0.304170 0.140422 0.973565
O O10 0.251300 0.859575 0.026433
O O11 0.500000 0.232524 0.750000
O O12 0.783353 0.352496 0.557611
O O13 0.898576 0.647500 0.442389
O O14 0.000000 0.767479 0.250000
O O15 0.860997 0.438299 0.376896
#
# Coordination Sequence:
#
# PCOD9226674 Si02
#       8
#     2   4   4   4   4   4   2   4
#     4  12  24  42  68  94 136 172 226 272 336 400
#     4  11  22  40  67  97 128 176 227 274 322 397
#     4  11  22  40  67  97 128 176 227 274 322 397
#     4  10  17  38  65  94 120 170 223 274 311 388
#     4  10  19  36  64  92 127 162 217 265 329 381
#     4  10  19  36  64  92 127 162 217 265 329 381
#     4  12  24  42  68  94 136 172 226 272 336 400
#     4  12  22  40  68  94 128 186 202 276 344 390
#
# _framework density 20.053114000000001
#
# number of rings (size 3 to 8) (size 9 to 14) (size 15 to 20)
#    0.000    1.143    8.571    0.429    0.000    0.000 
#    0.000   10.000    0.000    0.000    0.000    0.000 
#    0.000    0.000    0.000    0.000    0.000    0.000 
#
# Total GULP energy -156154.735860 kJ/mol
# GULP energy per Si atom -5576.954852 kJ/mol
# Density = 2.000747 g / cm^3
# Si number density = 20.053114 Si / 1000 Ang^3
#
#
#
# Elastic Constant Matrix: (Units=GPa)
#
#
# Indices 1 2 3 4 5 6 
#
# 1 113.7240 45.2813 25.7849 0.0000 3.7066 0.0000
# 2 45.2813 124.7857 54.6967 0.0000 -0.5233 0.0000
# 3 25.7849 54.6967 116.8123 0.0000 -3.8830 0.0000
# 4 0.0000 0.0000 0.0000 52.7616 0.0000 -2.9676
# 5 3.7066 -0.5233 -3.8830 0.0000 10.9023 0.0000
# 6 0.0000 0.0000 0.0000 -2.9676 0.0000 -0.8102
#
#
#
# Elastic Compliance Matrix: (Units=1/GPa)
#
#
# Indices 1 2 3 4 5 6 
#
# 1 0.010490 -0.003460 -0.000829 0.000000 -0.004028 0.000000
# 2 -0.003460 0.011240 -0.004496 0.000000 0.000115 0.000000
# 3 -0.000829 -0.004496 0.010981 0.000000 0.003977 0.000000
# 4 0.000000 0.000000 0.000000 0.015715 0.000000 -0.057565
# 5 -0.004028 0.000115 0.003977 0.000000 0.094515 0.000000
# 6 0.000000 0.000000 0.000000 -0.057565 0.000000 -1.023465
#
#
# Mechanical properties :
#
#
# Convention : Reuss Voigt Hill
#
# Bulk Modulus (GPa) = 66.04315 67.42755 66.73535
# Shear Modulus (GPa) = -5.82814 27.87469 11.02327
#
# Velocity S-wave (km/s) = -1.70665 3.73237 2.34712
# Velocity P-wave (km/s) = 5.39649 7.22991 6.37941
#
# Compressibility (1/GPa) = 0.01514162
#
# Stress axis : x y z
#
# Youngs Moduli (GPa) = 95.32711 88.96560 91.06568
#
# Poissons Ratio (x) = 0.30782 0.07553
# Poissons Ratio (y) = 0.32983 0.40940
# Poissons Ratio (z) = 0.07906 0.39996
#
# Static dielectric constant tensor:
#      x y z
#    x 1.656850 0.000000 -0.007730 
#    y 0.000000 1.754570 0.000000 
#    z -0.007730 0.000000 1.796330 
# 
# From -- ./inp_files/68199.got.cif
#   From: 2010.05.17/outbox.cif.g08.bks.cpg/sg13_35_cif.got.tgz:68199.got - 2010.06.03 16:44:36.
