data_PCOD9226264
_publ_section_title
;
Structure prediction by ZEFSAII (Michael W. Deem and Ramdas Pophale) SiO2 
 PCOD9226264
Probable space group: P 2/C
;
_chemical_formula_sum "Si O2"
_cell_formula_units_Z 26
_cell_length_a 10.780239
_cell_length_b 15.434790
_cell_length_c 8.817989
_cell_angle_alpha 90.000000
_cell_angle_beta 110.361815
_cell_angle_gamma 90.000000
_cell_volume 1375.550281
_symmetry_space_group_name_H-M "P 2/C"
_symmetry_group_IT_number 13
_symmetry_cell_setting 'monoclinic'
loop_
_space_group_symop_operation_xyz
x,y,z
-x,y,1/2-z
-x,-y,-z
x,-y,1/2+z
loop_
_atom_site_type_symbol
_atom_site_label
_atom_site_fract_x
_atom_site_fract_y
_atom_site_fract_z
Si Si1 0.628276 0.619948 0.865840
Si Si2 0.000000 0.166807 0.750000
Si Si3 0.144406 0.961875 0.109776
Si Si4 0.719041 0.475182 0.678597
Si Si5 0.892097 0.724649 0.917844
Si Si6 0.158763 0.115896 0.304826
Si Si7 0.900516 0.424771 0.010956
O O1 0.500000 0.669753 0.750000
O O2 0.643498 0.540221 0.756045
O O3 0.766288 0.669843 0.916517
O O4 0.624140 0.580308 0.031559
O O5 0.885616 0.104951 0.767891
O O6 0.947068 0.220773 0.584212
O O7 0.214905 0.046095 0.209092
O O8 0.205153 0.910799 0.992804
O O9 0.000000 0.000000 0.000000
O O10 0.805157 0.413766 0.825197
O O11 0.815832 0.534459 0.613284
O O12 0.837740 0.788260 0.763170
O O13 0.011157 0.659807 0.922481
O O14 0.000000 0.103128 0.250000
O O15 0.000000 0.500000 0.000000
#
# Coordination Sequence:
#
# PCOD9226264 Si02
#       7
#     4   2   4   4   4   4   4
#     4  11  24  39  54  72 102 147 200 233 257 304
#     4  12  20  30  50  82 110 142 162 216 266 344
#     4  10  16  32  49  72 119 139 164 191 267 342
#     4  10  21  38  57  74 100 147 185 227 279 317
#     4  12  23  30  52  80 112 138 175 215 280 312
#     4  10  18  30  48  77 110 142 164 202 257 342
#     4  11  21  34  54  80 114 137 170 221 285 340
#
# _framework density 18.901527000000002
#
# number of rings (size 3 to 8) (size 9 to 14) (size 15 to 20)
#    0.000    1.231    8.462    1.846    2.154    0.000 
#    0.000    0.000    0.000    0.000    0.000    4.308 
#    0.000    0.000    0.000    0.000    0.000    0.000 
#
# Total GULP energy -144930.334618 kJ/mol
# GULP energy per Si atom -5574.243639 kJ/mol
# Density = 1.885851 g / cm^3
# Si number density = 18.901527 Si / 1000 Ang^3
#
#
#
# Elastic Constant Matrix: (Units=GPa)
#
#
# Indices 1 2 3 4 5 6 
#
# 1 19.5747 1.7319 11.1389 0.0000 3.3940 0.0000
# 2 1.7319 81.2272 27.5718 0.0000 -6.6655 0.0000
# 3 11.1389 27.5718 80.3915 0.0000 -12.7603 0.0000
# 4 0.0000 0.0000 0.0000 23.4084 0.0000 -13.9834
# 5 3.3940 -6.6655 -12.7603 0.0000 28.8898 0.0000
# 6 0.0000 0.0000 0.0000 -13.9834 0.0000 7.4882
#
#
#
# Elastic Compliance Matrix: (Units=1/GPa)
#
#
# Indices 1 2 3 4 5 6 
#
# 1 0.058819 0.001355 -0.010390 0.000000 -0.011187 0.000000
# 2 0.001355 0.014002 -0.004842 0.000000 0.000933 0.000000
# 3 -0.010390 -0.004842 0.016729 0.000000 0.007492 0.000000
# 4 0.000000 0.000000 0.000000 -0.369838 0.000000 -0.690628
# 5 -0.011187 0.000933 0.007492 0.000000 0.039453 0.000000
# 6 0.000000 0.000000 0.000000 -0.690628 0.000000 -1.156123
#
#
# Mechanical properties :
#
#
# Convention : Reuss Voigt Hill
#
# Bulk Modulus (GPa) = 16.18258 29.11985 22.65122
# Shear Modulus (GPa) = -3.70754 21.34069 8.81657
#
# Velocity S-wave (km/s) = -1.40206 3.36377 2.16208
# Velocity P-wave (km/s) = 2.44113 5.52505 4.27114
#
# Compressibility (1/GPa) = 0.06179483
#
# Stress axis : x y z
#
# Youngs Moduli (GPa) = 17.00145 71.41644 59.77766
#
# Poissons Ratio (x) = -0.09675 0.62109
# Poissons Ratio (y) = -0.02303 0.28944
# Poissons Ratio (z) = 0.17665 0.34580
#
# Static dielectric constant tensor:
#      x y z
#    x 1.664580 0.000000 -0.011960 
#    y 0.000000 1.732720 0.000000 
#    z -0.011960 0.000000 1.741880 
# 
# From -- ./inp_files/16603.got.cif
#   From: 2010.05.17/outbox.cif.g08.bks.cpg/sg13_9_cif.got.tgz:16603.got - 2010.06.03 16:44:36.
