data_PCOD9226267
_publ_section_title
;
Structure prediction by ZEFSAII (Michael W. Deem and Ramdas Pophale) SiO2 
 PCOD9226267
Probable space group: P 2/C
;
_chemical_formula_sum "Si O2"
_cell_formula_units_Z 26
_cell_length_a 11.532535
_cell_length_b 11.736167
_cell_length_c 17.736602
_cell_angle_alpha 90.000000
_cell_angle_beta 146.040539
_cell_angle_gamma 90.000000
_cell_volume 1340.995203
_symmetry_space_group_name_H-M "P 2/C"
_symmetry_group_IT_number 13
_symmetry_cell_setting 'monoclinic'
loop_
_space_group_symop_operation_xyz
x,y,z
-x,y,1/2-z
-x,-y,-z
x,-y,1/2+z
loop_
_atom_site_type_symbol
_atom_site_label
_atom_site_fract_x
_atom_site_fract_y
_atom_site_fract_z
Si Si1 0.621745 0.020451 0.463592
Si Si2 0.741801 0.119233 0.679867
Si Si3 0.336931 0.801615 0.729041
Si Si4 0.000000 0.764022 0.750000
Si Si5 0.339834 0.381343 0.350134
Si Si6 0.011769 0.069420 0.402491
Si Si7 0.775471 0.375378 0.666005
O O1 0.495729 0.914931 0.430021
O O2 0.754576 0.975954 0.464739
O O3 0.764061 0.076421 0.605284
O O4 0.457419 0.116401 0.352867
O O5 0.780172 0.252355 0.707874
O O6 0.880240 0.041405 0.808228
O O7 0.500000 0.791295 0.750000
O O8 0.303150 0.682306 0.751982
O O9 0.112766 0.862905 0.600249
O O10 0.196415 0.683508 0.835169
O O11 0.977797 0.845440 0.664746
O O12 0.581517 0.370260 0.503216
O O13 0.276056 0.513101 0.313206
O O14 0.000000 0.391871 0.750000
#
# Coordination Sequence:
#
# PCOD9226267 Si02
#       7
#     4   4   4   2   4   4   4
#     4  10  17  31  51  79 109 136 162 213 261 321
#     4  10  18  28  50  87 109 127 157 212 282 313
#     4  10  22  36  51  73 104 146 183 206 246 316
#     4  10  16  32  50  82 110 134 166 210 276 320
#     4  10  21  34  52  77 106 138 173 222 258 314
#     4  10  18  29  55  79 106 132 165 215 269 312
#     4  11  20  32  52  83 107 130 168 223 279 309
#
# _framework density 19.388587000000001
#
# number of rings (size 3 to 8) (size 9 to 14) (size 15 to 20)
#    0.000    1.846    3.846    1.846    0.000    0.615 
#    0.000    0.000    0.000    4.615    0.000    0.000 
#    0.000    0.000    0.000    0.000    0.000    0.000 
#
# Total GULP energy -144975.682324 kJ/mol
# GULP energy per Si atom -5575.987782 kJ/mol
# Density = 1.934446 g / cm^3
# Si number density = 19.388587 Si / 1000 Ang^3
#
#
#
# Elastic Constant Matrix: (Units=GPa)
#
#
# Indices 1 2 3 4 5 6 
#
# 1 109.1784 42.9773 10.5005 0.0000 17.2941 0.0000
# 2 42.9773 138.7123 9.8809 0.0000 10.1344 0.0000
# 3 10.5005 9.8809 25.9081 0.0000 21.5348 0.0000
# 4 0.0000 0.0000 0.0000 12.7301 0.0000 9.1281
# 5 17.2941 10.1344 21.5348 0.0000 29.5262 0.0000
# 6 0.0000 0.0000 0.0000 9.1281 0.0000 16.6550
#
#
#
# Elastic Compliance Matrix: (Units=1/GPa)
#
#
# Indices 1 2 3 4 5 6 
#
# 1 0.011346 -0.003165 0.003122 0.000000 -0.007837 0.000000
# 2 -0.003165 0.008311 -0.002684 0.000000 0.000959 0.000000
# 3 0.003122 -0.002684 0.099324 0.000000 -0.073349 0.000000
# 4 0.000000 0.000000 0.000000 0.129412 0.000000 -0.070926
# 5 -0.007837 0.000959 -0.073349 0.000000 0.091626 0.000000
# 6 0.000000 0.000000 0.000000 -0.070926 0.000000 0.098914
#
#
# Mechanical properties :
#
#
# Convention : Reuss Voigt Hill
#
# Bulk Modulus (GPa) = 8.80838 44.50179 26.65509
# Shear Modulus (GPa) = 10.36851 25.81159 18.09005
#
# Velocity S-wave (km/s) = 2.31503 3.65263 3.05786
# Velocity P-wave (km/s) = 3.42034 6.38681 5.12299
#
# Compressibility (1/GPa) = 0.11352821
#
# Stress axis : x y z
#
# Youngs Moduli (GPa) = 88.13391 120.32243 10.06806
#
# Poissons Ratio (x) = 0.38086 -0.03144
# Poissons Ratio (y) = 0.27897 0.02702
# Poissons Ratio (z) = -0.27519 0.32290
#
# Static dielectric constant tensor:
#      x y z
#    x 1.752600 0.000000 0.020210 
#    y 0.000000 1.674740 0.000000 
#    z 0.020210 0.000000 1.709720 
# 
# From -- ./inp_files/50589.got.cif
#   From: 2010.05.17/outbox.cif.g08.bks.cpg/sg13_26_cif.got.tgz:50589.got - 2010.06.03 16:44:36.
