data_PCOD9226134
_publ_section_title
;
Structure prediction by ZEFSAII (Michael W. Deem and Ramdas Pophale) SiO2 
 PCOD9226134
Probable space group: P 2/C
;
_chemical_formula_sum "Si O2"
_cell_formula_units_Z 24
_cell_length_a 13.552387
_cell_length_b 15.027569
_cell_length_c 10.241715
_cell_angle_alpha 90.000000
_cell_angle_beta 140.223223
_cell_angle_gamma 90.000000
_cell_volume 1334.505163
_symmetry_space_group_name_H-M "P 2/C"
_symmetry_group_IT_number 13
_symmetry_cell_setting 'monoclinic'
loop_
_space_group_symop_operation_xyz
x,y,z
-x,y,1/2-z
-x,-y,-z
x,-y,1/2+z
loop_
_atom_site_type_symbol
_atom_site_label
_atom_site_fract_x
_atom_site_fract_y
_atom_site_fract_z
Si Si1 0.655860 0.762729 0.318410
Si Si2 0.533358 0.754365 0.629235
Si Si3 0.658479 0.054321 0.187606
Si Si4 0.182342 0.058692 0.428560
Si Si5 0.344686 0.442052 0.312972
Si Si6 0.689832 0.571073 0.438702
O O1 0.500000 0.771001 0.250000
O O2 0.608458 0.760456 0.117897
O O3 0.730954 0.668379 0.429539
O O4 0.760754 0.845363 0.462415
O O5 0.500000 0.757583 0.750000
O O6 0.610834 0.658947 0.676969
O O7 0.628815 0.841950 0.687093
O O8 0.738857 0.988469 0.894523
O O9 0.758102 0.045829 0.157905
O O10 0.500000 0.000000 0.000000
O O11 0.000000 0.051336 0.250000
O O12 0.500000 0.500000 0.500000
O O13 0.265585 0.492670 0.113315
O O14 0.255644 0.442553 0.358753
O O15 0.500000 0.571761 0.250000
#
# Coordination Sequence:
#
# PCOD9226134 Si02
#       6
#     4   4   4   4   4   4
#     4  11  18  37  56  79 113 151 192 233 280 347
#     4  12  21  31  54  85 115 145 191 236 289 333
#     4  12  23  41  62  85 113 151 194 239 285 344
#     4  12  25  41  60  86 116 151 189 239 293 348
#     4  10  16  26  43  76 119 142 176 232 296 329
#     4   9  16  26  45  74 113 148 176 231 290 336
#
# _framework density 17.984196000000001
#
# number of rings (size 3 to 8) (size 9 to 14) (size 15 to 20)
#    0.000    1.000    8.333    3.500    0.000    0.000 
#    0.000    0.000    0.000    0.000    0.000    5.833 
#    0.000    0.000    0.000    0.000    0.000    0.000 
#
# Total GULP energy -133896.744933 kJ/mol
# GULP energy per Si atom -5579.031039 kJ/mol
# Density = 1.794326 g / cm^3
# Si number density = 17.984196 Si / 1000 Ang^3
#
#
#
# Elastic Constant Matrix: (Units=GPa)
#
#
# Indices 1 2 3 4 5 6 
#
# 1 122.1892 45.6377 44.9348 0.0000 -37.0750 0.0000
# 2 45.6377 150.0332 31.1521 0.0000 -7.9847 0.0000
# 3 44.9348 31.1521 41.5133 0.0000 -15.3273 0.0000
# 4 0.0000 0.0000 0.0000 13.1483 0.0000 -11.1760
# 5 -37.0750 -7.9847 -15.3273 0.0000 37.7064 0.0000
# 6 0.0000 0.0000 0.0000 -11.1760 0.0000 19.7922
#
#
#
# Elastic Compliance Matrix: (Units=1/GPa)
#
#
# Indices 1 2 3 4 5 6 
#
# 1 0.016987 -0.001906 -0.012871 0.000000 0.011067 0.000000
# 2 -0.001906 0.008133 -0.004820 0.000000 -0.002111 0.000000
# 3 -0.012871 -0.004820 0.043049 0.000000 0.003823 0.000000
# 4 0.000000 0.000000 0.000000 0.146249 0.000000 0.082581
# 5 0.011067 -0.002111 0.003823 0.000000 0.038510 0.000000
# 6 0.000000 0.000000 0.000000 0.082581 0.000000 0.097156
#
#
# Mechanical properties :
#
#
# Convention : Reuss Voigt Hill
#
# Bulk Modulus (GPa) = 34.51116 61.90945 48.21030
# Shear Modulus (GPa) = 12.53337 26.93014 19.73175
#
# Velocity S-wave (km/s) = 2.64277 3.87387 3.31595
# Velocity P-wave (km/s) = 5.34263 7.38297 6.44406
#
# Compressibility (1/GPa) = 0.02897614
#
# Stress axis : x y z
#
# Youngs Moduli (GPa) = 58.86801 122.95084 23.22948
#
# Poissons Ratio (x) = 0.23432 0.29899
# Poissons Ratio (y) = 0.11219 0.11196
# Poissons Ratio (z) = 0.75769 0.59260
#
# Static dielectric constant tensor:
#      x y z
#    x 1.628960 0.000000 -0.026970 
#    y 0.000000 1.643040 0.000000 
#    z -0.026970 0.000000 1.618980 
# 
# From -- ./inp_files/33946.got.cif
#   From: 2010.05.17/outbox.cif.g08.bks.cpg/sg13_17_cif.got.tgz:33946.got - 2010.06.03 16:44:36.
