data_PCOD9226385
_publ_section_title
;
Structure prediction by ZEFSAII (Michael W. Deem and Ramdas Pophale) SiO2 
 PCOD9226385
Probable space group: P 2/C
;
_chemical_formula_sum "Si O2"
_cell_formula_units_Z 28
_cell_length_a 11.052191
_cell_length_b 16.796566
_cell_length_c 9.449835
_cell_angle_alpha 90.000000
_cell_angle_beta 128.042362
_cell_angle_gamma 90.000000
_cell_volume 1381.574126
_symmetry_space_group_name_H-M "P 2/C"
_symmetry_group_IT_number 13
_symmetry_cell_setting 'monoclinic'
loop_
_space_group_symop_operation_xyz
x,y,z
-x,y,1/2-z
-x,-y,-z
x,-y,1/2+z
loop_
_atom_site_type_symbol
_atom_site_label
_atom_site_fract_x
_atom_site_fract_y
_atom_site_fract_z
Si Si1 0.867667 0.913957 0.263258
Si Si2 0.288547 0.228631 0.232117
Si Si3 0.594532 0.599819 0.082844
Si Si4 0.746860 0.499844 0.938660
Si Si5 0.778899 0.606877 0.710759
Si Si6 0.915736 0.909688 0.818935
Si Si7 0.645430 0.229522 0.547852
O O1 0.732655 0.849603 0.161400
O O2 0.000000 0.886338 0.250000
O O3 0.946467 0.920698 0.471690
O O4 0.839851 0.007493 0.209981
O O5 0.197983 0.299847 0.244955
O O6 0.206872 0.145433 0.195961
O O7 0.462107 0.219195 0.412214
O O8 0.301475 0.246592 0.074852
O O9 0.640955 0.550944 0.255136
O O10 0.666303 0.687995 0.146631
O O11 0.661612 0.557457 0.990200
O O12 0.410326 0.602946 0.931559
O O13 0.832655 0.556861 0.887427
O O14 0.828312 0.436038 0.101164
O O15 0.000000 0.868190 0.750000
#
# Coordination Sequence:
#
# PCOD9226385 Si02
#       7
#     4   4   4   4   4   4   4
#     4  10  20  39  63  84 107 147 192 226 270 344
#     4  10  20  35  55  86 120 147 181 236 287 329
#     4  10  17  27  44  75 109 147 184 223 274 327
#     4  10  17  26  44  71 110 150 184 223 272 325
#     4  10  17  27  45  73 111 146 182 227 275 322
#     4  10  22  39  61  85 110 142 188 234 276 333
#     4  10  20  34  57  86 117 148 186 230 285 337
#
# _framework density 20.266738
#
# number of rings (size 3 to 8) (size 9 to 14) (size 15 to 20)
#    0.000    2.000    2.857    3.429    0.000    1.714 
#    0.000    2.143    0.000    0.000    0.000   20.000 
#    0.000    0.000    0.000    0.000    0.000    0.000 
#
# Total GULP energy -156045.415280 kJ/mol
# GULP energy per Si atom -5573.050546 kJ/mol
# Density = 2.022061 g / cm^3
# Si number density = 20.266738 Si / 1000 Ang^3
#
#
#
# Elastic Constant Matrix: (Units=GPa)
#
#
# Indices 1 2 3 4 5 6 
#
# 1 28.0899 20.6915 16.1805 0.0000 -7.2405 0.0000
# 2 20.6915 124.1870 24.8622 0.0000 16.6219 0.0000
# 3 16.1805 24.8622 70.3104 0.0000 -14.5150 0.0000
# 4 0.0000 0.0000 0.0000 -62.7575 0.0000 -135.7591
# 5 -7.2405 16.6219 -14.5150 0.0000 19.4371 0.0000
# 6 0.0000 0.0000 0.0000 -135.7591 0.0000 -171.3941
#
#
#
# Elastic Compliance Matrix: (Units=1/GPa)
#
#
# Indices 1 2 3 4 5 6 
#
# 1 0.053299 -0.012388 -0.001891 0.000000 0.029037 0.000000
# 2 -0.012388 0.014425 -0.006797 0.000000 -0.022027 0.000000
# 3 -0.001891 -0.006797 0.021418 0.000000 0.021103 0.000000
# 4 0.000000 0.000000 0.000000 0.022334 0.000000 -0.017690
# 5 0.029037 -0.022027 0.021103 0.000000 0.096860 0.000000
# 6 0.000000 0.000000 0.000000 -0.017690 0.000000 0.008178
#
#
# Mechanical properties :
#
#
# Convention : Reuss Voigt Hill
#
# Bulk Modulus (GPa) = 21.28131 38.45063 29.86597
# Shear Modulus (GPa) = 18.22626 -32.21936 -6.99655
#
# Velocity S-wave (km/s) = 3.00212 -3.99151 -1.86003
# Velocity P-wave (km/s) = 4.74767 1.49312 3.18676
#
# Compressibility (1/GPa) = 0.04698958
#
# Stress axis : x y z
#
# Youngs Moduli (GPa) = 18.76208 69.32171 46.69018
#
# Poissons Ratio (x) = 0.85878 0.08828
# Poissons Ratio (y) = 0.23243 0.31737
# Poissons Ratio (z) = 0.03547 0.47120
#
# Static dielectric constant tensor:
#      x y z
#    x 1.753670 0.000000 -0.010000 
#    y 0.000000 1.760270 0.000000 
#    z -0.010000 0.000000 1.730710 
# 
# From -- ./inp_files/16852.got.cif
#   From: 2010.05.17/outbox.cif.g08.bks.cpg/sg13_9_cif.got.tgz:16852.got - 2010.06.03 16:44:36.
