data_PCOD9226448
_publ_section_title
;
Structure prediction by ZEFSAII (Michael W. Deem and Ramdas Pophale) SiO2 
 PCOD9226448
Probable space group: P 2/C
;
_chemical_formula_sum "Si O2"
_cell_formula_units_Z 32
_cell_length_a 20.628963
_cell_length_b 7.801599
_cell_length_c 15.927087
_cell_angle_alpha 90.000000
_cell_angle_beta 141.999889
_cell_angle_gamma 90.000000
_cell_volume 1578.121472
_symmetry_space_group_name_H-M "P 2/C"
_symmetry_group_IT_number 13
_symmetry_cell_setting 'monoclinic'
loop_
_space_group_symop_operation_xyz
x,y,z
-x,y,1/2-z
-x,-y,-z
x,-y,1/2+z
loop_
_atom_site_type_symbol
_atom_site_label
_atom_site_fract_x
_atom_site_fract_y
_atom_site_fract_z
Si Si1 0.356042 0.880229 0.442958
Si Si2 0.713657 0.951900 0.958427
Si Si3 0.528049 0.648640 0.369764
Si Si4 0.250573 0.491793 0.875097
Si Si5 0.573029 0.276844 0.204001
Si Si6 0.122770 0.664795 0.393514
Si Si7 0.769501 0.556929 0.828239
Si Si8 0.335334 0.809983 0.244336
O O1 0.317141 0.999553 0.478536
O O2 0.300310 0.695776 0.404962
O O3 0.480046 0.843321 0.576875
O O4 0.323871 0.924142 0.315809
O O5 0.627910 0.810450 0.840002
O O6 0.703994 0.097766 0.879253
O O7 0.823610 0.850754 0.066777
O O8 0.500000 0.721212 0.250000
O O9 0.650249 0.614772 0.507267
O O10 0.476303 0.459055 0.322011
O O11 0.458679 0.758793 0.362958
O O12 0.180182 0.462716 0.885590
O O13 0.195166 0.553502 0.732516
O O14 0.666564 0.322169 0.235017
O O15 0.150294 0.612006 0.517095
O O16 0.000000 0.667060 0.250000
O O17 0.727872 0.366317 0.807780
#
# Coordination Sequence:
#
# PCOD9226448 Si02
#       8
#     4   4   4   4   4   4   4   4
#     4   9  17  31  50  72 104 143 175 203 257 323
#     4  10  20  34  51  73 105 142 179 217 259 312
#     4  10  17  29  51  80 112 141 172 207 256 319
#     4   9  17  32  56  79 104 138 171 216 268 317
#     4   9  16  30  50  74 105 143 174 203 250 320
#     4  10  21  38  58  76  99 139 187 228 267 313
#     4   9  18  34  55  79 104 129 173 226 272 317
#     4  10  20  32  50  77 108 138 169 214 264 318
#
# _framework density 20.277273999999998
#
# number of rings (size 3 to 8) (size 9 to 14) (size 15 to 20)
#    0.000    2.500    0.000    4.875    0.000    5.000 
#    0.000    5.625    0.000    6.750    0.000    0.000 
#    0.000    0.000    0.000    0.000    0.000    0.000 
#
# Total GULP energy -178710.298302 kJ/mol
# GULP energy per Si atom -5584.696822 kJ/mol
# Density = 2.023112 g / cm^3
# Si number density = 20.277274 Si / 1000 Ang^3
#
#
#
# Elastic Constant Matrix: (Units=GPa)
#
#
# Indices 1 2 3 4 5 6 
#
# 1 42.5405 12.8284 39.2532 0.0000 -9.8799 0.0000
# 2 12.8284 58.9124 11.8217 0.0000 -5.0261 0.0000
# 3 39.2532 11.8217 98.9074 0.0000 3.5634 0.0000
# 4 0.0000 0.0000 0.0000 17.8339 0.0000 -9.9318
# 5 -9.8799 -5.0261 3.5634 0.0000 37.7063 0.0000
# 6 0.0000 0.0000 0.0000 -9.9318 0.0000 12.6315
#
#
#
# Elastic Compliance Matrix: (Units=1/GPa)
#
#
# Indices 1 2 3 4 5 6 
#
# 1 0.043815 -0.005021 -0.017237 0.000000 0.012440 0.000000
# 2 -0.005021 0.018209 -0.000225 0.000000 0.001133 0.000000
# 3 -0.017237 -0.000225 0.017200 0.000000 -0.006172 0.000000
# 4 0.000000 0.000000 0.000000 0.099753 0.000000 0.078434
# 5 0.012440 0.001133 -0.006172 0.000000 0.030515 0.000000
# 6 0.000000 0.000000 0.000000 0.078434 0.000000 0.140837
#
#
# Mechanical properties :
#
#
# Convention : Reuss Voigt Hill
#
# Bulk Modulus (GPa) = 29.18826 36.46298 32.82562
# Shear Modulus (GPa) = 12.29362 22.73149 17.51255
#
# Velocity S-wave (km/s) = 2.46494 3.35182 2.94199
# Velocity P-wave (km/s) = 4.74627 5.74463 5.26915
#
# Compressibility (1/GPa) = 0.03426035
#
# Stress axis : x y z
#
# Youngs Moduli (GPa) = 22.82316 54.91679 58.13800
#
# Poissons Ratio (x) = 0.27572 1.00212
# Poissons Ratio (y) = 0.11459 0.01306
# Poissons Ratio (z) = 0.39340 0.01234
#
# Static dielectric constant tensor:
#      x y z
#    x 1.752740 0.000000 -0.054250 
#    y 0.000000 1.759750 0.000000 
#    z -0.054250 0.000000 1.712070 
# 
# From -- ./inp_files/57281.got.cif
#   From: 2010.05.17/outbox.cif.g08.bks.cpg/sg13_29_cif.got.tgz:57281.got - 2010.06.03 16:44:36.
