data_PCOD9226173
_publ_section_title
;
Structure prediction by ZEFSAII (Michael W. Deem and Ramdas Pophale) SiO2 
 PCOD9226173
Probable space group: P 2/C
;
_chemical_formula_sum "Si O2"
_cell_formula_units_Z 30
_cell_length_a 12.140806
_cell_length_b 11.808449
_cell_length_c 13.904258
_cell_angle_alpha 90.000000
_cell_angle_beta 121.144073
_cell_angle_gamma 90.000000
_cell_volume 1706.065684
_symmetry_space_group_name_H-M "P 2/C"
_symmetry_group_IT_number 13
_symmetry_cell_setting 'monoclinic'
loop_
_space_group_symop_operation_xyz
x,y,z
-x,y,1/2-z
-x,-y,-z
x,-y,1/2+z
loop_
_atom_site_type_symbol
_atom_site_label
_atom_site_fract_x
_atom_site_fract_y
_atom_site_fract_z
Si Si1 0.500000 0.089604 0.250000
Si Si2 0.135777 0.447438 0.368194
Si Si3 0.699240 0.001917 0.187718
Si Si4 0.140924 0.770015 0.764227
Si Si5 0.864855 0.934116 0.433772
Si Si6 0.975121 0.693511 0.519142
Si Si7 0.293865 0.891868 0.510357
Si Si8 0.895988 0.688065 0.121411
O O1 0.582297 0.018984 0.209235
O O2 0.599961 0.152479 0.365661
O O3 0.199620 0.339697 0.344498
O O4 0.100580 0.402835 0.457959
O O5 0.185856 0.575149 0.389900
O O6 0.000000 0.457193 0.250000
O O7 0.765454 0.123210 0.193746
O O8 0.807736 0.938861 0.300481
O O9 0.660984 0.938384 0.072875
O O10 0.000000 0.796421 0.750000
O O11 0.098712 0.731734 0.638591
O O12 0.887993 0.805563 0.473682
O O13 0.772614 0.002984 0.463985
O O14 0.000000 0.000000 0.500000
O O15 0.021890 0.658874 0.436137
O O16 0.190868 0.795061 0.441988
O O17 0.000000 0.715229 0.250000
#
# Coordination Sequence:
#
# PCOD9226173 Si02
#       8
#     2   4   4   4   4   4   4   4
#     4  10  24  42  50  76 100 146 194 206 256 330
#     4   8  18  30  45  71 106 142 175 202 257 329
#     4  11  21  34  56  77 108 141 175 220 263 314
#     4   9  17  30  52  79 105 137 171 206 264 325
#     4  11  19  29  48  86 115 134 172 213 261 330
#     4  10  16  29  45  70 116 146 163 198 265 318
#     4  11  22  34  55  74 108 142 177 224 262 310
#     4  11  20  30  47  78 108 138 173 214 264 314
#
# _framework density 17.584316999999999
#
# number of rings (size 3 to 8) (size 9 to 14) (size 15 to 20)
#    0.000    2.133    2.667    4.000    0.000    0.000 
#    0.000    0.000    0.000    0.800    0.000    9.333 
#    0.000    0.000    0.000    0.000    0.000    0.000 
#
# Total GULP energy -167140.696196 kJ/mol
# GULP energy per Si atom -5571.356540 kJ/mol
# Density = 1.754429 g / cm^3
# Si number density = 17.584317 Si / 1000 Ang^3
#
#
#
# Elastic Constant Matrix: (Units=GPa)
#
#
# Indices 1 2 3 4 5 6 
#
# 1 47.8920 11.1163 26.7543 0.0000 -11.4134 0.0000
# 2 11.1163 100.8321 30.6432 0.0000 -0.6820 0.0000
# 3 26.7543 30.6432 127.4240 0.0000 -16.4262 0.0000
# 4 0.0000 0.0000 0.0000 14.0791 0.0000 -4.3814
# 5 -11.4134 -0.6820 -16.4262 0.0000 25.6642 0.0000
# 6 0.0000 0.0000 0.0000 -4.3814 0.0000 4.4716
#
#
#
# Elastic Compliance Matrix: (Units=1/GPa)
#
#
# Indices 1 2 3 4 5 6 
#
# 1 0.025497 -0.001587 -0.003832 0.000000 0.008844 0.000000
# 2 -0.001587 0.010850 -0.002540 0.000000 -0.002043 0.000000
# 3 -0.003832 -0.002540 0.009847 0.000000 0.004531 0.000000
# 4 0.000000 0.000000 0.000000 0.102186 0.000000 0.100124
# 5 0.008844 -0.002043 0.004531 0.000000 0.045744 0.000000
# 6 0.000000 0.000000 0.000000 0.100124 0.000000 0.321735
#
#
# Mechanical properties :
#
#
# Convention : Reuss Voigt Hill
#
# Bulk Modulus (GPa) = 33.02656 45.90841 39.46748
# Shear Modulus (GPa) = 9.22733 22.68526 15.95630
#
# Velocity S-wave (km/s) = 2.29322 3.59567 3.01560
# Velocity P-wave (km/s) = 5.08276 6.58808 5.88376
#
# Compressibility (1/GPa) = 0.03027866
#
# Stress axis : x y z
#
# Youngs Moduli (GPa) = 39.22054 92.16300 101.55233
#
# Poissons Ratio (x) = 0.14623 0.38912
# Poissons Ratio (y) = 0.06223 0.25789
# Poissons Ratio (z) = 0.15028 0.23405
#
# Static dielectric constant tensor:
#      x y z
#    x 1.624890 0.000000 -0.016580 
#    y 0.000000 1.621360 0.000000 
#    z -0.016580 0.000000 1.634170 
# 
# From -- ./inp_files/50903.got.cif
#   From: 2010.05.17/outbox.cif.g08.bks.cpg/sg13_26_cif.got.tgz:50903.got - 2010.06.03 16:44:36.
