data_PCOD9226521
_publ_section_title
;
Structure prediction by ZEFSAII (Michael W. Deem and Ramdas Pophale) SiO2 
 PCOD9226521
Probable space group: P 2/C
;
_chemical_formula_sum "Si O2"
_cell_formula_units_Z 22
_cell_length_a 16.126599
_cell_length_b 12.025348
_cell_length_c 8.808867
_cell_angle_alpha 90.000000
_cell_angle_beta 144.265351
_cell_angle_gamma 90.000000
_cell_volume 997.693833
_symmetry_space_group_name_H-M "P 2/C"
_symmetry_group_IT_number 13
_symmetry_cell_setting 'monoclinic'
loop_
_space_group_symop_operation_xyz
x,y,z
-x,y,1/2-z
-x,-y,-z
x,-y,1/2+z
loop_
_atom_site_type_symbol
_atom_site_label
_atom_site_fract_x
_atom_site_fract_y
_atom_site_fract_z
Si Si1 0.053522 0.764787 0.485317
Si Si2 0.718147 0.859122 0.475711
Si Si3 0.500000 0.330294 0.750000
Si Si4 0.862832 0.582937 0.316649
Si Si5 0.598517 0.946114 0.014555
Si Si6 0.722881 0.424849 0.304789
O O1 0.131971 0.835471 0.726785
O O2 0.165508 0.670635 0.588674
O O3 0.927979 0.702195 0.385041
O O4 0.000000 0.821221 0.250000
O O5 0.616422 0.752635 0.350210
O O6 0.713106 0.886343 0.290073
O O7 0.659642 0.957880 0.497759
O O8 0.420828 0.398935 0.499327
O O9 0.790942 0.543499 0.362533
O O10 0.000000 0.500000 0.500000
O O11 0.737528 0.573745 0.006201
O O12 0.500000 0.877065 0.750000
O O13 0.500000 0.000000 0.000000
#
# Coordination Sequence:
#
# PCOD9226521 Si02
#       6
#     4   4   2   4   4   4
#     4   8  16  30  50  74  96 136 175 205 249 312
#     4  10  17  31  54  73 105 135 173 209 256 311
#     4  10  18  30  50  76 102 138 174 208 254 306
#     4   9  16  32  52  71  94 136 177 207 251 307
#     4   9  16  29  51  75  97 135 168 203 261 317
#     4   9  18  29  53  71  99 133 175 212 255 306
#
# _framework density 22.050853
#
# number of rings (size 3 to 8) (size 9 to 14) (size 15 to 20)
#    0.000    2.909    2.727    1.636    0.000    0.727 
#    0.000    0.909   16.000    4.364    0.000    0.000 
#    0.000    0.000    0.000    0.000    0.000    0.364 
#
# Total GULP energy -122515.349968 kJ/mol
# GULP energy per Si atom -5568.879544 kJ/mol
# Density = 2.200066 g / cm^3
# Si number density = 22.050853 Si / 1000 Ang^3
#
#
#
# Elastic Constant Matrix: (Units=GPa)
#
#
# Indices 1 2 3 4 5 6 
#
# 1 28.8651 16.9740 32.8348 0.0000 -18.6440 0.0000
# 2 16.9740 26.9085 40.0122 0.0000 -11.5243 0.0000
# 3 32.8348 40.0122 203.3916 0.0000 -34.5267 0.0000
# 4 0.0000 0.0000 0.0000 41.7287 0.0000 -3.3852
# 5 -18.6440 -11.5243 -34.5267 0.0000 30.5536 0.0000
# 6 0.0000 0.0000 0.0000 -3.3852 0.0000 3.2166
#
#
#
# Elastic Compliance Matrix: (Units=1/GPa)
#
#
# Indices 1 2 3 4 5 6 
#
# 1 0.076292 -0.033706 0.000073 0.000000 0.033923 0.000000
# 2 -0.033706 0.070047 -0.009089 0.000000 -0.004417 0.000000
# 3 0.000073 -0.009089 0.007571 0.000000 0.005172 0.000000
# 4 0.000000 0.000000 0.000000 0.026201 0.000000 0.027574
# 5 0.033923 -0.004417 0.005172 0.000000 0.057608 0.000000
# 6 0.000000 0.000000 0.000000 0.027574 0.000000 0.339903
#
#
# Mechanical properties :
#
#
# Convention : Reuss Voigt Hill
#
# Bulk Modulus (GPa) = 14.60531 48.75634 31.68083
# Shear Modulus (GPa) = 7.28983 26.38941 16.83962
#
# Velocity S-wave (km/s) = 1.82019 3.46316 2.76646
# Velocity P-wave (km/s) = 3.32495 6.17658 4.96012
#
# Compressibility (1/GPa) = 0.06846823
#
# Stress axis : x y z
#
# Youngs Moduli (GPa) = 13.10745 14.27609 132.08812
#
# Poissons Ratio (x) = 0.48118 -0.00964
# Poissons Ratio (y) = 0.44179 1.20049
# Poissons Ratio (z) = -0.00096 0.12975
#
# Static dielectric constant tensor:
#      x y z
#    x 1.795060 0.000000 0.046090 
#    y 0.000000 1.869860 0.000000 
#    z 0.046090 0.000000 1.896700 
# 
# From -- ./inp_files/22000.got.cif
#   From: 2010.05.17/outbox.cif.g08.bks.cpg/sg13_11_cif.got.tgz:22000.got - 2010.06.03 16:44:36.
