data_PCOD9226210
_publ_section_title
;
Structure prediction by ZEFSAII (Michael W. Deem and Ramdas Pophale) SiO2 
 PCOD9226210
Probable space group: P 2/C
;
_chemical_formula_sum "Si O2"
_cell_formula_units_Z 28
_cell_length_a 24.226471
_cell_length_b 12.507420
_cell_length_c 5.353711
_cell_angle_alpha 90.000000
_cell_angle_beta 83.382434
_cell_angle_gamma 90.000000
_cell_volume 1611.423291
_symmetry_space_group_name_H-M "P 2/C"
_symmetry_group_IT_number 13
_symmetry_cell_setting 'monoclinic'
loop_
_space_group_symop_operation_xyz
x,y,z
-x,y,1/2-z
-x,-y,-z
x,-y,1/2+z
loop_
_atom_site_type_symbol
_atom_site_label
_atom_site_fract_x
_atom_site_fract_y
_atom_site_fract_z
Si Si1 0.558466 0.430189 0.273248
Si Si2 0.116633 0.944217 0.435512
Si Si3 0.976476 0.379588 0.512292
Si Si4 0.858972 0.301231 0.579829
Si Si5 0.212305 0.285394 0.382207
Si Si6 0.679426 0.570752 0.632737
Si Si7 0.241564 0.964625 0.867886
O O1 0.500000 0.371666 0.250000
O O2 0.557938 0.477265 0.555914
O O3 0.618242 0.376775 0.196665
O O4 0.113114 0.816949 0.439682
O O5 0.094493 0.000694 0.696210
O O6 0.183389 0.968597 0.399556
O O7 0.910292 0.381892 0.547880
O O8 0.000000 0.326385 0.750000
O O9 0.000000 0.500000 0.500000
O O10 0.000000 0.326492 0.250000
O O11 0.821098 0.311704 0.353827
O O12 0.823941 0.310171 0.852323
O O13 0.269488 0.349654 0.364282
O O14 0.225464 0.159081 0.374846
O O15 0.682697 0.514516 0.359460
O O16 0.271864 0.000601 0.602566
#
# Coordination Sequence:
#
# PCOD9226210 Si02
#       7
#     4   4   4   4   4   4   4
#     4   8  14  27  49  66  88 140 183 210 251 286
#     4  10  16  30  51  79 102 121 150 202 243 311
#     4  10  23  45  59  72  93 122 170 221 231 281
#     4  12  21  35  60  77  96 133 165 198 265 311
#     4  12  21  33  53  85 103 138 163 198 270 314
#     4  10  21  36  44  71 120 137 171 222 243 293
#     4  10  16  30  49  75 108 126 158 202 240 311
#
# _framework density 17.375942999999999
#
# number of rings (size 3 to 8) (size 9 to 14) (size 15 to 20)
#    0.000    1.714    5.714    1.714    0.000    0.000 
#   15.429    0.000    0.000    2.571    0.000    0.000 
#    0.000    1.143    0.000    0.000    0.000    2.571 
#
# Total GULP energy -156019.650023 kJ/mol
# GULP energy per Si atom -5572.130358 kJ/mol
# Density = 1.733639 g / cm^3
# Si number density = 17.375943 Si / 1000 Ang^3
#
#
#
# Elastic Constant Matrix: (Units=GPa)
#
#
# Indices 1 2 3 4 5 6 
#
# 1 106.7361 37.3535 36.1108 0.0000 -0.5941 0.0000
# 2 37.3535 40.4127 1.5831 0.0000 -2.6087 0.0000
# 3 36.1108 1.5831 162.1920 0.0000 6.9587 0.0000
# 4 0.0000 0.0000 0.0000 7.5221 0.0000 0.0369
# 5 -0.5941 -2.6087 6.9587 0.0000 17.8797 0.0000
# 6 0.0000 0.0000 0.0000 0.0369 0.0000 -4.1975
#
#
#
# Elastic Compliance Matrix: (Units=1/GPa)
#
#
# Indices 1 2 3 4 5 6 
#
# 1 0.015432 -0.014153 -0.003286 0.000000 -0.000273 0.000000
# 2 -0.014153 0.037986 0.002606 0.000000 0.004058 0.000000
# 3 -0.003286 0.002606 0.006977 0.000000 -0.002444 0.000000
# 4 0.000000 0.000000 0.000000 0.132935 0.000000 0.001170
# 5 -0.000273 0.004058 -0.002444 0.000000 0.057464 0.000000
# 6 0.000000 0.000000 0.000000 0.001170 0.000000 -0.238227
#
#
# Mechanical properties :
#
#
# Convention : Reuss Voigt Hill
#
# Bulk Modulus (GPa) = 32.54212 51.04838 41.79525
# Shear Modulus (GPa) = 95.28442 19.86042 57.57242
#
# Velocity S-wave (km/s) = 7.41323 3.38447 5.76241
# Velocity P-wave (km/s) = 9.59394 6.68696 8.26919
#
# Compressibility (1/GPa) = 0.03072940
#
# Stress axis : x y z
#
# Youngs Moduli (GPa) = 64.80050 26.32556 143.33718
#
# Poissons Ratio (x) = 0.37258 0.47100
# Poissons Ratio (y) = 0.91710 -0.37356
# Poissons Ratio (z) = 0.21293 -0.06861
#
# Static dielectric constant tensor:
#      x y z
#    x 1.599210 0.000000 0.007120 
#    y 0.000000 1.584140 0.000000 
#    z 0.007120 0.000000 1.689610 
# 
# From -- ./inp_files/6863.got.cif
#   From: 2010.05.17/outbox.cif.g08.bks.cpg/sg13_4_cif.got.tgz:6863.got - 2010.06.03 16:44:36.
