data_PCOD9226971
_publ_section_title
;
Structure prediction by ZEFSAII (Michael W. Deem and Ramdas Pophale) SiO2 
 PCOD9226971
Probable space group: P 2/C
;
_chemical_formula_sum "Si O2"
_cell_formula_units_Z 26
_cell_length_a 12.310792
_cell_length_b 10.812319
_cell_length_c 26.541694
_cell_angle_alpha 90.000000
_cell_angle_beta 157.714690
_cell_angle_gamma 90.000000
_cell_volume 1339.749163
_symmetry_space_group_name_H-M "P 2/C"
_symmetry_group_IT_number 13
_symmetry_cell_setting 'monoclinic'
loop_
_space_group_symop_operation_xyz
x,y,z
-x,y,1/2-z
-x,-y,-z
x,-y,1/2+z
loop_
_atom_site_type_symbol
_atom_site_label
_atom_site_fract_x
_atom_site_fract_y
_atom_site_fract_z
Si Si1 0.247353 0.018089 0.983629
Si Si2 0.772809 0.611872 0.329369
Si Si3 0.998932 0.160442 0.968950
Si Si4 0.107109 0.342459 0.155884
Si Si5 0.500000 0.806790 0.750000
Si Si6 0.593698 0.793333 0.383045
Si Si7 0.148585 0.147134 0.260020
O O1 0.042063 0.082052 0.937181
O O2 0.414158 0.905275 0.082115
O O3 0.516232 0.109062 0.087796
O O4 0.040313 0.955810 0.852634
O O5 0.500000 0.588837 0.250000
O O6 0.860402 0.487957 0.338786
O O7 0.010808 0.690662 0.462099
O O8 0.677468 0.713267 0.247532
O O9 0.255127 0.120794 0.115852
O O10 0.721367 0.156320 0.885154
O O11 0.349715 0.275805 0.227217
O O12 0.126670 0.274091 0.218082
O O13 0.816831 0.301268 0.003778
O O14 0.000000 0.160637 0.250000
#
# Coordination Sequence:
#
# PCOD9226971 Si02
#       7
#     4   4   4   4   2   4   4
#     4  11  21  40  61  85 118 156 194 245 289 346
#     4  10  20  33  53  85 120 153 194 229 280 354
#     4  10  20  33  55  86 120 157 182 225 293 350
#     4  10  20  34  57  79 115 152 188 240 286 344
#     4  10  18  32  52  86 108 150 184 218 286 352
#     4   9  21  33  52  90 121 150 190 232 283 360
#     4  11  24  41  62  85 111 155 205 247 292 337
#
# _framework density 19.406617000000001
#
# number of rings (size 3 to 8) (size 9 to 14) (size 15 to 20)
#    0.000    1.846    2.308    1.846    2.154    1.846 
#    4.154    0.000    0.000   12.000    0.000    0.000 
#    0.000    0.000    0.000    0.000    0.000    0.000 
#
# Total GULP energy -144917.342060 kJ/mol
# GULP energy per Si atom -5573.743925 kJ/mol
# Density = 1.936245 g / cm^3
# Si number density = 19.406617 Si / 1000 Ang^3
#
#
#
# Elastic Constant Matrix: (Units=GPa)
#
#
# Indices 1 2 3 4 5 6 
#
# 1 85.2141 35.3893 13.1049 0.0000 -26.8807 0.0000
# 2 35.3893 123.6420 23.9243 0.0000 -10.5922 0.0000
# 3 13.1049 23.9243 73.0821 0.0000 -10.3207 0.0000
# 4 0.0000 0.0000 0.0000 28.8714 0.0000 10.7725
# 5 -26.8807 -10.5922 -10.3207 0.0000 18.4907 0.0000
# 6 0.0000 0.0000 0.0000 10.7725 0.0000 17.2628
#
#
#
# Elastic Compliance Matrix: (Units=1/GPa)
#
#
# Indices 1 2 3 4 5 6 
#
# 1 0.023609 -0.004292 0.001814 0.000000 0.032876 0.000000
# 2 -0.004292 0.009649 -0.002703 0.000000 -0.002221 0.000000
# 3 0.001814 -0.002703 0.015628 0.000000 0.009812 0.000000
# 4 0.000000 0.000000 0.000000 0.045149 0.000000 -0.028174
# 5 0.032876 -0.002221 0.009812 0.000000 0.106079 0.000000
# 6 0.000000 0.000000 0.000000 -0.028174 0.000000 0.075509
#
#
# Mechanical properties :
#
#
# Convention : Reuss Voigt Hill
#
# Bulk Modulus (GPa) = 25.95686 47.41947 36.68817
# Shear Modulus (GPa) = 16.73211 26.89297 21.81254
#
# Velocity S-wave (km/s) = 2.93949 3.72662 3.35621
# Velocity P-wave (km/s) = 4.99250 6.55780 5.82794
#
# Compressibility (1/GPa) = 0.03852546
#
# Stress axis : x y z
#
# Youngs Moduli (GPa) = 42.35623 103.63662 63.98618
#
# Poissons Ratio (x) = 0.44483 -0.11609
# Poissons Ratio (y) = 0.18180 0.17294
# Poissons Ratio (z) = -0.07684 0.28010
#
# Static dielectric constant tensor:
#      x y z
#    x 1.659770 0.000000 -0.007080 
#    y 0.000000 1.722150 0.000000 
#    z -0.007080 0.000000 1.807540 
# 
# From -- ./inp_files/86447.got.cif
#   From: 2010.05.17/outbox.cif.g08.bks.cpg/sg13_44_cif.got.tgz:86447.got - 2010.06.03 16:44:36.
