data_PCOD9226443
_publ_section_title
;
Structure prediction by ZEFSAII (Michael W. Deem and Ramdas Pophale) SiO2 
 PCOD9226443
Probable space group: P 2/C
;
_chemical_formula_sum "Si O2"
_cell_formula_units_Z 32
_cell_length_a 21.305677
_cell_length_b 9.177014
_cell_length_c 27.319825
_cell_angle_alpha 90.000000
_cell_angle_beta 17.224478
_cell_angle_gamma 90.000000
_cell_volume 1581.745923
_symmetry_space_group_name_H-M "P 2/C"
_symmetry_group_IT_number 13
_symmetry_cell_setting 'monoclinic'
loop_
_space_group_symop_operation_xyz
x,y,z
-x,y,1/2-z
-x,-y,-z
x,-y,1/2+z
loop_
_atom_site_type_symbol
_atom_site_label
_atom_site_fract_x
_atom_site_fract_y
_atom_site_fract_z
Si Si1 0.801094 0.413108 0.201196
Si Si2 0.382671 0.319430 0.952818
Si Si3 0.746915 0.374001 0.347363
Si Si4 0.102664 0.411856 0.623137
Si Si5 0.253001 0.847175 0.943741
Si Si6 0.877835 0.153973 0.421608
Si Si7 0.750075 0.327457 0.606815
Si Si8 0.161457 0.367402 0.433232
O O1 0.669862 0.394836 0.348922
O O2 0.921970 0.569165 0.106342
O O3 0.723302 0.372559 0.205305
O O4 0.006667 0.309745 0.057276
O O5 0.223003 0.189446 0.056145
O O6 0.596267 0.286352 0.764991
O O7 0.408521 0.355902 0.990803
O O8 0.263940 0.460568 0.018736
O O9 0.912608 0.506607 0.234909
O O10 0.894672 0.230137 0.242438
O O11 0.213753 0.284293 0.510825
O O12 0.000000 0.355697 0.750000
O O13 0.500000 0.878274 0.750000
O O14 0.136931 0.988452 0.051071
O O15 0.166791 0.783772 0.956699
O O16 0.733427 0.242947 0.568728
O O17 0.730462 0.502856 0.615340
#
# Coordination Sequence:
#
# PCOD9226443 Si02
#       8
#     4   4   4   4   4   4   4   4
#     4   8  16  32  54  70  94 126 165 199 244 284
#     4  10  17  29  50  72  95 127 164 201 235 283
#     4   9  17  33  50  69  93 130 168 193 233 295
#     4   9  18  29  44  67  97 125 155 194 244 294
#     4  12  21  30  48  76 100 126 157 203 249 286
#     4  10  20  31  44  70 103 130 160 194 240 296
#     4   9  16  30  49  70  93 125 163 203 237 278
#     4   9  17  32  55  69  98 126 161 200 250 284
#
# _framework density 20.230810000000002
#
# number of rings (size 3 to 8) (size 9 to 14) (size 15 to 20)
#    0.750    1.750    1.250    3.750    0.000    1.000 
#    0.000    3.125    0.000    0.000    0.000    4.375 
#    0.000    0.000    0.000    0.000    0.000    0.000 
#
# Total GULP energy -178261.964376 kJ/mol
# GULP energy per Si atom -5570.686387 kJ/mol
# Density = 2.018476 g / cm^3
# Si number density = 20.230810 Si / 1000 Ang^3
#
#
#
# Elastic Constant Matrix: (Units=GPa)
#
#
# Indices 1 2 3 4 5 6 
#
# 1 81.2990 25.9811 9.4715 0.0000 36.0721 0.0000
# 2 25.9811 81.4338 -1.0386 0.0000 13.9729 0.0000
# 3 9.4715 -1.0386 68.5840 0.0000 27.9916 0.0000
# 4 0.0000 0.0000 0.0000 14.7959 0.0000 5.4180
# 5 36.0721 13.9729 27.9916 0.0000 39.3512 0.0000
# 6 0.0000 0.0000 0.0000 5.4180 0.0000 13.0195
#
#
#
# Elastic Compliance Matrix: (Units=1/GPa)
#
#
# Indices 1 2 3 4 5 6 
#
# 1 0.024025 -0.003091 0.007293 0.000000 -0.026113 0.000000
# 2 -0.003091 0.013912 0.002110 0.000000 -0.003607 0.000000
# 3 0.007293 0.002110 0.023447 0.000000 -0.024113 0.000000
# 4 0.000000 0.000000 0.000000 0.079737 0.000000 -0.033182
# 5 -0.026113 -0.003607 -0.024113 0.000000 0.067782 0.000000
# 6 0.000000 0.000000 0.000000 -0.033182 0.000000 0.090616
#
#
# Mechanical properties :
#
#
# Convention : Reuss Voigt Hill
#
# Bulk Modulus (GPa) = 13.51249 33.34944 23.43096
# Shear Modulus (GPa) = 16.04804 26.56017 21.30411
#
# Velocity S-wave (km/s) = 2.81952 3.62727 3.24860
# Velocity P-wave (km/s) = 4.15852 5.83635 5.06736
#
# Compressibility (1/GPa) = 0.07400561
#
# Stress axis : x y z
#
# Youngs Moduli (GPa) = 41.62381 71.88046 42.65001
#
# Poissons Ratio (x) = 0.22221 -0.31104
# Poissons Ratio (y) = 0.12868 -0.08998
# Poissons Ratio (z) = -0.30356 -0.15164
#
# Static dielectric constant tensor:
#      x y z
#    x 1.813620 0.000000 0.018480 
#    y 0.000000 1.699520 0.000000 
#    z 0.018480 0.000000 1.799780 
# 
# From -- ./inp_files/93819.got.cif
#   From: 2010.05.17/outbox.cif.g08.bks.cpg/sg13_47_cif.got.tgz:93819.got - 2010.06.03 16:44:36.
