data_PCOD9226694
_publ_section_title
;
Structure prediction by ZEFSAII (Michael W. Deem and Ramdas Pophale) SiO2 
 PCOD9226694
Probable space group: P 2/C
;
_chemical_formula_sum "Si O2"
_cell_formula_units_Z 32
_cell_length_a 24.180592
_cell_length_b 16.182733
_cell_length_c 23.180520
_cell_angle_alpha 90.000000
_cell_angle_beta 167.736743
_cell_angle_gamma 90.000000
_cell_volume 1926.656120
_symmetry_space_group_name_H-M "P 2/C"
_symmetry_group_IT_number 13
_symmetry_cell_setting 'monoclinic'
loop_
_space_group_symop_operation_xyz
x,y,z
-x,y,1/2-z
-x,-y,-z
x,-y,1/2+z
loop_
_atom_site_type_symbol
_atom_site_label
_atom_site_fract_x
_atom_site_fract_y
_atom_site_fract_z
Si Si1 0.237697 0.102068 0.207612
Si Si2 0.530702 0.443208 0.617797
Si Si3 0.495758 0.621418 0.541991
Si Si4 0.490250 0.917183 0.171795
Si Si5 0.962686 0.351830 0.355080
Si Si6 0.281435 0.022703 0.858229
Si Si7 0.983721 0.713653 0.008028
Si Si8 0.008210 0.808339 0.826445
O O1 0.269941 0.054281 0.301479
O O2 0.125844 0.193569 0.101912
O O3 0.518404 0.090181 0.464034
O O4 0.013148 0.055685 0.941912
O O5 0.461307 0.539676 0.545061
O O6 0.517854 0.410576 0.538363
O O7 0.323597 0.390269 0.442907
O O8 0.823569 0.423226 0.934546
O O9 0.781121 0.659506 0.838255
O O10 0.274496 0.690763 0.324455
O O11 0.500000 0.938373 0.250000
O O12 0.761051 0.874788 0.428928
O O13 0.400483 0.991405 0.039399
O O14 0.265223 0.848904 0.935450
O O15 0.973983 0.316653 0.431793
O O16 0.036836 0.275985 0.390047
O O17 0.000000 0.791383 0.750000
#
# Coordination Sequence:
#
# PCOD9226694 Si02
#       8
#     4   4   4   4   4   4   4   4
#     4  10  20  31  46  68  95 126 152 187 234 282
#     4   9  17  28  42  63  88 119 149 177 217 256
#     4   9  17  28  42  62  91 117 146 185 213 256
#     4  10  20  34  51  68  91 124 159 195 232 271
#     4  10  18  28  45  64  90 123 152 180 217 272
#     4  10  20  33  47  66  95 123 154 191 230 282
#     4  10  18  28  44  65  90 122 153 181 222 271
#     4  10  20  32  47  69  94 120 154 194 227 262
#
# _framework density 16.609086999999999
#
# number of rings (size 3 to 8) (size 9 to 14) (size 15 to 20)
#    0.000    2.250    0.000    3.750    0.000    7.000 
#    0.000    0.000    0.000    0.000    0.000    0.000 
#    0.000   20.000    0.000    0.000    0.000    0.000 
#
# Total GULP energy -178336.255148 kJ/mol
# GULP energy per Si atom -5573.007973 kJ/mol
# Density = 1.657128 g / cm^3
# Si number density = 16.609087 Si / 1000 Ang^3
#
#
#
# Elastic Constant Matrix: (Units=GPa)
#
#
# Indices 1 2 3 4 5 6 
#
# 1 17.7377 13.9874 18.1253 0.0000 -3.4143 0.0000
# 2 13.9874 67.4970 12.7445 0.0000 -0.5210 0.0000
# 3 18.1253 12.7445 77.5238 0.0000 -1.7599 0.0000
# 4 0.0000 0.0000 0.0000 26.0705 0.0000 -0.2219
# 5 -3.4143 -0.5210 -1.7599 0.0000 11.4699 0.0000
# 6 0.0000 0.0000 0.0000 -0.2219 0.0000 14.3296
#
#
#
# Elastic Compliance Matrix: (Units=1/GPa)
#
#
# Indices 1 2 3 4 5 6 
#
# 1 0.091923 -0.015387 -0.018421 0.000000 0.023837 0.000000
# 2 -0.015387 0.017867 0.000577 0.000000 -0.003680 0.000000
# 3 -0.018421 0.000577 0.017047 0.000000 -0.002842 0.000000
# 4 0.000000 0.000000 0.000000 0.038363 0.000000 0.000594
# 5 0.023837 -0.003680 -0.002842 0.000000 0.093677 0.000000
# 6 0.000000 0.000000 0.000000 0.000594 0.000000 0.069795
#
#
# Mechanical properties :
#
#
# Convention : Reuss Voigt Hill
#
# Bulk Modulus (GPa) = 16.56349 28.05255 22.30802
# Shear Modulus (GPa) = 12.04070 18.23408 15.13739
#
# Velocity S-wave (km/s) = 2.69540 3.31696 3.02220
# Velocity P-wave (km/s) = 4.43634 5.62105 5.06346
#
# Compressibility (1/GPa) = 0.06037374
#
# Stress axis : x y z
#
# Youngs Moduli (GPa) = 10.87870 55.96973 58.66182
#
# Poissons Ratio (x) = 0.86120 1.08062
# Poissons Ratio (y) = 0.16739 -0.03383
# Poissons Ratio (z) = 0.20040 -0.03228
#
# Static dielectric constant tensor:
#      x y z
#    x 1.545930 0.000000 0.007210 
#    y 0.000000 1.559470 0.000000 
#    z 0.007210 0.000000 1.571420 
# 
# From -- ./inp_files/89283.got.cif
#   From: 2010.05.17/outbox.cif.g08.bks.cpg/sg13_45_cif.got.tgz:89283.got - 2010.06.03 16:44:36.
