data_PCOD9226555
_publ_section_title
;
Structure prediction by ZEFSAII (Michael W. Deem and Ramdas Pophale) SiO2 
 PCOD9226555
Probable space group: P 2/C
;
_chemical_formula_sum "Si O2"
_cell_formula_units_Z 28
_cell_length_a 20.284510
_cell_length_b 13.001054
_cell_length_c 8.310854
_cell_angle_alpha 90.000000
_cell_angle_beta 36.091551
_cell_angle_gamma 90.000000
_cell_volume 1291.103183
_symmetry_space_group_name_H-M "P 2/C"
_symmetry_group_IT_number 13
_symmetry_cell_setting 'monoclinic'
loop_
_space_group_symop_operation_xyz
x,y,z
-x,y,1/2-z
-x,-y,-z
x,-y,1/2+z
loop_
_atom_site_type_symbol
_atom_site_label
_atom_site_fract_x
_atom_site_fract_y
_atom_site_fract_z
Si Si1 0.637739 0.126826 0.326518
Si Si2 0.746443 0.943338 0.283141
Si Si3 0.428453 0.186405 0.553144
Si Si4 0.612900 0.334164 0.584079
Si Si5 0.150114 0.629573 0.944047
Si Si6 0.973061 0.719528 0.051050
Si Si7 0.000000 0.899358 0.750000
Si Si8 0.000000 0.445962 0.250000
O O1 0.512433 0.117922 0.498250
O O2 0.632068 0.237937 0.422851
O O3 0.679151 0.047989 0.380923
O O4 0.717942 0.103357 0.014982
O O5 0.687012 0.866898 0.272193
O O6 0.879694 0.955644 0.992747
O O7 0.402303 0.286081 0.710148
O O8 0.500000 0.206539 0.250000
O O9 0.725497 0.396184 0.347005
O O10 0.500000 0.387815 0.750000
O O11 0.082378 0.673888 0.924770
O O12 0.124970 0.718459 0.124470
O O13 0.092259 0.526846 0.127099
O O14 0.941979 0.632104 0.984966
O O15 0.997174 0.824373 0.911525
#
# Coordination Sequence:
#
# PCOD9226555 Si02
#       8
#     4   4   4   4   4   4   2   2
#     4  10  21  35  51  71  98 136 179 219 252 297
#     4  11  21  34  51  73 102 136 175 217 263 305
#     4   9  19  35  54  72  94 131 181 223 253 294
#     4  10  20  34  53  78 105 133 170 214 260 303
#     4  10  17  32  57  80 105 135 170 210 249 301
#     4   9  19  34  55  80 105 135 171 207 249 303
#     4  11  22  34  49  76 110 136 163 212 268 315
#     4   9  18  34  57  84 106 134 173 206 242 297
#
# _framework density 21.686881
#
# number of rings (size 3 to 8) (size 9 to 14) (size 15 to 20)
#    0.000    2.286    0.000    4.714    0.000    4.571 
#    0.000    2.143    0.000    3.429    0.000    6.000 
#    0.000    0.000    0.000    0.000    0.000    0.000 
#
# Total GULP energy -156104.216225 kJ/mol
# GULP energy per Si atom -5575.150579 kJ/mol
# Density = 2.163752 g / cm^3
# Si number density = 21.686881 Si / 1000 Ang^3
#
#
#
# Elastic Constant Matrix: (Units=GPa)
#
#
# Indices 1 2 3 4 5 6 
#
# 1 54.1034 -2.7980 26.7276 0.0000 -8.8177 0.0000
# 2 -2.7980 11.9179 -5.1620 0.0000 2.1601 0.0000
# 3 26.7276 -5.1620 107.5065 0.0000 -35.9190 0.0000
# 4 0.0000 0.0000 0.0000 -107.9654 0.0000 -62.6119
# 5 -8.8177 2.1601 -35.9190 0.0000 32.8057 0.0000
# 6 0.0000 0.0000 0.0000 -62.6119 0.0000 -23.0843
#
#
#
# Elastic Compliance Matrix: (Units=1/GPa)
#
#
# Indices 1 2 3 4 5 6 
#
# 1 0.021159 0.002753 -0.005186 0.000000 -0.000172 0.000000
# 2 0.002753 0.086114 0.002843 0.000000 -0.001817 0.000000
# 3 -0.005186 0.002843 0.016083 0.000000 0.016028 0.000000
# 4 0.000000 0.000000 0.000000 0.016166 0.000000 -0.043848
# 5 -0.000172 -0.001817 0.016028 0.000000 0.048105 0.000000
# 6 0.000000 0.000000 0.000000 -0.043848 0.000000 0.075609
#
#
# Mechanical properties :
#
#
# Convention : Reuss Voigt Hill
#
# Bulk Modulus (GPa) = 8.05303 23.45144 15.75223
# Shear Modulus (GPa) = 16.45779 -9.33144 3.56317
#
# Velocity S-wave (km/s) = 2.75777 -2.07657 1.28319
# Velocity P-wave (km/s) = 3.72314 2.25557 3.07810
#
# Compressibility (1/GPa) = 0.12417689
#
# Stress axis : x y z
#
# Youngs Moduli (GPa) = 47.26060 11.61246 62.17908
#
# Poissons Ratio (x) = -0.03197 0.32244
# Poissons Ratio (y) = -0.13009 -0.17680
# Poissons Ratio (z) = 0.24508 -0.03302
#
# Static dielectric constant tensor:
#      x y z
#    x 1.839990 0.000000 -0.002270 
#    y 0.000000 1.778060 0.000000 
#    z -0.002270 0.000000 1.811340 
# 
# From -- ./inp_files/24212.got.cif
#   From: 2010.05.17/outbox.cif.g08.bks.cpg/sg13_13_cif.got.tgz:24212.got - 2010.06.03 16:44:36.
