data_PCOD9226876
_publ_section_title
;
Structure prediction by ZEFSAII (Michael W. Deem and Ramdas Pophale) SiO2 
 PCOD9226876
Probable space group: P 2/C
;
_chemical_formula_sum "Si O2"
_cell_formula_units_Z 32
_cell_length_a 27.930001
_cell_length_b 11.289158
_cell_length_c 13.258689
_cell_angle_alpha 90.000000
_cell_angle_beta 153.224362
_cell_angle_gamma 90.000000
_cell_volume 1883.327854
_symmetry_space_group_name_H-M "P 2/C"
_symmetry_group_IT_number 13
_symmetry_cell_setting 'monoclinic'
loop_
_space_group_symop_operation_xyz
x,y,z
-x,y,1/2-z
-x,-y,-z
x,-y,1/2+z
loop_
_atom_site_type_symbol
_atom_site_label
_atom_site_fract_x
_atom_site_fract_y
_atom_site_fract_z
Si Si1 0.388327 0.688946 0.304686
Si Si2 0.724716 0.930031 0.359664
Si Si3 0.618428 0.635913 0.444230
Si Si4 0.122253 0.792401 0.008262
Si Si5 0.622330 0.093112 0.006975
Si Si6 0.574183 0.251999 0.296939
Si Si7 0.275417 0.586242 0.283375
Si Si8 0.753874 0.064538 0.603809
O O1 0.347236 0.824610 0.231289
O O2 0.381828 0.646893 0.177735
O O3 0.503456 0.693680 0.574895
O O4 0.317180 0.612501 0.248736
O O5 0.804583 0.863464 0.434416
O O6 0.784311 0.001740 0.558140
O O7 0.651798 0.024727 0.164388
O O8 0.500000 0.590512 0.250000
O O9 0.631352 0.765162 0.518924
O O10 0.708873 0.549205 0.656857
O O11 0.165656 0.657433 0.090155
O O12 0.153508 0.859299 0.170253
O O13 0.000000 0.798866 0.750000
O O14 0.500000 0.068128 0.750000
O O15 0.706139 0.037060 0.086372
O O16 0.500000 0.204737 0.250000
O O17 0.645290 0.347130 0.489701
O O18 0.653297 0.152913 0.404278
#
# Coordination Sequence:
#
# PCOD9226876 Si02
#       8
#     4   4   4   4   4   4   4   4
#     4  10  19  34  52  73 109 155 173 203 258 303
#     4  10  20  33  53  78 110 141 166 218 271 312
#     4  11  22  32  48  82 112 146 180 207 243 308
#     4   9  20  39  60  76  92 130 184 229 276 323
#     4  10  20  31  46  80 120 147 174 198 240 313
#     4   9  17  29  49  74 105 145 184 205 239 308
#     4   9  20  37  52  72 102 138 183 229 258 298
#     4  10  18  31  52  80 106 137 168 216 262 313
#
# _framework density 16.991199000000002
#
# number of rings (size 3 to 8) (size 9 to 14) (size 15 to 20)
#    0.000    2.250    1.250    4.500    3.500    3.500 
#    2.250    0.000    0.000    6.000    0.000    0.000 
#    0.000    0.000    0.000    0.000    0.000    0.000 
#
# Total GULP energy -178380.302581 kJ/mol
# GULP energy per Si atom -5574.384456 kJ/mol
# Density = 1.695253 g / cm^3
# Si number density = 16.991199 Si / 1000 Ang^3
#
#
#
# Elastic Constant Matrix: (Units=GPa)
#
#
# Indices 1 2 3 4 5 6 
#
# 1 43.9194 22.3722 29.1815 0.0000 -23.2146 0.0000
# 2 22.3722 76.6875 33.5916 0.0000 -6.2927 0.0000
# 3 29.1815 33.5916 95.7275 0.0000 -0.1315 0.0000
# 4 0.0000 0.0000 0.0000 23.1954 0.0000 -4.0248
# 5 -23.2146 -6.2927 -0.1315 0.0000 26.0124 0.0000
# 6 0.0000 0.0000 0.0000 -4.0248 0.0000 10.7802
#
#
#
# Elastic Compliance Matrix: (Units=1/GPa)
#
#
# Indices 1 2 3 4 5 6 
#
# 1 0.073008 -0.007562 -0.019515 0.000000 0.063227 0.000000
# 2 -0.007562 0.016556 -0.003508 0.000000 -0.002761 0.000000
# 3 -0.019515 -0.003508 0.017601 0.000000 -0.018176 0.000000
# 4 0.000000 0.000000 0.000000 0.046098 0.000000 0.017211
# 5 0.063227 -0.002761 -0.018176 0.000000 0.094110 0.000000
# 6 0.000000 0.000000 0.000000 0.017211 0.000000 0.099188
#
#
# Mechanical properties :
#
#
# Convention : Reuss Voigt Hill
#
# Bulk Modulus (GPa) = 21.74184 42.95833 32.35009
# Shear Modulus (GPa) = 11.81852 20.74353 16.28103
#
# Velocity S-wave (km/s) = 2.64022 3.49784 3.09884
# Velocity P-wave (km/s) = 4.70299 6.45374 5.64663
#
# Compressibility (1/GPa) = 0.04599427
#
# Stress axis : x y z
#
# Youngs Moduli (GPa) = 13.69714 60.40021 56.81367
#
# Poissons Ratio (x) = 0.45676 1.10873
# Poissons Ratio (y) = 0.10358 0.19932
# Poissons Ratio (z) = 0.26730 0.21190
#
# Static dielectric constant tensor:
#      x y z
#    x 1.586120 0.000000 -0.021390 
#    y 0.000000 1.607730 0.000000 
#    z -0.021390 0.000000 1.562420 
# 
# From -- ./inp_files/42387.got.cif
#   From: 2010.05.17/outbox.cif.g08.bks.cpg/sg13_22_cif.got.tgz:42387.got - 2010.06.03 16:44:36.
