data_PCOD9226787
_publ_section_title
;
Structure prediction by ZEFSAII (Michael W. Deem and Ramdas Pophale) SiO2 
 PCOD9226787
Probable space group: P 2/C
;
_chemical_formula_sum "Si O2"
_cell_formula_units_Z 32
_cell_length_a 10.642582
_cell_length_b 16.104366
_cell_length_c 10.593517
_cell_angle_alpha 90.000000
_cell_angle_beta 82.203708
_cell_angle_gamma 90.000000
_cell_volume 1798.861755
_symmetry_space_group_name_H-M "P 2/C"
_symmetry_group_IT_number 13
_symmetry_cell_setting 'monoclinic'
loop_
_space_group_symop_operation_xyz
x,y,z
-x,y,1/2-z
-x,-y,-z
x,-y,1/2+z
loop_
_atom_site_type_symbol
_atom_site_label
_atom_site_fract_x
_atom_site_fract_y
_atom_site_fract_z
Si Si1 0.882112 0.537442 0.855704
Si Si2 0.594846 0.088121 0.116799
Si Si3 0.744196 0.593362 0.088471
Si Si4 0.131562 0.346511 0.674452
Si Si5 0.650195 0.424890 0.204448
Si Si6 0.555365 0.729122 0.102556
Si Si7 0.309697 0.739598 0.958216
Si Si8 0.419425 0.907970 0.390313
O O1 0.890689 0.438863 0.878362
O O2 0.749009 0.557301 0.804165
O O3 0.000000 0.559733 0.750000
O O4 0.870219 0.585809 0.987991
O O5 0.500000 0.095880 0.250000
O O6 0.687156 0.167483 0.099101
O O7 0.654697 0.995200 0.108455
O O8 0.509981 0.088319 0.000808
O O9 0.776618 0.632226 0.220008
O O10 0.686624 0.501218 0.107098
O O11 0.641128 0.654307 0.045473
O O12 0.195297 0.284943 0.566699
O O13 0.000000 0.315166 0.750000
O O14 0.500000 0.430633 0.250000
O O15 0.679365 0.334291 0.144393
O O16 0.500000 0.713272 0.250000
O O17 0.635555 0.815087 0.094655
O O18 0.436585 0.736153 0.026023
O O19 0.500000 0.906018 0.250000
#
# Coordination Sequence:
#
# PCOD9226787 Si02
#       8
#     4   4   4   4   4   4   4   4
#     4  10  23  38  53  71  99 145 185 218 257 306
#     4   9  17  30  50  76 107 137 165 203 260 317
#     4  11  21  34  53  72 103 136 173 214 255 311
#     4  10  22  35  52  73  96 137 183 221 253 297
#     4  11  23  33  50  77 109 136 168 213 268 313
#     4  10  18  30  50  79 107 131 167 204 259 313
#     4  11  20  33  51  76 108 134 166 213 261 313
#     4   8  16  30  49  74 108 137 166 204 250 319
#
# _framework density 17.789026
#
# number of rings (size 3 to 8) (size 9 to 14) (size 15 to 20)
#    0.000    2.000    2.500    1.500    3.500    3.500 
#    0.000    0.000    0.000    0.000    0.000    1.750 
#    0.000    0.000    0.000    0.000    0.000    0.000 
#
# Total GULP energy -178237.345305 kJ/mol
# GULP energy per Si atom -5569.917041 kJ/mol
# Density = 1.774854 g / cm^3
# Si number density = 17.789026 Si / 1000 Ang^3
#
#
#
# Elastic Constant Matrix: (Units=GPa)
#
#
# Indices 1 2 3 4 5 6 
#
# 1 64.1786 21.6238 19.0441 0.0000 -11.9622 0.0000
# 2 21.6238 134.4684 34.9472 0.0000 -18.9619 0.0000
# 3 19.0441 34.9472 76.7904 0.0000 -14.3198 0.0000
# 4 0.0000 0.0000 0.0000 25.2294 0.0000 -1.0296
# 5 -11.9622 -18.9619 -14.3198 0.0000 28.5460 0.0000
# 6 0.0000 0.0000 0.0000 -1.0296 0.0000 3.9934
#
#
#
# Elastic Compliance Matrix: (Units=1/GPa)
#
#
# Indices 1 2 3 4 5 6 
#
# 1 0.017852 -0.001413 -0.002829 0.000000 0.005123 0.000000
# 2 -0.001413 0.008995 -0.003022 0.000000 0.003867 0.000000
# 3 -0.002829 -0.003022 0.016001 0.000000 0.004834 0.000000
# 4 0.000000 0.000000 0.000000 0.040058 0.000000 0.010327
# 5 0.005123 0.003867 0.004834 0.000000 0.042171 0.000000
# 6 0.000000 0.000000 0.000000 0.010327 0.000000 0.253073
#
#
# Mechanical properties :
#
#
# Convention : Reuss Voigt Hill
#
# Bulk Modulus (GPa) = 35.31143 47.40750 41.35946
# Shear Modulus (GPa) = 12.43419 24.87526 18.65472
#
# Velocity S-wave (km/s) = 2.64669 3.74351 3.24182
# Velocity P-wave (km/s) = 5.40677 6.73742 6.10844
#
# Compressibility (1/GPa) = 0.02831944
#
# Stress axis : x y z
#
# Youngs Moduli (GPa) = 56.01625 111.17838 62.49733
#
# Poissons Ratio (x) = 0.15711 0.17679
# Poissons Ratio (y) = 0.07916 0.18886
# Poissons Ratio (z) = 0.15846 0.33597
#
# Static dielectric constant tensor:
#      x y z
#    x 1.618780 0.000000 0.027940 
#    y 0.000000 1.650010 0.000000 
#    z 0.027940 0.000000 1.650770 
# 
# From -- ./inp_files/34390.got.cif
#   From: 2010.05.17/outbox.cif.g08.bks.cpg/sg13_18_cif.got.tgz:34390.got - 2010.06.03 16:44:36.
