data_PCOD9226276
_publ_section_title
;
Structure prediction by ZEFSAII (Michael W. Deem and Ramdas Pophale) SiO2 
 PCOD9226276
Probable space group: P 2/C
;
_chemical_formula_sum "Si O2"
_cell_formula_units_Z 26
_cell_length_a 10.191181
_cell_length_b 8.511597
_cell_length_c 16.718723
_cell_angle_alpha 90.000000
_cell_angle_beta 46.756299
_cell_angle_gamma 90.000000
_cell_volume 1056.419011
_symmetry_space_group_name_H-M "P 2/C"
_symmetry_group_IT_number 13
_symmetry_cell_setting 'monoclinic'
loop_
_space_group_symop_operation_xyz
x,y,z
-x,y,1/2-z
-x,-y,-z
x,-y,1/2+z
loop_
_atom_site_type_symbol
_atom_site_label
_atom_site_fract_x
_atom_site_fract_y
_atom_site_fract_z
Si Si1 0.910565 0.855143 0.876233
Si Si2 0.584427 0.353801 0.079816
Si Si3 0.937007 0.201186 0.931591
Si Si4 0.481878 0.290287 0.943809
Si Si5 0.000000 0.421058 0.750000
Si Si6 0.791821 0.383245 0.218184
Si Si7 0.691735 0.281075 0.709307
O O1 0.000000 0.866186 0.750000
O O2 0.039840 0.728342 0.866334
O O3 0.908106 0.026399 0.914873
O O4 0.704454 0.799475 0.966851
O O5 0.572363 0.543304 0.076055
O O6 0.398749 0.297748 0.196978
O O7 0.761549 0.279246 0.044450
O O8 0.568733 0.303744 0.994214
O O9 0.962244 0.315904 0.843284
O O10 0.129098 0.198401 0.895846
O O11 0.641149 0.226602 0.820500
O O12 0.840311 0.535857 0.785324
O O13 0.750774 0.535775 0.181834
O O14 0.500000 0.254367 0.750000
#
# Coordination Sequence:
#
# PCOD9226276 Si02
#       7
#     4   4   4   4   2   4   4
#     4  12  22  35  55  95 127 150 177 236 309 365
#     4  10  18  34  57  90 114 149 183 244 297 347
#     4  11  22  33  55  86 122 152 191 232 298 353
#     4  10  20  35  61  86 120 151 192 237 295 343
#     4  10  16  32  54  82 116 154 184 242 290 344
#     4  10  19  36  62  84 120 149 194 241 292 339
#     4  10  23  43  62  81 110 159 210 245 272 331
#
# _framework density 24.611446999999998
#
# number of rings (size 3 to 8) (size 9 to 14) (size 15 to 20)
#    0.000    1.538    3.077    5.538    0.000    1.846 
#    0.000    8.462    0.000    0.000    0.000    0.000 
#    0.000    0.000    0.000    0.000    0.000    0.000 
#
# Total GULP energy -145335.722955 kJ/mol
# GULP energy per Si atom -5589.835498 kJ/mol
# Density = 2.455543 g / cm^3
# Si number density = 24.611447 Si / 1000 Ang^3
#
#
#
# Elastic Constant Matrix: (Units=GPa)
#
#
# Indices 1 2 3 4 5 6 
#
# 1 105.6941 20.4815 36.8358 0.0000 -45.2070 0.0000
# 2 20.4815 69.9656 27.7510 0.0000 -22.7276 0.0000
# 3 36.8358 27.7510 122.0860 0.0000 -38.5017 0.0000
# 4 0.0000 0.0000 0.0000 17.4432 0.0000 -1.0701
# 5 -45.2070 -22.7276 -38.5017 0.0000 61.4577 0.0000
# 6 0.0000 0.0000 0.0000 -1.0701 0.0000 11.3290
#
#
#
# Elastic Compliance Matrix: (Units=1/GPa)
#
#
# Indices 1 2 3 4 5 6 
#
# 1 0.013969 -0.000606 -0.001131 0.000000 0.009343 0.000000
# 2 -0.000606 0.016778 -0.002262 0.000000 0.004342 0.000000
# 3 -0.001131 -0.002262 0.010618 0.000000 0.004984 0.000000
# 4 0.000000 0.000000 0.000000 0.057663 0.000000 0.005446
# 5 0.009343 0.004342 0.004984 0.000000 0.027872 0.000000
# 6 0.000000 0.000000 0.000000 0.005446 0.000000 0.088784
#
#
# Mechanical properties :
#
#
# Convention : Reuss Voigt Hill
#
# Bulk Modulus (GPa) = 29.96845 51.98692 40.97769
# Shear Modulus (GPa) = 21.29461 32.22446 26.75954
#
# Velocity S-wave (km/s) = 2.94467 3.62239 3.30097
# Velocity P-wave (km/s) = 4.87489 6.21808 5.58700
#
# Compressibility (1/GPa) = 0.03336842
#
# Stress axis : x y z
#
# Youngs Moduli (GPa) = 71.58832 59.60339 94.18094
#
# Poissons Ratio (x) = 0.03611 0.10647
# Poissons Ratio (y) = 0.04337 0.21299
# Poissons Ratio (z) = 0.08093 0.13479
#
# Static dielectric constant tensor:
#      x y z
#    x 2.070510 0.000000 0.047130 
#    y 0.000000 1.915270 0.000000 
#    z 0.047130 0.000000 2.005900 
# 
# From -- ./inp_files/78185.got.cif
#   From: 2010.05.17/outbox.cif.g08.bks.cpg/sg13_40_cif.got.tgz:78185.got - 2010.06.03 16:44:36.
