data_PCOD9226137
_publ_section_title
;
Structure prediction by ZEFSAII (Michael W. Deem and Ramdas Pophale) SiO2 
 PCOD9226137
Probable space group: P 2/C
;
_chemical_formula_sum "Si O2"
_cell_formula_units_Z 24
_cell_length_a 20.205170
_cell_length_b 11.922196
_cell_length_c 5.197815
_cell_angle_alpha 90.000000
_cell_angle_beta 72.158163
_cell_angle_gamma 90.000000
_cell_volume 1191.882966
_symmetry_space_group_name_H-M "P 2/C"
_symmetry_group_IT_number 13
_symmetry_cell_setting 'monoclinic'
loop_
_space_group_symop_operation_xyz
x,y,z
-x,y,1/2-z
-x,-y,-z
x,-y,1/2+z
loop_
_atom_site_type_symbol
_atom_site_label
_atom_site_fract_x
_atom_site_fract_y
_atom_site_fract_z
Si Si1 0.921111 0.131167 0.253089
Si Si2 0.608343 0.750442 0.969784
Si Si3 0.500000 0.607942 0.750000
Si Si4 0.297859 0.926398 0.907262
Si Si5 0.500000 0.924041 0.250000
Si Si6 0.137060 0.121919 0.677708
Si Si7 0.640683 0.442170 0.812196
O O1 0.871365 0.177351 0.535130
O O2 0.000000 0.138524 0.250000
O O3 0.899208 0.000365 0.239912
O O4 0.905227 0.182744 0.995757
O O5 0.550136 0.684602 0.871993
O O6 0.659160 0.815939 0.716273
O O7 0.566542 0.844763 0.172563
O O8 0.645022 0.670320 0.136479
O O9 0.442118 0.552766 0.013190
O O10 0.311951 0.017258 0.665559
O O11 0.215923 0.897469 0.002385
O O12 0.500000 0.000000 0.500000
O O13 0.668007 0.533835 0.569065
#
# Coordination Sequence:
#
# PCOD9226137 Si02
#       7
#     4   4   2   4   2   4   4
#     4  10  16  26  46  72  96 127 181 235 259 285
#     4  12  27  39  62  81 107 137 186 224 278 337
#     4  12  23  43  58  88 104 124 171 229 290 344
#     4  12  24  40  54  73 108 154 193 219 256 308
#     4  12  25  41  54  76 108 138 179 223 266 296
#     4  10  16  30  44  68  97 136 180 222 246 307
#     4  12  25  42  66  87 106 126 160 233 304 348
#
# _framework density 20.136205
#
# number of rings (size 3 to 8) (size 9 to 14) (size 15 to 20)
#    0.000    0.667    6.667    4.500    2.333    0.000 
#    0.000    0.000    0.000    0.000    0.000    0.000 
#    0.000    0.000    0.000    0.000    0.000   28.333 
#
# Total GULP energy -133881.836881 kJ/mol
# GULP energy per Si atom -5578.409870 kJ/mol
# Density = 2.009037 g / cm^3
# Si number density = 20.136205 Si / 1000 Ang^3
#
#
#
# Elastic Constant Matrix: (Units=GPa)
#
#
# Indices 1 2 3 4 5 6 
#
# 1 37.4354 9.0904 9.4858 0.0000 2.7308 0.0000
# 2 9.0904 61.1111 28.6616 0.0000 -2.7769 0.0000
# 3 9.4858 28.6616 136.6736 0.0000 23.3641 0.0000
# 4 0.0000 0.0000 0.0000 6.6793 0.0000 25.5516
# 5 2.7308 -2.7769 23.3641 0.0000 37.9781 0.0000
# 6 0.0000 0.0000 0.0000 25.5516 0.0000 -34.8362
#
#
#
# Elastic Compliance Matrix: (Units=1/GPa)
#
#
# Indices 1 2 3 4 5 6 
#
# 1 0.027989 -0.003856 -0.000829 0.000000 -0.001785 0.000000
# 2 -0.003856 0.019270 -0.004539 0.000000 0.004479 0.000000
# 3 -0.000829 -0.004539 0.009357 0.000000 -0.006028 0.000000
# 4 0.000000 0.000000 0.000000 0.039338 0.000000 0.028853
# 5 -0.001785 0.004479 -0.006028 0.000000 0.030495 0.000000
# 6 0.000000 0.000000 0.000000 0.028853 0.000000 -0.007542
#
#
# Mechanical properties :
#
#
# Convention : Reuss Voigt Hill
#
# Bulk Modulus (GPa) = 26.19996 36.63285 31.41641
# Shear Modulus (GPa) = 33.31640 14.49638 23.90639
#
# Velocity S-wave (km/s) = 4.07203 2.68604 3.44936
# Velocity P-wave (km/s) = 5.92859 5.27748 5.61248
#
# Compressibility (1/GPa) = 0.03816799
#
# Stress axis : x y z
#
# Youngs Moduli (GPa) = 35.72808 51.89543 106.87586
#
# Poissons Ratio (x) = 0.20010 0.08859
# Poissons Ratio (y) = 0.13776 0.48511
# Poissons Ratio (z) = 0.02962 0.23555
#
# Static dielectric constant tensor:
#      x y z
#    x 1.753190 0.000000 0.061280 
#    y 0.000000 1.811580 0.000000 
#    z 0.061280 0.000000 1.822580 
# 
# From -- ./inp_files/6834.got.cif
#   From: 2010.05.17/outbox.cif.g08.bks.cpg/sg13_4_cif.got.tgz:6834.got - 2010.06.03 16:44:36.
