data_PCOD9226296
_publ_section_title
;
Structure prediction by ZEFSAII (Michael W. Deem and Ramdas Pophale) SiO2 
 PCOD9226296
Probable space group: P 2/C
;
_chemical_formula_sum "Si O2"
_cell_formula_units_Z 26
_cell_length_a 5.455692
_cell_length_b 6.900442
_cell_length_c 25.924738
_cell_angle_alpha 90.000000
_cell_angle_beta 92.293403
_cell_angle_gamma 90.000000
_cell_volume 975.198725
_symmetry_space_group_name_H-M "P 2/C"
_symmetry_group_IT_number 13
_symmetry_cell_setting 'monoclinic'
loop_
_space_group_symop_operation_xyz
x,y,z
-x,y,1/2-z
-x,-y,-z
x,-y,1/2+z
loop_
_atom_site_type_symbol
_atom_site_label
_atom_site_fract_x
_atom_site_fract_y
_atom_site_fract_z
Si Si1 0.079705 0.658818 0.191296
Si Si2 0.498817 0.848512 0.451497
Si Si3 0.500000 0.712056 0.250000
Si Si4 0.469635 0.184638 0.126576
Si Si5 0.844550 0.965261 0.705115
Si Si6 0.995714 0.235031 0.512108
Si Si7 0.046530 0.621509 0.899732
O O1 0.369786 0.611524 0.200678
O O2 0.000000 0.597314 0.250000
O O3 0.034241 0.888580 0.177574
O O4 0.963194 0.546219 0.143017
O O5 0.511736 0.975019 0.400456
O O6 0.746855 0.728025 0.457940
O O7 0.245280 0.735365 0.455606
O O8 0.500000 0.000000 0.500000
O O9 0.304032 0.860053 0.270547
O O10 0.636121 0.164200 0.178821
O O11 0.187044 0.249497 0.125232
O O12 0.667086 0.311450 0.095880
O O13 0.000000 0.858537 0.750000
O O14 0.000000 0.000000 0.500000
O O15 0.977341 0.352971 0.459212
#
# Coordination Sequence:
#
# PCOD9226296 Si02
#       7
#     4   4   2   4   4   4   4
#     4   9  22  42  60  80 115 164 201 241 300 374
#     4  10  16  33  52  81 117 158 181 231 292 370
#     4   8  18  44  62  70 108 168 196 224 298 368
#     4  12  23  35  61  95 118 148 200 253 300 343
#     4   9  22  42  60  80 115 164 201 241 300 374
#     4  10  16  33  52  81 117 158 181 231 292 370
#     4  12  23  35  61  95 118 148 200 253 300 343
#
# _framework density 26.661231999999998
#
# number of rings (size 3 to 8) (size 9 to 14) (size 15 to 20)
#    0.000    2.154    6.154    0.000    8.615    0.615 
#    0.000    0.000    0.000    1.846    0.000    0.000 
#    0.000    0.000    0.000    0.000    0.000    0.000 
#
# Total GULP energy -144857.182999 kJ/mol
# GULP energy per Si atom -5571.430115 kJ/mol
# Density = 2.660055 g / cm^3
# Si number density = 26.661232 Si / 1000 Ang^3
#
#
#
# Elastic Constant Matrix: (Units=GPa)
#
#
# Indices 1 2 3 4 5 6 
#
# 1 132.6194 17.0322 10.0293 0.0000 18.9678 0.0000
# 2 17.0322 70.5645 23.3643 0.0000 -5.2265 0.0000
# 3 10.0293 23.3643 88.4941 0.0000 19.7868 0.0000
# 4 0.0000 0.0000 0.0000 42.8068 0.0000 -2.0546
# 5 18.9678 -5.2265 19.7868 0.0000 42.1821 0.0000
# 6 0.0000 0.0000 0.0000 -2.0546 0.0000 63.5047
#
#
#
# Elastic Compliance Matrix: (Units=1/GPa)
#
#
# Indices 1 2 3 4 5 6 
#
# 1 0.008461 -0.002616 0.000732 0.000000 -0.004472 0.000000
# 2 -0.002616 0.017068 -0.005525 0.000000 0.005883 0.000000
# 3 0.000732 -0.005525 0.014415 0.000000 -0.007775 0.000000
# 4 0.000000 0.000000 0.000000 0.023397 0.000000 0.000757
# 5 -0.004472 0.005883 -0.007775 0.000000 0.030094 0.000000
# 6 0.000000 0.000000 0.000000 0.000757 0.000000 0.015771
#
#
# Mechanical properties :
#
#
# Convention : Reuss Voigt Hill
#
# Bulk Modulus (GPa) = 39.80176 43.61443 41.70809
# Shear Modulus (GPa) = 37.76491 45.78219 41.77355
#
# Velocity S-wave (km/s) = 3.76769 4.14839 3.96261
# Velocity P-wave (km/s) = 5.82138 6.27214 6.05096
#
# Compressibility (1/GPa) = 0.02512452
#
# Stress axis : x y z
#
# Youngs Moduli (GPa) = 118.19618 58.58966 69.37456
#
# Poissons Ratio (x) = 0.15324 -0.05075
# Poissons Ratio (y) = 0.30915 0.38331
# Poissons Ratio (z) = -0.08646 0.32372
#
# Static dielectric constant tensor:
#      x y z
#    x 1.635720 0.000000 0.050820 
#    y 0.000000 2.189740 0.000000 
#    z 0.050820 0.000000 2.276660 
# 
# From -- ./inp_files/90291.got.cif
#   From: 2010.05.17/outbox.cif.g08.bks.cpg/sg13_46_cif.got.tgz:90291.got - 2010.06.03 16:44:36.
