data_PCOD9226693
_publ_section_title
;
Structure prediction by ZEFSAII (Michael W. Deem and Ramdas Pophale) SiO2 
 PCOD9226693
Probable space group: P 2/C
;
_chemical_formula_sum "Si O2"
_cell_formula_units_Z 28
_cell_length_a 14.289510
_cell_length_b 14.755971
_cell_length_c 7.292244
_cell_angle_alpha 90.000000
_cell_angle_beta 111.895828
_cell_angle_gamma 90.000000
_cell_volume 1426.692475
_symmetry_space_group_name_H-M "P 2/C"
_symmetry_group_IT_number 13
_symmetry_cell_setting 'monoclinic'
loop_
_space_group_symop_operation_xyz
x,y,z
-x,y,1/2-z
-x,-y,-z
x,-y,1/2+z
loop_
_atom_site_type_symbol
_atom_site_label
_atom_site_fract_x
_atom_site_fract_y
_atom_site_fract_z
Si Si1 0.287508 0.712412 0.271449
Si Si2 0.125005 0.401390 0.164508
Si Si3 0.390920 0.898323 0.928637
Si Si4 0.904579 0.611495 0.422303
Si Si5 0.484027 0.606056 0.454627
Si Si6 0.318150 0.291311 0.347542
Si Si7 0.619784 0.899011 0.142679
O O1 0.174212 0.680130 0.223626
O O2 0.373224 0.645152 0.413808
O O3 0.312037 0.813490 0.357594
O O4 0.301247 0.707387 0.057964
O O5 0.131930 0.510056 0.153659
O O6 0.105904 0.381552 0.364985
O O7 0.226296 0.346986 0.192670
O O8 0.024023 0.377652 0.976915
O O9 0.329923 0.813922 0.804893
O O10 0.346487 0.997395 0.857944
O O11 0.509896 0.894163 0.966343
O O12 0.392828 0.887755 0.148937
O O13 0.500000 0.621422 0.250000
O O14 0.500000 0.500000 0.500000
O O15 0.574983 0.660928 0.613573
#
# Coordination Sequence:
#
# PCOD9226693 Si02
#       7
#     4   4   4   4   4   4   4
#     4   9  16  28  45  62  84 114 142 168 208 257
#     4   9  17  29  45  64  85 112 146 178 206 243
#     4   9  16  28  45  63  83 109 140 174 210 250
#     4   9  17  29  45  64  85 112 146 178 206 243
#     4  10  18  28  41  60  86 114 139 166 205 252
#     4   9  16  28  45  62  84 114 142 168 208 257
#     4   9  16  28  45  63  83 109 140 174 210 250
#
# _framework density 19.625813000000001
#
# number of rings (size 3 to 8) (size 9 to 14) (size 15 to 20)
#    0.000    2.857    1.429    0.857    0.000    0.000 
#    0.000    2.857    0.000    0.857    0.000    0.000 
#    0.000    0.000    0.000    0.000    0.000    0.000 
#
# Total GULP energy -156193.885127 kJ/mol
# GULP energy per Si atom -5578.353040 kJ/mol
# Density = 1.958114 g / cm^3
# Si number density = 19.625813 Si / 1000 Ang^3
#
#
#
# Elastic Constant Matrix: (Units=GPa)
#
#
# Indices 1 2 3 4 5 6 
#
# 1 62.7746 58.2232 33.4527 0.0000 35.7861 0.0000
# 2 58.2232 170.2357 41.4302 0.0000 55.3281 0.0000
# 3 33.4527 41.4302 87.0271 0.0000 13.4351 0.0000
# 4 0.0000 0.0000 0.0000 60.4914 0.0000 37.8178
# 5 35.7861 55.3281 13.4351 0.0000 37.3229 0.0000
# 6 0.0000 0.0000 0.0000 37.8178 0.0000 52.8363
#
#
#
# Elastic Compliance Matrix: (Units=1/GPa)
#
#
# Indices 1 2 3 4 5 6 
#
# 1 0.042895 0.000110 -0.010764 0.000000 -0.037416 0.000000
# 2 0.000110 0.012109 -0.003197 0.000000 -0.016905 0.000000
# 3 -0.010764 -0.003197 0.015698 0.000000 0.009410 0.000000
# 4 0.000000 0.000000 0.000000 0.029919 0.000000 -0.021415
# 5 -0.037416 -0.016905 0.009410 0.000000 0.084342 0.000000
# 6 0.000000 0.000000 0.000000 -0.021415 0.000000 0.034254
#
#
# Mechanical properties :
#
#
# Convention : Reuss Voigt Hill
#
# Bulk Modulus (GPa) = 23.25689 65.13883 44.19786
# Shear Modulus (GPa) = 19.13855 42.59220 30.86538
#
# Velocity S-wave (km/s) = 3.12616 4.66361 3.97002
# Velocity P-wave (km/s) = 4.99063 7.89059 6.60181
#
# Compressibility (1/GPa) = 0.04299800
#
# Stress axis : x y z
#
# Youngs Moduli (GPa) = 23.31296 82.58302 63.70340
#
# Poissons Ratio (x) = -0.00906 0.68573
# Poissons Ratio (y) = -0.00256 0.20366
# Poissons Ratio (z) = 0.25095 0.26402
#
# Static dielectric constant tensor:
#      x y z
#    x 1.715700 0.000000 -0.043260 
#    y 0.000000 1.687020 0.000000 
#    z -0.043260 0.000000 1.740750 
# 
# From -- ./inp_files/19441.got.cif
#   From: 2010.05.17/outbox.cif.g08.bks.cpg/sg13_10_cif.got.tgz:19441.got - 2010.06.03 16:44:36.
