data_PCOD9226646
_publ_section_title
;
Structure prediction by ZEFSAII (Michael W. Deem and Ramdas Pophale) SiO2 
 PCOD9226646
Probable space group: P 2/C
;
_chemical_formula_sum "Si O2"
_cell_formula_units_Z 24
_cell_length_a 6.406648
_cell_length_b 9.905104
_cell_length_c 17.862919
_cell_angle_alpha 90.000000
_cell_angle_beta 69.626261
_cell_angle_gamma 90.000000
_cell_volume 1062.641028
_symmetry_space_group_name_H-M "P 2/C"
_symmetry_group_IT_number 13
_symmetry_cell_setting 'monoclinic'
loop_
_space_group_symop_operation_xyz
x,y,z
-x,y,1/2-z
-x,-y,-z
x,-y,1/2+z
loop_
_atom_site_type_symbol
_atom_site_label
_atom_site_fract_x
_atom_site_fract_y
_atom_site_fract_z
Si Si1 0.528856 0.535964 0.390119
Si Si2 0.222394 0.351698 0.774868
Si Si3 0.998017 0.613532 0.837361
Si Si4 0.952841 0.856235 0.088744
Si Si5 0.170097 0.868981 0.564132
Si Si6 0.405502 0.715456 0.981502
O O1 0.577753 0.621519 0.308988
O O2 0.769821 0.468759 0.376570
O O3 0.479945 0.641506 0.461589
O O4 0.382034 0.402103 0.422717
O O5 0.000000 0.336117 0.750000
O O6 0.181705 0.496597 0.820113
O O7 0.194708 0.226961 0.834461
O O8 0.983005 0.742926 0.891617
O O9 0.000000 0.660137 0.750000
O O10 0.055732 0.994802 0.107625
O O11 0.169278 0.768901 0.038223
O O12 0.827222 0.884637 0.026273
O O13 0.418583 0.832512 0.561875
#
# Coordination Sequence:
#
# PCOD9226646 Si02
#       6
#     4   4   4   4   4   4
#     4   8  16  31  57  83 107 134 188 232 270 332
#     4   9  16  33  57  81 107 146 188 228 280 329
#     4   8  15  33  54  77 110 140 179 229 272 328
#     4  11  21  36  56  80 116 148 186 235 267 337
#     4  10  23  34  53  87 110 146 194 219 278 340
#     4  10  17  36  58  80 112 147 176 235 283 323
#
# _framework density 22.585239999999999
#
# number of rings (size 3 to 8) (size 9 to 14) (size 15 to 20)
#    0.000    3.000    3.333    0.500    0.000    1.333 
#    0.000    0.833    3.667    3.000    0.000    0.000 
#    0.000    0.000    0.000    0.000    0.000    0.000 
#
# Total GULP energy -133853.425249 kJ/mol
# GULP energy per Si atom -5577.226052 kJ/mol
# Density = 2.253383 g / cm^3
# Si number density = 22.585240 Si / 1000 Ang^3
#
#
#
# Elastic Constant Matrix: (Units=GPa)
#
#
# Indices 1 2 3 4 5 6 
#
# 1 38.9645 29.4674 16.1872 0.0000 -13.3871 0.0000
# 2 29.4674 135.6998 64.6978 0.0000 -8.7605 0.0000
# 3 16.1872 64.6978 118.6387 0.0000 -2.8351 0.0000
# 4 0.0000 0.0000 0.0000 -69.5648 0.0000 52.0485
# 5 -13.3871 -8.7605 -2.8351 0.0000 37.1902 0.0000
# 6 0.0000 0.0000 0.0000 52.0485 0.0000 -2.4287
#
#
#
# Elastic Compliance Matrix: (Units=1/GPa)
#
#
# Indices 1 2 3 4 5 6 
#
# 1 0.034614 -0.006332 -0.001009 0.000000 0.010891 0.000000
# 2 -0.006332 0.011258 -0.005276 0.000000 -0.000030 0.000000
# 3 -0.001009 -0.005276 0.011426 0.000000 -0.000735 0.000000
# 4 0.000000 0.000000 0.000000 0.000956 0.000000 0.020491
# 5 0.010891 -0.000030 -0.000735 0.000000 0.030746 0.000000
# 6 0.000000 0.000000 0.000000 0.020491 0.000000 0.027387
#
#
# Mechanical properties :
#
#
# Convention : Reuss Voigt Hill
#
# Bulk Modulus (GPa) = 31.18825 57.11198 44.15012
# Shear Modulus (GPa) = 32.82764 5.23604 19.03184
#
# Velocity S-wave (km/s) = 3.81662 1.52426 2.90602
# Velocity P-wave (km/s) = 5.76725 5.33292 5.55433
#
# Compressibility (1/GPa) = 0.03206335
#
# Stress axis : x y z
#
# Youngs Moduli (GPa) = 28.88965 88.82743 87.51743
#
# Poissons Ratio (x) = 0.56247 0.08834
# Poissons Ratio (y) = 0.18294 0.46174
# Poissons Ratio (z) = 0.02916 0.46865
#
# Static dielectric constant tensor:
#      x y z
#    x 1.992600 0.000000 0.066730 
#    y 0.000000 1.839530 0.000000 
#    z 0.066730 0.000000 1.856740 
# 
# From -- ./inp_files/75185.got.cif
#   From: 2010.05.17/outbox.cif.g08.bks.cpg/sg13_38_cif.got.tgz:75185.got - 2010.06.03 16:44:36.
