data_PCOD9226534
_publ_section_title
;
Structure prediction by ZEFSAII (Michael W. Deem and Ramdas Pophale) SiO2 
 PCOD9226534
Probable space group: P 2/C
;
_chemical_formula_sum "Si O2"
_cell_formula_units_Z 32
_cell_length_a 19.565474
_cell_length_b 5.243622
_cell_length_c 15.762518
_cell_angle_alpha 90.000000
_cell_angle_beta 126.373322
_cell_angle_gamma 90.000000
_cell_volume 1302.071822
_symmetry_space_group_name_H-M "P 2/C"
_symmetry_group_IT_number 13
_symmetry_cell_setting 'monoclinic'
loop_
_space_group_symop_operation_xyz
x,y,z
-x,y,1/2-z
-x,-y,-z
x,-y,1/2+z
loop_
_atom_site_type_symbol
_atom_site_label
_atom_site_fract_x
_atom_site_fract_y
_atom_site_fract_z
Si Si1 0.866051 0.048506 0.172543
Si Si2 0.278314 0.374503 0.600606
Si Si3 0.366029 0.872917 0.613840
Si Si4 0.784584 0.444728 0.664927
Si Si5 0.938543 0.244606 0.872993
Si Si6 0.379858 0.617082 0.353136
Si Si7 0.080554 0.339118 0.451395
Si Si8 0.470089 0.886278 0.868588
O O1 0.799674 0.269762 0.146157
O O2 0.915268 0.159091 0.128237
O O3 0.820906 0.774425 0.128978
O O4 0.922044 0.994013 0.298543
O O5 0.324129 0.595800 0.581579
O O6 0.322813 0.379166 0.725267
O O7 0.178626 0.422562 0.533205
O O8 0.298993 0.099827 0.575600
O O9 0.420252 0.884946 0.741281
O O10 0.432286 0.909388 0.586707
O O11 0.689716 0.398146 0.624771
O O12 0.851595 0.404232 0.791643
O O13 0.016307 0.421508 0.898434
O O14 0.057651 0.797449 0.023605
O O15 0.440700 0.374005 0.390617
O O16 0.434715 0.872422 0.392752
#
# Coordination Sequence:
#
# PCOD9226534 Si02
#       8
#     4   4   4   4   4   4   4   4
#     4  10  24  46  69 100 143 185 232 295 351 422
#     4  10  19  33  57  90 131 172 225 287 341 415
#     4   9  18  31  49  87 139 167 221 288 335 411
#     4  10  21  45  63 100 138 180 224 299 339 403
#     4   9  24  48  74 105 146 180 244 299 346 439
#     4  10  17  31  60  89 130 175 229 278 342 416
#     4  11  22  48  75 110 135 198 236 295 373 413
#     4   9  17  28  52  89 128 183 216 274 354 404
#
# _framework density 24.576217
#
# number of rings (size 3 to 8) (size 9 to 14) (size 15 to 20)
#    0.750    1.500    1.250    1.500    0.000    5.500 
#    9.000    1.250    0.000    0.750    0.000   17.500 
#    0.000    0.000    0.000    0.000    0.000    0.000 
#
# Total GULP energy -179117.448684 kJ/mol
# GULP energy per Si atom -5597.420271 kJ/mol
# Density = 2.452028 g / cm^3
# Si number density = 24.576217 Si / 1000 Ang^3
#
#
#
# Elastic Constant Matrix: (Units=GPa)
#
#
# Indices 1 2 3 4 5 6 
#
# 1 178.0453 74.5118 41.2608 0.0000 -7.2780 0.0000
# 2 74.5118 152.7828 36.9674 0.0000 -10.3822 0.0000
# 3 41.2608 36.9674 118.7357 0.0000 -30.6405 0.0000
# 4 0.0000 0.0000 0.0000 40.0526 0.0000 7.6338
# 5 -7.2780 -10.3822 -30.6405 0.0000 31.5389 0.0000
# 6 0.0000 0.0000 0.0000 7.6338 0.0000 35.0212
#
#
#
# Elastic Compliance Matrix: (Units=1/GPa)
#
#
# Indices 1 2 3 4 5 6 
#
# 1 0.007342 -0.003212 -0.001851 0.000000 -0.001161 0.000000
# 2 -0.003212 0.008485 -0.001329 0.000000 0.000760 0.000000
# 3 -0.001851 -0.001329 0.012353 0.000000 0.011136 0.000000
# 4 0.000000 0.000000 0.000000 0.026049 0.000000 -0.005678
# 5 -0.001161 0.000760 0.011136 0.000000 0.042508 0.000000
# 6 0.000000 0.000000 0.000000 -0.005678 0.000000 0.029792
#
#
# Mechanical properties :
#
#
# Convention : Reuss Voigt Hill
#
# Bulk Modulus (GPa) = 64.95387 83.89377 74.42382
# Shear Modulus (GPa) = 34.61496 41.11080 37.86288
#
# Velocity S-wave (km/s) = 3.75704 4.09441 3.92935
# Velocity P-wave (km/s) = 6.73107 7.52081 7.13687
#
# Compressibility (1/GPa) = 0.01539554
#
# Stress axis : x y z
#
# Youngs Moduli (GPa) = 136.19899 117.85571 80.95166
#
# Poissons Ratio (x) = 0.37853 0.14986
# Poissons Ratio (y) = 0.43744 0.10762
# Poissons Ratio (z) = 0.25213 0.15667
#
# Static dielectric constant tensor:
#      x y z
#    x 1.869980 0.000000 -0.026880 
#    y 0.000000 1.881560 0.000000 
#    z -0.026880 0.000000 2.067370 
# 
# From -- ./inp_files/80603.got.cif
#   From: 2010.05.17/outbox.cif.g08.bks.cpg/sg13_41_cif.got.tgz:80603.got - 2010.06.03 16:44:36.
