data_PCOD9226074
_publ_section_title
;
Structure prediction by ZEFSAII (Michael W. Deem and Ramdas Pophale) SiO2 
 PCOD9226074
Probable space group: P 2/C
;
_chemical_formula_sum "Si O2"
_cell_formula_units_Z 26
_cell_length_a 11.116196
_cell_length_b 8.684865
_cell_length_c 21.678045
_cell_angle_alpha 90.000000
_cell_angle_beta 44.121759
_cell_angle_gamma 90.000000
_cell_volume 1457.016043
_symmetry_space_group_name_H-M "P 2/C"
_symmetry_group_IT_number 13
_symmetry_cell_setting 'monoclinic'
loop_
_space_group_symop_operation_xyz
x,y,z
-x,y,1/2-z
-x,-y,-z
x,-y,1/2+z
loop_
_atom_site_type_symbol
_atom_site_label
_atom_site_fract_x
_atom_site_fract_y
_atom_site_fract_z
Si Si1 0.484627 0.217675 0.374547
Si Si2 0.136225 0.672952 0.753093
Si Si3 0.605405 0.078265 0.769260
Si Si4 0.500000 0.436645 0.250000
Si Si5 0.893438 0.809625 0.474949
Si Si6 0.796898 0.370435 0.703991
Si Si7 0.925037 0.876570 0.606143
O O1 0.670923 0.263909 0.333820
O O2 0.472775 0.324991 0.318146
O O3 0.299291 0.236896 0.474577
O O4 0.498143 0.038243 0.350521
O O5 0.152153 0.493200 0.763266
O O6 0.070598 0.754105 0.840457
O O7 0.000000 0.704123 0.750000
O O8 0.500000 0.139864 0.750000
O O9 0.692802 0.223812 0.768978
O O10 0.750447 0.970791 0.684707
O O11 0.332576 0.538684 0.294752
O O12 0.913957 0.804678 0.542064
O O13 0.038686 0.701960 0.391200
O O14 0.931238 0.989248 0.445190
#
# Coordination Sequence:
#
# PCOD9226074 Si02
#       7
#     4   4   4   2   4   4   4
#     4  10  18  32  56  76 105 143 179 223 264 318
#     4  10  22  41  54  71 106 157 192 211 248 322
#     4  10  15  30  50  79 110 135 172 213 266 327
#     4  10  18  30  48  80 110 146 172 206 274 328
#     4  10  18  33  53  91 112 128 166 235 292 312
#     4  10  21  30  53  82 112 138 176 221 270 325
#     4   9  19  31  56  82 112 138 166 221 276 325
#
# _framework density 17.844691000000001
#
# number of rings (size 3 to 8) (size 9 to 14) (size 15 to 20)
#    0.000    2.154    3.077    1.846    0.000    2.462 
#    0.000   10.000    0.000    0.000    0.000    0.000 
#    0.000    0.000    0.000    0.000    0.000    0.000 
#
# Total GULP energy -144844.425936 kJ/mol
# GULP energy per Si atom -5570.939459 kJ/mol
# Density = 1.780408 g / cm^3
# Si number density = 17.844691 Si / 1000 Ang^3
#
#
#
# Elastic Constant Matrix: (Units=GPa)
#
#
# Indices 1 2 3 4 5 6 
#
# 1 64.8020 25.0344 22.9616 0.0000 -21.9403 0.0000
# 2 25.0344 92.9976 29.3657 0.0000 -7.4732 0.0000
# 3 22.9616 29.3657 59.6607 0.0000 -25.6754 0.0000
# 4 0.0000 0.0000 0.0000 16.1332 0.0000 -0.7098
# 5 -21.9403 -7.4732 -25.6754 0.0000 24.5004 0.0000
# 6 0.0000 0.0000 0.0000 -0.7098 0.0000 8.2972
#
#
#
# Elastic Compliance Matrix: (Units=1/GPa)
#
#
# Indices 1 2 3 4 5 6 
#
# 1 0.024540 -0.005886 0.003893 0.000000 0.024260 0.000000
# 2 -0.005886 0.014473 -0.009521 0.000000 -0.010834 0.000000
# 3 0.003893 -0.009521 0.036794 0.000000 0.039140 0.000000
# 4 0.000000 0.000000 0.000000 0.062218 0.000000 0.005322
# 5 0.024260 -0.010834 0.039140 0.000000 0.100253 0.000000
# 6 0.000000 0.000000 0.000000 0.005322 0.000000 0.120979
#
#
# Mechanical properties :
#
#
# Convention : Reuss Voigt Hill
#
# Bulk Modulus (GPa) = 18.94696 41.35374 30.15035
# Shear Modulus (GPa) = 12.50383 19.12606 15.81495
#
# Velocity S-wave (km/s) = 2.64995 3.27740 2.98023
# Velocity P-wave (km/s) = 4.47255 6.12751 5.36424
#
# Compressibility (1/GPa) = 0.05277893
#
# Stress axis : x y z
#
# Youngs Moduli (GPa) = 40.75025 69.09323 27.17842
#
# Poissons Ratio (x) = 0.40666 -0.10580
# Poissons Ratio (y) = 0.23984 0.25876
# Poissons Ratio (z) = -0.15863 0.65783
#
# Static dielectric constant tensor:
#      x y z
#    x 1.613900 0.000000 -0.032450 
#    y 0.000000 1.636710 0.000000 
#    z -0.032450 0.000000 1.628300 
# 
# From -- ./inp_files/65713.got.cif
#   From: 2010.05.17/outbox.cif.g08.bks.cpg/sg13_33_cif.got.tgz:65713.got - 2010.06.03 16:44:36.
