data_PCOD9226266
_publ_section_title
;
Structure prediction by ZEFSAII (Michael W. Deem and Ramdas Pophale) SiO2 
 PCOD9226266
Probable space group: P 2/C
;
_chemical_formula_sum "Si O2"
_cell_formula_units_Z 22
_cell_length_a 12.482853
_cell_length_b 5.192480
_cell_length_c 20.406173
_cell_angle_alpha 90.000000
_cell_angle_beta 106.851778
_cell_angle_gamma 90.000000
_cell_volume 1265.868141
_symmetry_space_group_name_H-M "P 2/C"
_symmetry_group_IT_number 13
_symmetry_cell_setting 'monoclinic'
loop_
_space_group_symop_operation_xyz
x,y,z
-x,y,1/2-z
-x,-y,-z
x,-y,1/2+z
loop_
_atom_site_type_symbol
_atom_site_label
_atom_site_fract_x
_atom_site_fract_y
_atom_site_fract_z
Si Si1 0.301541 0.578099 0.316001
Si Si2 0.000000 0.724078 0.750000
Si Si3 0.841788 0.096778 0.796180
Si Si4 0.612068 0.069125 0.228875
Si Si5 0.866800 0.568406 0.606237
Si Si6 0.959853 0.078995 0.564414
O O1 0.374970 0.345967 0.301736
O O2 0.246259 0.502647 0.375073
O O3 0.198848 0.641897 0.246946
O O4 0.370138 0.844351 0.322234
O O5 0.101736 0.915650 0.749060
O O6 0.038783 0.564579 0.819609
O O7 0.722574 0.970979 0.793801
O O8 0.930473 0.103975 0.869814
O O9 0.500000 0.039091 0.250000
O O10 0.896928 0.350709 0.559081
O O11 0.880658 0.852748 0.579130
O O12 0.000000 0.000000 0.500000
#
# Coordination Sequence:
#
# PCOD9226266 Si02
#       6
#     4   2   4   4   4   4
#     4  10  18  33  51  78  99 131 165 211 262 298
#     4  10  16  32  50  82 100 132 158 218 254 314
#     4   9  20  31  52  75 108 129 168 199 262 302
#     4  10  20  32  49  79 107 127 162 211 271 307
#     4  11  19  33  50  74 104 134 167 209 249 309
#     4  11  23  33  48  74 109 142 169 199 245 305
#
# _framework density 17.379379
#
# number of rings (size 3 to 8) (size 9 to 14) (size 15 to 20)
#    1.091    0.727    1.818    5.455    2.545    0.727 
#    0.000    0.000    0.000    0.000    0.000    7.636 
#    0.000    0.000    0.000    0.000    0.000    0.000 
#
# Total GULP energy -122498.535175 kJ/mol
# GULP energy per Si atom -5568.115235 kJ/mol
# Density = 1.733982 g / cm^3
# Si number density = 17.379379 Si / 1000 Ang^3
#
#
#
# Elastic Constant Matrix: (Units=GPa)
#
#
# Indices 1 2 3 4 5 6 
#
# 1 107.5967 23.5547 8.6603 0.0000 -24.3185 0.0000
# 2 23.5547 92.0883 4.4219 0.0000 -5.6218 0.0000
# 3 8.6603 4.4219 41.4019 0.0000 -13.9902 0.0000
# 4 0.0000 0.0000 0.0000 18.1042 0.0000 -10.8270
# 5 -24.3185 -5.6218 -13.9902 0.0000 16.5962 0.0000
# 6 0.0000 0.0000 0.0000 -10.8270 0.0000 25.2784
#
#
#
# Elastic Compliance Matrix: (Units=1/GPa)
#
#
# Indices 1 2 3 4 5 6 
#
# 1 0.015463 -0.002605 0.006155 0.000000 0.026965 0.000000
# 2 -0.002605 0.011528 -0.000918 0.000000 -0.000686 0.000000
# 3 0.006155 -0.000918 0.036226 0.000000 0.039246 0.000000
# 4 0.000000 0.000000 0.000000 0.074256 0.000000 0.031805
# 5 0.026965 -0.000686 0.039246 0.000000 0.132618 0.000000
# 6 0.000000 0.000000 0.000000 0.031805 0.000000 0.053182
#
#
# Mechanical properties :
#
#
# Convention : Reuss Voigt Hill
#
# Bulk Modulus (GPa) = 14.60237 34.92898 24.76567
# Shear Modulus (GPa) = 14.66988 25.62575 20.14781
#
# Velocity S-wave (km/s) = 2.90849 3.84408 3.40853
# Velocity P-wave (km/s) = 4.43840 6.31222 5.45635
#
# Compressibility (1/GPa) = 0.06848205
#
# Stress axis : x y z
#
# Youngs Moduli (GPa) = 64.66960 86.74831 27.60467
#
# Poissons Ratio (x) = 0.22595 -0.16992
# Poissons Ratio (y) = 0.16844 0.02534
# Poissons Ratio (z) = -0.39807 0.07964
#
# Static dielectric constant tensor:
#      x y z
#    x 1.604540 0.000000 -0.000800 
#    y 0.000000 1.645000 0.000000 
#    z -0.000800 0.000000 1.569350 
# 
# From -- ./inp_files/76913.got.cif
#   From: 2010.05.17/outbox.cif.g08.bks.cpg/sg13_39_cif.got.tgz:76913.got - 2010.06.03 16:44:36.
