data_PCOD9226274
_publ_section_title
;
Structure prediction by ZEFSAII (Michael W. Deem and Ramdas Pophale) SiO2 
 PCOD9226274
Probable space group: P 2/C
;
_chemical_formula_sum "Si O2"
_cell_formula_units_Z 32
_cell_length_a 29.174760
_cell_length_b 14.408872
_cell_length_c 10.113381
_cell_angle_alpha 90.000000
_cell_angle_beta 154.187016
_cell_angle_gamma 90.000000
_cell_volume 1851.215982
_symmetry_space_group_name_H-M "P 2/C"
_symmetry_group_IT_number 13
_symmetry_cell_setting 'monoclinic'
loop_
_space_group_symop_operation_xyz
x,y,z
-x,y,1/2-z
-x,-y,-z
x,-y,1/2+z
loop_
_atom_site_type_symbol
_atom_site_label
_atom_site_fract_x
_atom_site_fract_y
_atom_site_fract_z
Si Si1 0.200499 0.123153 0.185821
Si Si2 0.086885 0.297224 0.802755
Si Si3 0.848853 0.361292 0.259506
Si Si4 0.435113 0.885852 0.209432
Si Si5 0.211443 0.813954 0.020752
Si Si6 0.934066 0.052402 0.214400
Si Si7 0.572310 0.889949 0.816641
Si Si8 0.931541 0.450403 0.938208
O O1 0.315282 0.145128 0.423695
O O2 0.202898 0.142948 0.349828
O O3 0.115728 0.189728 0.892880
O O4 0.162737 0.017935 0.067418
O O5 0.103602 0.351214 0.709127
O O6 0.966686 0.321856 0.530110
O O7 0.160011 0.341005 0.107931
O O8 0.843217 0.471156 0.228284
O O9 0.781376 0.295739 0.990002
O O10 0.500000 0.855236 0.250000
O O11 0.510735 0.861001 0.526571
O O12 0.423885 0.997965 0.174346
O O13 0.313465 0.849407 0.361629
O O14 0.112558 0.852148 0.847779
O O15 0.000000 0.063598 0.250000
O O16 0.000000 0.000000 0.500000
O O17 0.500000 0.860801 0.750000
O O18 0.000000 0.443769 0.250000
O O19 0.000000 0.500000 0.000000
#
# Coordination Sequence:
#
# PCOD9226274 Si02
#       8
#     4   4   4   4   4   4   4   4
#     4  11  21  36  55  77 108 151 185 221 280 326
#     4   9  18  31  53  78 106 144 182 212 267 335
#     4   9  17  32  53  78 108 143 177 222 266 320
#     4  10  21  34  55  76 107 135 179 241 283 308
#     4  11  21  35  56  79 107 148 192 222 263 332
#     4  12  24  36  53  76 115 156 185 217 259 324
#     4  10  19  34  54  77  96 137 189 232 268 313
#     4  10  16  32  54  78 107 139 179 227 272 313
#
# _framework density 17.285934999999998
#
# number of rings (size 3 to 8) (size 9 to 14) (size 15 to 20)
#    0.000    1.750    6.250    0.750    1.750    1.000 
#    0.000    8.125    0.000    0.000    0.000    1.750 
#    0.000    0.000    0.000    0.000    0.000    0.000 
#
# Total GULP energy -178209.940328 kJ/mol
# GULP energy per Si atom -5569.060635 kJ/mol
# Density = 1.724659 g / cm^3
# Si number density = 17.285935 Si / 1000 Ang^3
#
#
#
# Elastic Constant Matrix: (Units=GPa)
#
#
# Indices 1 2 3 4 5 6 
#
# 1 107.5352 13.0936 40.4509 0.0000 -12.2588 0.0000
# 2 13.0936 53.2372 21.3942 0.0000 -13.5513 0.0000
# 3 40.4509 21.3942 91.2715 0.0000 -9.0074 0.0000
# 4 0.0000 0.0000 0.0000 26.5559 0.0000 -11.8366
# 5 -12.2588 -13.5513 -9.0074 0.0000 26.7682 0.0000
# 6 0.0000 0.0000 0.0000 -11.8366 0.0000 17.9049
#
#
#
# Elastic Compliance Matrix: (Units=1/GPa)
#
#
# Indices 1 2 3 4 5 6 
#
# 1 0.011499 0.000011 -0.004736 0.000000 0.003678 0.000000
# 2 0.000011 0.023167 -0.004424 0.000000 0.010245 0.000000
# 3 -0.004736 -0.004424 0.014126 0.000000 0.000345 0.000000
# 4 0.000000 0.000000 0.000000 0.053388 0.000000 0.035294
# 5 0.003678 0.010245 0.000345 0.000000 0.044345 0.000000
# 6 0.000000 0.000000 0.000000 0.035294 0.000000 0.079183
#
#
# Mechanical properties :
#
#
# Convention : Reuss Voigt Hill
#
# Bulk Modulus (GPa) = 32.79323 44.65791 38.72557
# Shear Modulus (GPa) = 19.67197 26.05279 22.86238
#
# Velocity S-wave (km/s) = 3.37713 3.88644 3.64070
# Velocity P-wave (km/s) = 5.84970 6.78455 6.33439
#
# Compressibility (1/GPa) = 0.03049410
#
# Stress axis : x y z
#
# Youngs Moduli (GPa) = 86.96678 43.16527 70.78992
#
# Poissons Ratio (x) = -0.00049 0.33525
# Poissons Ratio (y) = -0.00099 0.31320
# Poissons Ratio (z) = 0.41186 0.19098
#
# Static dielectric constant tensor:
#      x y z
#    x 1.634610 0.000000 0.002270 
#    y 0.000000 1.639090 0.000000 
#    z 0.002270 0.000000 1.587320 
# 
# From -- ./inp_files/24756.got.cif
#   From: 2010.05.17/outbox.cif.g08.bks.cpg/sg13_13_cif.got.tgz:24756.got - 2010.06.03 16:44:36.
