data_PCOD9226308
_publ_section_title
;
Structure prediction by ZEFSAII (Michael W. Deem and Ramdas Pophale) SiO2 
 PCOD9226308
Probable space group: P 2/C
;
_chemical_formula_sum "Si O2"
_cell_formula_units_Z 26
_cell_length_a 12.908729
_cell_length_b 5.708772
_cell_length_c 23.082749
_cell_angle_alpha 90.000000
_cell_angle_beta 33.569744
_cell_angle_gamma 90.000000
_cell_volume 940.591082
_symmetry_space_group_name_H-M "P 2/C"
_symmetry_group_IT_number 13
_symmetry_cell_setting 'monoclinic'
loop_
_space_group_symop_operation_xyz
x,y,z
-x,y,1/2-z
-x,-y,-z
x,-y,1/2+z
loop_
_atom_site_type_symbol
_atom_site_label
_atom_site_fract_x
_atom_site_fract_y
_atom_site_fract_z
Si Si1 0.668433 0.822124 0.928998
Si Si2 0.640572 0.435839 0.858890
Si Si3 0.185581 0.981559 0.874044
Si Si4 0.873639 0.014242 0.434330
Si Si5 0.266283 0.525778 0.313056
Si Si6 0.142680 0.514459 0.054560
Si Si7 0.000000 0.650253 0.250000
O O1 0.705379 0.688177 0.852827
O O2 0.558785 0.629985 0.020943
O O3 0.838554 0.949317 0.882420
O O4 0.500000 0.000000 0.000000
O O5 0.625411 0.453013 0.797741
O O6 0.806069 0.271632 0.807797
O O7 0.285382 0.729588 0.833610
O O8 0.087747 0.987480 0.855514
O O9 0.292970 0.225840 0.832247
O O10 0.000000 0.000000 0.000000
O O11 0.790099 0.257936 0.496084
O O12 0.771289 0.771250 0.497152
O O13 0.048644 0.527931 0.394047
O O14 0.085148 0.526584 0.150493
#
# Coordination Sequence:
#
# PCOD9226308 Si02
#       7
#     4   4   4   4   4   4   2
#     4  11  23  36  55  83 127 173 203 230 297 375
#     4  10  22  36  54  86 121 164 203 247 295 370
#     4  10  20  38  64  93 116 150 202 267 316 352
#     4  10  20  36  53  82 117 152 191 241 290 356
#     4   9  20  35  58  88 120 149 197 254 309 356
#     4   9  18  31  50  79 109 148 186 232 287 341
#     4  10  16  34  52  76 114 150 194 244 286 340
#
# _framework density 27.642192999999999
#
# number of rings (size 3 to 8) (size 9 to 14) (size 15 to 20)
#    0.000    2.154    1.538    1.385    4.308    0.615 
#    5.538    0.000    0.000    0.923    0.000    0.000 
#    0.000    0.000    0.000    0.000    0.000    0.000 
#
# Total GULP energy -144865.945134 kJ/mol
# GULP energy per Si atom -5571.767121 kJ/mol
# Density = 2.757928 g / cm^3
# Si number density = 27.642193 Si / 1000 Ang^3
#
#
#
# Elastic Constant Matrix: (Units=GPa)
#
#
# Indices 1 2 3 4 5 6 
#
# 1 75.3334 6.6719 27.5247 0.0000 -1.3182 0.0000
# 2 6.6719 276.0450 35.7957 0.0000 13.1322 0.0000
# 3 27.5247 35.7957 116.8642 0.0000 10.1168 0.0000
# 4 0.0000 0.0000 0.0000 22.6932 0.0000 -1.9287
# 5 -1.3182 13.1322 10.1168 0.0000 39.8540 0.0000
# 6 0.0000 0.0000 0.0000 -1.9287 0.0000 -59.6814
#
#
#
# Elastic Compliance Matrix: (Units=1/GPa)
#
#
# Indices 1 2 3 4 5 6 
#
# 1 0.014599 0.000045 -0.003571 0.000000 0.001375 0.000000
# 2 0.000045 0.003810 -0.001093 0.000000 -0.000976 0.000000
# 3 -0.003571 -0.001093 0.009930 0.000000 -0.002279 0.000000
# 4 0.000000 0.000000 0.000000 0.043945 0.000000 -0.001420
# 5 0.001375 -0.000976 -0.002279 0.000000 0.026037 0.000000
# 6 0.000000 0.000000 0.000000 -0.001420 0.000000 -0.016710
#
#
# Mechanical properties :
#
#
# Convention : Reuss Voigt Hill
#
# Bulk Modulus (GPa) = 52.35516 67.58079 59.96797
# Shear Modulus (GPa) = 51.43117 27.12319 39.27718
#
# Velocity S-wave (km/s) = 4.31815 3.13585 3.77359
# Velocity P-wave (km/s) = 6.62143 6.13293 6.38186
#
# Compressibility (1/GPa) = 0.01910032
#
# Stress axis : x y z
#
# Youngs Moduli (GPa) = 68.49670 262.48849 100.70384
#
# Poissons Ratio (x) = -0.01177 0.35964
# Poissons Ratio (y) = -0.00307 0.11006
# Poissons Ratio (z) = 0.24462 0.28689
#
# Static dielectric constant tensor:
#      x y z
#    x 2.326900 0.000000 0.042540 
#    y 0.000000 2.416210 0.000000 
#    z 0.042540 0.000000 2.116840 
# 
# From -- ./inp_files/93144.got.cif
#   From: 2010.05.17/outbox.cif.g08.bks.cpg/sg13_47_cif.got.tgz:93144.got - 2010.06.03 16:44:36.
