data_PCOD9226885
_publ_section_title
;
Structure prediction by ZEFSAII (Michael W. Deem and Ramdas Pophale) SiO2 
 PCOD9226885
Probable space group: P 2/C
;
_chemical_formula_sum "Si O2"
_cell_formula_units_Z 28
_cell_length_a 9.212385
_cell_length_b 8.975136
_cell_length_c 13.946865
_cell_angle_alpha 90.000000
_cell_angle_beta 78.314655
_cell_angle_gamma 90.000000
_cell_volume 1129.260730
_symmetry_space_group_name_H-M "P 2/C"
_symmetry_group_IT_number 13
_symmetry_cell_setting 'monoclinic'
loop_
_space_group_symop_operation_xyz
x,y,z
-x,y,1/2-z
-x,-y,-z
x,-y,1/2+z
loop_
_atom_site_type_symbol
_atom_site_label
_atom_site_fract_x
_atom_site_fract_y
_atom_site_fract_z
Si Si1 0.949658 0.272395 0.160467
Si Si2 0.042711 0.673586 0.065752
Si Si3 0.479368 0.992035 0.117093
Si Si4 0.323022 0.505235 0.509737
Si Si5 0.260400 0.207262 0.917805
Si Si6 0.159929 0.000003 0.592913
Si Si7 0.375352 0.705452 0.827530
O O1 0.776047 0.246654 0.200953
O O2 0.000000 0.357993 0.250000
O O3 0.970450 0.341226 0.050015
O O4 0.040677 0.118574 0.145125
O O5 0.104039 0.835394 0.082960
O O6 0.867907 0.697682 0.120407
O O7 0.178215 0.565326 0.082721
O O8 0.583872 0.857841 0.142753
O O9 0.301656 0.985246 0.144649
O O10 0.542031 0.147695 0.146436
O O11 0.500000 0.000000 0.000000
O O12 0.500000 0.500000 0.500000
O O13 0.298184 0.679583 0.498806
O O14 0.320783 0.405633 0.415177
O O15 0.195621 0.063204 0.980912
O O16 0.500000 0.622564 0.750000
#
# Coordination Sequence:
#
# PCOD9226885 Si02
#       7
#     4   4   4   4   4   4   4
#     4  10  19  32  53  80 110 144 183 229 283 340
#     4  10  20  35  55  84 114 145 186 238 287 335
#     4  10  18  33  58  86 110 143 187 232 279 334
#     4  11  21  35  56  81 112 151 193 236 283 342
#     4  10  18  31  53  81 109 140 182 232 277 329
#     4  10  18  33  56  83 111 142 184 237 283 332
#     4  11  23  39  56  83 117 151 187 234 289 346
#
# _framework density 24.794982999999998
#
# number of rings (size 3 to 8) (size 9 to 14) (size 15 to 20)
#    0.000    1.714    0.000    9.857    0.000    1.143 
#    0.000    0.714    0.000    3.429    0.000   20.000 
#    0.000    0.000    0.000    0.000    0.000    0.000 
#
# Total GULP energy -155904.313858 kJ/mol
# GULP energy per Si atom -5568.011209 kJ/mol
# Density = 2.473855 g / cm^3
# Si number density = 24.794983 Si / 1000 Ang^3
#
#
#
# Elastic Constant Matrix: (Units=GPa)
#
#
# Indices 1 2 3 4 5 6 
#
# 1 220.9691 37.1599 11.7385 0.0000 5.1503 0.0000
# 2 37.1599 70.0505 -12.9955 0.0000 1.6555 0.0000
# 3 11.7385 -12.9955 54.1691 0.0000 -1.7017 0.0000
# 4 0.0000 0.0000 0.0000 17.2732 0.0000 -3.6964
# 5 5.1503 1.6555 -1.7017 0.0000 26.5822 0.0000
# 6 0.0000 0.0000 0.0000 -3.6964 0.0000 59.0195
#
#
#
# Elastic Compliance Matrix: (Units=1/GPa)
#
#
# Indices 1 2 3 4 5 6 
#
# 1 0.005163 -0.003066 -0.001884 0.000000 -0.000930 0.000000
# 2 -0.003066 0.016774 0.004684 0.000000 -0.000151 0.000000
# 3 -0.001884 0.004684 0.020035 0.000000 0.001356 0.000000
# 4 0.000000 0.000000 0.000000 0.058680 0.000000 0.003675
# 5 -0.000930 -0.000151 0.001356 0.000000 0.037895 0.000000
# 6 0.000000 0.000000 0.000000 0.003675 0.000000 0.017174
#
#
# Mechanical properties :
#
#
# Convention : Reuss Voigt Hill
#
# Bulk Modulus (GPa) = 24.13074 46.33270 35.23172
# Shear Modulus (GPa) = 29.40024 41.19404 35.29714
#
# Velocity S-wave (km/s) = 3.44718 4.08043 3.77710
# Velocity P-wave (km/s) = 5.05938 6.39741 5.76733
#
# Compressibility (1/GPa) = 0.04144092
#
# Stress axis : x y z
#
# Youngs Moduli (GPa) = 193.68954 59.61430 49.91212
#
# Poissons Ratio (x) = 0.18279 0.09402
# Poissons Ratio (y) = 0.59390 -0.23379
# Poissons Ratio (z) = 0.36484 -0.27923
#
# Static dielectric constant tensor:
#      x y z
#    x 2.137000 0.000000 0.089830 
#    y 0.000000 1.785230 0.000000 
#    z 0.089830 0.000000 1.816420 
# 
# From -- ./inp_files/63811.got.cif
#   From: 2010.05.17/outbox.cif.g08.bks.cpg/sg13_32_cif.got.tgz:63811.got - 2010.06.03 16:44:36.
