data_PCOD9226146
_publ_section_title
;
Structure prediction by ZEFSAII (Michael W. Deem and Ramdas Pophale) SiO2 
 PCOD9226146
Probable space group: P 2/C
;
_chemical_formula_sum "Si O2"
_cell_formula_units_Z 20
_cell_length_a 6.928543
_cell_length_b 21.808549
_cell_length_c 5.489268
_cell_angle_alpha 90.000000
_cell_angle_beta 78.079752
_cell_angle_gamma 90.000000
_cell_volume 811.550537
_symmetry_space_group_name_H-M "P 2/C"
_symmetry_group_IT_number 13
_symmetry_cell_setting 'monoclinic'
loop_
_space_group_symop_operation_xyz
x,y,z
-x,y,1/2-z
-x,-y,-z
x,-y,1/2+z
loop_
_atom_site_type_symbol
_atom_site_label
_atom_site_fract_x
_atom_site_fract_y
_atom_site_fract_z
Si Si1 0.375938 0.653314 0.535538
Si Si2 0.223715 0.475863 0.963130
Si Si3 0.271757 0.021396 0.760170
Si Si4 0.725235 0.160495 0.923202
Si Si5 0.728844 0.791109 0.924356
O O1 0.500000 0.660800 0.250000
O O2 0.236244 0.595486 0.524458
O O3 0.273969 0.718385 0.612344
O O4 0.500000 0.640140 0.750000
O O5 0.310814 0.487578 0.671690
O O6 0.000000 0.500000 0.000000
O O7 0.500000 0.002846 0.750000
O O8 0.266287 0.089472 0.651409
O O9 0.189865 0.981058 0.557217
O O10 0.811707 0.195042 0.668134
O O11 0.497755 0.183716 0.000386
O O12 0.810058 0.175359 0.165273
#
# Coordination Sequence:
#
# PCOD9226146 Si02
#       5
#     4   4   4   4   4
#     4  12  21  34  55  82 106 127 172 225 265 316
#     4  10  23  42  59  77 106 141 168 203 261 334
#     4  10  18  22  31  49  71 111 169 213 237 283
#     4  10  16  27  38  51  87 123 153 211 267 295
#     4  10  17  27  39  61  86 119 151 200 274 292
#
# _framework density 24.644183000000002
#
# number of rings (size 3 to 8) (size 9 to 14) (size 15 to 20)
#    0.000    1.600    6.000    2.400    5.600    2.400 
#    0.000    0.000    0.000    0.000    0.000    0.000 
#    0.000    0.000    0.000    0.000    0.000    0.000 
#
# Total GULP energy -111803.395132 kJ/mol
# GULP energy per Si atom -5590.169757 kJ/mol
# Density = 2.458809 g / cm^3
# Si number density = 24.644183 Si / 1000 Ang^3
#
#
#
# Elastic Constant Matrix: (Units=GPa)
#
#
# Indices 1 2 3 4 5 6 
#
# 1 83.2262 11.0309 61.3603 0.0000 10.3976 0.0000
# 2 11.0309 190.5269 68.9289 0.0000 18.8050 0.0000
# 3 61.3603 68.9289 291.7205 0.0000 30.0058 0.0000
# 4 0.0000 0.0000 0.0000 51.6925 0.0000 5.3326
# 5 10.3976 18.8050 30.0058 0.0000 45.1903 0.0000
# 6 0.0000 0.0000 0.0000 5.3326 0.0000 -108.1150
#
#
#
# Elastic Compliance Matrix: (Units=1/GPa)
#
#
# Indices 1 2 3 4 5 6 
#
# 1 0.014327 0.000386 -0.002951 0.000000 -0.001498 0.000000
# 2 0.000386 0.005859 -0.001294 0.000000 -0.001668 0.000000
# 3 -0.002951 -0.001294 0.004539 0.000000 -0.001797 0.000000
# 4 0.000000 0.000000 0.000000 0.019247 0.000000 0.000949
# 5 -0.001498 -0.001668 -0.001797 0.000000 0.024360 0.000000
# 6 0.000000 0.000000 0.000000 0.000949 0.000000 -0.009203
#
#
# Mechanical properties :
#
#
# Convention : Reuss Voigt Hill
#
# Bulk Modulus (GPa) = 58.79807 94.23487 76.51647
# Shear Modulus (GPa) = 68.94991 26.03046 47.49018
#
# Velocity S-wave (km/s) = 5.29518 3.25353 4.39456
# Velocity P-wave (km/s) = 7.82916 7.24121 7.54092
#
# Compressibility (1/GPa) = 0.01700736
#
# Stress axis : x y z
#
# Youngs Moduli (GPa) = 69.79919 170.67724 220.30752
#
# Poissons Ratio (x) = -0.06585 0.65004
# Poissons Ratio (y) = -0.02693 0.28508
# Poissons Ratio (z) = 0.20595 0.22086
#
# Static dielectric constant tensor:
#      x y z
#    x 2.228860 0.000000 -0.463980 
#    y 0.000000 1.889580 0.000000 
#    z -0.463980 0.000000 2.616690 
# 
# From -- ./inp_files/1599.got.cif
#   From: 2010.05.17/outbox.cif.g08.bks.cpg/sg13_1_cif.got.tgz:1599.got - 2010.06.03 16:44:36.
