data_PCOD9226938
_publ_section_title
;
Structure prediction by ZEFSAII (Michael W. Deem and Ramdas Pophale) SiO2 
 PCOD9226938
Probable space group: P 2/C
;
_chemical_formula_sum "Si O2"
_cell_formula_units_Z 22
_cell_length_a 5.759129
_cell_length_b 11.166831
_cell_length_c 13.775149
_cell_angle_alpha 90.000000
_cell_angle_beta 102.994268
_cell_angle_gamma 90.000000
_cell_volume 863.211100
_symmetry_space_group_name_H-M "P 2/C"
_symmetry_group_IT_number 13
_symmetry_cell_setting 'monoclinic'
loop_
_space_group_symop_operation_xyz
x,y,z
-x,y,1/2-z
-x,-y,-z
x,-y,1/2+z
loop_
_atom_site_type_symbol
_atom_site_label
_atom_site_fract_x
_atom_site_fract_y
_atom_site_fract_z
Si Si1 0.038011 0.597535 0.128644
Si Si2 0.357234 0.759934 0.436530
Si Si3 0.175015 0.098028 0.387172
Si Si4 0.500000 0.305926 0.750000
Si Si5 0.769078 0.632939 0.568767
Si Si6 0.687969 0.970628 0.910422
O O1 0.279586 0.606024 0.209889
O O2 0.102381 0.614723 0.021917
O O3 0.889075 0.716706 0.130911
O O4 0.871715 0.482631 0.131887
O O5 0.494528 0.774097 0.346850
O O6 0.493594 0.654496 0.510436
O O7 0.301602 0.859038 0.511527
O O8 0.168265 0.241152 0.373610
O O9 0.406844 0.039412 0.356143
O O10 0.906522 0.046153 0.355925
O O11 0.245483 0.076774 0.508090
#
# Coordination Sequence:
#
# PCOD9226938 Si02
#       6
#     4   4   4   2   4   4
#     4  10  18  32  47  72 103 137 170 220 259 321
#     4  10  18  32  49  73 101 141 169 225 258 322
#     4   9  16  30  46  80 104 136 154 215 262 330
#     4  10  22  32  46  70 104 140 190 208 270 310
#     4   9  18  29  50  75 105 128 171 212 278 305
#     4   9  17  28  51  72 111 127 168 204 273 311
#
# _framework density 25.486232000000001
#
# number of rings (size 3 to 8) (size 9 to 14) (size 15 to 20)
#    0.000    2.545    1.818    1.091    0.000    0.000 
#    0.000    0.000    0.000    0.000    0.000    7.636 
#    0.000    0.000    0.000    0.000    0.000    0.000 
#
# Total GULP energy -122531.810397 kJ/mol
# GULP energy per Si atom -5569.627745 kJ/mol
# Density = 2.542822 g / cm^3
# Si number density = 25.486232 Si / 1000 Ang^3
#
#
#
# Elastic Constant Matrix: (Units=GPa)
#
#
# Indices 1 2 3 4 5 6 
#
# 1 157.6616 8.8513 25.3504 0.0000 15.4692 0.0000
# 2 8.8513 84.0895 3.4781 0.0000 2.6189 0.0000
# 3 25.3504 3.4781 75.2597 0.0000 9.3436 0.0000
# 4 0.0000 0.0000 0.0000 11.8581 0.0000 4.9584
# 5 15.4692 2.6189 9.3436 0.0000 36.5950 0.0000
# 6 0.0000 0.0000 0.0000 4.9584 0.0000 41.5870
#
#
#
# Elastic Compliance Matrix: (Units=1/GPa)
#
#
# Indices 1 2 3 4 5 6 
#
# 1 0.006932 -0.000572 -0.002014 0.000000 -0.002375 0.000000
# 2 -0.000572 0.011981 -0.000294 0.000000 -0.000540 0.000000
# 3 -0.002014 -0.000294 0.014325 0.000000 -0.002785 0.000000
# 4 0.000000 0.000000 0.000000 0.088756 0.000000 -0.010582
# 5 -0.002375 -0.000540 -0.002785 0.000000 0.029080 0.000000
# 6 0.000000 0.000000 0.000000 -0.010582 0.000000 0.025308
#
#
# Mechanical properties :
#
#
# Convention : Reuss Voigt Hill
#
# Bulk Modulus (GPa) = 36.39213 43.59671 39.99442
# Shear Modulus (GPa) = 26.13696 36.63010 31.38353
#
# Velocity S-wave (km/s) = 3.20587 3.79522 3.51293
# Velocity P-wave (km/s) = 5.29279 6.02894 5.67281
#
# Compressibility (1/GPa) = 0.02747847
#
# Stress axis : x y z
#
# Youngs Moduli (GPa) = 144.26654 83.46323 69.80831
#
# Poissons Ratio (x) = 0.04777 0.14056
# Poissons Ratio (y) = 0.08257 0.02051
# Poissons Ratio (z) = 0.29048 0.02452
#
# Static dielectric constant tensor:
#      x y z
#    x 2.162780 0.000000 -0.008560 
#    y 0.000000 2.103990 0.000000 
#    z -0.008560 0.000000 2.028530 
# 
# From -- ./inp_files/60945.got.cif
#   From: 2010.05.17/outbox.cif.g08.bks.cpg/sg13_31_cif.got.tgz:60945.got - 2010.06.03 16:44:36.
