data_PCOD9226272
_publ_section_title
;
Structure prediction by ZEFSAII (Michael W. Deem and Ramdas Pophale) SiO2 
 PCOD9226272
Probable space group: P 2/C
;
_chemical_formula_sum "Si O2"
_cell_formula_units_Z 26
_cell_length_a 8.993962
_cell_length_b 6.301500
_cell_length_c 22.528453
_cell_angle_alpha 90.000000
_cell_angle_beta 73.721274
_cell_angle_gamma 90.000000
_cell_volume 1225.622206
_symmetry_space_group_name_H-M "P 2/C"
_symmetry_group_IT_number 13
_symmetry_cell_setting 'monoclinic'
loop_
_space_group_symop_operation_xyz
x,y,z
-x,y,1/2-z
-x,-y,-z
x,-y,1/2+z
loop_
_atom_site_type_symbol
_atom_site_label
_atom_site_fract_x
_atom_site_fract_y
_atom_site_fract_z
Si Si1 0.438603 0.329443 0.677468
Si Si2 0.287184 0.779146 0.029856
Si Si3 0.721195 0.607318 0.901455
Si Si4 0.923686 0.973013 0.854668
Si Si5 0.529973 0.013530 0.079173
Si Si6 0.235421 0.978722 0.257432
Si Si7 0.500000 0.315689 0.250000
O O1 0.318614 0.431579 0.643491
O O2 0.530429 0.531671 0.690584
O O3 0.528151 0.128505 0.638788
O O4 0.337174 0.232712 0.742139
O O5 0.279564 0.525949 0.037306
O O6 0.152759 0.885698 0.084709
O O7 0.449880 0.846771 0.042859
O O8 0.310652 0.889578 0.963446
O O9 0.881837 0.729945 0.875007
O O10 0.591371 0.790014 0.907597
O O11 0.838638 0.007219 0.800473
O O12 0.101190 0.019140 0.820890
O O13 0.351568 0.173053 0.253527
#
# Coordination Sequence:
#
# PCOD9226272 Si02
#       7
#     4   4   4   4   4   4   2
#     4  11  20  36  55  80 111 151 186 227 276 323
#     4   9  17  30  52  81 115 147 174 222 286 327
#     4  10  16  32  52  83 113 144 179 220 284 329
#     4  10  20  36  56  83 118 141 180 233 280 327
#     4   9  17  30  49  81 117 141 182 226 271 331
#     4  11  22  39  53  82 114 146 187 233 270 333
#     4  12  24  38  58  76 110 154 194 222 272 336
#
# _framework density 21.213716999999999
#
# number of rings (size 3 to 8) (size 9 to 14) (size 15 to 20)
#    0.000    1.846    6.154    0.923    0.000    2.462 
#    0.000    0.000    0.000    0.923    0.000    8.615 
#    0.000    0.000    0.000    0.000    0.000    0.000 
#
# Total GULP energy -144885.112800 kJ/mol
# GULP energy per Si atom -5572.504338 kJ/mol
# Density = 2.116543 g / cm^3
# Si number density = 21.213717 Si / 1000 Ang^3
#
#
#
# Elastic Constant Matrix: (Units=GPa)
#
#
# Indices 1 2 3 4 5 6 
#
# 1 39.8269 21.6228 26.2514 0.0000 -13.7188 0.0000
# 2 21.6228 105.8202 34.6608 0.0000 -13.6589 0.0000
# 3 26.2514 34.6608 110.1305 0.0000 -35.0748 0.0000
# 4 0.0000 0.0000 0.0000 36.7635 0.0000 6.4883
# 5 -13.7188 -13.6589 -35.0748 0.0000 24.1937 0.0000
# 6 0.0000 0.0000 0.0000 6.4883 0.0000 15.7805
#
#
#
# Elastic Compliance Matrix: (Units=1/GPa)
#
#
# Indices 1 2 3 4 5 6 
#
# 1 0.033595 -0.004372 -0.002510 0.000000 0.012943 0.000000
# 2 -0.004372 0.011164 -0.002329 0.000000 0.000447 0.000000
# 3 -0.002510 -0.002329 0.017722 0.000000 0.022954 0.000000
# 4 0.000000 0.000000 0.000000 0.029329 0.000000 -0.012059
# 5 0.012943 0.000447 0.022954 0.000000 0.082203 0.000000
# 6 0.000000 0.000000 0.000000 -0.012059 0.000000 0.068327
#
#
# Mechanical properties :
#
#
# Convention : Reuss Voigt Hill
#
# Bulk Modulus (GPa) = 22.69681 46.76085 34.72883
# Shear Modulus (GPa) = 18.15225 26.89705 22.52465
#
# Velocity S-wave (km/s) = 2.92838 3.56463 3.26206
# Velocity P-wave (km/s) = 4.70704 6.24762 5.53123
#
# Compressibility (1/GPa) = 0.04405906
#
# Stress axis : x y z
#
# Youngs Moduli (GPa) = 29.76651 89.57445 56.42692
#
# Poissons Ratio (x) = 0.39161 0.14163
# Poissons Ratio (y) = 0.13014 0.13142
# Poissons Ratio (z) = 0.07471 0.20862
#
# Static dielectric constant tensor:
#      x y z
#    x 1.799360 0.000000 0.056620 
#    y 0.000000 1.788590 0.000000 
#    z 0.056620 0.000000 1.901230 
# 
# From -- ./inp_files/95414.got.cif
#   From: 2010.05.17/outbox.cif.g08.bks.cpg/sg13_48_cif.got.tgz:95414.got - 2010.06.03 16:44:36.
