data_PCOD9226215
_publ_section_title
;
Structure prediction by ZEFSAII (Michael W. Deem and Ramdas Pophale) SiO2 
 PCOD9226215
Probable space group: P 2/C
;
_chemical_formula_sum "Si O2"
_cell_formula_units_Z 32
_cell_length_a 22.976530
_cell_length_b 11.173918
_cell_length_c 22.240748
_cell_angle_alpha 90.000000
_cell_angle_beta 19.851510
_cell_angle_gamma 90.000000
_cell_volume 1939.036953
_symmetry_space_group_name_H-M "P 2/C"
_symmetry_group_IT_number 13
_symmetry_cell_setting 'monoclinic'
loop_
_space_group_symop_operation_xyz
x,y,z
-x,y,1/2-z
-x,-y,-z
x,-y,1/2+z
loop_
_atom_site_type_symbol
_atom_site_label
_atom_site_fract_x
_atom_site_fract_y
_atom_site_fract_z
Si Si1 0.438980 0.381550 0.741506
Si Si2 0.896247 0.238015 0.036789
Si Si3 0.941571 0.979264 0.987503
Si Si4 0.783292 0.626441 0.213711
Si Si5 0.396044 0.178236 0.689288
Si Si6 0.875433 0.516675 0.503065
Si Si7 0.755851 0.811526 0.800930
Si Si8 0.741293 0.542447 0.863955
O O1 0.500000 0.369510 0.750000
O O2 0.414605 0.252521 0.733071
O O3 0.260403 0.451778 0.907321
O O4 0.584202 0.453416 0.562666
O O5 0.833744 0.344180 0.054811
O O6 0.772522 0.204800 0.212755
O O7 0.938234 0.112536 0.964138
O O8 0.064084 0.294977 0.905926
O O9 0.758325 0.915464 0.160723
O O10 0.085872 0.886585 0.826381
O O11 0.000000 0.000000 0.000000
O O12 0.650072 0.718200 0.314315
O O13 0.855861 0.547299 0.087902
O O14 0.708257 0.541580 0.338209
O O15 0.578611 0.127446 0.492175
O O16 0.073069 0.499376 0.292006
O O17 0.761071 0.678527 0.822508
#
# Coordination Sequence:
#
# PCOD9226215 Si02
#       8
#     4   4   4   4   4   4   4   4
#     4  10  23  36  51  76  99 128 178 217 248 298
#     4  10  17  29  48  72 108 133 158 194 248 304
#     4  10  19  32  43  72 111 136 160 201 235 304
#     4  10  16  30  49  79 105 130 160 198 252 326
#     4  10  20  31  51  73 103 140 164 203 256 302
#     4  10  18  32  53  73 103 134 162 203 258 303
#     4  10  17  28  46  69 103 137 160 189 240 303
#     4  10  18  31  53  76 101 130 161 207 260 308
#
# _framework density 16.503036000000002
#
# number of rings (size 3 to 8) (size 9 to 14) (size 15 to 20)
#    0.000    2.000    5.000    1.500    1.750    4.000 
#    0.000    0.000    0.000    0.750    0.000    7.000 
#    0.000    0.000    0.000    0.000    0.000    0.000 
#
# Total GULP energy -178348.704961 kJ/mol
# GULP energy per Si atom -5573.397030 kJ/mol
# Density = 1.646547 g / cm^3
# Si number density = 16.503036 Si / 1000 Ang^3
#
#
#
# Elastic Constant Matrix: (Units=GPa)
#
#
# Indices 1 2 3 4 5 6 
#
# 1 70.4120 15.7057 13.6093 0.0000 -11.6199 0.0000
# 2 15.7057 87.3887 23.3238 0.0000 -6.9056 0.0000
# 3 13.6093 23.3238 73.6272 0.0000 -16.3225 0.0000
# 4 0.0000 0.0000 0.0000 14.7807 0.0000 -4.2621
# 5 -11.6199 -6.9056 -16.3225 0.0000 11.8369 0.0000
# 6 0.0000 0.0000 0.0000 -4.2621 0.0000 9.2295
#
#
#
# Elastic Compliance Matrix: (Units=1/GPa)
#
#
# Indices 1 2 3 4 5 6 
#
# 1 0.017319 -0.002083 0.001380 0.000000 0.017690 0.000000
# 2 -0.002083 0.012808 -0.003556 0.000000 0.000523 0.000000
# 3 0.001380 -0.003556 0.020587 0.000000 0.027669 0.000000
# 4 0.000000 0.000000 0.000000 0.078049 0.000000 0.036042
# 5 0.017690 0.000523 0.027669 0.000000 0.140306 0.000000
# 6 0.000000 0.000000 0.000000 0.036042 0.000000 0.124992
#
#
# Mechanical properties :
#
#
# Convention : Reuss Voigt Hill
#
# Bulk Modulus (GPa) = 23.69882 37.41173 30.55527
# Shear Modulus (GPa) = 12.00060 19.08870 15.54465
#
# Velocity S-wave (km/s) = 2.69954 3.40469 3.07241
# Velocity P-wave (km/s) = 4.91001 6.17857 5.58045
#
# Compressibility (1/GPa) = 0.04219620
#
# Stress axis : x y z
#
# Youngs Moduli (GPa) = 57.73912 78.07601 48.57338
#
# Poissons Ratio (x) = 0.16265 -0.06704
# Poissons Ratio (y) = 0.12028 0.17274
# Poissons Ratio (z) = -0.07969 0.27766
#
# Static dielectric constant tensor:
#      x y z
#    x 1.540470 0.000000 -0.014110 
#    y 0.000000 1.590130 0.000000 
#    z -0.014110 0.000000 1.603730 
# 
# From -- ./inp_files/81815.got.cif
#   From: 2010.05.17/outbox.cif.g08.bks.cpg/sg13_41_cif.got.tgz:81815.got - 2010.06.03 16:44:36.
