data_PCOD9226680
_publ_section_title
;
Structure prediction by ZEFSAII (Michael W. Deem and Ramdas Pophale) SiO2 
 PCOD9226680
Probable space group: P 2/C
;
_chemical_formula_sum "Si O2"
_cell_formula_units_Z 28
_cell_length_a 7.334676
_cell_length_b 8.464481
_cell_length_c 17.684898
_cell_angle_alpha 90.000000
_cell_angle_beta 112.165021
_cell_angle_gamma 90.000000
_cell_volume 1016.815646
_symmetry_space_group_name_H-M "P 2/C"
_symmetry_group_IT_number 13
_symmetry_cell_setting 'monoclinic'
loop_
_space_group_symop_operation_xyz
x,y,z
-x,y,1/2-z
-x,-y,-z
x,-y,1/2+z
loop_
_atom_site_type_symbol
_atom_site_label
_atom_site_fract_x
_atom_site_fract_y
_atom_site_fract_z
Si Si1 0.487700 0.676886 0.636905
Si Si2 0.190047 0.343723 0.963522
Si Si3 0.100805 0.798336 0.190802
Si Si4 0.170900 0.883118 0.643500
Si Si5 0.495421 0.996938 0.908033
Si Si6 0.443637 0.679261 0.141859
Si Si7 0.869781 0.671800 0.541434
O O1 0.399217 0.672942 0.535929
O O2 0.320596 0.734128 0.672438
O O3 0.535778 0.495195 0.660887
O O4 0.606766 0.840219 0.643934
O O5 0.167673 0.511801 0.918286
O O6 0.075936 0.214099 0.898427
O O7 0.060553 0.355710 0.018918
O O8 0.291044 0.707072 0.187072
O O9 0.000000 0.736009 0.250000
O O10 0.164113 0.980094 0.203212
O O11 0.950539 0.821821 0.597515
O O12 0.277703 0.969091 0.587749
O O13 0.433382 0.162220 0.858464
O O14 0.500000 0.000000 0.000000
O O15 0.304966 0.681660 0.045357
#
# Coordination Sequence:
#
# PCOD9226680 Si02
#       7
#     4   4   4   4   4   4   4
#     4   8  16  29  45  66  84 113 143 180 225 253
#     4   8  14  24  42  62  85 109 142 177 211 270
#     4  10  18  25  38  63  94 122 145 168 209 267
#     4   8  16  26  40  59  89 112 139 175 209 258
#     4   9  18  27  41  68  93 113 140 175 225 272
#     4   9  17  29  47  63  91 114 141 181 221 266
#     4   8  13  25  44  65  79 109 142 175 227 262
#
# _framework density 27.536949
#
# number of rings (size 3 to 8) (size 9 to 14) (size 15 to 20)
#    0.857    2.571    0.000    2.571    2.000    2.857 
#    0.000    2.857    0.000    0.000    0.000    4.000 
#    0.000    0.000    0.000    0.000    0.000    0.000 
#
# Total GULP energy -156078.942657 kJ/mol
# GULP energy per Si atom -5574.247952 kJ/mol
# Density = 2.747427 g / cm^3
# Si number density = 27.536949 Si / 1000 Ang^3
#
#
#
# Elastic Constant Matrix: (Units=GPa)
#
#
# Indices 1 2 3 4 5 6 
#
# 1 84.2299 37.7720 43.8114 0.0000 -33.5203 0.0000
# 2 37.7720 250.9218 57.8395 0.0000 -0.8426 0.0000
# 3 43.8114 57.8395 88.5963 0.0000 -11.0517 0.0000
# 4 0.0000 0.0000 0.0000 31.8444 0.0000 18.8118
# 5 -33.5203 -0.8426 -11.0517 0.0000 51.8495 0.0000
# 6 0.0000 0.0000 0.0000 18.8118 0.0000 0.4205
#
#
#
# Elastic Compliance Matrix: (Units=1/GPa)
#
#
# Indices 1 2 3 4 5 6 
#
# 1 0.021641 -0.001295 -0.008335 0.000000 0.012193 0.000000
# 2 -0.001295 0.004787 -0.002649 0.000000 -0.001324 0.000000
# 3 -0.008335 -0.002649 0.016911 0.000000 -0.001827 0.000000
# 4 0.000000 0.000000 0.000000 -0.001235 0.000000 0.055249
# 5 0.012193 -0.001324 -0.001827 0.000000 0.026758 0.000000
# 6 0.000000 0.000000 0.000000 0.055249 0.000000 -0.093524
#
#
# Mechanical properties :
#
#
# Convention : Reuss Voigt Hill
#
# Bulk Modulus (GPa) = 53.25245 78.06597 65.65921
# Shear Modulus (GPa) = 812.25909 35.77790 424.01849
#
# Velocity S-wave (km/s) = 17.19334 3.60845 12.42240
# Velocity P-wave (km/s) = 20.33540 6.76552 15.15422
#
# Compressibility (1/GPa) = 0.01877848
#
# Stress axis : x y z
#
# Youngs Moduli (GPa) = 46.20899 208.91660 59.13470
#
# Poissons Ratio (x) = 0.27065 0.49287
# Poissons Ratio (y) = 0.05986 0.15668
# Poissons Ratio (z) = 0.38514 0.55352
#
# Static dielectric constant tensor:
#      x y z
#    x 2.198990 0.000000 0.043620 
#    y 0.000000 2.336840 0.000000 
#    z 0.043620 0.000000 2.230060 
# 
# From -- ./inp_files/71049.got.cif
#   From: 2010.05.17/outbox.cif.g08.bks.cpg/sg13_36_cif.got.tgz:71049.got - 2010.06.03 16:44:36.
