data_PCOD9226474
_publ_section_title
;
Structure prediction by ZEFSAII (Michael W. Deem and Ramdas Pophale) SiO2 
 PCOD9226474
Probable space group: P 2/C
;
_chemical_formula_sum "Si O2"
_cell_formula_units_Z 28
_cell_length_a 18.576735
_cell_length_b 11.331757
_cell_length_c 21.352329
_cell_angle_alpha 90.000000
_cell_angle_beta 20.068481
_cell_angle_gamma 90.000000
_cell_volume 1542.364718
_symmetry_space_group_name_H-M "P 2/C"
_symmetry_group_IT_number 13
_symmetry_cell_setting 'monoclinic'
loop_
_space_group_symop_operation_xyz
x,y,z
-x,y,1/2-z
-x,-y,-z
x,-y,1/2+z
loop_
_atom_site_type_symbol
_atom_site_label
_atom_site_fract_x
_atom_site_fract_y
_atom_site_fract_z
Si Si1 0.819207 0.662603 0.170465
Si Si2 0.279636 0.643473 0.462251
Si Si3 0.323855 0.069183 0.035416
Si Si4 0.135246 0.099248 0.056235
Si Si5 0.347852 0.345747 0.049843
Si Si6 0.791282 0.069023 0.649987
Si Si7 0.020131 0.478070 0.081718
O O1 0.582270 0.626788 0.379181
O O2 0.820128 0.800905 0.155901
O O3 0.967060 0.609202 0.102954
O O4 0.883352 0.594762 0.054798
O O5 0.500000 0.676536 0.250000
O O6 0.131380 0.758500 0.572954
O O7 0.308308 0.613399 0.510917
O O8 0.181844 0.534246 0.505871
O O9 0.282105 0.060345 0.994457
O O10 0.338373 0.204286 0.048179
O O11 0.093752 0.037047 0.250902
O O12 0.557652 0.019983 0.859133
O O13 0.212099 0.081843 0.922867
O O14 0.185503 0.407322 0.228242
O O15 0.000000 0.000000 0.500000
#
# Coordination Sequence:
#
# PCOD9226474 Si02
#       7
#     4   4   4   4   4   4   4
#     4  10  21  33  47  73 105 139 169 208 256 313
#     4  11  17  29  50  77 107 131 167 219 262 316
#     4   9  18  30  54  78 102 128 165 225 268 301
#     4  10  17  32  51  79 104 123 167 221 270 305
#     4  10  17  30  50  77 102 131 170 207 265 311
#     4  11  21  34  51  75 105 140 177 215 258 315
#     4  11  19  31  49  73 109 134 160 206 264 321
#
# _framework density 18.153942000000001
#
# number of rings (size 3 to 8) (size 9 to 14) (size 15 to 20)
#    0.000    1.714    4.286    3.000    0.000    0.571 
#    0.000    0.000    0.000    1.714    7.429    0.000 
#    0.000    0.000    0.000    0.000    0.000    0.000 
#
# Total GULP energy -155902.430320 kJ/mol
# GULP energy per Si atom -5567.943940 kJ/mol
# Density = 1.811262 g / cm^3
# Si number density = 18.153942 Si / 1000 Ang^3
#
#
#
# Elastic Constant Matrix: (Units=GPa)
#
#
# Indices 1 2 3 4 5 6 
#
# 1 -27.1084 -13.2268 -24.7464 0.0000 -23.2126 0.0000
# 2 -13.2268 16.2470 9.1032 0.0000 -13.3417 0.0000
# 3 -24.7464 9.1032 93.0747 0.0000 -27.9995 0.0000
# 4 0.0000 0.0000 0.0000 -20.0682 0.0000 -16.8190
# 5 -23.2126 -13.3417 -27.9995 0.0000 22.2889 0.0000
# 6 0.0000 0.0000 0.0000 -16.8190 0.0000 10.9078
#
#
#
# Elastic Compliance Matrix: (Units=1/GPa)
#
#
# Indices 1 2 3 4 5 6 
#
# 1 -0.003798 -0.017946 -0.005909 0.000000 -0.022120 0.000000
# 2 -0.017946 0.053166 -0.009677 0.000000 0.000979 0.000000
# 3 -0.005909 -0.009677 0.010490 0.000000 0.001231 0.000000
# 4 0.000000 0.000000 0.000000 -0.021738 0.000000 -0.033519
# 5 -0.022120 0.000979 0.001231 0.000000 0.023962 0.000000
# 6 0.000000 0.000000 0.000000 -0.033519 0.000000 0.039994
#
#
# Mechanical properties :
#
#
# Convention : Reuss Voigt Hill
#
# Bulk Modulus (GPa) = -138.80516 2.71925 -68.04296
# Shear Modulus (GPa) = 29.98744 10.03126 20.00935
#
# Velocity S-wave (km/s) = 4.06869 2.35322 3.32355
# Velocity P-wave (km/s) = 7.38605 2.98072 4.77855
#
# Compressibility (1/GPa) = -0.00720434
#
# Stress axis : x y z
#
# Youngs Moduli (GPa) = -263.30876 18.80904 95.32969
#
# Poissons Ratio (x) = 0.33754 0.56329
# Poissons Ratio (y) = -4.72523 0.92248
# Poissons Ratio (z) = -1.55586 0.18201
#
# Static dielectric constant tensor:
#      x y z
#    x 1.638830 0.000000 -0.017150 
#    y 0.000000 1.603090 0.000000 
#    z -0.017150 0.000000 1.701690 
# 
# From -- ./inp_files/81027.got.cif
#   From: 2010.05.17/outbox.cif.g08.bks.cpg/sg13_41_cif.got.tgz:81027.got - 2010.06.03 16:44:36.
