data_PCOD9226803
_publ_section_title
;
Structure prediction by ZEFSAII (Michael W. Deem and Ramdas Pophale) SiO2 
 PCOD9226803
Probable space group: P 2/C
;
_chemical_formula_sum "Si O2"
_cell_formula_units_Z 24
_cell_length_a 24.266436
_cell_length_b 5.689665
_cell_length_c 28.407618
_cell_angle_alpha 90.000000
_cell_angle_beta 15.812257
_cell_angle_gamma 90.000000
_cell_volume 1068.739445
_symmetry_space_group_name_H-M "P 2/C"
_symmetry_group_IT_number 13
_symmetry_cell_setting 'monoclinic'
loop_
_space_group_symop_operation_xyz
x,y,z
-x,y,1/2-z
-x,-y,-z
x,-y,1/2+z
loop_
_atom_site_type_symbol
_atom_site_label
_atom_site_fract_x
_atom_site_fract_y
_atom_site_fract_z
Si Si1 0.804676 0.205758 0.892253
Si Si2 0.683360 0.919761 0.911509
Si Si3 0.256790 0.002470 0.958110
Si Si4 0.633656 0.308913 0.362723
Si Si5 0.283732 0.506906 0.400474
Si Si6 0.571957 0.533521 0.322076
O O1 0.000000 0.347437 0.750000
O O2 0.838429 0.054987 0.817495
O O3 0.765048 0.034990 0.968298
O O4 0.608669 0.357797 0.043963
O O5 0.766819 0.796971 0.795556
O O6 0.550241 0.748960 0.054173
O O7 0.521530 0.109726 0.026418
O O8 0.500000 0.018296 0.750000
O O9 0.197055 0.756539 0.980484
O O10 0.177838 0.261250 0.008702
O O11 0.500000 0.500000 0.500000
O O12 0.706447 0.425474 0.254254
O O13 0.500000 0.492605 0.250000
O O14 0.311420 0.564693 0.322465
#
# Coordination Sequence:
#
# PCOD9226803 Si02
#       6
#     4   4   4   4   4   4
#     4  11  22  33  49  78 114 150 181 221 278 341
#     4   9  17  31  49  72 108 138 177 223 277 328
#     4  10  19  34  50  74 104 144 186 226 271 323
#     4   8  16  29  49  75 104 132 174 230 282 315
#     4  10  18  30  52  71 103 136 180 231 270 322
#     4  10  18  31  50  77 105 139 181 230 275 326
#
# _framework density 22.456363
#
# number of rings (size 3 to 8) (size 9 to 14) (size 15 to 20)
#    0.000    2.333    3.333    2.000    2.333    0.667 
#    0.000    0.000    0.000    0.000    0.000    2.333 
#    0.000    0.000    0.000    0.000    0.000    0.000 
#
# Total GULP energy -133700.936241 kJ/mol
# GULP energy per Si atom -5570.872343 kJ/mol
# Density = 2.240525 g / cm^3
# Si number density = 22.456363 Si / 1000 Ang^3
#
#
#
# Elastic Constant Matrix: (Units=GPa)
#
#
# Indices 1 2 3 4 5 6 
#
# 1 155.9410 42.5896 27.0496 0.0000 29.4823 0.0000
# 2 42.5896 120.5061 8.3742 0.0000 8.9410 0.0000
# 3 27.0496 8.3742 29.4873 0.0000 9.6355 0.0000
# 4 0.0000 0.0000 0.0000 18.8195 0.0000 46.1254
# 5 29.4823 8.9410 9.6355 0.0000 34.3317 0.0000
# 6 0.0000 0.0000 0.0000 46.1254 0.0000 -594.4619
#
#
#
# Elastic Compliance Matrix: (Units=1/GPa)
#
#
# Indices 1 2 3 4 5 6 
#
# 1 0.009145 -0.002410 -0.005883 0.000000 -0.005575 0.000000
# 2 -0.002410 0.009190 -0.000323 0.000000 -0.000233 0.000000
# 3 -0.005883 -0.000323 0.041532 0.000000 -0.006520 0.000000
# 4 0.000000 0.000000 0.000000 0.044646 0.000000 0.003464
# 5 -0.005575 -0.000233 -0.006520 0.000000 0.035806 0.000000
# 6 0.000000 0.000000 0.000000 0.003464 0.000000 -0.001413
#
#
# Mechanical properties :
#
#
# Convention : Reuss Voigt Hill
#
# Bulk Modulus (GPa) = 23.45492 51.32901 37.39197
# Shear Modulus (GPa) = 29.35153 -93.06741 -31.85794
#
# Velocity S-wave (km/s) = 3.61923 -6.44466 -3.77060
# Velocity P-wave (km/s) = 5.28512 5.69836 1.50646
#
# Compressibility (1/GPa) = 0.04263497
#
# Stress axis : x y z
#
# Youngs Moduli (GPa) = 109.34597 108.81706 24.07779
#
# Poissons Ratio (x) = 0.26222 0.14166
# Poissons Ratio (y) = 0.26349 0.00778
# Poissons Ratio (z) = 0.64331 0.03516
#
# Static dielectric constant tensor:
#      x y z
#    x 1.702900 0.000000 0.011960 
#    y 0.000000 1.898240 0.000000 
#    z 0.011960 0.000000 1.912420 
# 
# From -- ./inp_files/81293.got.cif
#   From: 2010.05.17/outbox.cif.g08.bks.cpg/sg13_41_cif.got.tgz:81293.got - 2010.06.03 16:44:36.
