data_PCOD9226617
_publ_section_title
;
Structure prediction by ZEFSAII (Michael W. Deem and Ramdas Pophale) SiO2 
 PCOD9226617
Probable space group: P 2/C
;
_chemical_formula_sum "Si O2"
_cell_formula_units_Z 30
_cell_length_a 7.449010
_cell_length_b 11.264453
_cell_length_c 16.316337
_cell_angle_alpha 90.000000
_cell_angle_beta 83.833459
_cell_angle_gamma 90.000000
_cell_volume 1361.166167
_symmetry_space_group_name_H-M "P 2/C"
_symmetry_group_IT_number 13
_symmetry_cell_setting 'monoclinic'
loop_
_space_group_symop_operation_xyz
x,y,z
-x,y,1/2-z
-x,-y,-z
x,-y,1/2+z
loop_
_atom_site_type_symbol
_atom_site_label
_atom_site_fract_x
_atom_site_fract_y
_atom_site_fract_z
Si Si1 0.828189 0.273241 0.451985
Si Si2 0.629987 0.380340 0.907226
Si Si3 0.024446 0.524390 0.658710
Si Si4 0.185493 0.903870 0.689317
Si Si5 0.740464 0.824815 0.310726
Si Si6 0.557589 0.385589 0.082605
Si Si7 0.500000 0.742071 0.750000
Si Si8 0.875122 0.726919 0.141147
O O1 0.963463 0.374844 0.410487
O O2 0.855330 0.155886 0.396314
O O3 0.630301 0.324908 0.438639
O O4 0.841894 0.251351 0.547469
O O5 0.784625 0.454930 0.853699
O O6 0.598078 0.256309 0.865501
O O7 0.466896 0.472933 0.914034
O O8 0.686236 0.360158 0.999109
O O9 0.000000 0.578813 0.750000
O O10 0.887642 0.415543 0.653522
O O11 0.336084 0.821273 0.724321
O O12 0.000000 0.910489 0.750000
O O13 0.268140 0.035270 0.678971
O O14 0.748148 0.786306 0.215588
O O15 0.929670 0.781899 0.342874
O O16 0.582839 0.335877 0.171880
#
# Coordination Sequence:
#
# PCOD9226617 Si02
#       8
#     4   4   4   4   4   4   2   4
#     4  10  22  35  58  94 125 165 222 277 326 395
#     4   9  18  38  62  86 125 165 206 277 333 392
#     4  10  17  34  60  89 125 163 211 275 335 400
#     4  11  23  45  66  95 135 177 231 275 321 408
#     4  10  20  40  61  89 127 170 223 265 327 400
#     4   9  20  42  59  91 129 162 219 269 339 409
#     4  10  24  46  68  94 134 180 216 282 340 388
#     4  10  18  37  59  88 128 160 211 277 325 386
#
# _framework density 22.039923999999999
#
# number of rings (size 3 to 8) (size 9 to 14) (size 15 to 20)
#    0.000    2.133    4.000    0.800    0.000    2.667 
#   12.000    1.333    0.000    0.000    0.000    0.000 
#    0.000    0.000    0.000    0.000    0.000    0.000 
#
# Total GULP energy -167615.715253 kJ/mol
# GULP energy per Si atom -5587.190508 kJ/mol
# Density = 2.198976 g / cm^3
# Si number density = 22.039924 Si / 1000 Ang^3
#
#
#
# Elastic Constant Matrix: (Units=GPa)
#
#
# Indices 1 2 3 4 5 6 
#
# 1 36.0817 4.6040 23.4960 0.0000 10.8139 0.0000
# 2 4.6040 157.2970 90.3155 0.0000 -3.6095 0.0000
# 3 23.4960 90.3155 205.3063 0.0000 5.4903 0.0000
# 4 0.0000 0.0000 0.0000 9.2708 0.0000 -8.3850
# 5 10.8139 -3.6095 5.4903 0.0000 34.4221 0.0000
# 6 0.0000 0.0000 0.0000 -8.3850 0.0000 8.0704
#
#
#
# Elastic Compliance Matrix: (Units=1/GPa)
#
#
# Indices 1 2 3 4 5 6 
#
# 1 0.033077 0.001119 -0.004020 0.000000 -0.009633 0.000000
# 2 0.001119 0.008621 -0.003952 0.000000 0.001183 0.000000
# 3 -0.004020 -0.003952 0.007077 0.000000 -0.000280 0.000000
# 4 0.000000 0.000000 0.000000 1.789179 0.000000 1.858927
# 5 -0.009633 0.001183 -0.000280 0.000000 0.032246 0.000000
# 6 0.000000 0.000000 0.000000 1.858927 0.000000 2.055302
#
#
# Mechanical properties :
#
#
# Convention : Reuss Voigt Hill
#
# Bulk Modulus (GPa) = 28.51565 70.61291 49.56428
# Shear Modulus (GPa) = 1.26553 29.03728 15.15141
#
# Velocity S-wave (km/s) = 0.75858 3.63366 2.62478
# Velocity P-wave (km/s) = 3.70588 7.05073 5.63233
#
# Compressibility (1/GPa) = 0.03506846
#
# Stress axis : x y z
#
# Youngs Moduli (GPa) = 30.23252 115.99591 141.30459
#
# Poissons Ratio (x) = -0.12981 0.56806
# Poissons Ratio (y) = -0.03383 0.55845
# Poissons Ratio (z) = 0.12154 0.45843
#
# Static dielectric constant tensor:
#      x y z
#    x 1.939400 0.000000 -0.026920 
#    y 0.000000 1.777550 0.000000 
#    z -0.026920 0.000000 1.830190 
# 
# From -- ./inp_files/46933.got.cif
#   From: 2010.05.17/outbox.cif.g08.bks.cpg/sg13_24_cif.got.tgz:46933.got - 2010.06.03 16:44:36.
