data_PCOD9226472
_publ_section_title
;
Structure prediction by ZEFSAII (Michael W. Deem and Ramdas Pophale) SiO2 
 PCOD9226472
Probable space group: P 2/C
;
_chemical_formula_sum "Si O2"
_cell_formula_units_Z 28
_cell_length_a 10.209715
_cell_length_b 27.654561
_cell_length_c 9.961445
_cell_angle_alpha 90.000000
_cell_angle_beta 32.637899
_cell_angle_gamma 90.000000
_cell_volume 1516.895388
_symmetry_space_group_name_H-M "P 2/C"
_symmetry_group_IT_number 13
_symmetry_cell_setting 'monoclinic'
loop_
_space_group_symop_operation_xyz
x,y,z
-x,y,1/2-z
-x,-y,-z
x,-y,1/2+z
loop_
_atom_site_type_symbol
_atom_site_label
_atom_site_fract_x
_atom_site_fract_y
_atom_site_fract_z
Si Si1 0.848320 0.023344 0.253262
Si Si2 0.217513 0.677470 0.948025
Si Si3 0.803212 0.786397 0.607203
Si Si4 0.047855 0.422965 0.551908
Si Si5 0.563031 0.925969 0.544599
Si Si6 0.345679 0.520734 0.255233
Si Si7 0.701918 0.823189 0.387215
O O1 0.671008 0.063417 0.344485
O O2 0.000000 0.041114 0.250000
O O3 0.696577 0.977281 0.437255
O O4 0.000000 0.000000 0.000000
O O5 0.500000 0.672718 0.750000
O O6 0.209855 0.728488 0.879213
O O7 0.165813 0.628060 0.910698
O O8 0.000000 0.682082 0.250000
O O9 0.753434 0.804866 0.496110
O O10 0.082783 0.801497 0.389097
O O11 0.581090 0.808059 0.886320
O O12 0.196211 0.472877 0.423242
O O13 0.000000 0.416006 0.750000
O O14 0.818266 0.436105 0.659240
O O15 0.500000 0.911546 0.750000
O O16 0.718272 0.881103 0.358766
O O17 0.500000 0.535911 0.250000
O O18 0.500000 0.500000 0.000000
#
# Coordination Sequence:
#
# PCOD9226472 Si02
#       7
#     4   4   4   4   4   4   4
#     4  11  24  38  57  81 115 155 193 246 289 354
#     4  11  19  32  51  82 121 151 186 244 301 350
#     4  10  17  30  49  82 117 144 188 236 300 340
#     4  10  22  33  55  84 115 159 194 245 302 346
#     4  11  22  35  56  84 114 152 198 239 295 350
#     4  11  21  38  56  81 115 156 206 244 289 355
#     4  10  19  30  51  81 113 151 184 238 295 345
#
# _framework density 18.458753999999999
#
# number of rings (size 3 to 8) (size 9 to 14) (size 15 to 20)
#    0.000    1.429    7.143    0.429    6.000    0.000 
#    0.000    0.000    0.000    0.000    0.000    2.000 
#    0.000    0.000    0.000    0.000    0.000    0.000 
#
# Total GULP energy -155900.790069 kJ/mol
# GULP energy per Si atom -5567.885360 kJ/mol
# Density = 1.841674 g / cm^3
# Si number density = 18.458754 Si / 1000 Ang^3
#
#
#
# Elastic Constant Matrix: (Units=GPa)
#
#
# Indices 1 2 3 4 5 6 
#
# 1 109.0102 39.9647 21.1240 0.0000 -15.1255 0.0000
# 2 39.9647 119.7802 5.8336 0.0000 -18.5598 0.0000
# 3 21.1240 5.8336 70.9193 0.0000 -25.5429 0.0000
# 4 0.0000 0.0000 0.0000 26.7678 0.0000 -26.7864
# 5 -15.1255 -18.5598 -25.5429 0.0000 25.1296 0.0000
# 6 0.0000 0.0000 0.0000 -26.7864 0.0000 28.8316
#
#
#
# Elastic Compliance Matrix: (Units=1/GPa)
#
#
# Indices 1 2 3 4 5 6 
#
# 1 0.011099 -0.003305 -0.002377 0.000000 0.001823 0.000000
# 2 -0.003305 0.010760 0.003542 0.000000 0.009557 0.000000
# 3 -0.002377 0.003542 0.023574 0.000000 0.025147 0.000000
# 4 0.000000 0.000000 0.000000 0.531467 0.000000 0.493765
# 5 0.001823 0.009557 0.025147 0.000000 0.073510 0.000000
# 6 0.000000 0.000000 0.000000 0.493765 0.000000 0.493423
#
#
# Mechanical properties :
#
#
# Convention : Reuss Voigt Hill
#
# Bulk Modulus (GPa) = 24.30049 48.17271 36.23660
# Shear Modulus (GPa) = 4.30355 31.66495 17.98425
#
# Velocity S-wave (km/s) = 1.52856 4.14628 3.12475
# Velocity P-wave (km/s) = 4.03840 7.00545 5.71774
#
# Compressibility (1/GPa) = 0.04115144
#
# Stress axis : x y z
#
# Youngs Moduli (GPa) = 90.10067 92.93934 42.41877
#
# Poissons Ratio (x) = 0.30715 0.10085
# Poissons Ratio (y) = 0.29777 -0.15023
# Poissons Ratio (z) = 0.21421 -0.32915
#
# Static dielectric constant tensor:
#      x y z
#    x 1.653840 0.000000 -0.055530 
#    y 0.000000 1.736900 0.000000 
#    z -0.055530 0.000000 1.726040 
# 
# From -- ./inp_files/13928.got.cif
#   From: 2010.05.17/outbox.cif.g08.bks.cpg/sg13_7_cif.got.tgz:13928.got - 2010.06.03 16:44:36.
