data_PCOD9226068
_publ_section_title
;
Structure prediction by ZEFSAII (Michael W. Deem and Ramdas Pophale) SiO2 
 PCOD9226068
Probable space group: P 2/C
;
_chemical_formula_sum "Si O2"
_cell_formula_units_Z 20
_cell_length_a 13.037790
_cell_length_b 5.403796
_cell_length_c 15.394453
_cell_angle_alpha 90.000000
_cell_angle_beta 48.076460
_cell_angle_gamma 90.000000
_cell_volume 806.978163
_symmetry_space_group_name_H-M "P 2/C"
_symmetry_group_IT_number 13
_symmetry_cell_setting 'monoclinic'
loop_
_space_group_symop_operation_xyz
x,y,z
-x,y,1/2-z
-x,-y,-z
x,-y,1/2+z
loop_
_atom_site_type_symbol
_atom_site_label
_atom_site_fract_x
_atom_site_fract_y
_atom_site_fract_z
Si Si1 0.353448 0.647124 0.787235
Si Si2 0.209889 0.147618 0.838483
Si Si3 0.360707 0.125041 0.107437
Si Si4 0.862660 0.632807 0.887955
Si Si5 0.945464 0.132198 0.882349
O O1 0.500000 0.676201 0.750000
O O2 0.284212 0.381289 0.839413
O O3 0.385631 0.668858 0.666354
O O4 0.252711 0.884713 0.857940
O O5 0.056429 0.207015 0.892490
O O6 0.276392 0.088744 0.705179
O O7 0.265740 0.251182 0.089375
O O8 0.500000 0.000000 0.000000
O O9 0.838342 0.357217 0.935298
O O10 0.000000 0.603342 0.750000
O O11 0.904100 0.851792 0.930136
O O12 0.000000 0.104095 0.750000
#
# Coordination Sequence:
#
# PCOD9226068 Si02
#       5
#     4   4   4   4   4
#     4  10  20  35  52  76 109 146 185 219 262 319
#     4  10  19  33  53  79 105 136 181 224 265 312
#     4  10  22  35  53  85 117 138 172 226 283 327
#     4  10  17  29  49  74 106 134 172 214 267 314
#     4  10  15  28  48  73 101 128 173 219 257 306
#
# _framework density 24.783816999999999
#
# number of rings (size 3 to 8) (size 9 to 14) (size 15 to 20)
#    1.200    0.800    4.000    4.200    0.000    0.800 
#    0.000    0.000    0.000    0.000    0.000   15.400 
#    0.000    0.000    0.000    0.000    0.000    0.000 
#
# Total GULP energy -111654.809803 kJ/mol
# GULP energy per Si atom -5582.740490 kJ/mol
# Density = 2.472741 g / cm^3
# Si number density = 24.783817 Si / 1000 Ang^3
#
#
#
# Elastic Constant Matrix: (Units=GPa)
#
#
# Indices 1 2 3 4 5 6 
#
# 1 97.2496 14.8017 9.8369 0.0000 -29.7974 0.0000
# 2 14.8017 180.0945 23.3782 0.0000 4.4596 0.0000
# 3 9.8369 23.3782 62.1012 0.0000 -6.7902 0.0000
# 4 0.0000 0.0000 0.0000 67.1393 0.0000 -7.1463
# 5 -29.7974 4.4596 -6.7902 0.0000 33.7985 0.0000
# 6 0.0000 0.0000 0.0000 -7.1463 0.0000 40.9848
#
#
#
# Elastic Compliance Matrix: (Units=1/GPa)
#
#
# Indices 1 2 3 4 5 6 
#
# 1 0.014494 -0.001468 -0.000332 0.000000 0.012905 0.000000
# 2 -0.001468 0.006038 -0.002320 0.000000 -0.002557 0.000000
# 3 -0.000332 -0.002320 0.017413 0.000000 0.003511 0.000000
# 4 0.000000 0.000000 0.000000 0.015176 0.000000 0.002646
# 5 0.012905 -0.002557 0.003511 0.000000 0.042007 0.000000
# 6 0.000000 0.000000 0.000000 0.002646 0.000000 0.024861
#
#
# Mechanical properties :
#
#
# Convention : Reuss Voigt Hill
#
# Bulk Modulus (GPa) = 33.66501 48.38655 41.02578
# Shear Modulus (GPa) = 36.19784 47.81308 42.00546
#
# Velocity S-wave (km/s) = 3.82585 4.39704 4.12135
# Velocity P-wave (km/s) = 5.75579 6.73383 6.26393
#
# Compressibility (1/GPa) = 0.02970443
#
# Stress axis : x y z
#
# Youngs Moduli (GPa) = 68.99434 165.62496 57.42941
#
# Poissons Ratio (x) = 0.24308 0.01908
# Poissons Ratio (y) = 0.10126 0.13324
# Poissons Ratio (z) = 0.02293 0.38425
#
# Static dielectric constant tensor:
#      x y z
#    x 2.064710 0.000000 0.136990 
#    y 0.000000 1.953390 0.000000 
#    z 0.136990 0.000000 1.556730 
# 
# From -- ./inp_files/65067.got.cif
#   From: 2010.05.17/outbox.cif.g08.bks.cpg/sg13_33_cif.got.tgz:65067.got - 2010.06.03 16:44:36.
