data_PCOD9226634
_publ_section_title
;
Structure prediction by ZEFSAII (Michael W. Deem and Ramdas Pophale) SiO2 
 PCOD9226634
Probable space group: P 2/C
;
_chemical_formula_sum "Si O2"
_cell_formula_units_Z 24
_cell_length_a 12.202163
_cell_length_b 8.147823
_cell_length_c 19.175888
_cell_angle_alpha 90.000000
_cell_angle_beta 35.025526
_cell_angle_gamma 90.000000
_cell_volume 1094.211781
_symmetry_space_group_name_H-M "P 2/C"
_symmetry_group_IT_number 13
_symmetry_cell_setting 'monoclinic'
loop_
_space_group_symop_operation_xyz
x,y,z
-x,y,1/2-z
-x,-y,-z
x,-y,1/2+z
loop_
_atom_site_type_symbol
_atom_site_label
_atom_site_fract_x
_atom_site_fract_y
_atom_site_fract_z
Si Si1 0.847366 0.499924 0.986272
Si Si2 0.334013 0.848256 0.626301
Si Si3 0.725913 0.419839 0.695007
Si Si4 0.312010 0.804793 0.158531
Si Si5 0.460290 0.257223 0.344669
Si Si6 0.270173 0.519771 0.609508
O O1 0.788776 0.547047 0.939034
O O2 0.069801 0.486695 0.885358
O O3 0.754144 0.606591 0.097529
O O4 0.757073 0.316892 0.040485
O O5 0.477820 0.837378 0.485049
O O6 0.468488 0.834662 0.624506
O O7 0.214575 0.681023 0.681582
O O8 0.220636 0.016845 0.694534
O O9 0.674538 0.265490 0.770216
O O10 0.578787 0.569916 0.782654
O O11 0.208580 0.656952 0.170893
O O12 0.500000 0.173611 0.250000
O O13 0.500000 0.500000 0.500000
#
# Coordination Sequence:
#
# PCOD9226634 Si02
#       6
#     4   4   4   4   4   4
#     4  10  20  36  63  86 122 160 209 252 305 372
#     4  10  19  35  57  87 118 150 199 249 293 367
#     4  10  21  36  62  91 114 166 207 249 309 367
#     4  10  19  34  59  84 119 152 198 246 302 361
#     4  10  18  36  60  83 119 160 199 250 309 361
#     4  10  17  35  59  84 116 156 190 250 302 352
#
# _framework density 21.933596000000001
#
# number of rings (size 3 to 8) (size 9 to 14) (size 15 to 20)
#    0.000    2.000    5.000    1.000    0.000    0.667 
#    0.000    7.500    7.333    5.000    0.000    0.000 
#    0.000    0.000    0.000    0.000    0.000    0.000 
#
# Total GULP energy -133821.442152 kJ/mol
# GULP energy per Si atom -5575.893423 kJ/mol
# Density = 2.188367 g / cm^3
# Si number density = 21.933596 Si / 1000 Ang^3
#
#
#
# Elastic Constant Matrix: (Units=GPa)
#
#
# Indices 1 2 3 4 5 6 
#
# 1 152.8501 38.3569 38.0056 0.0000 30.8441 0.0000
# 2 38.3569 152.5372 21.8041 0.0000 26.1288 0.0000
# 3 38.0056 21.8041 58.4760 0.0000 10.9034 0.0000
# 4 0.0000 0.0000 0.0000 13.7586 0.0000 11.7726
# 5 30.8441 26.1288 10.9034 0.0000 51.6391 0.0000
# 6 0.0000 0.0000 0.0000 11.7726 0.0000 20.5129
#
#
#
# Elastic Compliance Matrix: (Units=1/GPa)
#
#
# Indices 1 2 3 4 5 6 
#
# 1 0.008666 -0.000877 -0.004604 0.000000 -0.003760 0.000000
# 2 -0.000877 0.007518 -0.001688 0.000000 -0.002924 0.000000
# 3 -0.004604 -0.001688 0.020873 0.000000 -0.000803 0.000000
# 4 0.000000 0.000000 0.000000 0.142813 0.000000 -0.081962
# 5 -0.003760 -0.002924 -0.000803 0.000000 0.023260 0.000000
# 6 0.000000 0.000000 0.000000 -0.081962 0.000000 0.095789
#
#
# Mechanical properties :
#
#
# Convention : Reuss Voigt Hill
#
# Bulk Modulus (GPa) = 44.01725 62.24405 53.13065
# Shear Modulus (GPa) = 15.58455 34.89524 25.23989
#
# Velocity S-wave (km/s) = 2.66847 3.99300 3.39594
# Velocity P-wave (km/s) = 5.44117 7.04973 6.29702
#
# Compressibility (1/GPa) = 0.02271836
#
# Stress axis : x y z
#
# Youngs Moduli (GPa) = 115.39282 133.00559 47.90951
#
# Poissons Ratio (x) = 0.11663 0.22059
# Poissons Ratio (y) = 0.10119 0.08089
# Poissons Ratio (z) = 0.53130 0.22455
#
# Static dielectric constant tensor:
#      x y z
#    x 1.818550 0.000000 0.029920 
#    y 0.000000 1.892450 0.000000 
#    z 0.029920 0.000000 1.892810 
# 
# From -- ./inp_files/77947.got.cif
#   From: 2010.05.17/outbox.cif.g08.bks.cpg/sg13_39_cif.got.tgz:77947.got - 2010.06.03 16:44:36.
