data_PCOD9226953
_publ_section_title
;
Structure prediction by ZEFSAII (Michael W. Deem and Ramdas Pophale) SiO2 
 PCOD9226953
Probable space group: P 2/C
;
_chemical_formula_sum "Si O2"
_cell_formula_units_Z 24
_cell_length_a 8.075437
_cell_length_b 13.219989
_cell_length_c 10.787499
_cell_angle_alpha 90.000000
_cell_angle_beta 116.598457
_cell_angle_gamma 90.000000
_cell_volume 1029.760410
_symmetry_space_group_name_H-M "P 2/C"
_symmetry_group_IT_number 13
_symmetry_cell_setting 'monoclinic'
loop_
_space_group_symop_operation_xyz
x,y,z
-x,y,1/2-z
-x,-y,-z
x,-y,1/2+z
loop_
_atom_site_type_symbol
_atom_site_label
_atom_site_fract_x
_atom_site_fract_y
_atom_site_fract_z
Si Si1 0.000000 0.126157 0.250000
Si Si2 0.278555 0.195447 0.549088
Si Si3 0.720503 0.032254 0.728218
Si Si4 0.308330 0.535205 0.807519
Si Si5 0.409783 0.122271 0.032831
Si Si6 0.500000 0.720157 0.750000
Si Si7 0.710009 0.429075 0.932556
O O1 0.121811 0.184696 0.391167
O O2 0.131892 0.056003 0.210021
O O3 0.270091 0.114836 0.659574
O O4 0.463827 0.171833 0.532635
O O5 0.280177 0.310814 0.593008
O O6 0.758476 0.080635 0.604162
O O7 0.529221 0.968819 0.634675
O O8 0.381858 0.646842 0.797426
O O9 0.493162 0.463795 0.875513
O O10 0.208239 0.492491 0.653223
O O11 0.211295 0.542634 0.906412
O O12 0.376656 0.206783 0.123883
#
# Coordination Sequence:
#
# PCOD9226953 Si02
#       7
#     2   4   4   4   4   2   4
#     4  10  24  42  52  82 120 164 200 244 288 342
#     4  11  21  38  61  82 117 159 204 234 299 356
#     4  10  23  37  57  83 119 155 197 244 287 350
#     4   9  19  32  52  87 124 142 182 243 314 347
#     4  10  22  33  56  91 117 149 192 245 296 346
#     4  10  18  32  50  84 126 146 174 238 304 350
#     4   9  18  32  55  84 117 153 184 240 301 361
#
# _framework density 23.306391000000001
#
# number of rings (size 3 to 8) (size 9 to 14) (size 15 to 20)
#    0.000    2.333    1.667    1.000   11.667    0.000 
#    0.000    0.000    0.000    1.000    0.000    4.667 
#    0.000    0.000    0.000    0.000    0.000    0.000 
#
# Total GULP energy -133983.957576 kJ/mol
# GULP energy per Si atom -5582.664899 kJ/mol
# Density = 2.325334 g / cm^3
# Si number density = 23.306391 Si / 1000 Ang^3
#
#
#
# Elastic Constant Matrix: (Units=GPa)
#
#
# Indices 1 2 3 4 5 6 
#
# 1 38.3215 23.4638 29.0872 0.0000 -10.7075 0.0000
# 2 23.4638 152.3048 53.2598 0.0000 -17.4941 0.0000
# 3 29.0872 53.2598 140.4471 0.0000 -32.5227 0.0000
# 4 0.0000 0.0000 0.0000 41.4858 0.0000 -13.3677
# 5 -10.7075 -17.4941 -32.5227 0.0000 37.3630 0.0000
# 6 0.0000 0.0000 0.0000 -13.3677 0.0000 3.4591
#
#
#
# Elastic Compliance Matrix: (Units=1/GPa)
#
#
# Indices 1 2 3 4 5 6 
#
# 1 0.032555 -0.002914 -0.004750 0.000000 0.003830 0.000000
# 2 -0.002914 0.007882 -0.002159 0.000000 0.000976 0.000000
# 3 -0.004750 -0.002159 0.010487 0.000000 0.006756 0.000000
# 4 0.000000 0.000000 0.000000 -0.098296 0.000000 -0.379863
# 5 0.003830 0.000976 0.006756 0.000000 0.034200 0.000000
# 6 0.000000 0.000000 0.000000 -0.379863 0.000000 -1.178880
#
#
# Mechanical properties :
#
#
# Convention : Reuss Voigt Hill
#
# Bulk Modulus (GPa) = 31.97289 60.29945 46.13617
# Shear Modulus (GPa) = -4.30301 31.47910 13.58805
#
# Velocity S-wave (km/s) = -1.36025 3.67912 2.41720
# Velocity P-wave (km/s) = 3.35876 6.63149 5.25632
#
# Compressibility (1/GPa) = 0.03127650
#
# Stress axis : x y z
#
# Youngs Moduli (GPa) = 30.71704 126.87184 95.35311
#
# Poissons Ratio (x) = 0.36975 0.45295
# Poissons Ratio (y) = 0.08952 0.20591
# Poissons Ratio (z) = 0.14591 0.27398
#
# Static dielectric constant tensor:
#      x y z
#    x 1.970760 0.000000 0.008090 
#    y 0.000000 1.873420 0.000000 
#    z 0.008090 0.000000 1.980620 
# 
# From -- ./inp_files/33398.got.cif
#   From: 2010.05.17/outbox.cif.g08.bks.cpg/sg13_17_cif.got.tgz:33398.got - 2010.06.03 16:44:36.
